MODEL        1
REMARK 921   NORMALIZED FREE ENERGY PREDICTED BY IDOCK:   -6.53 KCAL/MOL
REMARK 922        TOTAL FREE ENERGY PREDICTED BY IDOCK:   -9.15 KCAL/MOL
REMARK 923 INTER-LIGAND FREE ENERGY PREDICTED BY IDOCK:   -8.06 KCAL/MOL
REMARK 924 INTRA-LIGAND FREE ENERGY PREDICTED BY IDOCK:   -1.09 KCAL/MOL
REMARK 927      BINDING AFFINITY PREDICTED BY RF-SCORE:    0.00 PKD
ROOT
HETATM    1  C   UNL     1     -10.832  14.696  68.028  1.00  0.00    -0.257 C  
HETATM    2  C   UNL     1     -11.641  13.869  69.055  1.00  0.00    -0.351 C  
HETATM    3  C   UNL     1     -11.440  12.430  68.716  1.00  0.00    -0.350 A  
HETATM    4  C   UNL     1     -12.270  11.342  68.606  1.00  0.00     0.032 A  
HETATM    5  N   UNL     1     -11.476  10.251  68.319  1.00  0.00    -0.604 NA 
HETATM    6  H   UNL     1     -11.817   9.295  68.212  1.00  0.00     0.000 HD 
HETATM    7  C   UNL     1     -10.157  10.634  68.196  1.00  0.00    -0.158 A  
HETATM    8  C   UNL     1      -8.977   9.926  67.969  1.00  0.00    -0.121 A  
HETATM    9  C   UNL     1      -7.808  10.691  67.796  1.00  0.00    -0.108 A  
HETATM   10  C   UNL     1      -7.840  12.097  67.729  1.00  0.00    -0.148 A  
HETATM   11  C   UNL     1      -9.043  12.782  67.928  1.00  0.00    -0.204 A  
HETATM   12  C   UNL     1      -9.423  14.175  67.598  1.00  0.00    -0.213 C  
HETATM   13  C   UNL     1     -10.160  12.012  68.287  1.00  0.00    -0.201 A  
HETATM   14  C   UNL     1      -8.825  14.863  66.602  1.00  0.00    -0.287 C  
HETATM   15  C   UNL     1      -9.677  15.912  65.881  1.00  0.00    -0.386 C  
HETATM   16  C   UNL     1      -9.963  16.634  69.277  1.00  0.00    -0.222 C  
HETATM   17  C   UNL     1     -10.515  16.780  66.879  1.00  0.00    -0.269 C  
HETATM   18  N   UNL     1     -10.835  16.168  68.198  1.00  0.00    -0.316 NA 
ENDROOT
BRANCH  15  19
HETATM   19  C   UNL     1     -10.608  15.124  64.899  1.00  0.00    -0.365 C  
HETATM   20  O   UNL     1     -11.708  15.538  64.524  1.00  0.00    -0.382 OA 
HETATM   21  N   UNL     1     -10.125  13.886  64.524  1.00  0.00    -0.656 N  
HETATM   22  H   UNL     1      -9.127  13.710  64.636  1.00  0.00     0.000 HD 
BRANCH  21  23
HETATM   23  CA  UNL     1     -10.954  12.810  63.975  1.00  0.00    -0.415 C  
BRANCH  23  24
HETATM   24  C   UNL     1     -11.951  12.355  65.072  1.00  0.00    -0.402 C  
HETATM   25  H   UNL     1     -13.914  12.195  65.290  1.00  0.00     0.000 HD 
HETATM   26  O   UNL     1     -13.303  12.473  64.618  1.00  0.00    -0.804 OA 
ENDBRANCH  23  24
BRANCH  23  27
HETATM   27  C   UNL     1     -10.111  11.614  63.504  1.00  0.00    -0.455 C  
HETATM   28  C   UNL     1     -10.024  10.478  64.511  1.00  0.00    -0.413 C  
ENDBRANCH  23  27
ENDBRANCH  21  23
ENDBRANCH  15  19
TORSDOF 4
ENDMDL
MODEL        2
REMARK 921   NORMALIZED FREE ENERGY PREDICTED BY IDOCK:   -6.47 KCAL/MOL
REMARK 922        TOTAL FREE ENERGY PREDICTED BY IDOCK:   -9.08 KCAL/MOL
REMARK 923 INTER-LIGAND FREE ENERGY PREDICTED BY IDOCK:   -8.41 KCAL/MOL
REMARK 924 INTRA-LIGAND FREE ENERGY PREDICTED BY IDOCK:   -0.67 KCAL/MOL
REMARK 927      BINDING AFFINITY PREDICTED BY RF-SCORE:    0.00 PKD
ROOT
HETATM    1  C   UNL     1     -10.169  11.392  66.051  1.00  0.00    -0.245 C  
HETATM    2  C   UNL     1     -10.681  11.600  64.606  1.00  0.00    -0.371 C  
HETATM    3  C   UNL     1     -11.200  12.996  64.520  1.00  0.00    -0.372 A  
HETATM    4  C   UNL     1     -12.329  13.572  63.995  1.00  0.00    -0.330 A  
HETATM    5  N   UNL     1     -12.213  14.935  64.173  1.00  0.00    -0.878 NA 
HETATM    6  H   UNL     1     -12.893  15.625  63.851  1.00  0.00     0.000 HD 
HETATM    7  C   UNL     1     -11.048  15.235  64.849  1.00  0.00    -0.424 A  
HETATM    8  C   UNL     1     -10.448  16.436  65.226  1.00  0.00    -0.285 A  
HETATM    9  C   UNL     1      -9.286  16.338  66.016  1.00  0.00    -0.361 A  
HETATM   10  C   UNL     1      -8.822  15.103  66.508  1.00  0.00    -0.312 A  
HETATM   11  C   UNL     1      -9.462  13.915  66.140  1.00  0.00    -0.194 A  
HETATM   12  C   UNL     1      -9.402  12.564  66.744  1.00  0.00    -0.230 C  
HETATM   13  C   UNL     1     -10.500  14.017  65.202  1.00  0.00    -0.415 A  
HETATM   14  C   UNL     1      -9.101  12.374  68.047  1.00  0.00    -0.195 C  
HETATM   15  C   UNL     1      -9.727  11.155  68.729  1.00  0.00    -0.194 C  
HETATM   16  C   UNL     1      -8.189   9.941  65.848  1.00  0.00    -0.124 C  
HETATM   17  C   UNL     1      -9.648   9.872  67.835  1.00  0.00    -0.138 C  
HETATM   18  N   UNL     1      -9.551  10.082  66.364  1.00  0.00    -0.185 NA 
ENDROOT
BRANCH  15  19
HETATM   19  C   UNL     1     -11.214  11.537  69.037  1.00  0.00    -0.262 C  
HETATM   20  O   UNL     1     -12.177  11.086  68.412  1.00  0.00    -0.586 OA 
HETATM   21  N   UNL     1     -11.367  12.476  70.037  1.00  0.00    -0.505 N  
HETATM   22  H   UNL     1     -10.592  12.611  70.686  1.00  0.00     0.000 HD 
BRANCH  21  23
HETATM   23  CA  UNL     1     -12.571  13.291  70.226  1.00  0.00    -0.090 C  
BRANCH  23  24
HETATM   24  C   UNL     1     -12.198  14.775  69.974  1.00  0.00    -0.333 C  
HETATM   25  H   UNL     1     -11.494  15.874  68.483  1.00  0.00     0.000 HD 
HETATM   26  O   UNL     1     -11.722  14.965  68.638  1.00  0.00    -0.318 OA 
ENDBRANCH  23  24
BRANCH  23  27
HETATM   27  C   UNL     1     -13.161  13.130  71.636  1.00  0.00    -0.444 C  
HETATM   28  C   UNL     1     -14.221  14.161  71.989  1.00  0.00    -0.617 C  
ENDBRANCH  23  27
ENDBRANCH  21  23
ENDBRANCH  15  19
TORSDOF 4
ENDMDL
MODEL        3
REMARK 921   NORMALIZED FREE ENERGY PREDICTED BY IDOCK:   -6.32 KCAL/MOL
REMARK 922        TOTAL FREE ENERGY PREDICTED BY IDOCK:   -8.88 KCAL/MOL
REMARK 923 INTER-LIGAND FREE ENERGY PREDICTED BY IDOCK:   -8.85 KCAL/MOL
REMARK 924 INTRA-LIGAND FREE ENERGY PREDICTED BY IDOCK:   -0.03 KCAL/MOL
REMARK 927      BINDING AFFINITY PREDICTED BY RF-SCORE:    0.00 PKD
ROOT
HETATM    1  C   UNL     1     -10.416  16.248  66.911  1.00  0.00    -0.302 C  
HETATM    2  C   UNL     1     -10.632  17.311  65.808  1.00  0.00    -0.198 C  
HETATM    3  C   UNL     1     -10.123  18.608  66.343  1.00  0.00    -0.435 A  
HETATM    4  C   UNL     1     -10.598  19.896  66.356  1.00  0.00    -0.420 A  
HETATM    5  N   UNL     1      -9.633  20.680  66.955  1.00  0.00    -0.654 NA 
HETATM    6  H   UNL     1      -9.697  21.691  67.075  1.00  0.00     0.000 HD 
HETATM    7  C   UNL     1      -8.570  19.904  67.368  1.00  0.00    -0.335 A  
HETATM    8  C   UNL     1      -7.347  20.205  67.967  1.00  0.00    -0.309 A  
HETATM    9  C   UNL     1      -6.547  19.112  68.348  1.00  0.00    -0.279 A  
HETATM   10  C   UNL     1      -7.004  17.784  68.250  1.00  0.00    -0.223 A  
HETATM   11  C   UNL     1      -8.249  17.510  67.675  1.00  0.00    -0.218 A  
HETATM   12  C   UNL     1      -9.094  16.295  67.742  1.00  0.00    -0.195 C  
HETATM   13  C   UNL     1      -8.949  18.597  67.129  1.00  0.00    -0.288 A  
HETATM   14  C   UNL     1      -9.023  15.430  68.776  1.00  0.00    -0.196 C  
HETATM   15  C   UNL     1     -10.308  14.678  69.135  1.00  0.00    -0.222 C  
HETATM   16  C   UNL     1      -9.837  14.170  65.721  1.00  0.00    -0.271 C  
HETATM   17  C   UNL     1     -11.050  14.138  67.866  1.00  0.00    -0.268 C  
HETATM   18  N   UNL     1     -10.799  14.854  66.585  1.00  0.00    -0.314 NA 
ENDROOT
BRANCH  15  19
HETATM   19  C   UNL     1     -11.204  15.690  69.926  1.00  0.00    -0.331 C  
HETATM   20  O   UNL     1     -10.968  16.898  69.998  1.00  0.00    -0.189 OA 
HETATM   21  N   UNL     1     -12.262  15.110  70.597  1.00  0.00    -0.322 N  
HETATM   22  H   UNL     1     -12.566  14.184  70.299  1.00  0.00     0.000 HD 
BRANCH  21  23
HETATM   23  CA  UNL     1     -12.977  15.741  71.711  1.00  0.00    -0.435 C  
BRANCH  23  24
HETATM   24  C   UNL     1     -12.018  15.813  72.926  1.00  0.00    -0.493 C  
HETATM   25  H   UNL     1     -12.123  16.288  74.847  1.00  0.00     0.000 HD 
HETATM   26  O   UNL     1     -12.710  16.244  74.102  1.00  0.00    -0.679 OA 
ENDBRANCH  23  24
BRANCH  23  27
HETATM   27  C   UNL     1     -14.250  14.968  72.091  1.00  0.00    -0.636 C  
HETATM   28  C   UNL     1     -14.019  13.494  72.387  1.00  0.00    -0.638 C  
ENDBRANCH  23  27
ENDBRANCH  21  23
ENDBRANCH  15  19
TORSDOF 4
ENDMDL
MODEL        4
REMARK 921   NORMALIZED FREE ENERGY PREDICTED BY IDOCK:   -6.30 KCAL/MOL
REMARK 922        TOTAL FREE ENERGY PREDICTED BY IDOCK:   -8.86 KCAL/MOL
REMARK 923 INTER-LIGAND FREE ENERGY PREDICTED BY IDOCK:   -8.61 KCAL/MOL
REMARK 924 INTRA-LIGAND FREE ENERGY PREDICTED BY IDOCK:   -0.25 KCAL/MOL
REMARK 927      BINDING AFFINITY PREDICTED BY RF-SCORE:    0.00 PKD
ROOT
HETATM    1  C   UNL     1      -9.910  11.295  65.836  1.00  0.00    -0.232 C  
HETATM    2  C   UNL     1     -10.469  11.458  64.402  1.00  0.00    -0.388 C  
HETATM    3  C   UNL     1     -11.198  12.758  64.360  1.00  0.00    -0.390 A  
HETATM    4  C   UNL     1     -12.410  13.166  63.862  1.00  0.00    -0.365 A  
HETATM    5  N   UNL     1     -12.504  14.526  64.077  1.00  0.00    -0.959 NA 
HETATM    6  H   UNL     1     -13.286  15.109  63.781  1.00  0.00     0.000 HD 
HETATM    7  C   UNL     1     -11.390  14.985  64.749  1.00  0.00    -0.406 A  
HETATM    8  C   UNL     1     -10.977  16.254  65.153  1.00  0.00    -0.285 A  
HETATM    9  C   UNL     1      -9.803  16.317  65.928  1.00  0.00    -0.365 A  
HETATM   10  C   UNL     1      -9.146  15.156  66.381  1.00  0.00    -0.331 A  
HETATM   11  C   UNL     1      -9.600  13.894  65.987  1.00  0.00    -0.210 A  
HETATM   12  C   UNL     1      -9.323  12.553  66.553  1.00  0.00    -0.233 C  
HETATM   13  C   UNL     1     -10.655  13.858  65.063  1.00  0.00    -0.418 A  
HETATM   14  C   UNL     1      -8.977  12.379  67.846  1.00  0.00    -0.184 C  
HETATM   15  C   UNL     1      -9.398  11.060  68.501  1.00  0.00    -0.188 C  
HETATM   16  C   UNL     1      -7.732  10.173  65.572  1.00  0.00    -0.145 C  
HETATM   17  C   UNL     1      -9.133   9.828  67.571  1.00  0.00    -0.130 C  
HETATM   18  N   UNL     1      -9.092  10.089  66.105  1.00  0.00    -0.152 NA 
ENDROOT
BRANCH  15  19
HETATM   19  C   UNL     1     -10.922  11.199  68.834  1.00  0.00    -0.225 C  
HETATM   20  O   UNL     1     -11.821  10.905  68.044  1.00  0.00    -0.585 OA 
HETATM   21  N   UNL     1     -11.187  11.738  70.077  1.00  0.00    -0.488 N  
HETATM   22  H   UNL     1     -10.445  11.712  70.776  1.00  0.00     0.000 HD 
BRANCH  21  23
HETATM   23  CA  UNL     1     -12.466  12.346  70.456  1.00  0.00    -0.187 C  
BRANCH  23  24
HETATM   24  C   UNL     1     -12.220  13.846  70.763  1.00  0.00    -0.369 C  
HETATM   25  H   UNL     1     -13.303  15.446  71.202  1.00  0.00     0.000 HD 
HETATM   26  O   UNL     1     -13.453  14.527  71.014  1.00  0.00    -0.371 OA 
ENDBRANCH  23  24
BRANCH  23  27
HETATM   27  C   UNL     1     -13.093  11.656  71.678  1.00  0.00    -0.456 C  
HETATM   28  C   UNL     1     -12.894  10.148  71.711  1.00  0.00    -0.554 C  
ENDBRANCH  23  27
ENDBRANCH  21  23
ENDBRANCH  15  19
TORSDOF 4
ENDMDL
MODEL        5
REMARK 921   NORMALIZED FREE ENERGY PREDICTED BY IDOCK:   -6.04 KCAL/MOL
REMARK 922        TOTAL FREE ENERGY PREDICTED BY IDOCK:   -8.55 KCAL/MOL
REMARK 923 INTER-LIGAND FREE ENERGY PREDICTED BY IDOCK:   -7.99 KCAL/MOL
REMARK 924 INTRA-LIGAND FREE ENERGY PREDICTED BY IDOCK:   -0.56 KCAL/MOL
REMARK 927      BINDING AFFINITY PREDICTED BY RF-SCORE:    0.00 PKD
ROOT
HETATM    1  C   UNL     1     -11.322  14.381  67.364  1.00  0.00    -0.337 C  
HETATM    2  C   UNL     1     -12.530  14.048  66.457  1.00  0.00    -0.351 C  
HETATM    3  C   UNL     1     -11.983  13.544  65.164  1.00  0.00    -0.391 A  
HETATM    4  C   UNL     1     -12.263  13.784  63.842  1.00  0.00    -0.351 A  
HETATM    5  N   UNL     1     -11.447  12.958  63.096  1.00  0.00    -0.771 NA 
HETATM    6  H   UNL     1     -11.457  12.896  62.077  1.00  0.00     0.000 HD 
HETATM    7  C   UNL     1     -10.615  12.230  63.920  1.00  0.00    -0.427 A  
HETATM    8  C   UNL     1      -9.662  11.241  63.679  1.00  0.00    -0.351 A  
HETATM    9  C   UNL     1      -8.921  10.796  64.790  1.00  0.00    -0.194 A  
HETATM   10  C   UNL     1      -9.040  11.402  66.056  1.00  0.00    -0.218 A  
HETATM   11  C   UNL     1      -9.982  12.415  66.264  1.00  0.00    -0.259 A  
HETATM   12  C   UNL     1     -10.092  13.417  67.349  1.00  0.00    -0.237 C  
HETATM   13  C   UNL     1     -10.841  12.712  65.195  1.00  0.00    -0.321 A  
HETATM   14  C   UNL     1      -9.018  13.830  68.055  1.00  0.00    -0.187 C  
HETATM   15  C   UNL     1      -9.055  15.264  68.590  1.00  0.00    -0.193 C  
HETATM   16  C   UNL     1     -12.026  13.783  69.648  1.00  0.00    -0.342 C  
HETATM   17  C   UNL     1     -10.443  15.624  69.221  1.00  0.00    -0.247 C  
HETATM   18  N   UNL     1     -11.621  14.853  68.736  1.00  0.00    -0.308 NA 
ENDROOT
BRANCH  15  19
HETATM   19  C   UNL     1      -8.728  16.197  67.376  1.00  0.00    -0.180 C  
HETATM   20  O   UNL     1      -8.153  15.811  66.355  1.00  0.00    -0.245 OA 
HETATM   21  N   UNL     1      -9.084  17.518  67.559  1.00  0.00    -0.233 N  
HETATM   22  H   UNL     1      -9.776  17.730  68.278  1.00  0.00     0.000 HD 
BRANCH  21  23
HETATM   23  CA  UNL     1      -8.532  18.636  66.789  1.00  0.00    -0.286 C  
BRANCH  23  24
HETATM   24  C   UNL     1      -7.350  19.241  67.589  1.00  0.00    -0.236 C  
HETATM   25  H   UNL     1      -6.714  19.269  69.465  1.00  0.00     0.000 HD 
HETATM   26  O   UNL     1      -7.438  18.898  68.975  1.00  0.00    -0.320 OA 
ENDBRANCH  23  24
BRANCH  23  27
HETATM   27  C   UNL     1      -9.585  19.719  66.506  1.00  0.00    -0.509 C  
HETATM   28  C   UNL     1     -10.744  19.732  67.491  1.00  0.00    -0.494 C  
ENDBRANCH  23  27
ENDBRANCH  21  23
ENDBRANCH  15  19
TORSDOF 4
ENDMDL
MODEL        6
REMARK 921   NORMALIZED FREE ENERGY PREDICTED BY IDOCK:   -5.87 KCAL/MOL
REMARK 922        TOTAL FREE ENERGY PREDICTED BY IDOCK:   -8.33 KCAL/MOL
REMARK 923 INTER-LIGAND FREE ENERGY PREDICTED BY IDOCK:   -8.29 KCAL/MOL
REMARK 924 INTRA-LIGAND FREE ENERGY PREDICTED BY IDOCK:   -0.04 KCAL/MOL
REMARK 927      BINDING AFFINITY PREDICTED BY RF-SCORE:    0.00 PKD
ROOT
HETATM    1  C   UNL     1      -9.124  14.836  67.618  1.00  0.00    -0.185 C  
HETATM    2  C   UNL     1      -8.391  13.518  67.272  1.00  0.00    -0.188 C  
HETATM    3  C   UNL     1      -9.405  12.593  66.687  1.00  0.00    -0.236 A  
HETATM    4  C   UNL     1      -9.715  11.268  66.866  1.00  0.00    -0.192 A  
HETATM    5  N   UNL     1     -10.729  10.963  65.981  1.00  0.00    -0.189 NA 
HETATM    6  H   UNL     1     -11.142  10.037  65.866  1.00  0.00     0.000 HD 
HETATM    7  C   UNL     1     -11.104  12.086  65.273  1.00  0.00    -0.317 A  
HETATM    8  C   UNL     1     -12.024  12.302  64.248  1.00  0.00    -0.489 A  
HETATM    9  C   UNL     1     -12.212  13.637  63.841  1.00  0.00    -0.429 A  
HETATM   10  C   UNL     1     -11.603  14.713  64.514  1.00  0.00    -0.377 A  
HETATM   11  C   UNL     1     -10.709  14.470  65.562  1.00  0.00    -0.350 A  
HETATM   12  C   UNL     1     -10.201  15.373  66.621  1.00  0.00    -0.281 C  
HETATM   13  C   UNL     1     -10.389  13.130  65.827  1.00  0.00    -0.294 A  
HETATM   14  C   UNL     1     -10.900  16.449  67.041  1.00  0.00    -0.145 C  
HETATM   15  C   UNL     1     -10.709  16.868  68.501  1.00  0.00    -0.359 C  
HETATM   16  C   UNL     1      -7.503  16.634  67.158  1.00  0.00    -0.183 C  
HETATM   17  C   UNL     1      -9.203  16.845  68.931  1.00  0.00    -0.229 C  
HETATM   18  N   UNL     1      -8.301  15.938  68.169  1.00  0.00    -0.159 NA 
ENDROOT
BRANCH  15  19
HETATM   19  C   UNL     1     -11.557  15.871  69.361  1.00  0.00    -0.349 C  
HETATM   20  O   UNL     1     -12.265  14.986  68.877  1.00  0.00    -0.216 OA 
HETATM   21  N   UNL     1     -11.497  16.097  70.722  1.00  0.00    -0.474 N  
HETATM   22  H   UNL     1     -10.715  16.645  71.080  1.00  0.00     0.000 HD 
BRANCH  21  23
HETATM   23  CA  UNL     1     -12.485  15.601  71.684  1.00  0.00    -0.438 C  
BRANCH  23  24
HETATM   24  C   UNL     1     -12.188  16.247  73.062  1.00  0.00    -0.523 C  
HETATM   25  H   UNL     1     -13.206  16.790  74.673  1.00  0.00     0.000 HD 
HETATM   26  O   UNL     1     -13.388  16.394  73.829  1.00  0.00    -0.655 OA 
ENDBRANCH  23  24
BRANCH  23  27
HETATM   27  C   UNL     1     -12.455  14.069  71.805  1.00  0.00    -0.328 C  
HETATM   28  C   UNL     1     -13.767  13.455  72.267  1.00  0.00    -0.705 C  
ENDBRANCH  23  27
ENDBRANCH  21  23
ENDBRANCH  15  19
TORSDOF 4
ENDMDL
MODEL        7
REMARK 921   NORMALIZED FREE ENERGY PREDICTED BY IDOCK:   -5.84 KCAL/MOL
REMARK 922        TOTAL FREE ENERGY PREDICTED BY IDOCK:   -8.30 KCAL/MOL
REMARK 923 INTER-LIGAND FREE ENERGY PREDICTED BY IDOCK:   -7.08 KCAL/MOL
REMARK 924 INTRA-LIGAND FREE ENERGY PREDICTED BY IDOCK:   -1.23 KCAL/MOL
REMARK 927      BINDING AFFINITY PREDICTED BY RF-SCORE:    0.00 PKD
ROOT
HETATM    1  C   UNL     1     -10.833  12.351  64.771  1.00  0.00    -0.304 C  
HETATM    2  C   UNL     1      -9.840  11.188  64.538  1.00  0.00    -0.330 C  
HETATM    3  C   UNL     1      -9.161  10.923  65.839  1.00  0.00    -0.212 A  
HETATM    4  C   UNL     1      -7.860  10.705  66.219  1.00  0.00    -0.150 A  
HETATM    5  N   UNL     1      -7.867  10.457  67.576  1.00  0.00    -0.105 NA 
HETATM    6  H   UNL     1      -7.041  10.229  68.131  1.00  0.00     0.000 HD 
HETATM    7  C   UNL     1      -9.147  10.562  68.079  1.00  0.00    -0.138 A  
HETATM    8  C   UNL     1      -9.693  10.362  69.346  1.00  0.00    -0.222 A  
HETATM    9  C   UNL     1     -11.056  10.676  69.502  1.00  0.00    -0.328 A  
HETATM   10  C   UNL     1     -11.804  11.280  68.472  1.00  0.00    -0.355 A  
HETATM   11  C   UNL     1     -11.223  11.500  67.219  1.00  0.00    -0.365 A  
HETATM   12  C   UNL     1     -11.645  12.381  66.106  1.00  0.00    -0.452 C  
HETATM   13  C   UNL     1      -9.924  11.007  67.026  1.00  0.00    -0.223 A  
HETATM   14  C   UNL     1     -12.391  13.487  66.311  1.00  0.00    -0.440 C  
HETATM   15  C   UNL     1     -12.183  14.649  65.335  1.00  0.00    -0.221 C  
HETATM   16  C   UNL     1     -12.785  11.847  63.354  1.00  0.00    -0.366 C  
HETATM   17  C   UNL     1     -12.107  14.165  63.847  1.00  0.00    -0.264 C  
HETATM   18  N   UNL     1     -11.672  12.759  63.619  1.00  0.00    -0.484 NA 
ENDROOT
BRANCH  15  19
HETATM   19  C   UNL     1     -10.855  15.356  65.768  1.00  0.00    -0.343 C  
HETATM   20  O   UNL     1     -10.092  15.917  64.976  1.00  0.00    -0.444 OA 
HETATM   21  N   UNL     1     -10.566  15.254  67.113  1.00  0.00    -0.295 N  
HETATM   22  H   UNL     1     -11.330  15.027  67.749  1.00  0.00     0.000 HD 
BRANCH  21  23
HETATM   23  CA  UNL     1      -9.231  15.449  67.688  1.00  0.00    -0.187 C  
BRANCH  23  24
HETATM   24  C   UNL     1      -8.304  14.325  67.158  1.00  0.00    -0.180 C  
HETATM   25  H   UNL     1      -7.147  12.905  67.914  1.00  0.00     0.000 HD 
HETATM   26  O   UNL     1      -7.715  13.594  68.238  1.00  0.00    -0.120 OA 
ENDBRANCH  23  24
BRANCH  23  27
HETATM   27  C   UNL     1      -9.256  15.430  69.224  1.00  0.00    -0.259 C  
HETATM   28  C   UNL     1     -10.638  15.218  69.822  1.00  0.00    -0.293 C  
ENDBRANCH  23  27
ENDBRANCH  21  23
ENDBRANCH  15  19
TORSDOF 4
ENDMDL
MODEL        8
REMARK 921   NORMALIZED FREE ENERGY PREDICTED BY IDOCK:   -5.79 KCAL/MOL
REMARK 922        TOTAL FREE ENERGY PREDICTED BY IDOCK:   -8.24 KCAL/MOL
REMARK 923 INTER-LIGAND FREE ENERGY PREDICTED BY IDOCK:   -7.76 KCAL/MOL
REMARK 924 INTRA-LIGAND FREE ENERGY PREDICTED BY IDOCK:   -0.48 KCAL/MOL
REMARK 927      BINDING AFFINITY PREDICTED BY RF-SCORE:    0.00 PKD
ROOT
HETATM    1  C   UNL     1     -10.737  12.428  65.114  1.00  0.00    -0.292 C  
HETATM    2  C   UNL     1      -9.720  11.286  64.878  1.00  0.00    -0.297 C  
HETATM    3  C   UNL     1      -9.111  10.960  66.200  1.00  0.00    -0.201 A  
HETATM    4  C   UNL     1      -7.831  10.732  66.640  1.00  0.00    -0.140 A  
HETATM    5  N   UNL     1      -7.911  10.415  67.981  1.00  0.00    -0.103 NA 
HETATM    6  H   UNL     1      -7.115  10.165  68.568  1.00  0.00     0.000 HD 
HETATM    7  C   UNL     1      -9.218  10.484  68.415  1.00  0.00    -0.154 A  
HETATM    8  C   UNL     1      -9.830  10.214  69.638  1.00  0.00    -0.254 A  
HETATM    9  C   UNL     1     -11.204  10.510  69.733  1.00  0.00    -0.361 A  
HETATM   10  C   UNL     1     -11.899  11.160  68.696  1.00  0.00    -0.357 A  
HETATM   11  C   UNL     1     -11.253  11.449  67.490  1.00  0.00    -0.356 A  
HETATM   12  C   UNL     1     -11.621  12.382  66.401  1.00  0.00    -0.442 C  
HETATM   13  C   UNL     1      -9.939  10.977  67.345  1.00  0.00    -0.209 A  
HETATM   14  C   UNL     1     -12.389  13.471  66.620  1.00  0.00    -0.351 C  
HETATM   15  C   UNL     1     -12.140  14.683  65.718  1.00  0.00    -0.201 C  
HETATM   16  C   UNL     1     -12.601  11.982  63.566  1.00  0.00    -0.507 C  
HETATM   17  C   UNL     1     -11.976  14.277  64.215  1.00  0.00    -0.425 C  
HETATM   18  N   UNL     1     -11.515  12.888  63.940  1.00  0.00    -0.418 NA 
ENDROOT
BRANCH  15  19
HETATM   19  C   UNL     1     -10.845  15.378  66.260  1.00  0.00    -0.301 C  
HETATM   20  O   UNL     1      -9.751  15.312  65.696  1.00  0.00    -0.338 OA 
HETATM   21  N   UNL     1     -11.009  16.029  67.466  1.00  0.00    -0.300 N  
HETATM   22  H   UNL     1     -11.957  16.280  67.748  1.00  0.00     0.000 HD 
BRANCH  21  23
HETATM   23  CA  UNL     1      -9.909  16.385  68.367  1.00  0.00    -0.233 C  
BRANCH  23  24
HETATM   24  C   UNL     1     -10.176  15.726  69.744  1.00  0.00    -0.290 C  
HETATM   25  H   UNL     1     -11.376  16.011  71.295  1.00  0.00     0.000 HD 
HETATM   26  O   UNL     1     -11.212  16.414  70.451  1.00  0.00    -0.378 OA 
ENDBRANCH  23  24
BRANCH  23  27
HETATM   27  C   UNL     1      -9.767  17.907  68.531  1.00  0.00    -0.352 C  
HETATM   28  C   UNL     1     -10.577  18.719  67.533  1.00  0.00    -0.497 C  
ENDBRANCH  23  27
ENDBRANCH  21  23
ENDBRANCH  15  19
TORSDOF 4
ENDMDL
MODEL        9
REMARK 921   NORMALIZED FREE ENERGY PREDICTED BY IDOCK:   -5.75 KCAL/MOL
REMARK 922        TOTAL FREE ENERGY PREDICTED BY IDOCK:   -8.18 KCAL/MOL
REMARK 923 INTER-LIGAND FREE ENERGY PREDICTED BY IDOCK:   -7.09 KCAL/MOL
REMARK 924 INTRA-LIGAND FREE ENERGY PREDICTED BY IDOCK:   -1.09 KCAL/MOL
REMARK 927      BINDING AFFINITY PREDICTED BY RF-SCORE:    0.00 PKD
ROOT
HETATM    1  C   UNL     1      -9.929  17.254  66.284  1.00  0.00    -0.300 C  
HETATM    2  C   UNL     1     -10.629  16.386  65.211  1.00  0.00    -0.320 C  
HETATM    3  C   UNL     1     -10.823  15.030  65.802  1.00  0.00    -0.355 A  
HETATM    4  C   UNL     1     -10.628  13.748  65.353  1.00  0.00    -0.322 A  
HETATM    5  N   UNL     1     -11.053  12.896  66.353  1.00  0.00    -0.278 NA 
HETATM    6  H   UNL     1     -11.057  11.878  66.287  1.00  0.00     0.000 HD 
HETATM    7  C   UNL     1     -11.472  13.615  67.452  1.00  0.00    -0.336 A  
HETATM    8  C   UNL     1     -12.028  13.246  68.677  1.00  0.00    -0.345 A  
HETATM    9  C   UNL     1     -12.232  14.278  69.612  1.00  0.00    -0.371 A  
HETATM   10  C   UNL     1     -11.786  15.593  69.380  1.00  0.00    -0.395 A  
HETATM   11  C   UNL     1     -11.202  15.931  68.155  1.00  0.00    -0.339 A  
HETATM   12  C   UNL     1     -10.373  17.098  67.773  1.00  0.00    -0.347 C  
HETATM   13  C   UNL     1     -11.179  14.935  67.166  1.00  0.00    -0.345 A  
HETATM   14  C   UNL     1      -9.636  17.779  68.677  1.00  0.00    -0.322 C  
HETATM   15  C   UNL     1      -8.348  18.430  68.165  1.00  0.00    -0.301 C  
HETATM   16  C   UNL     1     -10.872  19.515  66.022  1.00  0.00    -0.327 C  
HETATM   17  C   UNL     1      -8.559  19.158  66.794  1.00  0.00    -0.309 C  
HETATM   18  N   UNL     1      -9.678  18.673  65.940  1.00  0.00    -0.479 NA 
ENDROOT
BRANCH  15  19
HETATM   19  C   UNL     1      -7.293  17.280  68.037  1.00  0.00    -0.192 C  
HETATM   20  O   UNL     1      -6.536  17.155  67.072  1.00  0.00    -0.153 OA 
HETATM   21  N   UNL     1      -7.313  16.369  69.074  1.00  0.00    -0.212 N  
HETATM   22  H   UNL     1      -7.751  16.654  69.951  1.00  0.00     0.000 HD 
BRANCH  21  23
HETATM   23  CA  UNL     1      -6.747  15.020  68.998  1.00  0.00    -0.116 C  
BRANCH  23  24
HETATM   24  C   UNL     1      -7.892  14.029  68.666  1.00  0.00    -0.130 C  
HETATM   25  H   UNL     1      -8.588  13.076  67.074  1.00  0.00     0.000 HD 
HETATM   26  O   UNL     1      -7.886  13.683  67.277  1.00  0.00    -0.159 OA 
ENDBRANCH  23  24
BRANCH  23  27
HETATM   27  C   UNL     1      -6.058  14.607  70.308  1.00  0.00    -0.167 C  
HETATM   28  C   UNL     1      -5.783  13.116  70.424  1.00  0.00    -0.170 C  
ENDBRANCH  23  27
ENDBRANCH  21  23
ENDBRANCH  15  19
TORSDOF 4
ENDMDL
MODEL       10
REMARK 921   NORMALIZED FREE ENERGY PREDICTED BY IDOCK:   -5.71 KCAL/MOL
REMARK 922        TOTAL FREE ENERGY PREDICTED BY IDOCK:   -8.14 KCAL/MOL
REMARK 923 INTER-LIGAND FREE ENERGY PREDICTED BY IDOCK:   -7.13 KCAL/MOL
REMARK 924 INTRA-LIGAND FREE ENERGY PREDICTED BY IDOCK:   -1.01 KCAL/MOL
REMARK 927      BINDING AFFINITY PREDICTED BY RF-SCORE:    0.00 PKD
ROOT
HETATM    1  C   UNL     1     -10.958   7.173  70.083  1.00  0.00    -0.267 C  
HETATM    2  C   UNL     1     -10.687   6.768  68.615  1.00  0.00    -0.279 C  
HETATM    3  C   UNL     1     -10.155   7.975  67.918  1.00  0.00    -0.243 A  
HETATM    4  C   UNL     1     -10.408   8.579  66.711  1.00  0.00    -0.276 A  
HETATM    5  N   UNL     1      -9.542   9.648  66.601  1.00  0.00    -0.175 NA 
HETATM    6  H   UNL     1      -9.480  10.265  65.791  1.00  0.00     0.000 HD 
HETATM    7  C   UNL     1      -8.772   9.764  67.739  1.00  0.00    -0.129 A  
HETATM    8  C   UNL     1      -7.737  10.623  68.105  1.00  0.00    -0.101 A  
HETATM    9  C   UNL     1      -7.256  10.504  69.423  1.00  0.00    -0.117 A  
HETATM   10  C   UNL     1      -7.867   9.654  70.365  1.00  0.00    -0.181 A  
HETATM   11  C   UNL     1      -8.926   8.826  69.981  1.00  0.00    -0.162 A  
HETATM   12  C   UNL     1      -9.933   8.111  70.798  1.00  0.00    -0.209 C  
HETATM   13  C   UNL     1      -9.266   8.821  68.619  1.00  0.00    -0.141 A  
HETATM   14  C   UNL     1     -10.292   8.538  72.028  1.00  0.00    -0.408 C  
HETATM   15  C   UNL     1     -11.726   8.236  72.471  1.00  0.00    -0.451 C  
HETATM   16  C   UNL     1     -10.398   5.188  71.430  1.00  0.00    -0.203 C  
HETATM   17  C   UNL     1     -12.156   6.770  72.125  1.00  0.00    -0.252 C  
HETATM   18  N   UNL     1     -11.446   6.111  70.994  1.00  0.00    -0.292 NA 
ENDROOT
BRANCH  15  19
HETATM   19  C   UNL     1     -12.641   9.279  71.744  1.00  0.00    -0.382 C  
HETATM   20  O   UNL     1     -13.788   9.031  71.365  1.00  0.00    -0.361 OA 
HETATM   21  N   UNL     1     -12.038  10.497  71.503  1.00  0.00    -0.290 N  
HETATM   22  H   UNL     1     -11.216  10.739  72.056  1.00  0.00     0.000 HD 
BRANCH  21  23
HETATM   23  CA  UNL     1     -12.503  11.464  70.505  1.00  0.00    -0.293 C  
BRANCH  23  24
HETATM   24  C   UNL     1     -11.468  11.509  69.352  1.00  0.00    -0.309 C  
HETATM   25  H   UNL     1     -11.441  11.190  67.396  1.00  0.00     0.000 HD 
HETATM   26  O   UNL     1     -12.075  11.163  68.103  1.00  0.00    -0.633 OA 
ENDBRANCH  23  24
BRANCH  23  27
HETATM   27  C   UNL     1     -12.685  12.868  71.103  1.00  0.00    -0.366 C  
HETATM   28  C   UNL     1     -13.602  12.915  72.315  1.00  0.00    -0.611 C  
ENDBRANCH  23  27
ENDBRANCH  21  23
ENDBRANCH  15  19
TORSDOF 4
ENDMDL
MODEL       11
REMARK 921   NORMALIZED FREE ENERGY PREDICTED BY IDOCK:   -5.67 KCAL/MOL
REMARK 922        TOTAL FREE ENERGY PREDICTED BY IDOCK:   -8.09 KCAL/MOL
REMARK 923 INTER-LIGAND FREE ENERGY PREDICTED BY IDOCK:   -7.16 KCAL/MOL
REMARK 924 INTRA-LIGAND FREE ENERGY PREDICTED BY IDOCK:   -0.94 KCAL/MOL
REMARK 927      BINDING AFFINITY PREDICTED BY RF-SCORE:    0.00 PKD
ROOT
HETATM    1  C   UNL     1     -10.723  12.510  66.774  1.00  0.00    -0.236 C  
HETATM    2  C   UNL     1     -10.144  11.125  66.399  1.00  0.00    -0.269 C  
HETATM    3  C   UNL     1      -9.763  10.449  67.673  1.00  0.00    -0.191 A  
HETATM    4  C   UNL     1      -8.666   9.741  68.097  1.00  0.00    -0.119 A  
HETATM    5  N   UNL     1      -8.930   9.309  69.381  1.00  0.00    -0.141 NA 
HETATM    6  H   UNL     1      -8.304   8.729  69.940  1.00  0.00     0.000 HD 
HETATM    7  C   UNL     1     -10.159   9.771  69.801  1.00  0.00    -0.239 A  
HETATM    8  C   UNL     1     -10.900   9.582  70.968  1.00  0.00    -0.423 A  
HETATM    9  C   UNL     1     -12.094  10.320  71.082  1.00  0.00    -0.494 A  
HETATM   10  C   UNL     1     -12.462  11.292  70.133  1.00  0.00    -0.297 A  
HETATM   11  C   UNL     1     -11.684  11.486  68.987  1.00  0.00    -0.400 A  
HETATM   12  C   UNL     1     -11.646  12.615  68.030  1.00  0.00    -0.394 C  
HETATM   13  C   UNL     1     -10.604  10.611  68.798  1.00  0.00    -0.234 A  
HETATM   14  C   UNL     1     -12.010  13.867  68.384  1.00  0.00    -0.391 C  
HETATM   15  C   UNL     1     -11.309  15.019  67.659  1.00  0.00    -0.342 C  
HETATM   16  C   UNL     1     -12.531  12.930  65.153  1.00  0.00    -0.501 C  
HETATM   17  C   UNL     1     -11.202  14.769  66.116  1.00  0.00    -0.337 C  
HETATM   18  N   UNL     1     -11.225  13.351  65.662  1.00  0.00    -0.291 NA 
ENDROOT
BRANCH  15  19
HETATM   19  C   UNL     1      -9.890  15.151  68.309  1.00  0.00    -0.223 C  
HETATM   20  O   UNL     1      -9.705  15.272  69.522  1.00  0.00    -0.238 OA 
HETATM   21  N   UNL     1      -8.848  15.181  67.403  1.00  0.00    -0.178 N  
HETATM   22  H   UNL     1      -9.020  14.817  66.466  1.00  0.00     0.000 HD 
BRANCH  21  23
HETATM   23  CA  UNL     1      -7.511  15.702  67.701  1.00  0.00    -0.164 C  
BRANCH  23  24
HETATM   24  C   UNL     1      -7.172  16.797  66.657  1.00  0.00    -0.254 C  
HETATM   25  H   UNL     1      -8.146  17.936  65.361  1.00  0.00     0.000 HD 
HETATM   26  O   UNL     1      -8.354  17.265  66.001  1.00  0.00    -0.490 OA 
ENDBRANCH  23  24
BRANCH  23  27
HETATM   27  C   UNL     1      -6.442  14.599  67.673  1.00  0.00    -0.157 C  
HETATM   28  C   UNL     1      -7.001  13.194  67.512  1.00  0.00    -0.155 C  
ENDBRANCH  23  27
ENDBRANCH  21  23
ENDBRANCH  15  19
TORSDOF 4
ENDMDL
MODEL       12
REMARK 921   NORMALIZED FREE ENERGY PREDICTED BY IDOCK:   -5.66 KCAL/MOL
REMARK 922        TOTAL FREE ENERGY PREDICTED BY IDOCK:   -8.08 KCAL/MOL
REMARK 923 INTER-LIGAND FREE ENERGY PREDICTED BY IDOCK:   -7.62 KCAL/MOL
REMARK 924 INTRA-LIGAND FREE ENERGY PREDICTED BY IDOCK:   -0.46 KCAL/MOL
REMARK 927      BINDING AFFINITY PREDICTED BY RF-SCORE:    0.00 PKD
ROOT
HETATM    1  C   UNL     1     -10.618  12.414  65.556  1.00  0.00    -0.275 C  
HETATM    2  C   UNL     1      -9.662  11.224  65.297  1.00  0.00    -0.280 C  
HETATM    3  C   UNL     1      -9.141  10.784  66.624  1.00  0.00    -0.174 A  
HETATM    4  C   UNL     1      -7.901  10.449  67.108  1.00  0.00    -0.110 A  
HETATM    5  N   UNL     1      -8.067  10.060  68.421  1.00  0.00    -0.100 NA 
HETATM    6  H   UNL     1      -7.319   9.725  69.028  1.00  0.00     0.000 HD 
HETATM    7  C   UNL     1      -9.388  10.187  68.798  1.00  0.00    -0.168 A  
HETATM    8  C   UNL     1     -10.076   9.886  69.973  1.00  0.00    -0.308 A  
HETATM    9  C   UNL     1     -11.432  10.263  70.022  1.00  0.00    -0.367 A  
HETATM   10  C   UNL     1     -12.034  11.016  68.995  1.00  0.00    -0.364 A  
HETATM   11  C   UNL     1     -11.311  11.333  67.841  1.00  0.00    -0.367 A  
HETATM   12  C   UNL     1     -11.566  12.350  66.795  1.00  0.00    -0.444 C  
HETATM   13  C   UNL     1     -10.023  10.787  67.728  1.00  0.00    -0.195 A  
HETATM   14  C   UNL     1     -12.277  13.471  67.045  1.00  0.00    -0.351 C  
HETATM   15  C   UNL     1     -11.909  14.715  66.231  1.00  0.00    -0.299 C  
HETATM   16  C   UNL     1     -12.426  12.180  63.899  1.00  0.00    -0.478 C  
HETATM   17  C   UNL     1     -11.695  14.388  64.715  1.00  0.00    -0.416 C  
HETATM   18  N   UNL     1     -11.306  12.991  64.377  1.00  0.00    -0.339 NA 
ENDROOT
BRANCH  15  19
HETATM   19  C   UNL     1     -10.602  15.292  66.874  1.00  0.00    -0.304 C  
HETATM   20  O   UNL     1     -10.167  14.934  67.971  1.00  0.00    -0.225 OA 
HETATM   21  N   UNL     1      -9.996  16.290  66.137  1.00  0.00    -0.313 N  
HETATM   22  H   UNL     1     -10.229  16.359  65.146  1.00  0.00     0.000 HD 
BRANCH  21  23
HETATM   23  CA  UNL     1      -9.039  17.255  66.685  1.00  0.00    -0.265 C  
BRANCH  23  24
HETATM   24  C   UNL     1      -9.469  18.675  66.236  1.00  0.00    -0.260 C  
HETATM   25  H   UNL     1     -10.901  19.492  65.137  1.00  0.00     0.000 HD 
HETATM   26  O   UNL     1     -10.637  18.622  65.412  1.00  0.00    -0.572 OA 
ENDBRANCH  23  24
BRANCH  23  27
HETATM   27  C   UNL     1      -7.602  16.969  66.222  1.00  0.00    -0.340 C  
HETATM   28  C   UNL     1      -6.827  18.207  65.799  1.00  0.00    -0.305 C  
ENDBRANCH  23  27
ENDBRANCH  21  23
ENDBRANCH  15  19
TORSDOF 4
ENDMDL
MODEL       13
REMARK 921   NORMALIZED FREE ENERGY PREDICTED BY IDOCK:   -5.62 KCAL/MOL
REMARK 922        TOTAL FREE ENERGY PREDICTED BY IDOCK:   -8.03 KCAL/MOL
REMARK 923 INTER-LIGAND FREE ENERGY PREDICTED BY IDOCK:   -7.30 KCAL/MOL
REMARK 924 INTRA-LIGAND FREE ENERGY PREDICTED BY IDOCK:   -0.73 KCAL/MOL
REMARK 927      BINDING AFFINITY PREDICTED BY RF-SCORE:    0.00 PKD
ROOT
HETATM    1  C   UNL     1      -9.557  10.410  65.087  1.00  0.00    -0.271 C  
HETATM    2  C   UNL     1     -10.420  11.010  63.951  1.00  0.00    -0.422 C  
HETATM    3  C   UNL     1     -11.286  12.059  64.565  1.00  0.00    -0.390 A  
HETATM    4  C   UNL     1     -12.614  12.389  64.466  1.00  0.00    -0.391 A  
HETATM    5  N   UNL     1     -12.814  13.513  65.241  1.00  0.00    -0.704 NA 
HETATM    6  H   UNL     1     -13.703  14.005  65.334  1.00  0.00     0.000 HD 
HETATM    7  C   UNL     1     -11.644  13.877  65.873  1.00  0.00    -0.340 A  
HETATM    8  C   UNL     1     -11.302  14.941  66.707  1.00  0.00    -0.328 A  
HETATM    9  C   UNL     1     -10.006  14.919  67.258  1.00  0.00    -0.230 A  
HETATM   10  C   UNL     1      -9.141  13.822  67.082  1.00  0.00    -0.243 A  
HETATM   11  C   UNL     1      -9.521  12.751  66.266  1.00  0.00    -0.198 A  
HETATM   12  C   UNL     1      -8.980  11.376  66.172  1.00  0.00    -0.207 C  
HETATM   13  C   UNL     1     -10.736  12.879  65.576  1.00  0.00    -0.301 A  
HETATM   14  C   UNL     1      -8.352  10.781  67.208  1.00  0.00    -0.124 C  
HETATM   15  C   UNL     1      -8.471   9.257  67.303  1.00  0.00    -0.125 C  
HETATM   16  C   UNL     1      -7.370   9.918  64.065  1.00  0.00    -0.132 C  
HETATM   17  C   UNL     1      -8.270   8.560  65.915  1.00  0.00    -0.125 C  
HETATM   18  N   UNL     1      -8.569   9.375  64.705  1.00  0.00    -0.177 NA 
ENDROOT
BRANCH  15  19
HETATM   19  C   UNL     1      -9.896   8.962  67.882  1.00  0.00    -0.169 C  
HETATM   20  O   UNL     1     -10.746   8.290  67.292  1.00  0.00    -0.289 OA 
HETATM   21  N   UNL     1     -10.157   9.568  69.094  1.00  0.00    -0.187 N  
HETATM   22  H   UNL     1      -9.361   9.877  69.653  1.00  0.00     0.000 HD 
BRANCH  21  23
HETATM   23  CA  UNL     1     -11.502   9.796  69.631  1.00  0.00    -0.056 C  
BRANCH  23  24
HETATM   24  C   UNL     1     -11.849  11.296  69.452  1.00  0.00    -0.355 C  
HETATM   25  H   UNL     1     -12.460  12.494  67.997  1.00  0.00     0.000 HD 
HETATM   26  O   UNL     1     -12.247  11.575  68.107  1.00  0.00    -0.576 OA 
ENDBRANCH  23  24
BRANCH  23  27
HETATM   27  C   UNL     1     -11.606   9.405  71.113  1.00  0.00    -0.415 C  
HETATM   28  C   UNL     1     -12.816   9.986  71.827  1.00  0.00    -0.546 C  
ENDBRANCH  23  27
ENDBRANCH  21  23
ENDBRANCH  15  19
TORSDOF 4
ENDMDL
MODEL       14
REMARK 921   NORMALIZED FREE ENERGY PREDICTED BY IDOCK:   -5.51 KCAL/MOL
REMARK 922        TOTAL FREE ENERGY PREDICTED BY IDOCK:   -7.89 KCAL/MOL
REMARK 923 INTER-LIGAND FREE ENERGY PREDICTED BY IDOCK:   -7.35 KCAL/MOL
REMARK 924 INTRA-LIGAND FREE ENERGY PREDICTED BY IDOCK:   -0.53 KCAL/MOL
REMARK 927      BINDING AFFINITY PREDICTED BY RF-SCORE:    0.00 PKD
ROOT
HETATM    1  C   UNL     1      -9.644  12.978  66.940  1.00  0.00    -0.243 C  
HETATM    2  C   UNL     1      -8.153  12.576  67.032  1.00  0.00    -0.105 C  
HETATM    3  C   UNL     1      -7.994  11.759  68.270  1.00  0.00    -0.147 A  
HETATM    4  C   UNL     1      -7.086  11.738  69.299  1.00  0.00    -0.032 A  
HETATM    5  N   UNL     1      -7.440  10.700  70.136  1.00  0.00    -0.443 NA 
HETATM    6  H   UNL     1      -6.925  10.424  70.971  1.00  0.00     0.000 HD 
HETATM    7  C   UNL     1      -8.590  10.088  69.683  1.00  0.00    -0.184 A  
HETATM    8  C   UNL     1      -9.320   8.985  70.125  1.00  0.00    -0.213 A  
HETATM    9  C   UNL     1     -10.528   8.719  69.454  1.00  0.00    -0.228 A  
HETATM   10  C   UNL     1     -11.042   9.588  68.471  1.00  0.00    -0.035 A  
HETATM   11  C   UNL     1     -10.305  10.706  68.068  1.00  0.00    -0.208 A  
HETATM   12  C   UNL     1     -10.726  11.921  67.334  1.00  0.00    -0.271 C  
HETATM   13  C   UNL     1      -9.020  10.849  68.613  1.00  0.00    -0.162 A  
HETATM   14  C   UNL     1     -11.998  12.371  67.364  1.00  0.00    -0.246 C  
HETATM   15  C   UNL     1     -12.198  13.884  67.227  1.00  0.00    -0.324 C  
HETATM   16  C   UNL     1     -10.190  12.947  64.538  1.00  0.00    -0.310 C  
HETATM   17  C   UNL     1     -11.302  14.498  66.099  1.00  0.00    -0.348 C  
HETATM   18  N   UNL     1     -10.058  13.757  65.749  1.00  0.00    -0.308 NA 
ENDROOT
BRANCH  15  19
HETATM   19  C   UNL     1     -11.851  14.503  68.623  1.00  0.00    -0.320 C  
HETATM   20  O   UNL     1     -10.849  15.191  68.833  1.00  0.00    -0.224 OA 
HETATM   21  N   UNL     1     -12.733  14.168  69.631  1.00  0.00    -0.414 N  
HETATM   22  H   UNL     1     -13.659  13.836  69.363  1.00  0.00     0.000 HD 
BRANCH  21  23
HETATM   23  CA  UNL     1     -12.424  14.258  71.061  1.00  0.00    -0.362 C  
BRANCH  23  24
HETATM   24  C   UNL     1     -12.987  12.995  71.761  1.00  0.00    -0.321 C  
HETATM   25  H   UNL     1     -14.360  12.567  73.124  1.00  0.00     0.000 HD 
HETATM   26  O   UNL     1     -14.015  13.341  72.694  1.00  0.00    -0.741 OA 
ENDBRANCH  23  24
BRANCH  23  27
HETATM   27  C   UNL     1     -13.018  15.523  71.700  1.00  0.00    -0.540 C  
HETATM   28  C   UNL     1     -12.053  16.276  72.604  1.00  0.00    -0.628 C  
ENDBRANCH  23  27
ENDBRANCH  21  23
ENDBRANCH  15  19
TORSDOF 4
ENDMDL
MODEL       15
REMARK 921   NORMALIZED FREE ENERGY PREDICTED BY IDOCK:   -5.49 KCAL/MOL
REMARK 922        TOTAL FREE ENERGY PREDICTED BY IDOCK:   -7.87 KCAL/MOL
REMARK 923 INTER-LIGAND FREE ENERGY PREDICTED BY IDOCK:   -6.82 KCAL/MOL
REMARK 924 INTRA-LIGAND FREE ENERGY PREDICTED BY IDOCK:   -1.05 KCAL/MOL
REMARK 927      BINDING AFFINITY PREDICTED BY RF-SCORE:    0.00 PKD
ROOT
HETATM    1  C   UNL     1     -10.544  10.071  69.267  1.00  0.00    -0.227 C  
HETATM    2  C   UNL     1     -11.668  10.523  70.230  1.00  0.00    -0.420 C  
HETATM    3  C   UNL     1     -11.788   9.476  71.286  1.00  0.00    -0.450 A  
HETATM    4  C   UNL     1     -12.840   8.822  71.878  1.00  0.00    -0.375 A  
HETATM    5  N   UNL     1     -12.313   7.993  72.847  1.00  0.00    -0.638 NA 
HETATM    6  H   UNL     1     -12.864   7.406  73.473  1.00  0.00     0.000 HD 
HETATM    7  C   UNL     1     -10.936   8.071  72.850  1.00  0.00    -0.330 A  
HETATM    8  C   UNL     1      -9.950   7.488  73.646  1.00  0.00    -0.347 A  
HETATM    9  C   UNL     1      -8.615   7.726  73.270  1.00  0.00    -0.240 A  
HETATM   10  C   UNL     1      -8.285   8.408  72.083  1.00  0.00    -0.207 A  
HETATM   11  C   UNL     1      -9.294   8.955  71.284  1.00  0.00    -0.336 A  
HETATM   12  C   UNL     1      -9.264   9.411  69.875  1.00  0.00    -0.226 C  
HETATM   13  C   UNL     1     -10.607   8.872  71.773  1.00  0.00    -0.432 A  
HETATM   14  C   UNL     1      -8.382   8.917  68.981  1.00  0.00    -0.124 C  
HETATM   15  C   UNL     1      -8.837   8.866  67.519  1.00  0.00    -0.135 C  
HETATM   16  C   UNL     1      -9.399  12.139  68.572  1.00  0.00    -0.106 C  
HETATM   17  C   UNL     1      -9.560  10.184  67.080  1.00  0.00    -0.171 C  
HETATM   18  N   UNL     1     -10.202  10.989  68.156  1.00  0.00    -0.176 NA 
ENDROOT
BRANCH  15  19
HETATM   19  C   UNL     1      -9.790   7.630  67.396  1.00  0.00    -0.173 C  
HETATM   20  O   UNL     1     -10.899   7.676  66.858  1.00  0.00    -0.328 OA 
HETATM   21  N   UNL     1      -9.316   6.481  67.997  1.00  0.00    -0.111 N  
HETATM   22  H   UNL     1      -8.315   6.420  68.184  1.00  0.00     0.000 HD 
BRANCH  21  23
HETATM   23  CA  UNL     1     -10.158   5.345  68.383  1.00  0.00    -0.173 C  
BRANCH  23  24
HETATM   24  C   UNL     1     -10.600   5.546  69.856  1.00  0.00    -0.317 C  
HETATM   25  H   UNL     1     -12.109   6.383  70.829  1.00  0.00     0.000 HD 
HETATM   26  O   UNL     1     -11.838   6.260  69.927  1.00  0.00    -0.340 OA 
ENDBRANCH  23  24
BRANCH  23  27
HETATM   27  C   UNL     1      -9.421   4.005  68.234  1.00  0.00    -0.216 C  
HETATM   28  C   UNL     1      -9.407   3.158  69.497  1.00  0.00    -0.228 C  
ENDBRANCH  23  27
ENDBRANCH  21  23
ENDBRANCH  15  19
TORSDOF 4
ENDMDL
MODEL       16
REMARK 921   NORMALIZED FREE ENERGY PREDICTED BY IDOCK:   -5.47 KCAL/MOL
REMARK 922        TOTAL FREE ENERGY PREDICTED BY IDOCK:   -7.84 KCAL/MOL
REMARK 923 INTER-LIGAND FREE ENERGY PREDICTED BY IDOCK:   -6.92 KCAL/MOL
REMARK 924 INTRA-LIGAND FREE ENERGY PREDICTED BY IDOCK:   -0.92 KCAL/MOL
REMARK 927      BINDING AFFINITY PREDICTED BY RF-SCORE:    0.00 PKD
ROOT
HETATM    1  C   UNL     1     -11.188  12.355  68.934  1.00  0.00    -0.280 C  
HETATM    2  C   UNL     1     -11.575  13.819  69.252  1.00  0.00    -0.362 C  
HETATM    3  C   UNL     1     -11.274  14.626  68.034  1.00  0.00    -0.307 A  
HETATM    4  C   UNL     1     -10.661  15.833  67.807  1.00  0.00    -0.307 A  
HETATM    5  N   UNL     1     -10.740  16.082  66.452  1.00  0.00    -0.275 NA 
HETATM    6  H   UNL     1     -10.395  16.926  65.994  1.00  0.00     0.000 HD 
HETATM    7  C   UNL     1     -11.352  15.030  65.803  1.00  0.00    -0.279 A  
HETATM    8  C   UNL     1     -11.713  14.810  64.474  1.00  0.00    -0.398 A  
HETATM    9  C   UNL     1     -12.235  13.540  64.165  1.00  0.00    -0.449 A  
HETATM   10  C   UNL     1     -12.275  12.500  65.114  1.00  0.00    -0.509 A  
HETATM   11  C   UNL     1     -11.876  12.738  66.433  1.00  0.00    -0.472 A  
HETATM   12  C   UNL     1     -11.511  11.791  67.512  1.00  0.00    -0.373 C  
HETATM   13  C   UNL     1     -11.539  14.058  66.767  1.00  0.00    -0.406 A  
HETATM   14  C   UNL     1     -11.029  10.557  67.250  1.00  0.00    -0.325 C  
HETATM   15  C   UNL     1     -10.059   9.964  68.276  1.00  0.00    -0.185 C  
HETATM   16  C   UNL     1     -12.859  10.963  70.092  1.00  0.00    -0.082 C  
HETATM   17  C   UNL     1     -10.544  10.189  69.748  1.00  0.00    -0.260 C  
HETATM   18  N   UNL     1     -11.450  11.346  69.987  1.00  0.00    -0.277 NA 
ENDROOT
BRANCH  15  19
HETATM   19  C   UNL     1      -8.676  10.655  68.025  1.00  0.00    -0.126 C  
HETATM   20  O   UNL     1      -8.099  10.649  66.935  1.00  0.00    -0.118 OA 
HETATM   21  N   UNL     1      -8.113  11.228  69.147  1.00  0.00    -0.363 N  
HETATM   22  H   UNL     1      -8.727  11.439  69.934  1.00  0.00     0.000 HD 
BRANCH  21  23
HETATM   23  CA  UNL     1      -6.690  11.555  69.281  1.00  0.00    -0.118 C  
BRANCH  23  24
HETATM   24  C   UNL     1      -6.149  10.861  70.558  1.00  0.00    -0.102 C  
HETATM   25  H   UNL     1      -6.748   9.465  71.830  1.00  0.00     0.000 HD 
HETATM   26  O   UNL     1      -7.079   9.890  71.048  1.00  0.00    -0.339 OA 
ENDBRANCH  23  24
BRANCH  23  27
HETATM   27  C   UNL     1      -6.451  13.071  69.365  1.00  0.00    -0.094 C  
HETATM   28  C   UNL     1      -7.566  13.911  68.762  1.00  0.00    -0.108 C  
ENDBRANCH  23  27
ENDBRANCH  21  23
ENDBRANCH  15  19
TORSDOF 4
ENDMDL
MODEL       17
REMARK 921   NORMALIZED FREE ENERGY PREDICTED BY IDOCK:   -5.45 KCAL/MOL
REMARK 922        TOTAL FREE ENERGY PREDICTED BY IDOCK:   -7.82 KCAL/MOL
REMARK 923 INTER-LIGAND FREE ENERGY PREDICTED BY IDOCK:   -7.64 KCAL/MOL
REMARK 924 INTRA-LIGAND FREE ENERGY PREDICTED BY IDOCK:   -0.18 KCAL/MOL
REMARK 927      BINDING AFFINITY PREDICTED BY RF-SCORE:    0.00 PKD
ROOT
HETATM    1  C   UNL     1      -9.677  15.592  68.700  1.00  0.00    -0.204 C  
HETATM    2  C   UNL     1      -8.280  16.045  69.185  1.00  0.00    -0.241 C  
HETATM    3  C   UNL     1      -7.769  17.032  68.190  1.00  0.00    -0.197 A  
HETATM    4  C   UNL     1      -6.567  17.224  67.554  1.00  0.00    -0.144 A  
HETATM    5  N   UNL     1      -6.691  18.359  66.780  1.00  0.00    -0.185 NA 
HETATM    6  H   UNL     1      -5.943  18.765  66.217  1.00  0.00     0.000 HD 
HETATM    7  C   UNL     1      -7.970  18.869  66.874  1.00  0.00    -0.256 A  
HETATM    8  C   UNL     1      -8.585  20.002  66.343  1.00  0.00    -0.350 A  
HETATM    9  C   UNL     1      -9.966  20.137  66.578  1.00  0.00    -0.586 A  
HETATM   10  C   UNL     1     -10.718  19.124  67.205  1.00  0.00    -0.567 A  
HETATM   11  C   UNL     1     -10.081  17.982  67.700  1.00  0.00    -0.352 A  
HETATM   12  C   UNL     1     -10.635  16.664  68.086  1.00  0.00    -0.336 C  
HETATM   13  C   UNL     1      -8.680  17.953  67.625  1.00  0.00    -0.242 A  
HETATM   14  C   UNL     1     -11.783  16.187  67.558  1.00  0.00     0.375 C  
HETATM   15  C   UNL     1     -11.903  14.665  67.430  1.00  0.00    -0.374 C  
HETATM   16  C   UNL     1     -11.013  15.269  70.744  1.00  0.00    -0.272 C  
HETATM   17  C   UNL     1     -11.403  13.923  68.716  1.00  0.00    -0.277 C  
HETATM   18  N   UNL     1     -10.414  14.642  69.566  1.00  0.00    -0.161 NA 
ENDROOT
BRANCH  15  19
HETATM   19  C   UNL     1     -11.054  14.259  66.179  1.00  0.00    -0.324 C  
HETATM   20  O   UNL     1     -10.318  15.041  65.572  1.00  0.00    -0.317 OA 
HETATM   21  N   UNL     1     -11.238  12.956  65.762  1.00  0.00    -0.287 N  
HETATM   22  H   UNL     1     -11.632  12.294  66.430  1.00  0.00     0.000 HD 
BRANCH  21  23
HETATM   23  CA  UNL     1     -10.906  12.464  64.423  1.00  0.00    -0.337 C  
BRANCH  23  24
HETATM   24  C   UNL     1     -12.192  12.500  63.557  1.00  0.00    -0.558 C  
HETATM   25  H   UNL     1     -13.406  13.868  62.797  1.00  0.00     0.000 HD 
HETATM   26  O   UNL     1     -12.618  13.846  63.327  1.00  0.00    -0.824 OA 
ENDBRANCH  23  24
BRANCH  23  27
HETATM   27  C   UNL     1     -10.335  11.037  64.457  1.00  0.00    -0.420 C  
HETATM   28  C   UNL     1      -9.028  10.908  65.223  1.00  0.00    -0.202 C  
ENDBRANCH  23  27
ENDBRANCH  21  23
ENDBRANCH  15  19
TORSDOF 4
ENDMDL
MODEL       18
REMARK 921   NORMALIZED FREE ENERGY PREDICTED BY IDOCK:   -5.44 KCAL/MOL
REMARK 922        TOTAL FREE ENERGY PREDICTED BY IDOCK:   -7.80 KCAL/MOL
REMARK 923 INTER-LIGAND FREE ENERGY PREDICTED BY IDOCK:   -6.92 KCAL/MOL
REMARK 924 INTRA-LIGAND FREE ENERGY PREDICTED BY IDOCK:   -0.88 KCAL/MOL
REMARK 927      BINDING AFFINITY PREDICTED BY RF-SCORE:    0.00 PKD
ROOT
HETATM    1  C   UNL     1     -11.153  13.409  67.798  1.00  0.00    -0.268 C  
HETATM    2  C   UNL     1     -11.910  12.072  67.987  1.00  0.00    -0.338 C  
HETATM    3  C   UNL     1     -12.138  11.901  69.452  1.00  0.00    -0.277 A  
HETATM    4  C   UNL     1     -12.000  10.857  70.332  1.00  0.00    -0.362 A  
HETATM    5  N   UNL     1     -12.431  11.302  71.564  1.00  0.00    -0.279 NA 
HETATM    6  H   UNL     1     -12.473  10.730  72.408  1.00  0.00     0.000 HD 
HETATM    7  C   UNL     1     -12.798  12.630  71.496  1.00  0.00    -0.268 A  
HETATM    8  C   UNL     1     -13.337  13.519  72.426  1.00  0.00    -0.641 A  
HETATM    9  C   UNL     1     -13.481  14.856  72.008  1.00  0.00    -0.487 A  
HETATM   10  C   UNL     1     -12.994  15.305  70.766  1.00  0.00    -0.492 A  
HETATM   11  C   UNL     1     -12.427  14.399  69.864  1.00  0.00    -0.311 A  
HETATM   12  C   UNL     1     -11.567  14.630  68.681  1.00  0.00    -0.343 C  
HETATM   13  C   UNL     1     -12.465  13.042  70.220  1.00  0.00    -0.217 A  
HETATM   14  C   UNL     1     -10.785  15.724  68.567  1.00  0.00    -0.274 C  
HETATM   15  C   UNL     1      -9.487  15.563  67.770  1.00  0.00    -0.204 C  
HETATM   16  C   UNL     1     -12.021  14.367  65.701  1.00  0.00    -0.354 C  
HETATM   17  C   UNL     1      -9.704  14.760  66.443  1.00  0.00    -0.291 C  
HETATM   18  N   UNL     1     -10.860  13.823  66.406  1.00  0.00    -0.286 NA 
ENDROOT
BRANCH  15  19
HETATM   19  C   UNL     1      -8.477  14.829  68.715  1.00  0.00    -0.170 C  
HETATM   20  O   UNL     1      -8.136  15.264  69.818  1.00  0.00    -0.206 OA 
HETATM   21  N   UNL     1      -7.942  13.671  68.189  1.00  0.00    -0.137 N  
HETATM   22  H   UNL     1      -8.439  13.223  67.419  1.00  0.00     0.000 HD 
BRANCH  21  23
HETATM   23  CA  UNL     1      -6.706  13.042  68.665  1.00  0.00    -0.096 C  
BRANCH  23  24
HETATM   24  C   UNL     1      -5.607  13.255  67.592  1.00  0.00    -0.067 C  
HETATM   25  H   UNL     1      -4.913  12.302  66.000  1.00  0.00     0.000 HD 
HETATM   26  O   UNL     1      -5.586  12.172  66.657  1.00  0.00    -0.311 OA 
ENDBRANCH  23  24
BRANCH  23  27
HETATM   27  C   UNL     1      -6.890  11.541  68.939  1.00  0.00    -0.095 C  
HETATM   28  C   UNL     1      -8.313  11.042  68.739  1.00  0.00    -0.144 C  
ENDBRANCH  23  27
ENDBRANCH  21  23
ENDBRANCH  15  19
TORSDOF 4
ENDMDL
MODEL       19
REMARK 921   NORMALIZED FREE ENERGY PREDICTED BY IDOCK:   -5.37 KCAL/MOL
REMARK 922        TOTAL FREE ENERGY PREDICTED BY IDOCK:   -7.72 KCAL/MOL
REMARK 923 INTER-LIGAND FREE ENERGY PREDICTED BY IDOCK:   -6.64 KCAL/MOL
REMARK 924 INTRA-LIGAND FREE ENERGY PREDICTED BY IDOCK:   -1.07 KCAL/MOL
REMARK 927      BINDING AFFINITY PREDICTED BY RF-SCORE:    0.00 PKD
ROOT
HETATM    1  C   UNL     1     -11.267   7.110  70.459  1.00  0.00    -0.290 C  
HETATM    2  C   UNL     1     -11.281   6.094  69.293  1.00  0.00    -0.438 C  
HETATM    3  C   UNL     1     -10.563   6.729  68.150  1.00  0.00    -0.279 A  
HETATM    4  C   UNL     1     -10.807   6.843  66.804  1.00  0.00    -0.200 A  
HETATM    5  N   UNL     1      -9.729   7.501  66.248  1.00  0.00    -0.423 NA 
HETATM    6  H   UNL     1      -9.619   7.700  65.253  1.00  0.00     0.000 HD 
HETATM    7  C   UNL     1      -8.822   7.853  67.226  1.00  0.00    -0.127 A  
HETATM    8  C   UNL     1      -7.574   8.473  67.189  1.00  0.00    -0.096 A  
HETATM    9  C   UNL     1      -6.980   8.767  68.431  1.00  0.00    -0.066 A  
HETATM   10  C   UNL     1      -7.659   8.565  69.648  1.00  0.00    -0.088 A  
HETATM   11  C   UNL     1      -8.925   7.971  69.655  1.00  0.00    -0.145 A  
HETATM   12  C   UNL     1      -9.968   7.942  70.706  1.00  0.00    -0.192 C  
HETATM   13  C   UNL     1      -9.419   7.512  68.424  1.00  0.00    -0.148 A  
HETATM   14  C   UNL     1     -10.062   8.905  71.648  1.00  0.00    -0.411 C  
HETATM   15  C   UNL     1     -11.463   9.205  72.191  1.00  0.00    -0.238 C  
HETATM   16  C   UNL     1     -11.041   5.761  72.508  1.00  0.00    -0.279 C  
HETATM   17  C   UNL     1     -12.271   7.898  72.494  1.00  0.00    -0.195 C  
HETATM   18  N   UNL     1     -11.882   6.676  71.736  1.00  0.00    -0.320 NA 
ENDROOT
BRANCH  15  19
HETATM   19  C   UNL     1     -12.181  10.073  71.103  1.00  0.00    -0.380 C  
HETATM   20  O   UNL     1     -13.379   9.969  70.831  1.00  0.00    -0.382 OA 
HETATM   21  N   UNL     1     -11.348  10.935  70.419  1.00  0.00    -0.446 N  
HETATM   22  H   UNL     1     -10.453  11.174  70.848  1.00  0.00     0.000 HD 
BRANCH  21  23
HETATM   23  CA  UNL     1     -11.665  11.530  69.118  1.00  0.00    -0.329 C  
BRANCH  23  24
HETATM   24  C   UNL     1     -10.535  11.156  68.124  1.00  0.00    -0.189 C  
HETATM   25  H   UNL     1     -10.357  10.177  66.410  1.00  0.00     0.000 HD 
HETATM   26  O   UNL     1     -11.049  10.406  67.020  1.00  0.00    -0.210 OA 
ENDBRANCH  23  24
BRANCH  23  27
HETATM   27  C   UNL     1     -11.808  13.058  69.200  1.00  0.00    -0.360 C  
HETATM   28  C   UNL     1     -11.832  13.755  67.849  1.00  0.00    -0.413 C  
ENDBRANCH  23  27
ENDBRANCH  21  23
ENDBRANCH  15  19
TORSDOF 4
ENDMDL
MODEL       20
REMARK 921   NORMALIZED FREE ENERGY PREDICTED BY IDOCK:   -5.36 KCAL/MOL
REMARK 922        TOTAL FREE ENERGY PREDICTED BY IDOCK:   -7.71 KCAL/MOL
REMARK 923 INTER-LIGAND FREE ENERGY PREDICTED BY IDOCK:   -6.95 KCAL/MOL
REMARK 924 INTRA-LIGAND FREE ENERGY PREDICTED BY IDOCK:   -0.76 KCAL/MOL
REMARK 927      BINDING AFFINITY PREDICTED BY RF-SCORE:    0.00 PKD
ROOT
HETATM    1  C   UNL     1      -9.420  15.002  67.829  1.00  0.00    -0.195 C  
HETATM    2  C   UNL     1      -7.954  14.566  67.594  1.00  0.00    -0.190 C  
HETATM    3  C   UNL     1      -7.958  13.084  67.429  1.00  0.00    -0.173 A  
HETATM    4  C   UNL     1      -7.190  12.058  67.921  1.00  0.00    -0.102 A  
HETATM    5  N   UNL     1      -7.653  10.891  67.350  1.00  0.00    -0.097 NA 
HETATM    6  H   UNL     1      -7.251   9.966  67.506  1.00  0.00     0.000 HD 
HETATM    7  C   UNL     1      -8.737  11.149  66.537  1.00  0.00    -0.174 A  
HETATM    8  C   UNL     1      -9.521  10.345  65.710  1.00  0.00    -0.247 A  
HETATM    9  C   UNL     1     -10.633  10.960  65.104  1.00  0.00    -0.268 A  
HETATM   10  C   UNL     1     -11.013  12.281  65.411  1.00  0.00    -0.341 A  
HETATM   11  C   UNL     1     -10.227  13.056  66.270  1.00  0.00    -0.291 A  
HETATM   12  C   UNL     1     -10.546  14.303  67.002  1.00  0.00    -0.280 C  
HETATM   13  C   UNL     1      -9.022  12.489  66.713  1.00  0.00    -0.198 A  
HETATM   14  C   UNL     1     -11.810  14.628  67.347  1.00  0.00    -0.374 C  
HETATM   15  C   UNL     1     -11.986  15.454  68.624  1.00  0.00    -0.240 C  
HETATM   16  C   UNL     1      -9.651  17.178  66.696  1.00  0.00    -0.267 C  
HETATM   17  C   UNL     1     -10.950  16.626  68.717  1.00  0.00    -0.309 C  
HETATM   18  N   UNL     1      -9.674  16.456  67.968  1.00  0.00    -0.232 NA 
ENDROOT
BRANCH  15  19
HETATM   19  C   UNL     1     -11.820  14.458  69.821  1.00  0.00    -0.320 C  
HETATM   20  O   UNL     1     -11.315  14.770  70.902  1.00  0.00    -0.252 OA 
HETATM   21  N   UNL     1     -12.235  13.169  69.552  1.00  0.00    -0.217 N  
HETATM   22  H   UNL     1     -12.874  13.027  68.769  1.00  0.00     0.000 HD 
BRANCH  21  23
HETATM   23  CA  UNL     1     -11.817  11.992  70.318  1.00  0.00    -0.270 C  
BRANCH  23  24
HETATM   24  C   UNL     1     -11.561  10.830  69.324  1.00  0.00    -0.305 C  
HETATM   25  H   UNL     1     -12.098  10.334  67.482  1.00  0.00     0.000 HD 
HETATM   26  O   UNL     1     -12.255  11.046  68.091  1.00  0.00    -0.578 OA 
ENDBRANCH  23  24
BRANCH  23  27
HETATM   27  C   UNL     1     -12.872  11.573  71.354  1.00  0.00    -0.489 C  
HETATM   28  C   UNL     1     -12.878  10.086  71.671  1.00  0.00    -0.543 C  
ENDBRANCH  23  27
ENDBRANCH  21  23
ENDBRANCH  15  19
TORSDOF 4
ENDMDL
MODEL       21
REMARK 921   NORMALIZED FREE ENERGY PREDICTED BY IDOCK:   -5.36 KCAL/MOL
REMARK 922        TOTAL FREE ENERGY PREDICTED BY IDOCK:   -7.71 KCAL/MOL
REMARK 923 INTER-LIGAND FREE ENERGY PREDICTED BY IDOCK:   -6.61 KCAL/MOL
REMARK 924 INTRA-LIGAND FREE ENERGY PREDICTED BY IDOCK:   -1.10 KCAL/MOL
REMARK 927      BINDING AFFINITY PREDICTED BY RF-SCORE:    0.00 PKD
ROOT
HETATM    1  C   UNL     1      -9.599  16.182  66.141  1.00  0.00    -0.327 C  
HETATM    2  C   UNL     1     -10.361  15.397  65.047  1.00  0.00    -0.362 C  
HETATM    3  C   UNL     1     -10.624  14.032  65.590  1.00  0.00    -0.313 A  
HETATM    4  C   UNL     1     -10.508  12.759  65.090  1.00  0.00    -0.300 A  
HETATM    5  N   UNL     1     -10.967  11.895  66.063  1.00  0.00    -0.299 NA 
HETATM    6  H   UNL     1     -11.029  10.882  65.959  1.00  0.00     0.000 HD 
HETATM    7  C   UNL     1     -11.330  12.594  67.195  1.00  0.00    -0.319 A  
HETATM    8  C   UNL     1     -11.890  12.210  68.413  1.00  0.00    -0.360 A  
HETATM    9  C   UNL     1     -12.023  13.215  69.390  1.00  0.00    -0.347 A  
HETATM   10  C   UNL     1     -11.506  14.511  69.200  1.00  0.00    -0.324 A  
HETATM   11  C   UNL     1     -10.920  14.862  67.980  1.00  0.00    -0.282 A  
HETATM   12  C   UNL     1     -10.032  15.994  67.630  1.00  0.00    -0.239 C  
HETATM   13  C   UNL     1     -10.967  13.905  66.955  1.00  0.00    -0.300 A  
HETATM   14  C   UNL     1      -9.245  16.598  68.547  1.00  0.00    -0.234 C  
HETATM   15  C   UNL     1      -7.929  17.195  68.040  1.00  0.00    -0.212 C  
HETATM   16  C   UNL     1     -10.416  18.501  65.979  1.00  0.00    -0.400 C  
HETATM   17  C   UNL     1      -8.116  17.986  66.701  1.00  0.00    -0.260 C  
HETATM   18  N   UNL     1      -9.272  17.598  65.847  1.00  0.00    -0.518 NA 
ENDROOT
BRANCH  15  19
HETATM   19  C   UNL     1      -6.942  15.994  67.853  1.00  0.00    -0.135 C  
HETATM   20  O   UNL     1      -6.158  15.897  66.907  1.00  0.00    -0.297 OA 
HETATM   21  N   UNL     1      -7.058  15.006  68.811  1.00  0.00    -0.108 N  
HETATM   22  H   UNL     1      -7.511  15.247  69.692  1.00  0.00     0.000 HD 
BRANCH  21  23
HETATM   23  CA  UNL     1      -6.574  13.633  68.642  1.00  0.00    -0.097 C  
BRANCH  23  24
HETATM   24  C   UNL     1      -7.799  12.705  68.440  1.00  0.00    -0.136 C  
HETATM   25  H   UNL     1      -8.603  11.640  66.975  1.00  0.00     0.000 HD 
HETATM   26  O   UNL     1      -7.852  12.208  67.099  1.00  0.00    -0.163 OA 
ENDBRANCH  23  24
BRANCH  23  27
HETATM   27  C   UNL     1      -5.749  13.159  69.849  1.00  0.00    -0.121 C  
HETATM   28  C   UNL     1      -5.865  11.670  70.136  1.00  0.00    -0.153 C  
ENDBRANCH  23  27
ENDBRANCH  21  23
ENDBRANCH  15  19
TORSDOF 4
ENDMDL
MODEL       22
REMARK 921   NORMALIZED FREE ENERGY PREDICTED BY IDOCK:   -5.33 KCAL/MOL
REMARK 922        TOTAL FREE ENERGY PREDICTED BY IDOCK:   -7.67 KCAL/MOL
REMARK 923 INTER-LIGAND FREE ENERGY PREDICTED BY IDOCK:   -6.81 KCAL/MOL
REMARK 924 INTRA-LIGAND FREE ENERGY PREDICTED BY IDOCK:   -0.86 KCAL/MOL
REMARK 927      BINDING AFFINITY PREDICTED BY RF-SCORE:    0.00 PKD
ROOT
HETATM    1  C   UNL     1      -8.718  10.741  68.496  1.00  0.00    -0.149 C  
HETATM    2  C   UNL     1      -8.313  10.053  69.821  1.00  0.00    -0.187 C  
HETATM    3  C   UNL     1      -9.337   9.005  70.102  1.00  0.00    -0.213 A  
HETATM    4  C   UNL     1     -10.039   8.621  71.217  1.00  0.00    -0.242 A  
HETATM    5  N   UNL     1     -10.807   7.532  70.860  1.00  0.00    -0.236 NA 
HETATM    6  H   UNL     1     -11.412   7.012  71.497  1.00  0.00     0.000 HD 
HETATM    7  C   UNL     1     -10.643   7.244  69.521  1.00  0.00    -0.234 A  
HETATM    8  C   UNL     1     -11.141   6.238  68.695  1.00  0.00    -0.409 A  
HETATM    9  C   UNL     1     -10.830   6.336  67.325  1.00  0.00    -0.457 A  
HETATM   10  C   UNL     1     -10.160   7.454  66.792  1.00  0.00    -0.305 A  
HETATM   11  C   UNL     1      -9.699   8.466  67.639  1.00  0.00    -0.201 A  
HETATM   12  C   UNL     1      -9.279   9.855  67.338  1.00  0.00    -0.151 C  
HETATM   13  C   UNL     1      -9.852   8.259  69.018  1.00  0.00    -0.176 A  
HETATM   14  C   UNL     1      -9.741  10.525  66.261  1.00  0.00    -0.254 C  
HETATM   15  C   UNL     1      -9.858  12.046  66.394  1.00  0.00    -0.238 C  
HETATM   16  C   UNL     1      -6.601  11.262  67.348  1.00  0.00    -0.081 C  
HETATM   17  C   UNL     1      -8.601  12.678  67.082  1.00  0.00    -0.199 C  
HETATM   18  N   UNL     1      -7.810  11.792  67.980  1.00  0.00    -0.126 NA 
ENDROOT
BRANCH  15  19
HETATM   19  C   UNL     1     -11.155  12.317  67.230  1.00  0.00    -0.275 C  
HETATM   20  O   UNL     1     -12.282  11.968  66.871  1.00  0.00    -0.529 OA 
HETATM   21  N   UNL     1     -10.946  13.039  68.388  1.00  0.00    -0.251 N  
HETATM   22  H   UNL     1     -10.000  13.068  68.768  1.00  0.00     0.000 HD 
BRANCH  21  23
HETATM   23  CA  UNL     1     -11.997  13.765  69.107  1.00  0.00    -0.361 C  
BRANCH  23  24
HETATM   24  C   UNL     1     -11.557  15.246  69.246  1.00  0.00    -0.332 C  
HETATM   25  H   UNL     1     -11.068  16.746  68.048  1.00  0.00     0.000 HD 
HETATM   26  O   UNL     1     -11.337  15.839  67.963  1.00  0.00    -0.348 OA 
ENDBRANCH  23  24
BRANCH  23  27
HETATM   27  C   UNL     1     -12.267  13.165  70.496  1.00  0.00    -0.405 C  
HETATM   28  C   UNL     1     -12.168  11.648  70.548  1.00  0.00    -0.451 C  
ENDBRANCH  23  27
ENDBRANCH  21  23
ENDBRANCH  15  19
TORSDOF 4
ENDMDL
MODEL       23
REMARK 921   NORMALIZED FREE ENERGY PREDICTED BY IDOCK:   -5.30 KCAL/MOL
REMARK 922        TOTAL FREE ENERGY PREDICTED BY IDOCK:   -7.63 KCAL/MOL
REMARK 923 INTER-LIGAND FREE ENERGY PREDICTED BY IDOCK:   -7.13 KCAL/MOL
REMARK 924 INTRA-LIGAND FREE ENERGY PREDICTED BY IDOCK:   -0.50 KCAL/MOL
REMARK 927      BINDING AFFINITY PREDICTED BY RF-SCORE:    0.00 PKD
ROOT
HETATM    1  C   UNL     1      -9.221  13.193  67.698  1.00  0.00    -0.207 C  
HETATM    2  C   UNL     1      -7.804  12.699  67.323  1.00  0.00    -0.155 C  
HETATM    3  C   UNL     1      -7.971  11.588  66.342  1.00  0.00    -0.046 A  
HETATM    4  C   UNL     1      -7.417  10.341  66.195  1.00  0.00    -0.121 A  
HETATM    5  N   UNL     1      -7.937   9.796  65.039  1.00  0.00    -0.124 NA 
HETATM    6  H   UNL     1      -7.681   8.885  64.659  1.00  0.00     0.000 HD 
HETATM    7  C   UNL     1      -8.853  10.657  64.471  1.00  0.00    -0.176 A  
HETATM    8  C   UNL     1      -9.606  10.607  63.298  1.00  0.00    -0.382 A  
HETATM    9  C   UNL     1     -10.534  11.647  63.102  1.00  0.00    -0.368 A  
HETATM   10  C   UNL     1     -10.784  12.619  64.089  1.00  0.00    -0.435 A  
HETATM   11  C   UNL     1     -10.037  12.627  65.271  1.00  0.00    -0.271 A  
HETATM   12  C   UNL     1     -10.297  13.292  66.569  1.00  0.00    -0.285 C  
HETATM   13  C   UNL     1      -8.989  11.699  65.367  1.00  0.00     0.085 A  
HETATM   14  C   UNL     1     -11.547  13.599  66.979  1.00  0.00    -0.389 C  
HETATM   15  C   UNL     1     -11.797  13.594  68.490  1.00  0.00    -0.406 C  
HETATM   16  C   UNL     1      -9.013  15.630  67.999  1.00  0.00    -0.178 C  
HETATM   17  C   UNL     1     -10.645  14.302  69.282  1.00  0.00    -0.141 C  
HETATM   18  N   UNL     1      -9.308  14.343  68.629  1.00  0.00    -0.202 NA 
ENDROOT
BRANCH  15  19
HETATM   19  C   UNL     1     -11.930  12.091  68.910  1.00  0.00    -0.246 C  
HETATM   20  O   UNL     1     -12.166  11.179  68.114  1.00  0.00    -0.612 OA 
HETATM   21  N   UNL     1     -11.822  11.867  70.268  1.00  0.00    -0.479 N  
HETATM   22  H   UNL     1     -11.373  12.586  70.836  1.00  0.00     0.000 HD 
BRANCH  21  23
HETATM   23  CA  UNL     1     -12.311  10.663  70.947  1.00  0.00    -0.401 C  
BRANCH  23  24
HETATM   24  C   UNL     1     -13.278  11.100  72.077  1.00  0.00    -0.323 C  
HETATM   25  H   UNL     1     -14.021  12.791  72.795  1.00  0.00     0.000 HD 
HETATM   26  O   UNL     1     -13.428  12.523  72.103  1.00  0.00    -0.532 OA 
ENDBRANCH  23  24
BRANCH  23  27
HETATM   27  C   UNL     1     -11.163   9.825  71.532  1.00  0.00    -0.291 C  
HETATM   28  C   UNL     1     -11.620   8.585  72.285  1.00  0.00    -0.444 C  
ENDBRANCH  23  27
ENDBRANCH  21  23
ENDBRANCH  15  19
TORSDOF 4
ENDMDL
MODEL       24
REMARK 921   NORMALIZED FREE ENERGY PREDICTED BY IDOCK:   -5.30 KCAL/MOL
REMARK 922        TOTAL FREE ENERGY PREDICTED BY IDOCK:   -7.63 KCAL/MOL
REMARK 923 INTER-LIGAND FREE ENERGY PREDICTED BY IDOCK:   -7.59 KCAL/MOL
REMARK 924 INTRA-LIGAND FREE ENERGY PREDICTED BY IDOCK:   -0.04 KCAL/MOL
REMARK 927      BINDING AFFINITY PREDICTED BY RF-SCORE:    0.00 PKD
ROOT
HETATM    1  C   UNL     1     -10.083  13.353  66.161  1.00  0.00    -0.302 C  
HETATM    2  C   UNL     1      -8.815  13.118  67.016  1.00  0.00    -0.212 C  
HETATM    3  C   UNL     1      -8.902  14.034  68.191  1.00  0.00    -0.182 A  
HETATM    4  C   UNL     1      -8.022  14.877  68.821  1.00  0.00    -0.156 A  
HETATM    5  N   UNL     1      -8.681  15.419  69.906  1.00  0.00    -0.286 NA 
HETATM    6  H   UNL     1      -8.263  16.060  70.580  1.00  0.00     0.000 HD 
HETATM    7  C   UNL     1      -9.984  14.971  69.951  1.00  0.00    -0.005 A  
HETATM    8  C   UNL     1     -11.031  15.171  70.851  1.00  0.00    -0.239 A  
HETATM    9  C   UNL     1     -12.279  14.624  70.497  1.00  0.00    -0.389 A  
HETATM   10  C   UNL     1     -12.498  14.015  69.247  1.00  0.00    -0.046 A  
HETATM   11  C   UNL     1     -11.439  13.855  68.348  1.00  0.00    -0.346 A  
HETATM   12  C   UNL     1     -11.446  13.569  66.895  1.00  0.00    -0.374 C  
HETATM   13  C   UNL     1     -10.164  14.236  68.794  1.00  0.00    -0.226 A  
HETATM   14  C   UNL     1     -12.488  13.902  66.104  1.00  0.00    -0.478 C  
HETATM   15  C   UNL     1     -12.166  14.237  64.645  1.00  0.00    -0.470 C  
HETATM   16  C   UNL     1     -10.685  11.143  65.253  1.00  0.00    -0.203 C  
HETATM   17  C   UNL     1     -11.152  13.223  64.015  1.00  0.00    -0.311 C  
HETATM   18  N   UNL     1     -10.246  12.507  64.956  1.00  0.00    -0.289 NA 
ENDROOT
BRANCH  15  19
HETATM   19  C   UNL     1     -11.584  15.691  64.644  1.00  0.00    -0.249 C  
HETATM   20  O   UNL     1     -11.415  16.357  63.619  1.00  0.00    -0.858 OA 
HETATM   21  N   UNL     1     -11.214  16.159  65.889  1.00  0.00     0.064 N  
HETATM   22  H   UNL     1     -11.610  15.698  66.708  1.00  0.00     0.000 HD 
BRANCH  21  23
HETATM   23  CA  UNL     1     -10.289  17.274  66.109  1.00  0.00    -0.317 C  
BRANCH  23  24
HETATM   24  C   UNL     1      -8.840  16.740  65.968  1.00  0.00    -0.183 C  
HETATM   25  H   UNL     1      -7.027  17.485  65.683  1.00  0.00     0.000 HD 
HETATM   26  O   UNL     1      -7.914  17.812  65.770  1.00  0.00    -0.544 OA 
ENDBRANCH  23  24
BRANCH  23  27
HETATM   27  C   UNL     1     -10.479  17.917  67.492  1.00  0.00    -0.398 C  
HETATM   28  C   UNL     1     -10.616  19.431  67.461  1.00  0.00    -0.591 C  
ENDBRANCH  23  27
ENDBRANCH  21  23
ENDBRANCH  15  19
TORSDOF 4
ENDMDL
MODEL       25
REMARK 921   NORMALIZED FREE ENERGY PREDICTED BY IDOCK:   -5.25 KCAL/MOL
REMARK 922        TOTAL FREE ENERGY PREDICTED BY IDOCK:   -7.57 KCAL/MOL
REMARK 923 INTER-LIGAND FREE ENERGY PREDICTED BY IDOCK:   -6.68 KCAL/MOL
REMARK 924 INTRA-LIGAND FREE ENERGY PREDICTED BY IDOCK:   -0.89 KCAL/MOL
REMARK 927      BINDING AFFINITY PREDICTED BY RF-SCORE:    0.00 PKD
ROOT
HETATM    1  C   UNL     1     -10.191  11.224  68.374  1.00  0.00    -0.195 C  
HETATM    2  C   UNL     1     -11.564  11.932  68.458  1.00  0.00    -0.375 C  
HETATM    3  C   UNL     1     -11.723  12.731  67.208  1.00  0.00    -0.440 A  
HETATM    4  C   UNL     1     -12.144  14.007  66.928  1.00  0.00    -0.430 A  
HETATM    5  N   UNL     1     -12.128  14.151  65.556  1.00  0.00    -0.395 NA 
HETATM    6  H   UNL     1     -12.422  14.989  65.055  1.00  0.00     0.000 HD 
HETATM    7  C   UNL     1     -11.657  13.001  64.957  1.00  0.00    -0.325 A  
HETATM    8  C   UNL     1     -11.495  12.618  63.626  1.00  0.00    -0.563 A  
HETATM    9  C   UNL     1     -10.870  11.378  63.399  1.00  0.00    -0.375 A  
HETATM   10  C   UNL     1     -10.320  10.617  64.449  1.00  0.00    -0.347 A  
HETATM   11  C   UNL     1     -10.468  11.040  65.774  1.00  0.00    -0.290 A  
HETATM   12  C   UNL     1      -9.739  10.637  66.999  1.00  0.00    -0.207 C  
HETATM   13  C   UNL     1     -11.257  12.179  65.993  1.00  0.00    -0.382 A  
HETATM   14  C   UNL     1      -8.479  10.154  66.956  1.00  0.00    -0.129 C  
HETATM   15  C   UNL     1      -7.591  10.435  68.171  1.00  0.00    -0.091 C  
HETATM   16  C   UNL     1     -10.514   9.027  69.441  1.00  0.00    -0.222 C  
HETATM   17  C   UNL     1      -8.348  10.200  69.523  1.00  0.00    -0.168 C  
HETATM   18  N   UNL     1      -9.831  10.320  69.492  1.00  0.00    -0.231 NA 
ENDROOT
BRANCH  15  19
HETATM   19  C   UNL     1      -7.121  11.923  68.039  1.00  0.00    -0.084 C  
HETATM   20  O   UNL     1      -6.629  12.393  67.011  1.00  0.00    -0.127 OA 
HETATM   21  N   UNL     1      -7.245  12.665  69.197  1.00  0.00    -0.303 N  
HETATM   22  H   UNL     1      -7.885  12.326  69.915  1.00  0.00     0.000 HD 
BRANCH  21  23
HETATM   23  CA  UNL     1      -6.517  13.910  69.460  1.00  0.00    -0.115 C  
BRANCH  23  24
HETATM   24  C   UNL     1      -5.614  13.692  70.701  1.00  0.00    -0.165 C  
HETATM   25  H   UNL     1      -5.279  12.267  72.036  1.00  0.00     0.000 HD 
HETATM   26  O   UNL     1      -5.832  12.400  71.275  1.00  0.00    -0.349 OA 
ENDBRANCH  23  24
BRANCH  23  27
HETATM   27  C   UNL     1      -7.466  15.094  69.702  1.00  0.00    -0.181 C  
HETATM   28  C   UNL     1      -8.700  15.094  68.813  1.00  0.00    -0.194 C  
ENDBRANCH  23  27
ENDBRANCH  21  23
ENDBRANCH  15  19
TORSDOF 4
ENDMDL
MODEL       26
REMARK 921   NORMALIZED FREE ENERGY PREDICTED BY IDOCK:   -5.25 KCAL/MOL
REMARK 922        TOTAL FREE ENERGY PREDICTED BY IDOCK:   -7.57 KCAL/MOL
REMARK 923 INTER-LIGAND FREE ENERGY PREDICTED BY IDOCK:   -7.34 KCAL/MOL
REMARK 924 INTRA-LIGAND FREE ENERGY PREDICTED BY IDOCK:   -0.22 KCAL/MOL
REMARK 927      BINDING AFFINITY PREDICTED BY RF-SCORE:    0.00 PKD
ROOT
HETATM    1  C   UNL     1     -10.661  12.996  66.081  1.00  0.00    -0.273 C  
HETATM    2  C   UNL     1     -10.877  13.854  64.811  1.00  0.00    -0.430 C  
HETATM    3  C   UNL     1     -10.574  15.267  65.180  1.00  0.00    -0.453 A  
HETATM    4  C   UNL     1     -11.186  16.474  64.951  1.00  0.00    -0.133 A  
HETATM    5  N   UNL     1     -10.382  17.450  65.502  1.00  0.00    -0.644 NA 
HETATM    6  H   UNL     1     -10.570  18.452  65.457  1.00  0.00     0.000 HD 
HETATM    7  C   UNL     1      -9.289  16.882  66.121  1.00  0.00    -0.236 A  
HETATM    8  C   UNL     1      -8.176  17.416  66.769  1.00  0.00    -0.279 A  
HETATM    9  C   UNL     1      -7.303  16.498  67.384  1.00  0.00    -0.176 A  
HETATM   10  C   UNL     1      -7.598  15.123  67.454  1.00  0.00    -0.232 A  
HETATM   11  C   UNL     1      -8.739  14.616  66.823  1.00  0.00    -0.233 A  
HETATM   12  C   UNL     1      -9.446  13.328  67.005  1.00  0.00    -0.243 C  
HETATM   13  C   UNL     1      -9.494  15.517  66.057  1.00  0.00    -0.387 A  
HETATM   14  C   UNL     1      -9.388  12.636  68.164  1.00  0.00    -0.210 C  
HETATM   15  C   UNL     1     -10.612  11.790  68.523  1.00  0.00    -0.242 C  
HETATM   16  C   UNL     1      -9.736  10.857  65.283  1.00  0.00    -0.246 C  
HETATM   17  C   UNL     1     -11.155  10.984  67.294  1.00  0.00    -0.294 C  
HETATM   18  N   UNL     1     -10.852  11.533  65.944  1.00  0.00    -0.275 NA 
ENDROOT
BRANCH  15  19
HETATM   19  C   UNL     1     -11.693  12.784  69.067  1.00  0.00    -0.323 C  
HETATM   20  O   UNL     1     -12.624  13.218  68.385  1.00  0.00     0.217 OA 
HETATM   21  N   UNL     1     -11.488  13.193  70.370  1.00  0.00    -0.465 N  
HETATM   22  H   UNL     1     -10.884  12.620  70.959  1.00  0.00     0.000 HD 
BRANCH  21  23
HETATM   23  CA  UNL     1     -12.082  14.396  70.960  1.00  0.00    -0.349 C  
BRANCH  23  24
HETATM   24  C   UNL     1     -13.351  13.976  71.746  1.00  0.00    -0.386 C  
HETATM   25  H   UNL     1     -15.170  14.689  72.077  1.00  0.00     0.000 HD 
HETATM   26  O   UNL     1     -14.392  14.945  71.596  1.00  0.00    -0.469 OA 
ENDBRANCH  23  24
BRANCH  23  27
HETATM   27  C   UNL     1     -12.446  15.442  69.894  1.00  0.00    -0.274 C  
HETATM   28  C   UNL     1     -11.260  16.234  69.369  1.00  0.00    -0.311 C  
ENDBRANCH  23  27
ENDBRANCH  21  23
ENDBRANCH  15  19
TORSDOF 4
ENDMDL
MODEL       27
REMARK 921   NORMALIZED FREE ENERGY PREDICTED BY IDOCK:   -5.20 KCAL/MOL
REMARK 922        TOTAL FREE ENERGY PREDICTED BY IDOCK:   -7.50 KCAL/MOL
REMARK 923 INTER-LIGAND FREE ENERGY PREDICTED BY IDOCK:   -6.40 KCAL/MOL
REMARK 924 INTRA-LIGAND FREE ENERGY PREDICTED BY IDOCK:   -1.10 KCAL/MOL
REMARK 927      BINDING AFFINITY PREDICTED BY RF-SCORE:    0.00 PKD
ROOT
HETATM    1  C   UNL     1     -11.300  13.435  67.733  1.00  0.00    -0.294 C  
HETATM    2  C   UNL     1     -11.875  12.684  68.958  1.00  0.00    -0.341 C  
HETATM    3  C   UNL     1     -11.098  11.419  69.102  1.00  0.00    -0.317 A  
HETATM    4  C   UNL     1     -11.429  10.107  69.333  1.00  0.00    -0.142 A  
HETATM    5  N   UNL     1     -10.249   9.398  69.424  1.00  0.00    -0.198 NA 
HETATM    6  H   UNL     1     -10.184   8.400  69.624  1.00  0.00     0.000 HD 
HETATM    7  C   UNL     1      -9.170  10.229  69.207  1.00  0.00    -0.202 A  
HETATM    8  C   UNL     1      -7.791  10.027  69.237  1.00  0.00    -0.125 A  
HETATM    9  C   UNL     1      -6.986  11.114  68.848  1.00  0.00    -0.095 A  
HETATM   10  C   UNL     1      -7.538  12.303  68.333  1.00  0.00    -0.128 A  
HETATM   11  C   UNL     1      -8.926  12.468  68.282  1.00  0.00    -0.178 A  
HETATM   12  C   UNL     1      -9.752  13.429  67.516  1.00  0.00    -0.224 C  
HETATM   13  C   UNL     1      -9.708  11.451  68.850  1.00  0.00    -0.105 A  
HETATM   14  C   UNL     1      -9.323  13.982  66.362  1.00  0.00    -0.242 C  
HETATM   15  C   UNL     1     -10.394  14.341  65.329  1.00  0.00    -0.417 C  
HETATM   16  C   UNL     1     -11.419  15.827  68.309  1.00  0.00    -0.337 C  
HETATM   17  C   UNL     1     -11.633  15.043  65.982  1.00  0.00    -0.158 C  
HETATM   18  N   UNL     1     -11.884  14.761  67.422  1.00  0.00    -0.354 NA 
ENDROOT
BRANCH  15  19
HETATM   19  C   UNL     1     -10.807  12.999  64.636  1.00  0.00    -0.354 C  
HETATM   20  O   UNL     1     -11.965  12.727  64.313  1.00  0.00    -0.355 OA 
HETATM   21  N   UNL     1      -9.770  12.104  64.465  1.00  0.00    -0.472 N  
HETATM   22  H   UNL     1      -8.817  12.466  64.497  1.00  0.00     0.000 HD 
BRANCH  21  23
HETATM   23  CA  UNL     1      -9.950  10.666  64.240  1.00  0.00    -0.349 C  
BRANCH  23  24
HETATM   24  C   UNL     1      -9.298   9.903  65.421  1.00  0.00    -0.239 C  
HETATM   25  H   UNL     1      -9.875   8.685  66.874  1.00  0.00     0.000 HD 
HETATM   26  O   UNL     1     -10.275   9.153  66.150  1.00  0.00    -0.272 OA 
ENDBRANCH  23  24
BRANCH  23  27
HETATM   27  C   UNL     1      -9.329  10.208  62.911  1.00  0.00    -0.320 C  
HETATM   28  C   UNL     1      -8.281   9.116  63.058  1.00  0.00    -0.182 C  
ENDBRANCH  23  27
ENDBRANCH  21  23
ENDBRANCH  15  19
TORSDOF 4
ENDMDL
MODEL       28
REMARK 921   NORMALIZED FREE ENERGY PREDICTED BY IDOCK:   -5.19 KCAL/MOL
REMARK 922        TOTAL FREE ENERGY PREDICTED BY IDOCK:   -7.50 KCAL/MOL
REMARK 923 INTER-LIGAND FREE ENERGY PREDICTED BY IDOCK:   -6.84 KCAL/MOL
REMARK 924 INTRA-LIGAND FREE ENERGY PREDICTED BY IDOCK:   -0.66 KCAL/MOL
REMARK 927      BINDING AFFINITY PREDICTED BY RF-SCORE:    0.00 PKD
ROOT
HETATM    1  C   UNL     1     -11.254  13.016  67.041  1.00  0.00    -0.289 C  
HETATM    2  C   UNL     1     -12.280  14.106  67.432  1.00  0.00    -0.278 C  
HETATM    3  C   UNL     1     -11.560  15.103  68.275  1.00  0.00    -0.357 A  
HETATM    4  C   UNL     1     -11.843  15.752  69.451  1.00  0.00    -0.349 A  
HETATM    5  N   UNL     1     -10.796  16.615  69.704  1.00  0.00    -0.339 NA 
HETATM    6  H   UNL     1     -10.747  17.254  70.498  1.00  0.00     0.000 HD 
HETATM    7  C   UNL     1      -9.825  16.492  68.732  1.00  0.00    -0.254 A  
HETATM    8  C   UNL     1      -8.621  17.154  68.499  1.00  0.00    -0.258 A  
HETATM    9  C   UNL     1      -7.828  16.668  67.442  1.00  0.00    -0.188 A  
HETATM   10  C   UNL     1      -8.166  15.498  66.735  1.00  0.00    -0.277 A  
HETATM   11  C   UNL     1      -9.365  14.833  67.010  1.00  0.00    -0.245 A  
HETATM   12  C   UNL     1      -9.801  13.458  66.674  1.00  0.00    -0.278 C  
HETATM   13  C   UNL     1     -10.230  15.439  67.934  1.00  0.00    -0.239 A  
HETATM   14  C   UNL     1      -8.918  12.456  66.475  1.00  0.00    -0.145 C  
HETATM   15  C   UNL     1      -9.385  11.044  66.841  1.00  0.00    -0.189 C  
HETATM   16  C   UNL     1     -11.849  12.341  64.747  1.00  0.00    -0.364 C  
HETATM   17  C   UNL     1     -10.842  10.755  66.344  1.00  0.00    -0.104 C  
HETATM   18  N   UNL     1     -11.731  11.933  66.148  1.00  0.00    -0.496 NA 
ENDROOT
BRANCH  15  19
HETATM   19  C   UNL     1      -9.289  10.938  68.401  1.00  0.00    -0.172 C  
HETATM   20  O   UNL     1      -8.278  11.232  69.043  1.00  0.00    -0.118 OA 
HETATM   21  N   UNL     1     -10.419  10.427  69.008  1.00  0.00    -0.205 N  
HETATM   22  H   UNL     1     -11.294  10.454  68.485  1.00  0.00     0.000 HD 
BRANCH  21  23
HETATM   23  CA  UNL     1     -10.441   9.849  70.355  1.00  0.00    -0.285 C  
BRANCH  23  24
HETATM   24  C   UNL     1      -9.923   8.391  70.267  1.00  0.00    -0.186 C  
HETATM   25  H   UNL     1     -10.679   6.585  69.956  1.00  0.00     0.000 HD 
HETATM   26  O   UNL     1     -10.996   7.479  70.010  1.00  0.00    -0.257 OA 
ENDBRANCH  23  24
BRANCH  23  27
HETATM   27  C   UNL     1     -11.850   9.871  70.969  1.00  0.00    -0.463 C  
HETATM   28  C   UNL     1     -12.466  11.258  71.064  1.00  0.00    -0.503 C  
ENDBRANCH  23  27
ENDBRANCH  21  23
ENDBRANCH  15  19
TORSDOF 4
ENDMDL
MODEL       29
REMARK 921   NORMALIZED FREE ENERGY PREDICTED BY IDOCK:   -5.17 KCAL/MOL
REMARK 922        TOTAL FREE ENERGY PREDICTED BY IDOCK:   -7.48 KCAL/MOL
REMARK 923 INTER-LIGAND FREE ENERGY PREDICTED BY IDOCK:   -6.44 KCAL/MOL
REMARK 924 INTRA-LIGAND FREE ENERGY PREDICTED BY IDOCK:   -1.04 KCAL/MOL
REMARK 927      BINDING AFFINITY PREDICTED BY RF-SCORE:    0.00 PKD
ROOT
HETATM    1  C   UNL     1      -9.420  13.621  67.334  1.00  0.00    -0.225 C  
HETATM    2  C   UNL     1      -7.880  13.487  67.401  1.00  0.00    -0.157 C  
HETATM    3  C   UNL     1      -7.576  12.057  67.693  1.00  0.00    -0.136 A  
HETATM    4  C   UNL     1      -6.722  11.410  68.552  1.00  0.00    -0.069 A  
HETATM    5  N   UNL     1      -6.852  10.057  68.315  1.00  0.00    -0.063 NA 
HETATM    6  H   UNL     1      -6.315   9.329  68.786  1.00  0.00     0.000 HD 
HETATM    7  C   UNL     1      -7.811   9.827  67.351  1.00  0.00    -0.099 A  
HETATM    8  C   UNL     1      -8.277   8.669  66.727  1.00  0.00    -0.108 A  
HETATM    9  C   UNL     1      -9.366   8.822  65.849  1.00  0.00    -0.284 A  
HETATM   10  C   UNL     1     -10.036  10.052  65.699  1.00  0.00    -0.355 A  
HETATM   11  C   UNL     1      -9.568  11.192  66.361  1.00  0.00    -0.227 A  
HETATM   12  C   UNL     1     -10.236  12.483  66.643  1.00  0.00    -0.243 C  
HETATM   13  C   UNL     1      -8.371  11.061  67.081  1.00  0.00    -0.132 A  
HETATM   14  C   UNL     1     -11.579  12.588  66.735  1.00  0.00    -0.446 C  
HETATM   15  C   UNL     1     -12.122  13.668  67.675  1.00  0.00    -0.328 C  
HETATM   16  C   UNL     1      -9.863  15.290  65.577  1.00  0.00    -0.326 C  
HETATM   17  C   UNL     1     -11.358  15.027  67.520  1.00  0.00    -0.333 C  
HETATM   18  N   UNL     1      -9.965  14.958  66.999  1.00  0.00    -0.237 NA 
ENDROOT
BRANCH  15  19
HETATM   19  C   UNL     1     -11.977  13.102  69.128  1.00  0.00    -0.281 C  
HETATM   20  O   UNL     1     -11.679  13.796  70.103  1.00  0.00    -0.279 OA 
HETATM   21  N   UNL     1     -12.153  11.737  69.229  1.00  0.00    -0.269 N  
HETATM   22  H   UNL     1     -12.649  11.263  68.474  1.00  0.00     0.000 HD 
BRANCH  21  23
HETATM   23  CA  UNL     1     -11.674  10.924  70.351  1.00  0.00    -0.350 C  
BRANCH  23  24
HETATM   24  C   UNL     1     -10.854   9.739  69.778  1.00  0.00    -0.257 C  
HETATM   25  H   UNL     1      -8.989   9.076  69.858  1.00  0.00     0.000 HD 
HETATM   26  O   UNL     1      -9.491   9.802  70.209  1.00  0.00    -0.249 OA 
ENDBRANCH  23  24
BRANCH  23  27
HETATM   27  C   UNL     1     -12.829  10.395  71.215  1.00  0.00    -0.533 C  
HETATM   28  C   UNL     1     -12.534   9.073  71.907  1.00  0.00    -0.454 C  
ENDBRANCH  23  27
ENDBRANCH  21  23
ENDBRANCH  15  19
TORSDOF 4
ENDMDL
MODEL       30
REMARK 921   NORMALIZED FREE ENERGY PREDICTED BY IDOCK:   -5.16 KCAL/MOL
REMARK 922        TOTAL FREE ENERGY PREDICTED BY IDOCK:   -7.45 KCAL/MOL
REMARK 923 INTER-LIGAND FREE ENERGY PREDICTED BY IDOCK:   -6.64 KCAL/MOL
REMARK 924 INTRA-LIGAND FREE ENERGY PREDICTED BY IDOCK:   -0.81 KCAL/MOL
REMARK 927      BINDING AFFINITY PREDICTED BY RF-SCORE:    0.00 PKD
ROOT
HETATM    1  C   UNL     1     -10.660  10.177  69.079  1.00  0.00    -0.223 C  
HETATM    2  C   UNL     1     -11.863  10.556  69.974  1.00  0.00    -0.388 C  
HETATM    3  C   UNL     1     -11.969   9.510  71.033  1.00  0.00    -0.407 A  
HETATM    4  C   UNL     1     -13.005   8.790  71.573  1.00  0.00    -0.319 A  
HETATM    5  N   UNL     1     -12.476   8.004  72.577  1.00  0.00    -0.574 NA 
HETATM    6  H   UNL     1     -13.019   7.384  73.178  1.00  0.00     0.000 HD 
HETATM    7  C   UNL     1     -11.110   8.177  72.654  1.00  0.00    -0.380 A  
HETATM    8  C   UNL     1     -10.132   7.668  73.508  1.00  0.00    -0.345 A  
HETATM    9  C   UNL     1      -8.797   7.995  73.203  1.00  0.00    -0.318 A  
HETATM   10  C   UNL     1      -8.450   8.691  72.029  1.00  0.00    -0.191 A  
HETATM   11  C   UNL     1      -9.449   9.162  71.171  1.00  0.00    -0.331 A  
HETATM   12  C   UNL     1      -9.373   9.611  69.761  1.00  0.00    -0.238 C  
HETATM   13  C   UNL     1     -10.778   8.992  71.589  1.00  0.00    -0.441 A  
HETATM   14  C   UNL     1      -8.412   9.173  68.921  1.00  0.00    -0.129 C  
HETATM   15  C   UNL     1      -8.781   9.082  67.438  1.00  0.00    -0.122 C  
HETATM   16  C   UNL     1      -9.623  12.315  68.426  1.00  0.00    -0.183 C  
HETATM   17  C   UNL     1      -9.568  10.344  66.947  1.00  0.00    -0.172 C  
HETATM   18  N   UNL     1     -10.321  11.110  67.978  1.00  0.00    -0.179 NA 
ENDROOT
BRANCH  15  19
HETATM   19  C   UNL     1      -9.640   7.783  67.275  1.00  0.00    -0.161 C  
HETATM   20  O   UNL     1     -10.759   7.766  66.756  1.00  0.00    -0.311 OA 
HETATM   21  N   UNL     1      -9.068   6.650  67.818  1.00  0.00    -0.115 N  
HETATM   22  H   UNL     1      -8.063   6.657  67.986  1.00  0.00     0.000 HD 
BRANCH  21  23
HETATM   23  CA  UNL     1      -9.813   5.436  68.166  1.00  0.00    -0.145 C  
BRANCH  23  24
HETATM   24  C   UNL     1     -10.611   4.979  66.918  1.00  0.00    -0.117 C  
HETATM   25  H   UNL     1     -10.259   3.985  65.240  1.00  0.00     0.000 HD 
HETATM   26  O   UNL     1      -9.771   4.265  66.005  1.00  0.00    -0.177 OA 
ENDBRANCH  23  24
BRANCH  23  27
HETATM   27  C   UNL     1     -10.771   5.666  69.346  1.00  0.00    -0.365 C  
HETATM   28  C   UNL     1     -10.167   5.357  70.707  1.00  0.00    -0.313 C  
ENDBRANCH  23  27
ENDBRANCH  21  23
ENDBRANCH  15  19
TORSDOF 4
ENDMDL
MODEL       31
REMARK 921   NORMALIZED FREE ENERGY PREDICTED BY IDOCK:   -5.08 KCAL/MOL
REMARK 922        TOTAL FREE ENERGY PREDICTED BY IDOCK:   -7.37 KCAL/MOL
REMARK 923 INTER-LIGAND FREE ENERGY PREDICTED BY IDOCK:   -6.62 KCAL/MOL
REMARK 924 INTRA-LIGAND FREE ENERGY PREDICTED BY IDOCK:   -0.75 KCAL/MOL
REMARK 927      BINDING AFFINITY PREDICTED BY RF-SCORE:    0.00 PKD
ROOT
HETATM    1  C   UNL     1      -9.655  10.840  68.377  1.00  0.00    -0.176 C  
HETATM    2  C   UNL     1     -10.848  11.233  69.280  1.00  0.00    -0.259 C  
HETATM    3  C   UNL     1     -11.437  12.480  68.712  1.00  0.00    -0.353 A  
HETATM    4  C   UNL     1     -11.864  13.672  69.242  1.00  0.00    -0.346 A  
HETATM    5  N   UNL     1     -12.374  14.422  68.203  1.00  0.00    -0.590 NA 
HETATM    6  H   UNL     1     -12.795  15.346  68.304  1.00  0.00     0.000 HD 
HETATM    7  C   UNL     1     -12.235  13.748  67.008  1.00  0.00    -0.340 A  
HETATM    8  C   UNL     1     -12.624  14.036  65.701  1.00  0.00    -0.542 A  
HETATM    9  C   UNL     1     -12.203  13.134  64.705  1.00  0.00    -0.477 A  
HETATM   10  C   UNL     1     -11.331  12.066  64.988  1.00  0.00    -0.365 A  
HETATM   11  C   UNL     1     -10.929  11.817  66.305  1.00  0.00    -0.346 A  
HETATM   12  C   UNL     1      -9.805  11.009  66.831  1.00  0.00    -0.222 C  
HETATM   13  C   UNL     1     -11.509  12.611  67.306  1.00  0.00    -0.402 A  
HETATM   14  C   UNL     1      -8.688  10.780  66.107  1.00  0.00    -0.186 C  
HETATM   15  C   UNL     1      -7.384  10.601  66.890  1.00  0.00    -0.114 C  
HETATM   16  C   UNL     1      -9.656   8.377  68.316  1.00  0.00    -0.144 C  
HETATM   17  C   UNL     1      -7.568   9.676  68.141  1.00  0.00    -0.082 C  
HETATM   18  N   UNL     1      -8.939   9.588  68.716  1.00  0.00    -0.131 NA 
ENDROOT
BRANCH  15  19
HETATM   19  C   UNL     1      -6.923  12.036  67.313  1.00  0.00    -0.146 C  
HETATM   20  O   UNL     1      -5.986  12.251  68.086  1.00  0.00    -0.051 OA 
HETATM   21  N   UNL     1      -7.692  13.059  66.794  1.00  0.00    -0.334 N  
HETATM   22  H   UNL     1      -8.264  12.856  65.974  1.00  0.00     0.000 HD 
BRANCH  21  23
HETATM   23  CA  UNL     1      -7.740  14.416  67.345  1.00  0.00    -0.185 C  
BRANCH  23  24
HETATM   24  C   UNL     1      -8.283  14.334  68.795  1.00  0.00    -0.102 C  
HETATM   25  H   UNL     1      -7.739  14.948  70.599  1.00  0.00     0.000 HD 
HETATM   26  O   UNL     1      -7.407  14.998  69.711  1.00  0.00    -0.198 OA 
ENDBRANCH  23  24
BRANCH  23  27
HETATM   27  C   UNL     1      -8.625  15.349  66.505  1.00  0.00    -0.294 C  
HETATM   28  C   UNL     1      -9.504  16.280  67.326  1.00  0.00    -0.231 C  
ENDBRANCH  23  27
ENDBRANCH  21  23
ENDBRANCH  15  19
TORSDOF 4
ENDMDL
MODEL       32
REMARK 921   NORMALIZED FREE ENERGY PREDICTED BY IDOCK:   -5.08 KCAL/MOL
REMARK 922        TOTAL FREE ENERGY PREDICTED BY IDOCK:   -7.36 KCAL/MOL
REMARK 923 INTER-LIGAND FREE ENERGY PREDICTED BY IDOCK:   -6.71 KCAL/MOL
REMARK 924 INTRA-LIGAND FREE ENERGY PREDICTED BY IDOCK:   -0.65 KCAL/MOL
REMARK 927      BINDING AFFINITY PREDICTED BY RF-SCORE:    0.00 PKD
ROOT
HETATM    1  C   UNL     1      -9.838  17.636  66.534  1.00  0.00    -0.319 C  
HETATM    2  C   UNL     1     -10.203  16.490  65.560  1.00  0.00    -0.261 C  
HETATM    3  C   UNL     1     -10.208  15.226  66.352  1.00  0.00    -0.287 A  
HETATM    4  C   UNL     1      -9.708  13.963  66.153  1.00  0.00    -0.272 A  
HETATM    5  N   UNL     1     -10.092  13.197  67.235  1.00  0.00    -0.231 NA 
HETATM    6  H   UNL     1      -9.889  12.204  67.346  1.00  0.00     0.000 HD 
HETATM    7  C   UNL     1     -10.789  13.964  68.145  1.00  0.00    -0.249 A  
HETATM    8  C   UNL     1     -11.424  13.668  69.351  1.00  0.00    -0.343 A  
HETATM    9  C   UNL     1     -11.951  14.759  70.069  1.00  0.00    -0.369 A  
HETATM   10  C   UNL     1     -11.741  16.090  69.661  1.00  0.00    -0.278 A  
HETATM   11  C   UNL     1     -11.072  16.361  68.463  1.00  0.00    -0.357 A  
HETATM   12  C   UNL     1     -10.443  17.609  67.974  1.00  0.00    -0.395 C  
HETATM   13  C   UNL     1     -10.722  15.259  67.668  1.00  0.00    -0.282 A  
HETATM   14  C   UNL     1      -9.983  18.557  68.818  1.00  0.00    -0.417 C  
HETATM   15  C   UNL     1      -8.788  19.387  68.337  1.00  0.00    -0.397 C  
HETATM   16  C   UNL     1     -11.158  19.579  65.791  1.00  0.00     0.044 C  
HETATM   17  C   UNL     1      -8.947  19.843  66.847  1.00  0.00    -0.347 C  
HETATM   18  N   UNL     1      -9.824  19.010  65.979  1.00  0.00    -0.481 NA 
ENDROOT
BRANCH  15  19
HETATM   19  C   UNL     1      -7.522  18.483  68.519  1.00  0.00    -0.297 C  
HETATM   20  O   UNL     1      -7.012  18.238  69.615  1.00  0.00    -0.069 OA 
HETATM   21  N   UNL     1      -6.975  18.023  67.338  1.00  0.00    -0.189 N  
HETATM   22  H   UNL     1      -7.566  18.025  66.507  1.00  0.00     0.000 HD 
BRANCH  21  23
HETATM   23  CA  UNL     1      -5.601  17.531  67.202  1.00  0.00    -0.136 C  
BRANCH  23  24
HETATM   24  C   UNL     1      -5.146  17.756  65.737  1.00  0.00    -0.179 C  
HETATM   25  H   UNL     1      -5.881  18.566  64.085  1.00  0.00     0.000 HD 
HETATM   26  O   UNL     1      -6.159  18.428  64.982  1.00  0.00    -0.249 OA 
ENDBRANCH  23  24
BRANCH  23  27
HETATM   27  C   UNL     1      -5.482  16.043  67.566  1.00  0.00    -0.136 C  
HETATM   28  C   UNL     1      -6.789  15.271  67.466  1.00  0.00    -0.218 C  
ENDBRANCH  23  27
ENDBRANCH  21  23
ENDBRANCH  15  19
TORSDOF 4
ENDMDL
MODEL       33
REMARK 921   NORMALIZED FREE ENERGY PREDICTED BY IDOCK:   -5.07 KCAL/MOL
REMARK 922        TOTAL FREE ENERGY PREDICTED BY IDOCK:   -7.34 KCAL/MOL
REMARK 923 INTER-LIGAND FREE ENERGY PREDICTED BY IDOCK:   -6.21 KCAL/MOL
REMARK 924 INTRA-LIGAND FREE ENERGY PREDICTED BY IDOCK:   -1.14 KCAL/MOL
REMARK 927      BINDING AFFINITY PREDICTED BY RF-SCORE:    0.00 PKD
ROOT
HETATM    1  C   UNL     1     -10.493  12.648  65.670  1.00  0.00    -0.275 C  
HETATM    2  C   UNL     1     -10.318  11.846  64.358  1.00  0.00    -0.341 C  
HETATM    3  C   UNL     1      -9.565  10.605  64.700  1.00  0.00    -0.334 A  
HETATM    4  C   UNL     1      -8.506   9.937  64.138  1.00  0.00    -0.175 A  
HETATM    5  N   UNL     1      -8.297   8.798  64.888  1.00  0.00    -0.162 NA 
HETATM    6  H   UNL     1      -7.592   8.089  64.686  1.00  0.00     0.000 HD 
HETATM    7  C   UNL     1      -9.177   8.752  65.950  1.00  0.00    -0.220 A  
HETATM    8  C   UNL     1      -9.411   7.813  66.953  1.00  0.00    -0.238 A  
HETATM    9  C   UNL     1     -10.340   8.173  67.948  1.00  0.00    -0.280 A  
HETATM   10  C   UNL     1     -10.910   9.459  68.004  1.00  0.00    -0.197 A  
HETATM   11  C   UNL     1     -10.633  10.395  67.003  1.00  0.00    -0.305 A  
HETATM   12  C   UNL     1     -10.815  11.865  66.983  1.00  0.00    -0.303 C  
HETATM   13  C   UNL     1      -9.856   9.955  65.920  1.00  0.00    -0.342 A  
HETATM   14  C   UNL     1     -10.822  12.601  68.115  1.00  0.00    -0.250 C  
HETATM   15  C   UNL     1     -10.308  14.039  68.005  1.00  0.00    -0.240 C  
HETATM   16  C   UNL     1     -12.714  13.702  65.509  1.00  0.00    -0.466 C  
HETATM   17  C   UNL     1     -10.861  14.769  66.734  1.00  0.00    -0.316 C  
HETATM   18  N   UNL     1     -11.268  13.908  65.589  1.00  0.00    -0.303 NA 
ENDROOT
BRANCH  15  19
HETATM   19  C   UNL     1      -8.745  13.947  67.968  1.00  0.00    -0.183 C  
HETATM   20  O   UNL     1      -8.030  14.738  67.348  1.00  0.00    -0.170 OA 
HETATM   21  N   UNL     1      -8.221  12.863  68.643  1.00  0.00    -0.332 N  
HETATM   22  H   UNL     1      -8.807  12.408  69.343  1.00  0.00     0.000 HD 
BRANCH  21  23
HETATM   23  CA  UNL     1      -6.876  12.324  68.421  1.00  0.00    -0.075 C  
BRANCH  23  24
HETATM   24  C   UNL     1      -6.797  11.799  66.964  1.00  0.00    -0.137 C  
HETATM   25  H   UNL     1      -5.443  11.681  65.522  1.00  0.00     0.000 HD 
HETATM   26  O   UNL     1      -5.492  12.003  66.414  1.00  0.00    -0.291 OA 
ENDBRANCH  23  24
BRANCH  23  27
HETATM   27  C   UNL     1      -6.536  11.195  69.405  1.00  0.00    -0.109 C  
HETATM   28  C   UNL     1      -7.682  10.229  69.664  1.00  0.00    -0.166 C  
ENDBRANCH  23  27
ENDBRANCH  21  23
ENDBRANCH  15  19
TORSDOF 4
ENDMDL
MODEL       34
REMARK 921   NORMALIZED FREE ENERGY PREDICTED BY IDOCK:   -5.05 KCAL/MOL
REMARK 922        TOTAL FREE ENERGY PREDICTED BY IDOCK:   -7.32 KCAL/MOL
REMARK 923 INTER-LIGAND FREE ENERGY PREDICTED BY IDOCK:   -6.48 KCAL/MOL
REMARK 924 INTRA-LIGAND FREE ENERGY PREDICTED BY IDOCK:   -0.84 KCAL/MOL
REMARK 927      BINDING AFFINITY PREDICTED BY RF-SCORE:    0.00 PKD
ROOT
HETATM    1  C   UNL     1      -9.322   7.979  71.183  1.00  0.00    -0.149 C  
HETATM    2  C   UNL     1      -8.076   8.897  71.150  1.00  0.00    -0.201 C  
HETATM    3  C   UNL     1      -8.233   9.807  69.978  1.00  0.00    -0.207 A  
HETATM    4  C   UNL     1      -7.402  10.231  68.972  1.00  0.00    -0.092 A  
HETATM    5  N   UNL     1      -8.115  11.132  68.207  1.00  0.00    -0.124 NA 
HETATM    6  H   UNL     1      -7.741  11.637  67.403  1.00  0.00     0.000 HD 
HETATM    7  C   UNL     1      -9.404  11.253  68.681  1.00  0.00    -0.164 A  
HETATM    8  C   UNL     1     -10.486  12.049  68.307  1.00  0.00    -0.218 A  
HETATM    9  C   UNL     1     -11.703  11.811  68.973  1.00  0.00    -0.390 A  
HETATM   10  C   UNL     1     -11.860  10.744  69.879  1.00  0.00    -0.413 A  
HETATM   11  C   UNL     1     -10.766   9.939  70.213  1.00  0.00    -0.367 A  
HETATM   12  C   UNL     1     -10.715   8.602  70.847  1.00  0.00    -0.269 C  
HETATM   13  C   UNL     1      -9.521  10.310  69.684  1.00  0.00    -0.180 A  
HETATM   14  C   UNL     1     -11.739   7.727  70.760  1.00  0.00    -0.242 C  
HETATM   15  C   UNL     1     -11.379   6.239  70.781  1.00  0.00    -0.397 C  
HETATM   16  C   UNL     1      -9.821   7.629  73.570  1.00  0.00    -0.297 C  
HETATM   17  C   UNL     1     -10.312   5.905  71.878  1.00  0.00    -0.210 C  
HETATM   18  N   UNL     1      -9.417   7.016  72.305  1.00  0.00    -0.140 NA 
ENDROOT
BRANCH  15  19
HETATM   19  C   UNL     1     -10.844   5.894  69.350  1.00  0.00    -0.352 C  
HETATM   20  O   UNL     1      -9.878   5.157  69.144  1.00  0.00    -0.155 OA 
HETATM   21  N   UNL     1     -11.510   6.532  68.323  1.00  0.00    -0.543 N  
HETATM   22  H   UNL     1     -12.440   6.904  68.516  1.00  0.00     0.000 HD 
BRANCH  21  23
HETATM   23  CA  UNL     1     -10.966   6.712  66.974  1.00  0.00    -0.393 C  
BRANCH  23  24
HETATM   24  C   UNL     1     -10.578   5.318  66.416  1.00  0.00    -0.276 C  
HETATM   25  H   UNL     1      -9.025   4.483  65.513  1.00  0.00     0.000 HD 
HETATM   26  O   UNL     1      -9.263   5.337  65.855  1.00  0.00    -0.155 OA 
ENDBRANCH  23  24
BRANCH  23  27
HETATM   27  C   UNL     1      -9.741   7.640  66.964  1.00  0.00    -0.255 C  
HETATM   28  C   UNL     1      -9.930   8.910  66.148  1.00  0.00    -0.290 C  
ENDBRANCH  23  27
ENDBRANCH  21  23
ENDBRANCH  15  19
TORSDOF 4
ENDMDL
MODEL       35
REMARK 921   NORMALIZED FREE ENERGY PREDICTED BY IDOCK:   -5.02 KCAL/MOL
REMARK 922        TOTAL FREE ENERGY PREDICTED BY IDOCK:   -7.28 KCAL/MOL
REMARK 923 INTER-LIGAND FREE ENERGY PREDICTED BY IDOCK:   -6.37 KCAL/MOL
REMARK 924 INTRA-LIGAND FREE ENERGY PREDICTED BY IDOCK:   -0.91 KCAL/MOL
REMARK 927      BINDING AFFINITY PREDICTED BY RF-SCORE:    0.00 PKD
ROOT
HETATM    1  C   UNL     1     -10.084  16.635  68.164  1.00  0.00    -0.267 C  
HETATM    2  C   UNL     1     -10.880  16.658  69.492  1.00  0.00    -0.285 C  
HETATM    3  C   UNL     1     -11.634  15.374  69.573  1.00  0.00    -0.346 A  
HETATM    4  C   UNL     1     -12.922  15.034  69.906  1.00  0.00     0.107 A  
HETATM    5  N   UNL     1     -13.008  13.658  69.853  1.00  0.00     0.060 NA 
HETATM    6  H   UNL     1     -13.842  13.118  70.083  1.00  0.00     0.000 HD 
HETATM    7  C   UNL     1     -11.807  13.116  69.444  1.00  0.00    -0.326 A  
HETATM    8  C   UNL     1     -11.361  11.806  69.279  1.00  0.00    -0.348 A  
HETATM    9  C   UNL     1     -10.075  11.643  68.729  1.00  0.00    -0.169 A  
HETATM   10  C   UNL     1      -9.326  12.735  68.251  1.00  0.00    -0.194 A  
HETATM   11  C   UNL     1      -9.811  14.038  68.398  1.00  0.00    -0.232 A  
HETATM   12  C   UNL     1      -9.414  15.295  67.722  1.00  0.00    -0.197 C  
HETATM   13  C   UNL     1     -11.005  14.193  69.118  1.00  0.00    -0.280 A  
HETATM   14  C   UNL     1      -8.852  15.301  66.495  1.00  0.00    -0.335 C  
HETATM   15  C   UNL     1      -9.127  16.525  65.616  1.00  0.00     0.164 C  
HETATM   16  C   UNL     1      -7.958  17.780  68.649  1.00  0.00    -0.276 C  
HETATM   17  C   UNL     1      -8.995  17.866  66.414  1.00  0.00    -0.227 C  
HETATM   18  N   UNL     1      -9.206  17.796  67.887  1.00  0.00    -0.260 NA 
ENDROOT
BRANCH  15  19
HETATM   19  C   UNL     1     -10.576  16.345  65.050  1.00  0.00    -0.193 C  
HETATM   20  O   UNL     1     -11.409  17.252  65.011  1.00  0.00    -0.331 OA 
HETATM   21  N   UNL     1     -10.874  15.059  64.645  1.00  0.00    -0.625 N  
HETATM   22  H   UNL     1     -10.097  14.429  64.448  1.00  0.00     0.000 HD 
BRANCH  21  23
HETATM   23  CA  UNL     1     -12.236  14.542  64.479  1.00  0.00    -0.465 C  
BRANCH  23  24
HETATM   24  C   UNL     1     -12.819  14.247  65.885  1.00  0.00    -0.183 C  
HETATM   25  H   UNL     1     -12.914  12.715  67.138  1.00  0.00     0.000 HD 
HETATM   26  O   UNL     1     -12.557  12.896  66.276  1.00  0.00    -0.380 OA 
ENDBRANCH  23  24
BRANCH  23  27
HETATM   27  C   UNL     1     -12.269  13.269  63.619  1.00  0.00    -0.522 C  
HETATM   28  C   UNL     1     -10.910  12.615  63.422  1.00  0.00    -0.265 C  
ENDBRANCH  23  27
ENDBRANCH  21  23
ENDBRANCH  15  19
TORSDOF 4
ENDMDL
MODEL       36
REMARK 921   NORMALIZED FREE ENERGY PREDICTED BY IDOCK:   -5.00 KCAL/MOL
REMARK 922        TOTAL FREE ENERGY PREDICTED BY IDOCK:   -7.26 KCAL/MOL
REMARK 923 INTER-LIGAND FREE ENERGY PREDICTED BY IDOCK:   -6.28 KCAL/MOL
REMARK 924 INTRA-LIGAND FREE ENERGY PREDICTED BY IDOCK:   -0.98 KCAL/MOL
REMARK 927      BINDING AFFINITY PREDICTED BY RF-SCORE:    0.00 PKD
ROOT
HETATM    1  C   UNL     1     -11.550  11.713  70.014  1.00  0.00    -0.255 C  
HETATM    2  C   UNL     1     -12.061  13.102  70.463  1.00  0.00    -0.385 C  
HETATM    3  C   UNL     1     -11.637  14.083  69.423  1.00  0.00    -0.349 A  
HETATM    4  C   UNL     1     -11.067  15.332  69.452  1.00  0.00    -0.280 A  
HETATM    5  N   UNL     1     -10.967  15.766  68.146  1.00  0.00    -0.316 NA 
HETATM    6  H   UNL     1     -10.609  16.678  67.862  1.00  0.00     0.000 HD 
HETATM    7  C   UNL     1     -11.419  14.793  67.279  1.00  0.00    -0.366 A  
HETATM    8  C   UNL     1     -11.575  14.750  65.894  1.00  0.00    -0.286 A  
HETATM    9  C   UNL     1     -11.975  13.517  65.344  1.00  0.00    -0.406 A  
HETATM   10  C   UNL     1     -12.090  12.353  66.129  1.00  0.00    -0.295 A  
HETATM   11  C   UNL     1     -11.897  12.418  67.513  1.00  0.00    -0.354 A  
HETATM   12  C   UNL     1     -11.636  11.343  68.498  1.00  0.00    -0.384 C  
HETATM   13  C   UNL     1     -11.686  13.689  68.066  1.00  0.00    -0.387 A  
HETATM   14  C   UNL     1     -11.053  10.177  68.148  1.00  0.00    -0.290 C  
HETATM   15  C   UNL     1     -10.205   9.481  69.217  1.00  0.00    -0.212 C  
HETATM   16  C   UNL     1     -13.287  10.112  70.715  1.00  0.00    -0.130 C  
HETATM   17  C   UNL     1     -10.907   9.480  70.618  1.00  0.00    -0.306 C  
HETATM   18  N   UNL     1     -11.902  10.557  70.872  1.00  0.00    -0.351 NA 
ENDROOT
BRANCH  15  19
HETATM   19  C   UNL     1      -8.842  10.250  69.269  1.00  0.00    -0.177 C  
HETATM   20  O   UNL     1      -8.204  10.435  70.308  1.00  0.00     0.040 OA 
HETATM   21  N   UNL     1      -8.431  10.765  68.056  1.00  0.00    -0.121 N  
HETATM   22  H   UNL     1      -8.836  10.368  67.208  1.00  0.00     0.000 HD 
BRANCH  21  23
HETATM   23  CA  UNL     1      -7.449  11.843  67.908  1.00  0.00    -0.114 C  
BRANCH  23  24
HETATM   24  C   UNL     1      -8.212  13.154  67.585  1.00  0.00    -0.175 C  
HETATM   25  H   UNL     1      -8.411  14.963  68.369  1.00  0.00     0.000 HD 
HETATM   26  O   UNL     1      -7.944  14.160  68.566  1.00  0.00    -0.137 OA 
ENDBRANCH  23  24
BRANCH  23  27
HETATM   27  C   UNL     1      -6.426  11.544  66.802  1.00  0.00    -0.128 C  
HETATM   28  C   UNL     1      -6.710  10.273  66.017  1.00  0.00    -0.114 C  
ENDBRANCH  23  27
ENDBRANCH  21  23
ENDBRANCH  15  19
TORSDOF 4
ENDMDL
MODEL       37
REMARK 921   NORMALIZED FREE ENERGY PREDICTED BY IDOCK:   -4.99 KCAL/MOL
REMARK 922        TOTAL FREE ENERGY PREDICTED BY IDOCK:   -7.25 KCAL/MOL
REMARK 923 INTER-LIGAND FREE ENERGY PREDICTED BY IDOCK:   -6.70 KCAL/MOL
REMARK 924 INTRA-LIGAND FREE ENERGY PREDICTED BY IDOCK:   -0.55 KCAL/MOL
REMARK 927      BINDING AFFINITY PREDICTED BY RF-SCORE:    0.00 PKD
ROOT
HETATM    1  C   UNL     1     -10.158  10.809  68.845  1.00  0.00    -0.205 C  
HETATM    2  C   UNL     1     -11.373  11.380  69.614  1.00  0.00    -0.347 C  
HETATM    3  C   UNL     1     -11.757  12.656  68.942  1.00  0.00    -0.370 A  
HETATM    4  C   UNL     1     -12.087  13.913  69.382  1.00  0.00    -0.337 A  
HETATM    5  N   UNL     1     -12.410  14.664  68.270  1.00  0.00    -0.593 NA 
HETATM    6  H   UNL     1     -12.726  15.633  68.294  1.00  0.00     0.000 HD 
HETATM    7  C   UNL     1     -12.244  13.918  67.122  1.00  0.00    -0.318 A  
HETATM    8  C   UNL     1     -12.476  14.183  65.772  1.00  0.00    -0.490 A  
HETATM    9  C   UNL     1     -12.076  13.190  64.858  1.00  0.00    -0.448 A  
HETATM   10  C   UNL     1     -11.364  12.045  65.266  1.00  0.00    -0.366 A  
HETATM   11  C   UNL     1     -11.115  11.819  66.623  1.00  0.00    -0.364 A  
HETATM   12  C   UNL     1     -10.146  10.916  67.286  1.00  0.00    -0.225 C  
HETATM   13  C   UNL     1     -11.687  12.722  67.532  1.00  0.00    -0.422 A  
HETATM   14  C   UNL     1      -9.003  10.525  66.682  1.00  0.00    -0.155 C  
HETATM   15  C   UNL     1      -7.806  10.240  67.593  1.00  0.00    -0.098 C  
HETATM   16  C   UNL     1     -10.443   8.363  68.881  1.00  0.00    -0.189 C  
HETATM   17  C   UNL     1      -8.210   9.406  68.856  1.00  0.00    -0.111 C  
HETATM   18  N   UNL     1      -9.627   9.503  69.300  1.00  0.00    -0.168 NA 
ENDROOT
BRANCH  15  19
HETATM   19  C   UNL     1      -7.219  11.633  68.001  1.00  0.00    -0.083 C  
HETATM   20  O   UNL     1      -6.678  11.853  69.087  1.00  0.00    -0.094 OA 
HETATM   21  N   UNL     1      -7.408  12.628  67.063  1.00  0.00    -0.373 N  
HETATM   22  H   UNL     1      -7.609  12.347  66.103  1.00  0.00     0.000 HD 
BRANCH  21  23
HETATM   23  CA  UNL     1      -7.338  14.063  67.357  1.00  0.00    -0.114 C  
BRANCH  23  24
HETATM   24  C   UNL     1      -5.969  14.357  68.023  1.00  0.00    -0.148 C  
HETATM   25  H   UNL     1      -4.408  15.533  67.701  1.00  0.00     0.000 HD 
HETATM   26  O   UNL     1      -5.247  15.353  67.293  1.00  0.00    -0.335 OA 
ENDBRANCH  23  24
BRANCH  23  27
HETATM   27  C   UNL     1      -8.480  14.519  68.279  1.00  0.00    -0.161 C  
HETATM   28  C   UNL     1      -8.605  16.028  68.414  1.00  0.00    -0.185 C  
ENDBRANCH  23  27
ENDBRANCH  21  23
ENDBRANCH  15  19
TORSDOF 4
ENDMDL
MODEL       38
REMARK 921   NORMALIZED FREE ENERGY PREDICTED BY IDOCK:   -4.97 KCAL/MOL
REMARK 922        TOTAL FREE ENERGY PREDICTED BY IDOCK:   -7.22 KCAL/MOL
REMARK 923 INTER-LIGAND FREE ENERGY PREDICTED BY IDOCK:   -6.84 KCAL/MOL
REMARK 924 INTRA-LIGAND FREE ENERGY PREDICTED BY IDOCK:   -0.38 KCAL/MOL
REMARK 927      BINDING AFFINITY PREDICTED BY RF-SCORE:    0.00 PKD
ROOT
HETATM    1  C   UNL     1      -8.427  10.146  68.641  1.00  0.00    -0.122 C  
HETATM    2  C   UNL     1      -8.180   9.782  70.124  1.00  0.00    -0.202 C  
HETATM    3  C   UNL     1      -9.342   8.961  70.574  1.00  0.00    -0.240 A  
HETATM    4  C   UNL     1     -10.143   8.957  71.689  1.00  0.00    -0.341 A  
HETATM    5  N   UNL     1     -11.024   7.904  71.554  1.00  0.00    -0.228 NA 
HETATM    6  H   UNL     1     -11.721   7.635  72.249  1.00  0.00     0.000 HD 
HETATM    7  C   UNL     1     -10.830   7.265  70.347  1.00  0.00    -0.246 A  
HETATM    8  C   UNL     1     -11.409   6.140  69.761  1.00  0.00    -0.452 A  
HETATM    9  C   UNL     1     -11.019   5.847  68.440  1.00  0.00    -0.264 A  
HETATM   10  C   UNL     1     -10.187   6.709  67.701  1.00  0.00    -0.220 A  
HETATM   11  C   UNL     1      -9.645   7.849  68.302  1.00  0.00    -0.164 A  
HETATM   12  C   UNL     1      -9.038   9.058  67.700  1.00  0.00    -0.144 C  
HETATM   13  C   UNL     1      -9.892   8.022  69.673  1.00  0.00    -0.184 A  
HETATM   14  C   UNL     1      -9.355   9.474  66.455  1.00  0.00    -0.220 C  
HETATM   15  C   UNL     1      -9.286  10.981  66.194  1.00  0.00    -0.209 C  
HETATM   16  C   UNL     1      -6.206  10.118  67.575  1.00  0.00    -0.058 C  
HETATM   17  C   UNL     1      -7.995  11.627  66.801  1.00  0.00    -0.140 C  
HETATM   18  N   UNL     1      -7.368  10.922  67.954  1.00  0.00    -0.087 NA 
ENDROOT
BRANCH  15  19
HETATM   19  C   UNL     1     -10.578  11.599  66.827  1.00  0.00    -0.244 C  
HETATM   20  O   UNL     1     -11.503  10.924  67.283  1.00  0.00    -0.458 OA 
HETATM   21  N   UNL     1     -10.631  12.978  66.784  1.00  0.00    -0.261 N  
HETATM   22  H   UNL     1      -9.756  13.485  66.652  1.00  0.00     0.000 HD 
BRANCH  21  23
HETATM   23  CA  UNL     1     -11.863  13.760  66.917  1.00  0.00    -0.413 C  
BRANCH  23  24
HETATM   24  C   UNL     1     -12.446  13.994  65.499  1.00  0.00    -0.509 C  
HETATM   25  H   UNL     1     -13.440  12.955  64.136  1.00  0.00     0.000 HD 
HETATM   26  O   UNL     1     -13.083  12.812  65.004  1.00  0.00    -0.811 OA 
ENDBRANCH  23  24
BRANCH  23  27
HETATM   27  C   UNL     1     -11.620  15.108  67.613  1.00  0.00    -0.290 C  
HETATM   28  C   UNL     1     -11.844  15.081  69.117  1.00  0.00    -0.338 C  
ENDBRANCH  23  27
ENDBRANCH  21  23
ENDBRANCH  15  19
TORSDOF 4
ENDMDL
MODEL       39
REMARK 921   NORMALIZED FREE ENERGY PREDICTED BY IDOCK:   -4.95 KCAL/MOL
REMARK 922        TOTAL FREE ENERGY PREDICTED BY IDOCK:   -7.20 KCAL/MOL
REMARK 923 INTER-LIGAND FREE ENERGY PREDICTED BY IDOCK:   -6.40 KCAL/MOL
REMARK 924 INTRA-LIGAND FREE ENERGY PREDICTED BY IDOCK:   -0.80 KCAL/MOL
REMARK 927      BINDING AFFINITY PREDICTED BY RF-SCORE:    0.00 PKD
ROOT
HETATM    1  C   UNL     1      -8.218  15.557  69.163  1.00  0.00    -0.247 C  
HETATM    2  C   UNL     1      -9.343  15.301  70.194  1.00  0.00     0.345 C  
HETATM    3  C   UNL     1     -10.572  14.950  69.425  1.00  0.00    -0.255 A  
HETATM    4  C   UNL     1     -11.890  15.326  69.494  1.00  0.00    -0.345 A  
HETATM    5  N   UNL     1     -12.572  14.601  68.538  1.00  0.00    -0.347 NA 
HETATM    6  H   UNL     1     -13.579  14.649  68.379  1.00  0.00     0.000 HD 
HETATM    7  C   UNL     1     -11.700  13.803  67.826  1.00  0.00    -0.358 A  
HETATM    8  C   UNL     1     -11.881  12.865  66.811  1.00  0.00    -0.452 A  
HETATM    9  C   UNL     1     -10.714  12.317  66.245  1.00  0.00    -0.293 A  
HETATM   10  C   UNL     1      -9.430  12.780  66.591  1.00  0.00    -0.249 A  
HETATM   11  C   UNL     1      -9.278  13.747  67.590  1.00  0.00    -0.207 A  
HETATM   12  C   UNL     1      -8.129  14.623  67.913  1.00  0.00    -0.149 C  
HETATM   13  C   UNL     1     -10.438  14.141  68.274  1.00  0.00    -0.249 A  
HETATM   14  C   UNL     1      -7.215  14.978  66.984  1.00  0.00     0.130 C  
HETATM   15  C   UNL     1      -6.548  16.345  67.160  1.00  0.00    -0.234 C  
HETATM   16  C   UNL     1      -6.157  14.702  70.208  1.00  0.00    -0.167 C  
HETATM   17  C   UNL     1      -6.123  16.608  68.645  1.00  0.00    -0.140 C  
HETATM   18  N   UNL     1      -6.874  15.873  69.699  1.00  0.00    -0.187 NA 
ENDROOT
BRANCH  15  19
HETATM   19  C   UNL     1      -7.588  17.410  66.674  1.00  0.00    -0.256 C  
HETATM   20  O   UNL     1      -8.337  17.240  65.709  1.00  0.00    -0.535 OA 
HETATM   21  N   UNL     1      -7.564  18.595  67.381  1.00  0.00    -0.226 N  
HETATM   22  H   UNL     1      -7.137  18.590  68.307  1.00  0.00     0.000 HD 
BRANCH  21  23
HETATM   23  CA  UNL     1      -8.113  19.861  66.887  1.00  0.00    -0.310 C  
BRANCH  23  24
HETATM   24  C   UNL     1      -7.165  21.007  67.325  1.00  0.00    -0.301 C  
HETATM   25  H   UNL     1      -5.761  21.304  68.691  1.00  0.00     0.000 HD 
HETATM   26  O   UNL     1      -6.342  20.602  68.423  1.00  0.00    -0.312 OA 
ENDBRANCH  23  24
BRANCH  23  27
HETATM   27  C   UNL     1      -9.532  20.122  67.417  1.00  0.00    -0.531 C  
HETATM   28  C   UNL     1      -9.876  19.346  68.680  1.00  0.00    -0.522 C  
ENDBRANCH  23  27
ENDBRANCH  21  23
ENDBRANCH  15  19
TORSDOF 4
ENDMDL
MODEL       40
REMARK 921   NORMALIZED FREE ENERGY PREDICTED BY IDOCK:   -4.94 KCAL/MOL
REMARK 922        TOTAL FREE ENERGY PREDICTED BY IDOCK:   -7.19 KCAL/MOL
REMARK 923 INTER-LIGAND FREE ENERGY PREDICTED BY IDOCK:   -6.30 KCAL/MOL
REMARK 924 INTRA-LIGAND FREE ENERGY PREDICTED BY IDOCK:   -0.89 KCAL/MOL
REMARK 927      BINDING AFFINITY PREDICTED BY RF-SCORE:    0.00 PKD
ROOT
HETATM    1  C   UNL     1     -10.433  10.936  67.542  1.00  0.00    -0.215 C  
HETATM    2  C   UNL     1     -11.545  11.966  67.233  1.00  0.00    -0.364 C  
HETATM    3  C   UNL     1     -11.334  13.127  68.146  1.00  0.00    -0.328 A  
HETATM    4  C   UNL     1     -12.156  13.892  68.935  1.00  0.00    -0.319 A  
HETATM    5  N   UNL     1     -11.373  14.874  69.507  1.00  0.00    -0.266 NA 
HETATM    6  H   UNL     1     -11.721  15.611  70.121  1.00  0.00     0.000 HD 
HETATM    7  C   UNL     1     -10.055  14.719  69.133  1.00  0.00    -0.197 A  
HETATM    8  C   UNL     1      -8.899  15.456  69.387  1.00  0.00    -0.251 A  
HETATM    9  C   UNL     1      -7.690  14.915  68.913  1.00  0.00    -0.148 A  
HETATM   10  C   UNL     1      -7.626  13.638  68.323  1.00  0.00    -0.130 A  
HETATM   11  C   UNL     1      -8.796  12.904  68.109  1.00  0.00    -0.194 A  
HETATM   12  C   UNL     1      -8.990  11.462  67.831  1.00  0.00    -0.153 C  
HETATM   13  C   UNL     1     -10.009  13.539  68.415  1.00  0.00    -0.232 A  
HETATM   14  C   UNL     1      -8.097  10.530  68.226  1.00  0.00    -0.115 C  
HETATM   15  C   UNL     1      -8.650   9.139  68.550  1.00  0.00    -0.129 C  
HETATM   16  C   UNL     1      -9.853   9.919  65.374  1.00  0.00    -0.313 C  
HETATM   17  C   UNL     1      -9.689   8.653  67.483  1.00  0.00    -0.165 C  
HETATM   18  N   UNL     1     -10.405   9.708  66.713  1.00  0.00    -0.236 NA 
ENDROOT
BRANCH  15  19
HETATM   19  C   UNL     1      -9.304   9.243  69.969  1.00  0.00    -0.209 C  
HETATM   20  O   UNL     1      -8.682   9.565  70.984  1.00  0.00    -0.260 OA 
HETATM   21  N   UNL     1     -10.637   8.886  70.010  1.00  0.00    -0.215 N  
HETATM   22  H   UNL     1     -11.159   8.890  69.134  1.00  0.00     0.000 HD 
BRANCH  21  23
HETATM   23  CA  UNL     1     -11.349   8.501  71.232  1.00  0.00    -0.271 C  
BRANCH  23  24
HETATM   24  C   UNL     1     -12.071   7.153  70.971  1.00  0.00    -0.350 C  
HETATM   25  H   UNL     1     -13.562   6.114  71.761  1.00  0.00     0.000 HD 
HETATM   26  O   UNL     1     -13.119   6.940  71.921  1.00  0.00    -0.316 OA 
ENDBRANCH  23  24
BRANCH  23  27
HETATM   27  C   UNL     1     -12.368   9.567  71.666  1.00  0.00    -0.480 C  
HETATM   28  C   UNL     1     -12.689  10.595  70.593  1.00  0.00    -0.445 C  
ENDBRANCH  23  27
ENDBRANCH  21  23
ENDBRANCH  15  19
TORSDOF 4
ENDMDL
MODEL       41
REMARK 921   NORMALIZED FREE ENERGY PREDICTED BY IDOCK:   -4.91 KCAL/MOL
REMARK 922        TOTAL FREE ENERGY PREDICTED BY IDOCK:   -7.15 KCAL/MOL
REMARK 923 INTER-LIGAND FREE ENERGY PREDICTED BY IDOCK:   -6.33 KCAL/MOL
REMARK 924 INTRA-LIGAND FREE ENERGY PREDICTED BY IDOCK:   -0.82 KCAL/MOL
REMARK 927      BINDING AFFINITY PREDICTED BY RF-SCORE:    0.00 PKD
ROOT
HETATM    1  C   UNL     1      -8.908   6.061  68.976  1.00  0.00    -0.121 C  
HETATM    2  C   UNL     1      -8.081   6.124  70.282  1.00  0.00    -0.112 C  
HETATM    3  C   UNL     1      -8.703   7.169  71.146  1.00  0.00    -0.133 A  
HETATM    4  C   UNL     1      -8.218   8.205  71.904  1.00  0.00    -0.141 A  
HETATM    5  N   UNL     1      -9.297   8.792  72.532  1.00  0.00    -0.322 NA 
HETATM    6  H   UNL     1      -9.235   9.571  73.188  1.00  0.00     0.000 HD 
HETATM    7  C   UNL     1     -10.470   8.177  72.149  1.00  0.00    -0.284 A  
HETATM    8  C   UNL     1     -11.803   8.351  72.522  1.00  0.00    -0.427 A  
HETATM    9  C   UNL     1     -12.757   7.592  71.819  1.00  0.00    -0.356 A  
HETATM   10  C   UNL     1     -12.407   6.794  70.713  1.00  0.00    -0.289 A  
HETATM   11  C   UNL     1     -11.066   6.663  70.338  1.00  0.00    -0.374 A  
HETATM   12  C   UNL     1     -10.463   6.183  69.074  1.00  0.00    -0.305 C  
HETATM   13  C   UNL     1     -10.113   7.274  71.167  1.00  0.00    -0.190 A  
HETATM   14  C   UNL     1     -11.118   6.257  67.895  1.00  0.00    -0.360 C  
HETATM   15  C   UNL     1     -10.258   6.431  66.639  1.00  0.00    -0.216 C  
HETATM   16  C   UNL     1      -8.928   3.686  68.321  1.00  0.00    -0.129 C  
HETATM   17  C   UNL     1      -9.005   5.492  66.646  1.00  0.00    -0.118 C  
HETATM   18  N   UNL     1      -8.508   5.044  67.976  1.00  0.00    -0.103 NA 
ENDROOT
BRANCH  15  19
HETATM   19  C   UNL     1      -9.834   7.938  66.601  1.00  0.00    -0.241 C  
HETATM   20  O   UNL     1      -8.725   8.325  66.223  1.00  0.00    -0.134 OA 
HETATM   21  N   UNL     1     -10.787   8.812  67.084  1.00  0.00    -0.376 N  
HETATM   22  H   UNL     1     -11.753   8.487  67.128  1.00  0.00     0.000 HD 
BRANCH  21  23
HETATM   23  CA  UNL     1     -10.501  10.176  67.538  1.00  0.00    -0.253 C  
BRANCH  23  24
HETATM   24  C   UNL     1     -11.060  10.338  68.975  1.00  0.00    -0.230 C  
HETATM   25  H   UNL     1     -12.642  11.152  69.847  1.00  0.00     0.000 HD 
HETATM   26  O   UNL     1     -12.300  11.053  68.966  1.00  0.00    -0.481 OA 
ENDBRANCH  23  24
BRANCH  23  27
HETATM   27  C   UNL     1     -11.120  11.234  66.611  1.00  0.00    -0.299 C  
HETATM   28  C   UNL     1     -10.503  11.282  65.222  1.00  0.00    -0.341 C  
ENDBRANCH  23  27
ENDBRANCH  21  23
ENDBRANCH  15  19
TORSDOF 4
ENDMDL
MODEL       42
REMARK 921   NORMALIZED FREE ENERGY PREDICTED BY IDOCK:   -4.89 KCAL/MOL
REMARK 922        TOTAL FREE ENERGY PREDICTED BY IDOCK:   -7.13 KCAL/MOL
REMARK 923 INTER-LIGAND FREE ENERGY PREDICTED BY IDOCK:   -6.33 KCAL/MOL
REMARK 924 INTRA-LIGAND FREE ENERGY PREDICTED BY IDOCK:   -0.80 KCAL/MOL
REMARK 927      BINDING AFFINITY PREDICTED BY RF-SCORE:    0.00 PKD
ROOT
HETATM    1  C   UNL     1     -10.465  12.884  68.430  1.00  0.00    -0.251 C  
HETATM    2  C   UNL     1      -9.986  14.312  68.784  1.00  0.00    -0.205 C  
HETATM    3  C   UNL     1      -9.783  15.039  67.497  1.00  0.00    -0.215 A  
HETATM    4  C   UNL     1      -8.798  15.853  66.997  1.00  0.00    -0.215 A  
HETATM    5  N   UNL     1      -9.213  16.277  65.750  1.00  0.00    -0.458 NA 
HETATM    6  H   UNL     1      -8.695  16.921  65.153  1.00  0.00     0.000 HD 
HETATM    7  C   UNL     1     -10.426  15.706  65.427  1.00  0.00    -0.411 A  
HETATM    8  C   UNL     1     -11.280  15.841  64.333  1.00  0.00    -0.249 A  
HETATM    9  C   UNL     1     -12.405  14.995  64.305  1.00  0.00    -0.247 A  
HETATM   10  C   UNL     1     -12.597  13.979  65.260  1.00  0.00    -0.495 A  
HETATM   11  C   UNL     1     -11.707  13.844  66.330  1.00  0.00    -0.403 A  
HETATM   12  C   UNL     1     -11.480  12.709  67.255  1.00  0.00    -0.402 C  
HETATM   13  C   UNL     1     -10.701  14.814  66.445  1.00  0.00    -0.313 A  
HETATM   14  C   UNL     1     -11.756  11.435  66.906  1.00  0.00     0.062 C  
HETATM   15  C   UNL     1     -10.889  10.343  67.542  1.00  0.00    -0.358 C  
HETATM   16  C   UNL     1     -12.076  12.272  70.190  1.00  0.00    -0.287 C  
HETATM   17  C   UNL     1     -10.672  10.580  69.075  1.00  0.00    -0.225 C  
HETATM   18  N   UNL     1     -10.787  11.983  69.561  1.00  0.00    -0.000 NA 
ENDROOT
BRANCH  15  19
HETATM   19  C   UNL     1      -9.527  10.356  66.770  1.00  0.00    -0.166 C  
HETATM   20  O   UNL     1      -8.438  10.558  67.313  1.00  0.00    -0.122 OA 
HETATM   21  N   UNL     1      -9.642  10.179  65.406  1.00  0.00    -0.242 N  
HETATM   22  H   UNL     1     -10.501   9.759  65.051  1.00  0.00     0.000 HD 
BRANCH  21  23
HETATM   23  CA  UNL     1      -8.611  10.555  64.435  1.00  0.00    -0.155 C  
BRANCH  23  24
HETATM   24  C   UNL     1      -9.310  11.171  63.196  1.00  0.00    -0.328 C  
HETATM   25  H   UNL     1     -10.511  12.697  62.801  1.00  0.00     0.000 HD 
HETATM   26  O   UNL     1     -10.082  12.319  63.560  1.00  0.00    -0.416 OA 
ENDBRANCH  23  24
BRANCH  23  27
HETATM   27  C   UNL     1      -7.751   9.354  64.011  1.00  0.00    -0.121 C  
HETATM   28  C   UNL     1      -6.316   9.710  63.655  1.00  0.00    -0.109 C  
ENDBRANCH  23  27
ENDBRANCH  21  23
ENDBRANCH  15  19
TORSDOF 4
ENDMDL
MODEL       43
REMARK 921   NORMALIZED FREE ENERGY PREDICTED BY IDOCK:   -4.89 KCAL/MOL
REMARK 922        TOTAL FREE ENERGY PREDICTED BY IDOCK:   -7.13 KCAL/MOL
REMARK 923 INTER-LIGAND FREE ENERGY PREDICTED BY IDOCK:   -7.14 KCAL/MOL
REMARK 924 INTRA-LIGAND FREE ENERGY PREDICTED BY IDOCK:    0.02 KCAL/MOL
REMARK 927      BINDING AFFINITY PREDICTED BY RF-SCORE:    0.00 PKD
ROOT
HETATM    1  C   UNL     1      -9.696  14.521  67.416  1.00  0.00    -0.222 C  
HETATM    2  C   UNL     1      -8.403  15.371  67.425  1.00  0.00    -0.204 C  
HETATM    3  C   UNL     1      -7.519  14.812  68.489  1.00  0.00    -0.117 A  
HETATM    4  C   UNL     1      -6.758  15.358  69.492  1.00  0.00    -0.174 A  
HETATM    5  N   UNL     1      -6.105  14.318  70.122  1.00  0.00    -0.148 NA 
HETATM    6  H   UNL     1      -5.443  14.427  70.890  1.00  0.00     0.000 HD 
HETATM    7  C   UNL     1      -6.476  13.111  69.567  1.00  0.00    -0.074 A  
HETATM    8  C   UNL     1      -6.079  11.794  69.799  1.00  0.00    -0.136 A  
HETATM    9  C   UNL     1      -6.775  10.794  69.094  1.00  0.00    -0.074 A  
HETATM   10  C   UNL     1      -7.895  11.089  68.293  1.00  0.00    -0.121 A  
HETATM   11  C   UNL     1      -8.292  12.416  68.103  1.00  0.00    -0.178 A  
HETATM   12  C   UNL     1      -9.572  12.975  67.610  1.00  0.00    -0.206 C  
HETATM   13  C   UNL     1      -7.474  13.410  68.659  1.00  0.00    -0.104 A  
HETATM   14  C   UNL     1     -10.739  12.306  67.728  1.00  0.00    -0.246 C  
HETATM   15  C   UNL     1     -12.007  13.152  67.877  1.00  0.00    -0.347 C  
HETATM   16  C   UNL     1     -10.377  14.379  65.052  1.00  0.00    -0.421 C  
HETATM   17  C   UNL     1     -12.031  14.360  66.879  1.00  0.00    -0.399 C  
HETATM   18  N   UNL     1     -10.714  14.857  66.393  1.00  0.00    -0.309 NA 
ENDROOT
BRANCH  15  19
HETATM   19  C   UNL     1     -12.036  13.647  69.362  1.00  0.00    -0.342 C  
HETATM   20  O   UNL     1     -11.795  12.918  70.327  1.00  0.00    -0.305 OA 
HETATM   21  N   UNL     1     -12.415  14.965  69.518  1.00  0.00    -0.570 N  
HETATM   22  H   UNL     1     -12.342  15.581  68.708  1.00  0.00     0.000 HD 
BRANCH  21  23
HETATM   23  CA  UNL     1     -12.915  15.537  70.771  1.00  0.00    -0.434 C  
BRANCH  23  24
HETATM   24  C   UNL     1     -11.806  15.399  71.846  1.00  0.00    -0.429 C  
HETATM   25  H   UNL     1     -11.016  16.510  73.284  1.00  0.00     0.000 HD 
HETATM   26  O   UNL     1     -11.696  16.594  72.626  1.00  0.00    -0.486 OA 
ENDBRANCH  23  24
BRANCH  23  27
HETATM   27  C   UNL     1     -14.199  14.842  71.250  1.00  0.00    -0.463 C  
HETATM   28  C   UNL     1     -13.985  13.849  72.382  1.00  0.00    -0.633 C  
ENDBRANCH  23  27
ENDBRANCH  21  23
ENDBRANCH  15  19
TORSDOF 4
ENDMDL
MODEL       44
REMARK 921   NORMALIZED FREE ENERGY PREDICTED BY IDOCK:   -4.83 KCAL/MOL
REMARK 922        TOTAL FREE ENERGY PREDICTED BY IDOCK:   -7.06 KCAL/MOL
REMARK 923 INTER-LIGAND FREE ENERGY PREDICTED BY IDOCK:   -6.03 KCAL/MOL
REMARK 924 INTRA-LIGAND FREE ENERGY PREDICTED BY IDOCK:   -1.02 KCAL/MOL
REMARK 927      BINDING AFFINITY PREDICTED BY RF-SCORE:    0.00 PKD
ROOT
HETATM    1  C   UNL     1      -8.847   5.690  68.749  1.00  0.00    -0.108 C  
HETATM    2  C   UNL     1      -7.582   5.550  69.630  1.00  0.00    -0.071 C  
HETATM    3  C   UNL     1      -7.700   6.554  70.728  1.00  0.00    -0.101 A  
HETATM    4  C   UNL     1      -6.843   7.463  71.296  1.00  0.00    -0.050 A  
HETATM    5  N   UNL     1      -7.523   8.075  72.329  1.00  0.00    -0.090 NA 
HETATM    6  H   UNL     1      -7.124   8.776  72.953  1.00  0.00     0.000 HD 
HETATM    7  C   UNL     1      -8.818   7.605  72.398  1.00  0.00    -0.134 A  
HETATM    8  C   UNL     1      -9.876   7.855  73.271  1.00  0.00    -0.345 A  
HETATM    9  C   UNL     1     -11.110   7.255  72.952  1.00  0.00    -0.369 A  
HETATM   10  C   UNL     1     -11.305   6.545  71.752  1.00  0.00    -0.325 A  
HETATM   11  C   UNL     1     -10.234   6.336  70.877  1.00  0.00    -0.236 A  
HETATM   12  C   UNL     1     -10.220   5.935  69.452  1.00  0.00    -0.284 C  
HETATM   13  C   UNL     1      -8.971   6.777  71.303  1.00  0.00    -0.139 A  
HETATM   14  C   UNL     1     -11.261   6.183  68.628  1.00  0.00    -0.275 C  
HETATM   15  C   UNL     1     -10.932   6.408  67.150  1.00  0.00    -0.476 C  
HETATM   16  C   UNL     1      -9.395   3.403  68.015  1.00  0.00    -0.187 C  
HETATM   17  C   UNL     1      -9.892   5.368  66.611  1.00  0.00    -0.174 C  
HETATM   18  N   UNL     1      -8.981   4.748  67.613  1.00  0.00    -0.108 NA 
ENDROOT
BRANCH  15  19
HETATM   19  C   UNL     1     -10.379   7.869  67.038  1.00  0.00    -0.341 C  
HETATM   20  O   UNL     1      -9.423   8.183  66.325  1.00  0.00    -0.208 OA 
HETATM   21  N   UNL     1     -11.014   8.783  67.854  1.00  0.00    -0.491 N  
HETATM   22  H   UNL     1     -11.941   8.544  68.207  1.00  0.00     0.000 HD 
BRANCH  21  23
HETATM   23  CA  UNL     1     -10.444  10.076  68.245  1.00  0.00    -0.213 C  
BRANCH  23  24
HETATM   24  C   UNL     1      -9.903   9.951  69.692  1.00  0.00    -0.232 C  
HETATM   25  H   UNL     1     -10.640   9.904  71.531  1.00  0.00     0.000 HD 
HETATM   26  O   UNL     1     -10.971   9.981  70.644  1.00  0.00    -0.300 OA 
ENDBRANCH  23  24
BRANCH  23  27
HETATM   27  C   UNL     1     -11.477  11.210  68.166  1.00  0.00    -0.373 C  
HETATM   28  C   UNL     1     -11.471  11.967  66.847  1.00  0.00    -0.402 C  
ENDBRANCH  23  27
ENDBRANCH  21  23
ENDBRANCH  15  19
TORSDOF 4
ENDMDL
MODEL       45
REMARK 921   NORMALIZED FREE ENERGY PREDICTED BY IDOCK:   -4.83 KCAL/MOL
REMARK 922        TOTAL FREE ENERGY PREDICTED BY IDOCK:   -7.05 KCAL/MOL
REMARK 923 INTER-LIGAND FREE ENERGY PREDICTED BY IDOCK:   -6.31 KCAL/MOL
REMARK 924 INTRA-LIGAND FREE ENERGY PREDICTED BY IDOCK:   -0.74 KCAL/MOL
REMARK 927      BINDING AFFINITY PREDICTED BY RF-SCORE:    0.00 PKD
ROOT
HETATM    1  C   UNL     1      -8.093  16.171  67.288  1.00  0.00    -0.175 C  
HETATM    2  C   UNL     1      -6.966  15.133  67.506  1.00  0.00    -0.220 C  
HETATM    3  C   UNL     1      -7.616  13.793  67.601  1.00  0.00    -0.189 A  
HETATM    4  C   UNL     1      -7.478  12.714  68.439  1.00  0.00    -0.127 A  
HETATM    5  N   UNL     1      -8.327  11.729  67.978  1.00  0.00    -0.146 NA 
HETATM    6  H   UNL     1      -8.415  10.799  68.387  1.00  0.00     0.000 HD 
HETATM    7  C   UNL     1      -9.041  12.180  66.888  1.00  0.00    -0.203 A  
HETATM    8  C   UNL     1      -9.971  11.576  66.042  1.00  0.00    -0.258 A  
HETATM    9  C   UNL     1     -10.580  12.405  65.081  1.00  0.00    -0.324 A  
HETATM   10  C   UNL     1     -10.362  13.796  65.052  1.00  0.00    -0.402 A  
HETATM   11  C   UNL     1      -9.449  14.382  65.934  1.00  0.00    -0.189 A  
HETATM   12  C   UNL     1      -9.275  15.797  66.338  1.00  0.00    -0.347 C  
HETATM   13  C   UNL     1      -8.712  13.515  66.755  1.00  0.00    -0.100 A  
HETATM   14  C   UNL     1     -10.292  16.684  66.293  1.00  0.00    -0.323 C  
HETATM   15  C   UNL     1     -10.264  17.816  67.325  1.00  0.00    -0.350 C  
HETATM   16  C   UNL     1      -7.143  17.869  65.777  1.00  0.00    -0.180 C  
HETATM   17  C   UNL     1      -8.837  18.446  67.472  1.00  0.00    -0.261 C  
HETATM   18  N   UNL     1      -7.680  17.582  67.107  1.00  0.00    -0.199 NA 
ENDROOT
BRANCH  15  19
HETATM   19  C   UNL     1     -10.748  17.193  68.677  1.00  0.00    -0.306 C  
HETATM   20  O   UNL     1     -10.455  17.654  69.783  1.00  0.00     0.031 OA 
HETATM   21  N   UNL     1     -11.490  16.037  68.540  1.00  0.00    -0.377 N  
HETATM   22  H   UNL     1     -11.921  15.853  67.634  1.00  0.00     0.000 HD 
BRANCH  21  23
HETATM   23  CA  UNL     1     -11.698  15.059  69.611  1.00  0.00    -0.321 C  
BRANCH  23  24
HETATM   24  C   UNL     1     -11.740  13.644  68.977  1.00  0.00    -0.333 C  
HETATM   25  H   UNL     1     -12.366  11.833  69.480  1.00  0.00     0.000 HD 
HETATM   26  O   UNL     1     -12.339  12.699  69.869  1.00  0.00    -0.185 OA 
ENDBRANCH  23  24
BRANCH  23  27
HETATM   27  C   UNL     1     -12.995  15.324  70.391  1.00  0.00    -0.307 C  
HETATM   28  C   UNL     1     -12.778  15.763  71.830  1.00  0.00    -0.516 C  
ENDBRANCH  23  27
ENDBRANCH  21  23
ENDBRANCH  15  19
TORSDOF 4
ENDMDL
MODEL       46
REMARK 921   NORMALIZED FREE ENERGY PREDICTED BY IDOCK:   -4.82 KCAL/MOL
REMARK 922        TOTAL FREE ENERGY PREDICTED BY IDOCK:   -7.04 KCAL/MOL
REMARK 923 INTER-LIGAND FREE ENERGY PREDICTED BY IDOCK:   -6.22 KCAL/MOL
REMARK 924 INTRA-LIGAND FREE ENERGY PREDICTED BY IDOCK:   -0.82 KCAL/MOL
REMARK 927      BINDING AFFINITY PREDICTED BY RF-SCORE:    0.00 PKD
ROOT
HETATM    1  C   UNL     1     -10.935  12.874  67.100  1.00  0.00    -0.262 C  
HETATM    2  C   UNL     1     -12.050  12.407  66.134  1.00  0.00    -0.295 C  
HETATM    3  C   UNL     1     -11.379  11.908  64.899  1.00  0.00    -0.337 A  
HETATM    4  C   UNL     1     -11.592  12.076  63.553  1.00  0.00    -0.461 A  
HETATM    5  N   UNL     1     -10.662  11.300  62.893  1.00  0.00    -0.792 NA 
HETATM    6  H   UNL     1     -10.601  11.202  61.879  1.00  0.00     0.000 HD 
HETATM    7  C   UNL     1      -9.827  10.675  63.796  1.00  0.00    -0.335 A  
HETATM    8  C   UNL     1      -8.780   9.765  63.653  1.00  0.00    -0.235 A  
HETATM    9  C   UNL     1      -8.078   9.425  64.825  1.00  0.00    -0.131 A  
HETATM   10  C   UNL     1      -8.330  10.061  66.056  1.00  0.00    -0.126 A  
HETATM   11  C   UNL     1      -9.365  10.995  66.164  1.00  0.00    -0.214 A  
HETATM   12  C   UNL     1      -9.630  12.020  67.200  1.00  0.00    -0.195 C  
HETATM   13  C   UNL     1     -10.175  11.180  65.034  1.00  0.00    -0.354 A  
HETATM   14  C   UNL     1      -8.643  12.549  67.953  1.00  0.00    -0.179 C  
HETATM   15  C   UNL     1      -8.835  13.993  68.428  1.00  0.00    -0.180 C  
HETATM   16  C   UNL     1     -11.733  12.296  69.358  1.00  0.00    -0.330 C  
HETATM   17  C   UNL     1     -10.287  14.252  68.957  1.00  0.00    -0.176 C  
HETATM   18  N   UNL     1     -11.362  13.366  68.431  1.00  0.00    -0.273 NA 
ENDROOT
BRANCH  15  19
HETATM   19  C   UNL     1      -8.510  14.908  67.200  1.00  0.00    -0.220 C  
HETATM   20  O   UNL     1      -7.384  15.017  66.710  1.00  0.00    -0.016 OA 
HETATM   21  N   UNL     1      -9.584  15.641  66.735  1.00  0.00    -0.231 N  
HETATM   22  H   UNL     1     -10.521  15.326  66.986  1.00  0.00     0.000 HD 
BRANCH  21  23
HETATM   23  CA  UNL     1      -9.464  16.843  65.904  1.00  0.00    -0.113 C  
BRANCH  23  24
HETATM   24  C   UNL     1      -9.488  18.083  66.835  1.00  0.00    -0.288 C  
HETATM   25  H   UNL     1     -10.420  18.654  68.487  1.00  0.00     0.000 HD 
HETATM   26  O   UNL     1     -10.405  17.895  67.917  1.00  0.00    -0.353 OA 
ENDBRANCH  23  24
BRANCH  23  27
HETATM   27  C   UNL     1     -10.593  16.943  64.867  1.00  0.00     0.160 C  
HETATM   28  C   UNL     1     -11.474  15.706  64.785  1.00  0.00    -0.284 C  
ENDBRANCH  23  27
ENDBRANCH  21  23
ENDBRANCH  15  19
TORSDOF 4
ENDMDL
MODEL       47
REMARK 921   NORMALIZED FREE ENERGY PREDICTED BY IDOCK:   -4.80 KCAL/MOL
REMARK 922        TOTAL FREE ENERGY PREDICTED BY IDOCK:   -7.01 KCAL/MOL
REMARK 923 INTER-LIGAND FREE ENERGY PREDICTED BY IDOCK:   -6.31 KCAL/MOL
REMARK 924 INTRA-LIGAND FREE ENERGY PREDICTED BY IDOCK:   -0.70 KCAL/MOL
REMARK 927      BINDING AFFINITY PREDICTED BY RF-SCORE:    0.00 PKD
ROOT
HETATM    1  C   UNL     1     -10.904  12.096  68.023  1.00  0.00    -0.222 C  
HETATM    2  C   UNL     1     -11.258  10.617  67.735  1.00  0.00    -0.383 C  
HETATM    3  C   UNL     1     -10.073  10.005  67.066  1.00  0.00    -0.274 A  
HETATM    4  C   UNL     1      -9.899   9.190  65.976  1.00  0.00    -0.272 A  
HETATM    5  N   UNL     1      -8.551   8.908  65.888  1.00  0.00    -0.148 NA 
HETATM    6  H   UNL     1      -8.128   8.296  65.190  1.00  0.00     0.000 HD 
HETATM    7  C   UNL     1      -7.855   9.570  66.878  1.00  0.00    -0.101 A  
HETATM    8  C   UNL     1      -6.512   9.585  67.252  1.00  0.00    -0.070 A  
HETATM    9  C   UNL     1      -6.151  10.488  68.269  1.00  0.00    -0.047 A  
HETATM   10  C   UNL     1      -7.066  11.419  68.798  1.00  0.00    -0.102 A  
HETATM   11  C   UNL     1      -8.401  11.405  68.382  1.00  0.00    -0.153 A  
HETATM   12  C   UNL     1      -9.459  12.434  68.511  1.00  0.00    -0.101 C  
HETATM   13  C   UNL     1      -8.784  10.376  67.509  1.00  0.00    -0.125 A  
HETATM   14  C   UNL     1      -9.171  13.749  68.614  1.00  0.00    -0.069 C  
HETATM   15  C   UNL     1     -10.200  14.727  68.042  1.00  0.00    -0.226 C  
HETATM   16  C   UNL     1     -11.978  12.624  70.176  1.00  0.00    -0.299 C  
HETATM   17  C   UNL     1     -11.667  14.336  68.430  1.00  0.00    -0.338 C  
HETATM   18  N   UNL     1     -11.920  12.902  68.741  1.00  0.00    -0.298 NA 
ENDROOT
BRANCH  15  19
HETATM   19  C   UNL     1     -10.005  14.715  66.488  1.00  0.00    -0.281 C  
HETATM   20  O   UNL     1      -9.025  15.204  65.921  1.00  0.00    -0.198 OA 
HETATM   21  N   UNL     1     -11.055  14.160  65.786  1.00  0.00    -0.304 N  
HETATM   22  H   UNL     1     -11.695  13.546  66.290  1.00  0.00     0.000 HD 
BRANCH  21  23
HETATM   23  CA  UNL     1     -11.311  14.396  64.362  1.00  0.00    -0.251 C  
BRANCH  23  24
HETATM   24  C   UNL     1     -12.230  15.638  64.231  1.00  0.00    -0.002 C  
HETATM   25  H   UNL     1     -12.035  17.610  64.225  1.00  0.00     0.000 HD 
HETATM   26  O   UNL     1     -11.472  16.849  64.305  1.00  0.00    -1.142 OA 
ENDBRANCH  23  24
BRANCH  23  27
HETATM   27  C   UNL     1     -11.967  13.183  63.684  1.00  0.00    -0.580 C  
HETATM   28  C   UNL     1     -12.463  12.121  64.654  1.00  0.00    -0.323 C  
ENDBRANCH  23  27
ENDBRANCH  21  23
ENDBRANCH  15  19
TORSDOF 4
ENDMDL
MODEL       48
REMARK 921   NORMALIZED FREE ENERGY PREDICTED BY IDOCK:   -4.76 KCAL/MOL
REMARK 922        TOTAL FREE ENERGY PREDICTED BY IDOCK:   -6.97 KCAL/MOL
REMARK 923 INTER-LIGAND FREE ENERGY PREDICTED BY IDOCK:   -6.05 KCAL/MOL
REMARK 924 INTRA-LIGAND FREE ENERGY PREDICTED BY IDOCK:   -0.92 KCAL/MOL
REMARK 927      BINDING AFFINITY PREDICTED BY RF-SCORE:    0.00 PKD
ROOT
HETATM    1  C   UNL     1     -11.130  13.639  69.017  1.00  0.00    -0.255 C  
HETATM    2  C   UNL     1     -10.723  15.127  69.146  1.00  0.00    -0.253 C  
HETATM    3  C   UNL     1     -10.320  15.590  67.786  1.00  0.00    -0.263 A  
HETATM    4  C   UNL     1      -9.272  16.326  67.292  1.00  0.00    -0.208 A  
HETATM    5  N   UNL     1      -9.483  16.477  65.936  1.00  0.00    -0.488 NA 
HETATM    6  H   UNL     1      -8.879  17.009  65.309  1.00  0.00     0.000 HD 
HETATM    7  C   UNL     1     -10.625  15.807  65.549  1.00  0.00    -0.406 A  
HETATM    8  C   UNL     1     -11.292  15.689  64.330  1.00  0.00    -0.272 A  
HETATM    9  C   UNL     1     -12.393  14.812  64.298  1.00  0.00    -0.345 A  
HETATM   10  C   UNL     1     -12.730  13.999  65.398  1.00  0.00    -0.499 A  
HETATM   11  C   UNL     1     -12.024  14.114  66.599  1.00  0.00    -0.470 A  
HETATM   12  C   UNL     1     -11.942  13.196  67.758  1.00  0.00    -0.352 C  
HETATM   13  C   UNL     1     -11.055  15.126  66.671  1.00  0.00    -0.308 A  
HETATM   14  C   UNL     1     -12.150  11.867  67.635  1.00  0.00     0.089 C  
HETATM   15  C   UNL     1     -11.391  10.959  68.607  1.00  0.00    -0.360 C  
HETATM   16  C   UNL     1     -13.000  13.328  70.590  1.00  0.00     0.053 C  
HETATM   17  C   UNL     1     -11.424  11.504  70.075  1.00  0.00    -0.220 C  
HETATM   18  N   UNL     1     -11.625  12.970  70.243  1.00  0.00    -0.085 NA 
ENDROOT
BRANCH  15  19
HETATM   19  C   UNL     1      -9.922  10.869  68.072  1.00  0.00    -0.171 C  
HETATM   20  O   UNL     1      -9.637  10.566  66.911  1.00  0.00    -0.169 OA 
HETATM   21  N   UNL     1      -8.952  11.102  69.026  1.00  0.00    -0.370 N  
HETATM   22  H   UNL     1      -9.226  11.599  69.873  1.00  0.00     0.000 HD 
BRANCH  21  23
HETATM   23  CA  UNL     1      -7.553  10.682  68.900  1.00  0.00    -0.113 C  
BRANCH  23  24
HETATM   24  C   UNL     1      -7.086  10.127  70.270  1.00  0.00    -0.138 C  
HETATM   25  H   UNL     1      -7.882   9.160  71.805  1.00  0.00     0.000 HD 
HETATM   26  O   UNL     1      -8.168   9.500  70.966  1.00  0.00    -0.301 OA 
ENDBRANCH  23  24
BRANCH  23  27
HETATM   27  C   UNL     1      -6.640  11.838  68.462  1.00  0.00    -0.059 C  
HETATM   28  C   UNL     1      -7.223  13.221  68.712  1.00  0.00    -0.088 C  
ENDBRANCH  23  27
ENDBRANCH  21  23
ENDBRANCH  15  19
TORSDOF 4
ENDMDL
MODEL       49
REMARK 921   NORMALIZED FREE ENERGY PREDICTED BY IDOCK:   -4.76 KCAL/MOL
REMARK 922        TOTAL FREE ENERGY PREDICTED BY IDOCK:   -6.97 KCAL/MOL
REMARK 923 INTER-LIGAND FREE ENERGY PREDICTED BY IDOCK:   -5.65 KCAL/MOL
REMARK 924 INTRA-LIGAND FREE ENERGY PREDICTED BY IDOCK:   -1.32 KCAL/MOL
REMARK 927      BINDING AFFINITY PREDICTED BY RF-SCORE:    0.00 PKD
ROOT
HETATM    1  C   UNL     1      -9.733  12.725  68.198  1.00  0.00    -0.223 C  
HETATM    2  C   UNL     1      -8.252  13.118  67.989  1.00  0.00    -0.158 C  
HETATM    3  C   UNL     1      -7.580  11.962  67.327  1.00  0.00    -0.154 A  
HETATM    4  C   UNL     1      -6.394  11.300  67.519  1.00  0.00    -0.068 A  
HETATM    5  N   UNL     1      -6.300  10.336  66.536  1.00  0.00    -0.073 NA 
HETATM    6  H   UNL     1      -5.506   9.708  66.409  1.00  0.00     0.000 HD 
HETATM    7  C   UNL     1      -7.432  10.340  65.748  1.00  0.00    -0.144 A  
HETATM    8  C   UNL     1      -7.808   9.617  64.616  1.00  0.00    -0.133 A  
HETATM    9  C   UNL     1      -9.117   9.827  64.141  1.00  0.00    -0.289 A  
HETATM   10  C   UNL     1     -10.043  10.626  64.838  1.00  0.00    -0.402 A  
HETATM   11  C   UNL     1      -9.650  11.315  65.989  1.00  0.00    -0.245 A  
HETATM   12  C   UNL     1     -10.460  11.932  67.065  1.00  0.00    -0.253 C  
HETATM   13  C   UNL     1      -8.293  11.244  66.340  1.00  0.00    -0.159 A  
HETATM   14  C   UNL     1     -11.705  11.500  67.361  1.00  0.00    -0.231 C  
HETATM   15  C   UNL     1     -12.158  11.646  68.817  1.00  0.00    -0.221 C  
HETATM   16  C   UNL     1     -11.021  14.797  67.859  1.00  0.00    -0.278 C  
HETATM   17  C   UNL     1     -11.778  13.042  69.416  1.00  0.00    -0.326 C  
HETATM   18  N   UNL     1     -10.622  13.748  68.797  1.00  0.00    -0.251 NA 
ENDROOT
BRANCH  15  19
HETATM   19  C   UNL     1     -11.470  10.485  69.611  1.00  0.00    -0.282 C  
HETATM   20  O   UNL     1     -11.256  10.523  70.825  1.00  0.00    -0.300 OA 
HETATM   21  N   UNL     1     -11.061   9.423  68.829  1.00  0.00    -0.453 N  
HETATM   22  H   UNL     1     -11.487   9.317  67.909  1.00  0.00     0.000 HD 
BRANCH  21  23
HETATM   23  CA  UNL     1     -10.055   8.438  69.237  1.00  0.00    -0.202 C  
BRANCH  23  24
HETATM   24  C   UNL     1      -8.677   9.147  69.299  1.00  0.00    -0.139 C  
HETATM   25  H   UNL     1      -6.831   8.816  68.661  1.00  0.00     0.000 HD 
HETATM   26  O   UNL     1      -7.675   8.382  68.623  1.00  0.00    -0.102 OA 
ENDBRANCH  23  24
BRANCH  23  27
HETATM   27  C   UNL     1      -9.989   7.246  68.270  1.00  0.00    -0.177 C  
HETATM   28  C   UNL     1     -10.514   7.546  66.874  1.00  0.00    -0.385 C  
ENDBRANCH  23  27
ENDBRANCH  21  23
ENDBRANCH  15  19
TORSDOF 4
ENDMDL
MODEL       50
REMARK 921   NORMALIZED FREE ENERGY PREDICTED BY IDOCK:   -4.76 KCAL/MOL
REMARK 922        TOTAL FREE ENERGY PREDICTED BY IDOCK:   -6.97 KCAL/MOL
REMARK 923 INTER-LIGAND FREE ENERGY PREDICTED BY IDOCK:   -6.70 KCAL/MOL
REMARK 924 INTRA-LIGAND FREE ENERGY PREDICTED BY IDOCK:   -0.26 KCAL/MOL
REMARK 927      BINDING AFFINITY PREDICTED BY RF-SCORE:    0.00 PKD
ROOT
HETATM    1  C   UNL     1      -9.512  10.654  65.651  1.00  0.00    -0.212 C  
HETATM    2  C   UNL     1     -10.337  10.874  64.360  1.00  0.00    -0.430 C  
HETATM    3  C   UNL     1     -11.245  12.031  64.612  1.00  0.00    -0.380 A  
HETATM    4  C   UNL     1     -12.573  12.282  64.376  1.00  0.00    -0.354 A  
HETATM    5  N   UNL     1     -12.824  13.575  64.784  1.00  0.00    -0.701 NA 
HETATM    6  H   UNL     1     -13.724  14.049  64.699  1.00  0.00     0.000 HD 
HETATM    7  C   UNL     1     -11.686  14.139  65.323  1.00  0.00    -0.353 A  
HETATM    8  C   UNL     1     -11.397  15.409  65.823  1.00  0.00    -0.115 A  
HETATM    9  C   UNL     1     -10.125  15.583  66.400  1.00  0.00    -0.301 A  
HETATM   10  C   UNL     1      -9.235  14.507  66.581  1.00  0.00    -0.290 A  
HETATM   11  C   UNL     1      -9.563  13.236  66.099  1.00  0.00    -0.211 A  
HETATM   12  C   UNL     1      -8.996  11.908  66.427  1.00  0.00    -0.180 C  
HETATM   13  C   UNL     1     -10.750  13.124  65.360  1.00  0.00    -0.308 A  
HETATM   14  C   UNL     1      -8.401  11.656  67.612  1.00  0.00    -0.142 C  
HETATM   15  C   UNL     1      -8.499  10.223  68.142  1.00  0.00    -0.123 C  
HETATM   16  C   UNL     1      -7.277   9.947  64.892  1.00  0.00    -0.136 C  
HETATM   17  C   UNL     1      -8.229   9.159  67.024  1.00  0.00    -0.116 C  
HETATM   18  N   UNL     1      -8.491   9.580  65.620  1.00  0.00    -0.128 NA 
ENDROOT
BRANCH  15  19
HETATM   19  C   UNL     1      -9.941  10.068  68.732  1.00  0.00    -0.172 C  
HETATM   20  O   UNL     1     -10.773  10.978  68.744  1.00  0.00    -0.180 OA 
HETATM   21  N   UNL     1     -10.197   8.836  69.300  1.00  0.00    -0.206 N  
HETATM   22  H   UNL     1      -9.597   8.055  69.034  1.00  0.00     0.000 HD 
BRANCH  21  23
HETATM   23  CA  UNL     1     -11.273   8.578  70.260  1.00  0.00    -0.179 C  
BRANCH  23  24
HETATM   24  C   UNL     1     -10.873   9.204  71.621  1.00  0.00    -0.372 C  
HETATM   25  H   UNL     1     -10.692   8.618  73.505  1.00  0.00     0.000 HD 
HETATM   26  O   UNL     1     -10.937   8.234  72.671  1.00  0.00    -0.352 OA 
ENDBRANCH  23  24
BRANCH  23  27
HETATM   27  C   UNL     1     -11.545   7.075  70.433  1.00  0.00    -0.341 C  
HETATM   28  C   UNL     1     -10.800   6.190  69.445  1.00  0.00    -0.420 C  
ENDBRANCH  23  27
ENDBRANCH  21  23
ENDBRANCH  15  19
TORSDOF 4
ENDMDL
MODEL       51
REMARK 921   NORMALIZED FREE ENERGY PREDICTED BY IDOCK:   -4.75 KCAL/MOL
REMARK 922        TOTAL FREE ENERGY PREDICTED BY IDOCK:   -6.95 KCAL/MOL
REMARK 923 INTER-LIGAND FREE ENERGY PREDICTED BY IDOCK:   -5.87 KCAL/MOL
REMARK 924 INTRA-LIGAND FREE ENERGY PREDICTED BY IDOCK:   -1.08 KCAL/MOL
REMARK 927      BINDING AFFINITY PREDICTED BY RF-SCORE:    0.00 PKD
ROOT
HETATM    1  C   UNL     1     -11.635   9.755  69.982  1.00  0.00    -0.130 C  
HETATM    2  C   UNL     1     -12.857   9.335  70.832  1.00  0.00    -0.098 C  
HETATM    3  C   UNL     1     -12.474   8.095  71.568  1.00  0.00    -0.333 A  
HETATM    4  C   UNL     1     -13.086   6.890  71.806  1.00  0.00    -0.245 A  
HETATM    5  N   UNL     1     -12.242   6.156  72.615  1.00  0.00    -0.527 NA 
HETATM    6  H   UNL     1     -12.450   5.227  72.982  1.00  0.00     0.000 HD 
HETATM    7  C   UNL     1     -11.078   6.855  72.857  1.00  0.00    -0.261 A  
HETATM    8  C   UNL     1      -9.952   6.590  73.634  1.00  0.00    -0.252 A  
HETATM    9  C   UNL     1      -8.894   7.515  73.546  1.00  0.00    -0.258 A  
HETATM   10  C   UNL     1      -8.913   8.584  72.630  1.00  0.00    -0.243 A  
HETATM   11  C   UNL     1     -10.044   8.809  71.838  1.00  0.00    -0.409 A  
HETATM   12  C   UNL     1     -10.209   9.616  70.606  1.00  0.00    -0.346 C  
HETATM   13  C   UNL     1     -11.159   7.992  72.076  1.00  0.00    -0.353 A  
HETATM   14  C   UNL     1      -9.179   9.868  69.772  1.00  0.00    -0.252 C  
HETATM   15  C   UNL     1      -9.519  10.042  68.289  1.00  0.00    -0.147 C  
HETATM   16  C   UNL     1     -11.630  12.219  70.005  1.00  0.00    -0.157 C  
HETATM   17  C   UNL     1     -10.784  10.940  68.074  1.00  0.00    -0.220 C  
HETATM   18  N   UNL     1     -11.761  11.006  69.197  1.00  0.00    -0.309 NA 
ENDROOT
BRANCH  15  19
HETATM   19  C   UNL     1      -9.746   8.601  67.717  1.00  0.00    -0.165 C  
HETATM   20  O   UNL     1     -10.656   8.315  66.935  1.00  0.00    -0.321 OA 
HETATM   21  N   UNL     1      -8.875   7.649  68.206  1.00  0.00    -0.126 N  
HETATM   22  H   UNL     1      -8.002   7.972  68.623  1.00  0.00     0.000 HD 
BRANCH  21  23
HETATM   23  CA  UNL     1      -9.123   6.205  68.165  1.00  0.00    -0.111 C  
BRANCH  23  24
HETATM   24  C   UNL     1      -9.338   5.706  69.617  1.00  0.00    -0.138 C  
HETATM   25  H   UNL     1     -10.791   4.882  70.681  1.00  0.00     0.000 HD 
HETATM   26  O   UNL     1     -10.660   5.188  69.792  1.00  0.00    -0.272 OA 
ENDBRANCH  23  24
BRANCH  23  27
HETATM   27  C   UNL     1      -7.962   5.439  67.512  1.00  0.00    -0.101 C  
HETATM   28  C   UNL     1      -8.242   3.962  67.282  1.00  0.00    -0.098 C  
ENDBRANCH  23  27
ENDBRANCH  21  23
ENDBRANCH  15  19
TORSDOF 4
ENDMDL
MODEL       52
REMARK 921   NORMALIZED FREE ENERGY PREDICTED BY IDOCK:   -4.68 KCAL/MOL
REMARK 922        TOTAL FREE ENERGY PREDICTED BY IDOCK:   -6.87 KCAL/MOL
REMARK 923 INTER-LIGAND FREE ENERGY PREDICTED BY IDOCK:   -6.20 KCAL/MOL
REMARK 924 INTRA-LIGAND FREE ENERGY PREDICTED BY IDOCK:   -0.67 KCAL/MOL
REMARK 927      BINDING AFFINITY PREDICTED BY RF-SCORE:    0.00 PKD
ROOT
HETATM    1  C   UNL     1     -10.346  14.675  68.839  1.00  0.00    -0.245 C  
HETATM    2  C   UNL     1      -9.313  15.285  69.816  1.00  0.00    -0.084 C  
HETATM    3  C   UNL     1      -8.461  16.220  69.024  1.00  0.00    -0.244 A  
HETATM    4  C   UNL     1      -7.111  16.455  68.942  1.00  0.00    -0.195 A  
HETATM    5  N   UNL     1      -6.932  17.502  68.062  1.00  0.00    -0.190 NA 
HETATM    6  H   UNL     1      -6.030  17.918  67.827  1.00  0.00     0.000 HD 
HETATM    7  C   UNL     1      -8.144  17.908  67.543  1.00  0.00    -0.225 A  
HETATM    8  C   UNL     1      -8.512  18.933  66.673  1.00  0.00    -0.308 A  
HETATM    9  C   UNL     1      -9.864  18.971  66.281  1.00  0.00    -0.417 A  
HETATM   10  C   UNL     1     -10.773  17.959  66.642  1.00  0.00    -0.137 A  
HETATM   11  C   UNL     1     -10.369  16.923  67.490  1.00  0.00    -0.318 A  
HETATM   12  C   UNL     1     -10.985  15.602  67.756  1.00  0.00    -0.316 C  
HETATM   13  C   UNL     1      -9.074  17.006  68.022  1.00  0.00    -0.237 A  
HETATM   14  C   UNL     1     -11.773  14.985  66.850  1.00  0.00    -0.181 C  
HETATM   15  C   UNL     1     -11.768  13.453  66.862  1.00  0.00    -0.434 C  
HETATM   16  C   UNL     1     -12.420  14.422  70.144  1.00  0.00    -0.339 C  
HETATM   17  C   UNL     1     -11.845  12.873  68.315  1.00  0.00    -0.330 C  
HETATM   18  N   UNL     1     -11.348  13.746  69.414  1.00  0.00    -0.261 NA 
ENDROOT
BRANCH  15  19
HETATM   19  C   UNL     1     -10.447  13.011  66.147  1.00  0.00    -0.279 C  
HETATM   20  O   UNL     1     -10.091  13.441  65.048  1.00  0.00    -0.301 OA 
HETATM   21  N   UNL     1      -9.729  12.044  66.822  1.00  0.00    -0.203 N  
HETATM   22  H   UNL     1      -9.913  11.922  67.818  1.00  0.00     0.000 HD 
BRANCH  21  23
HETATM   23  CA  UNL     1      -8.720  11.182  66.201  1.00  0.00    -0.186 C  
BRANCH  23  24
HETATM   24  C   UNL     1      -9.415   9.877  65.734  1.00  0.00    -0.222 C  
HETATM   25  H   UNL     1     -10.246   9.172  64.079  1.00  0.00     0.000 HD 
HETATM   26  O   UNL     1      -9.820   9.972  64.365  1.00  0.00    -0.296 OA 
ENDBRANCH  23  24
BRANCH  23  27
HETATM   27  C   UNL     1      -7.571  10.850  67.166  1.00  0.00    -0.109 C  
HETATM   28  C   UNL     1      -6.199  11.287  66.676  1.00  0.00    -0.141 C  
ENDBRANCH  23  27
ENDBRANCH  21  23
ENDBRANCH  15  19
TORSDOF 4
ENDMDL
MODEL       53
REMARK 921   NORMALIZED FREE ENERGY PREDICTED BY IDOCK:   -4.66 KCAL/MOL
REMARK 922        TOTAL FREE ENERGY PREDICTED BY IDOCK:   -6.84 KCAL/MOL
REMARK 923 INTER-LIGAND FREE ENERGY PREDICTED BY IDOCK:   -6.16 KCAL/MOL
REMARK 924 INTRA-LIGAND FREE ENERGY PREDICTED BY IDOCK:   -0.68 KCAL/MOL
REMARK 927      BINDING AFFINITY PREDICTED BY RF-SCORE:    0.00 PKD
ROOT
HETATM    1  C   UNL     1      -9.587  13.662  67.024  1.00  0.00    -0.251 C  
HETATM    2  C   UNL     1      -8.205  14.327  67.228  1.00  0.00    -0.212 C  
HETATM    3  C   UNL     1      -7.282  13.272  67.738  1.00  0.00    -0.151 A  
HETATM    4  C   UNL     1      -6.347  13.215  68.742  1.00  0.00    -0.091 A  
HETATM    5  N   UNL     1      -5.763  11.966  68.686  1.00  0.00    -0.052 NA 
HETATM    6  H   UNL     1      -5.008  11.649  69.294  1.00  0.00     0.000 HD 
HETATM    7  C   UNL     1      -6.344  11.207  67.692  1.00  0.00    -0.054 A  
HETATM    8  C   UNL     1      -6.093   9.927  67.201  1.00  0.00    -0.058 A  
HETATM    9  C   UNL     1      -6.985   9.439  66.228  1.00  0.00    -0.087 A  
HETATM   10  C   UNL     1      -8.144  10.148  65.857  1.00  0.00    -0.136 A  
HETATM   11  C   UNL     1      -8.390  11.418  66.389  1.00  0.00    -0.140 A  
HETATM   12  C   UNL     1      -9.637  12.215  66.436  1.00  0.00    -0.243 C  
HETATM   13  C   UNL     1      -7.394  11.966  67.211  1.00  0.00    -0.146 A  
HETATM   14  C   UNL     1     -10.858  11.638  66.408  1.00  0.00    -0.333 C  
HETATM   15  C   UNL     1     -11.983  12.371  67.145  1.00  0.00    -0.248 C  
HETATM   16  C   UNL     1     -10.547  14.732  65.023  1.00  0.00    -0.429 C  
HETATM   17  C   UNL     1     -11.970  13.911  66.861  1.00  0.00    -0.433 C  
HETATM   18  N   UNL     1     -10.665  14.510  66.465  1.00  0.00    -0.307 NA 
ENDROOT
BRANCH  15  19
HETATM   19  C   UNL     1     -11.779  12.075  68.669  1.00  0.00    -0.326 C  
HETATM   20  O   UNL     1     -11.676  12.956  69.526  1.00  0.00    -0.303 OA 
HETATM   21  N   UNL     1     -11.663  10.735  68.980  1.00  0.00    -0.418 N  
HETATM   22  H   UNL     1     -12.014  10.057  68.304  1.00  0.00     0.000 HD 
BRANCH  21  23
HETATM   23  CA  UNL     1     -11.067  10.225  70.218  1.00  0.00    -0.319 C  
BRANCH  23  24
HETATM   24  C   UNL     1      -9.920   9.251  69.840  1.00  0.00    -0.205 C  
HETATM   25  H   UNL     1      -9.726   7.344  69.339  1.00  0.00     0.000 HD 
HETATM   26  O   UNL     1     -10.428   7.941  69.571  1.00  0.00    -0.221 OA 
ENDBRANCH  23  24
BRANCH  23  27
HETATM   27  C   UNL     1     -12.098   9.505  71.101  1.00  0.00    -0.429 C  
HETATM   28  C   UNL     1     -13.068  10.437  71.810  1.00  0.00    -0.567 C  
ENDBRANCH  23  27
ENDBRANCH  21  23
ENDBRANCH  15  19
TORSDOF 4
ENDMDL
MODEL       54
REMARK 921   NORMALIZED FREE ENERGY PREDICTED BY IDOCK:   -4.62 KCAL/MOL
REMARK 922        TOTAL FREE ENERGY PREDICTED BY IDOCK:   -6.79 KCAL/MOL
REMARK 923 INTER-LIGAND FREE ENERGY PREDICTED BY IDOCK:   -6.10 KCAL/MOL
REMARK 924 INTRA-LIGAND FREE ENERGY PREDICTED BY IDOCK:   -0.69 KCAL/MOL
REMARK 927      BINDING AFFINITY PREDICTED BY RF-SCORE:    0.00 PKD
ROOT
HETATM    1  C   UNL     1     -10.678  10.226  67.625  1.00  0.00    -0.288 C  
HETATM    2  C   UNL     1     -10.914  10.468  66.115  1.00  0.00     0.068 C  
HETATM    3  C   UNL     1     -10.850  11.942  65.893  1.00  0.00    -0.342 A  
HETATM    4  C   UNL     1     -11.612  12.843  65.191  1.00  0.00    -0.332 A  
HETATM    5  N   UNL     1     -11.005  14.076  65.318  1.00  0.00    -0.318 NA 
HETATM    6  H   UNL     1     -11.333  14.934  64.874  1.00  0.00     0.000 HD 
HETATM    7  C   UNL     1      -9.894  13.985  66.130  1.00  0.00    -0.303 A  
HETATM    8  C   UNL     1      -8.927  14.908  66.528  1.00  0.00    -0.288 A  
HETATM    9  C   UNL     1      -7.983  14.462  67.472  1.00  0.00    -0.208 A  
HETATM   10  C   UNL     1      -8.079  13.196  68.081  1.00  0.00    -0.155 A  
HETATM   11  C   UNL     1      -9.079  12.302  67.688  1.00  0.00    -0.184 A  
HETATM   12  C   UNL     1      -9.603  11.090  68.359  1.00  0.00    -0.181 C  
HETATM   13  C   UNL     1      -9.892  12.691  66.613  1.00  0.00    -0.245 A  
HETATM   14  C   UNL     1      -9.538  10.928  69.698  1.00  0.00     0.259 C  
HETATM   15  C   UNL     1     -10.651  10.099  70.346  1.00  0.00    -0.287 C  
HETATM   16  C   UNL     1      -9.390   8.130  67.764  1.00  0.00    -0.134 C  
HETATM   17  C   UNL     1     -10.969   8.798  69.534  1.00  0.00    -0.068 C  
HETATM   18  N   UNL     1     -10.642   8.816  68.081  1.00  0.00    -0.188 NA 
ENDROOT
BRANCH  15  19
HETATM   19  C   UNL     1     -11.905  11.034  70.430  1.00  0.00    -0.367 C  
HETATM   20  O   UNL     1     -13.066  10.617  70.433  1.00  0.00    -0.260 OA 
HETATM   21  N   UNL     1     -11.612  12.382  70.442  1.00  0.00    -0.493 N  
HETATM   22  H   UNL     1     -10.667  12.663  70.704  1.00  0.00     0.000 HD 
BRANCH  21  23
HETATM   23  CA  UNL     1     -12.570  13.438  70.101  1.00  0.00    -0.077 C  
BRANCH  23  24
HETATM   24  C   UNL     1     -12.049  14.182  68.844  1.00  0.00    -0.304 C  
HETATM   25  H   UNL     1     -11.274  15.952  68.408  1.00  0.00     0.000 HD 
HETATM   26  O   UNL     1     -11.593  15.496  69.178  1.00  0.00    -0.317 OA 
ENDBRANCH  23  24
BRANCH  23  27
HETATM   27  C   UNL     1     -12.769  14.432  71.256  1.00  0.00    -0.414 C  
HETATM   28  C   UNL     1     -13.706  13.939  72.347  1.00  0.00    -0.678 C  
ENDBRANCH  23  27
ENDBRANCH  21  23
ENDBRANCH  15  19
TORSDOF 4
ENDMDL
MODEL       55
REMARK 921   NORMALIZED FREE ENERGY PREDICTED BY IDOCK:   -4.62 KCAL/MOL
REMARK 922        TOTAL FREE ENERGY PREDICTED BY IDOCK:   -6.79 KCAL/MOL
REMARK 923 INTER-LIGAND FREE ENERGY PREDICTED BY IDOCK:   -5.46 KCAL/MOL
REMARK 924 INTRA-LIGAND FREE ENERGY PREDICTED BY IDOCK:   -1.33 KCAL/MOL
REMARK 927      BINDING AFFINITY PREDICTED BY RF-SCORE:    0.00 PKD
ROOT
HETATM    1  C   UNL     1     -11.236   9.200  70.900  1.00  0.00    -0.295 C  
HETATM    2  C   UNL     1     -11.713  10.484  70.180  1.00  0.00    -0.410 C  
HETATM    3  C   UNL     1     -10.852  10.656  68.974  1.00  0.00    -0.277 A  
HETATM    4  C   UNL     1     -10.193  11.718  68.406  1.00  0.00    -0.206 A  
HETATM    5  N   UNL     1      -9.604  11.259  67.246  1.00  0.00    -0.173 NA 
HETATM    6  H   UNL     1      -9.071  11.837  66.596  1.00  0.00     0.000 HD 
HETATM    7  C   UNL     1      -9.836   9.908  67.089  1.00  0.00    -0.186 A  
HETATM    8  C   UNL     1      -9.511   8.996  66.086  1.00  0.00    -0.318 A  
HETATM    9  C   UNL     1      -9.831   7.648  66.333  1.00  0.00    -0.174 A  
HETATM   10  C   UNL     1     -10.337   7.218  67.575  1.00  0.00    -0.310 A  
HETATM   11  C   UNL     1     -10.624   8.150  68.577  1.00  0.00    -0.142 A  
HETATM   12  C   UNL     1     -10.837   7.964  70.031  1.00  0.00    -0.238 C  
HETATM   13  C   UNL     1     -10.477   9.505  68.245  1.00  0.00    -0.265 A  
HETATM   14  C   UNL     1     -10.302   6.924  70.706  1.00  0.00    -0.223 C  
HETATM   15  C   UNL     1      -9.956   7.164  72.178  1.00  0.00    -0.183 C  
HETATM   16  C   UNL     1     -13.274   8.160  71.814  1.00  0.00    -0.341 C  
HETATM   17  C   UNL     1     -11.090   7.934  72.935  1.00  0.00    -0.379 C  
HETATM   18  N   UNL     1     -11.987   8.790  72.110  1.00  0.00    -0.366 NA 
ENDROOT
BRANCH  15  19
HETATM   19  C   UNL     1      -8.617   7.976  72.190  1.00  0.00    -0.155 C  
HETATM   20  O   UNL     1      -8.313   8.776  73.078  1.00  0.00    -0.412 OA 
HETATM   21  N   UNL     1      -7.815   7.771  71.085  1.00  0.00    -0.087 N  
HETATM   22  H   UNL     1      -7.972   6.928  70.532  1.00  0.00     0.000 HD 
BRANCH  21  23
HETATM   23  CA  UNL     1      -6.753   8.685  70.656  1.00  0.00    -0.043 C  
BRANCH  23  24
HETATM   24  C   UNL     1      -7.407  10.027  70.235  1.00  0.00    -0.141 C  
HETATM   25  H   UNL     1      -7.418  11.216  68.650  1.00  0.00     0.000 HD 
HETATM   26  O   UNL     1      -7.018  10.394  68.908  1.00  0.00    -0.060 OA 
ENDBRANCH  23  24
BRANCH  23  27
HETATM   27  C   UNL     1      -5.934   8.111  69.489  1.00  0.00    -0.030 C  
HETATM   28  C   UNL     1      -6.590   6.931  68.789  1.00  0.00    -0.047 C  
ENDBRANCH  23  27
ENDBRANCH  21  23
ENDBRANCH  15  19
TORSDOF 4
ENDMDL
MODEL       56
REMARK 921   NORMALIZED FREE ENERGY PREDICTED BY IDOCK:   -4.61 KCAL/MOL
REMARK 922        TOTAL FREE ENERGY PREDICTED BY IDOCK:   -6.78 KCAL/MOL
REMARK 923 INTER-LIGAND FREE ENERGY PREDICTED BY IDOCK:   -6.24 KCAL/MOL
REMARK 924 INTRA-LIGAND FREE ENERGY PREDICTED BY IDOCK:   -0.55 KCAL/MOL
REMARK 927      BINDING AFFINITY PREDICTED BY RF-SCORE:    0.00 PKD
ROOT
HETATM    1  C   UNL     1      -9.110  12.792  67.256  1.00  0.00    -0.200 C  
HETATM    2  C   UNL     1      -7.609  12.448  67.105  1.00  0.00    -0.104 C  
HETATM    3  C   UNL     1      -7.526  11.190  66.307  1.00  0.00    -0.064 A  
HETATM    4  C   UNL     1      -6.811  10.024  66.421  1.00  0.00    -0.093 A  
HETATM    5  N   UNL     1      -7.123   9.245  65.326  1.00  0.00    -0.088 NA 
HETATM    6  H   UNL     1      -6.716   8.331  65.126  1.00  0.00     0.000 HD 
HETATM    7  C   UNL     1      -8.064   9.875  64.539  1.00  0.00    -0.149 A  
HETATM    8  C   UNL     1      -8.665   9.547  63.324  1.00  0.00    -0.238 A  
HETATM    9  C   UNL     1      -9.683  10.408  62.872  1.00  0.00    -0.266 A  
HETATM   10  C   UNL     1     -10.162  11.473  63.659  1.00  0.00    -0.450 A  
HETATM   11  C   UNL     1      -9.564  11.761  64.889  1.00  0.00    -0.132 A  
HETATM   12  C   UNL     1     -10.052  12.571  66.029  1.00  0.00    -0.268 C  
HETATM   13  C   UNL     1      -8.429  11.012  65.235  1.00  0.00     0.004 A  
HETATM   14  C   UNL     1     -11.368  12.760  66.263  1.00  0.00    -0.365 C  
HETATM   15  C   UNL     1     -11.789  12.947  67.723  1.00  0.00    -0.391 C  
HETATM   16  C   UNL     1      -9.235  15.251  67.172  1.00  0.00    -0.209 C  
HETATM   17  C   UNL     1     -10.832  13.918  68.494  1.00  0.00    -0.259 C  
HETATM   18  N   UNL     1      -9.442  14.045  67.974  1.00  0.00    -0.199 NA 
ENDROOT
BRANCH  15  19
HETATM   19  C   UNL     1     -11.787  11.521  68.370  1.00  0.00    -0.283 C  
HETATM   20  O   UNL     1     -11.806  10.476  67.715  1.00  0.00    -0.361 OA 
HETATM   21  N   UNL     1     -11.823  11.520  69.750  1.00  0.00    -0.329 N  
HETATM   22  H   UNL     1     -11.541  12.372  70.234  1.00  0.00     0.000 HD 
BRANCH  21  23
HETATM   23  CA  UNL     1     -12.240  10.374  70.563  1.00  0.00    -0.323 C  
BRANCH  23  24
HETATM   24  C   UNL     1     -13.011  10.908  71.797  1.00  0.00    -0.451 C  
HETATM   25  H   UNL     1     -14.214  10.186  73.197  1.00  0.00     0.000 HD 
HETATM   26  O   UNL     1     -13.741   9.859  72.440  1.00  0.00    -0.338 OA 
ENDBRANCH  23  24
BRANCH  23  27
HETATM   27  C   UNL     1     -11.044   9.524  71.019  1.00  0.00    -0.433 C  
HETATM   28  C   UNL     1     -10.972   8.151  70.368  1.00  0.00    -0.248 C  
ENDBRANCH  23  27
ENDBRANCH  21  23
ENDBRANCH  15  19
TORSDOF 4
ENDMDL
MODEL       57
REMARK 921   NORMALIZED FREE ENERGY PREDICTED BY IDOCK:   -4.59 KCAL/MOL
REMARK 922        TOTAL FREE ENERGY PREDICTED BY IDOCK:   -6.76 KCAL/MOL
REMARK 923 INTER-LIGAND FREE ENERGY PREDICTED BY IDOCK:   -6.19 KCAL/MOL
REMARK 924 INTRA-LIGAND FREE ENERGY PREDICTED BY IDOCK:   -0.56 KCAL/MOL
REMARK 927      BINDING AFFINITY PREDICTED BY RF-SCORE:    0.00 PKD
ROOT
HETATM    1  C   UNL     1     -10.339  12.755  67.264  1.00  0.00    -0.232 C  
HETATM    2  C   UNL     1      -9.154  11.946  66.685  1.00  0.00    -0.203 C  
HETATM    3  C   UNL     1      -8.466  11.292  67.835  1.00  0.00    -0.133 A  
HETATM    4  C   UNL     1      -7.155  11.140  68.213  1.00  0.00    -0.073 A  
HETATM    5  N   UNL     1      -7.147  10.374  69.361  1.00  0.00    -0.088 NA 
HETATM    6  H   UNL     1      -6.306  10.072  69.853  1.00  0.00     0.000 HD 
HETATM    7  C   UNL     1      -8.436  10.074  69.749  1.00  0.00    -0.172 A  
HETATM    8  C   UNL     1      -8.964   9.305  70.785  1.00  0.00    -0.292 A  
HETATM    9  C   UNL     1     -10.364   9.320  70.930  1.00  0.00    -0.367 A  
HETATM   10  C   UNL     1     -11.184  10.163  70.155  1.00  0.00    -0.377 A  
HETATM   11  C   UNL     1     -10.625  10.950  69.143  1.00  0.00    -0.253 A  
HETATM   12  C   UNL     1     -11.171  12.126  68.428  1.00  0.00    -0.314 C  
HETATM   13  C   UNL     1      -9.256  10.779  68.889  1.00  0.00    -0.180 A  
HETATM   14  C   UNL     1     -12.103  12.932  68.981  1.00  0.00    -0.198 C  
HETATM   15  C   UNL     1     -12.081  14.403  68.557  1.00  0.00    -0.278 C  
HETATM   16  C   UNL     1     -12.143  12.568  65.596  1.00  0.00    -0.400 C  
HETATM   17  C   UNL     1     -11.890  14.570  67.011  1.00  0.00    -0.385 C  
HETATM   18  N   UNL     1     -11.212  13.456  66.293  1.00  0.00    -0.301 NA 
ENDROOT
BRANCH  15  19
HETATM   19  C   UNL     1     -10.905  15.072  69.346  1.00  0.00    -0.260 C  
HETATM   20  O   UNL     1     -10.911  15.236  70.568  1.00  0.00    -0.296 OA 
HETATM   21  N   UNL     1      -9.870  15.525  68.553  1.00  0.00    -0.199 N  
HETATM   22  H   UNL     1      -9.785  15.138  67.613  1.00  0.00     0.000 HD 
BRANCH  21  23
HETATM   23  CA  UNL     1      -8.885  16.525  68.974  1.00  0.00    -0.223 C  
BRANCH  23  24
HETATM   24  C   UNL     1      -9.233  17.871  68.285  1.00  0.00    -0.282 C  
HETATM   25  H   UNL     1     -10.103  18.476  66.611  1.00  0.00     0.000 HD 
HETATM   26  O   UNL     1      -9.889  17.652  67.033  1.00  0.00    -0.284 OA 
ENDBRANCH  23  24
BRANCH  23  27
HETATM   27  C   UNL     1      -7.450  16.108  68.616  1.00  0.00    -0.179 C  
HETATM   28  C   UNL     1      -6.392  16.637  69.572  1.00  0.00    -0.227 C  
ENDBRANCH  23  27
ENDBRANCH  21  23
ENDBRANCH  15  19
TORSDOF 4
ENDMDL
MODEL       58
REMARK 921   NORMALIZED FREE ENERGY PREDICTED BY IDOCK:   -4.56 KCAL/MOL
REMARK 922        TOTAL FREE ENERGY PREDICTED BY IDOCK:   -6.72 KCAL/MOL
REMARK 923 INTER-LIGAND FREE ENERGY PREDICTED BY IDOCK:   -7.39 KCAL/MOL
REMARK 924 INTRA-LIGAND FREE ENERGY PREDICTED BY IDOCK:    0.67 KCAL/MOL
REMARK 927      BINDING AFFINITY PREDICTED BY RF-SCORE:    0.00 PKD
ROOT
HETATM    1  C   UNL     1     -10.538  14.779  66.464  1.00  0.00    -0.299 C  
HETATM    2  C   UNL     1      -9.800  15.891  65.681  1.00  0.00    -0.337 C  
HETATM    3  C   UNL     1      -8.533  16.176  66.414  1.00  0.00    -0.369 A  
HETATM    4  C   UNL     1      -7.878  17.320  66.795  1.00  0.00    -0.243 A  
HETATM    5  N   UNL     1      -6.700  16.934  67.402  1.00  0.00    -0.146 NA 
HETATM    6  H   UNL     1      -5.992  17.576  67.759  1.00  0.00     0.000 HD 
HETATM    7  C   UNL     1      -6.615  15.559  67.458  1.00  0.00    -0.176 A  
HETATM    8  C   UNL     1      -5.631  14.682  67.913  1.00  0.00    -0.113 A  
HETATM    9  C   UNL     1      -5.955  13.312  67.905  1.00  0.00    -0.138 A  
HETATM   10  C   UNL     1      -7.245  12.854  67.576  1.00  0.00    -0.149 A  
HETATM   11  C   UNL     1      -8.225  13.757  67.154  1.00  0.00    -0.125 A  
HETATM   12  C   UNL     1      -9.696  13.611  67.069  1.00  0.00    -0.251 C  
HETATM   13  C   UNL     1      -7.828  15.093  66.986  1.00  0.00    -0.197 A  
HETATM   14  C   UNL     1     -10.376  12.747  67.854  1.00  0.00    -0.228 C  
HETATM   15  C   UNL     1     -11.810  13.135  68.225  1.00  0.00    -0.384 C  
HETATM   16  C   UNL     1     -11.631  13.382  64.754  1.00  0.00    -0.339 C  
HETATM   17  C   UNL     1     -12.609  13.687  66.996  1.00  0.00     0.117 C  
HETATM   18  N   UNL     1     -11.813  14.286  65.890  1.00  0.00    -0.371 NA 
ENDROOT
BRANCH  15  19
HETATM   19  C   UNL     1     -11.697  14.212  69.356  1.00  0.00    -0.313 C  
HETATM   20  O   UNL     1     -10.648  14.469  69.950  1.00  0.00    -0.077 OA 
HETATM   21  N   UNL     1     -12.892  14.822  69.684  1.00  0.00    -0.525 N  
HETATM   22  H   UNL     1     -13.652  14.777  69.006  1.00  0.00     0.000 HD 
BRANCH  21  23
HETATM   23  CA  UNL     1     -13.137  15.529  70.944  1.00  0.00    -0.448 C  
BRANCH  23  24
HETATM   24  C   UNL     1     -11.775  15.759  71.646  1.00  0.00    -0.464 C  
HETATM   25  H   UNL     1     -11.085  16.763  73.210  1.00  0.00     0.000 HD 
HETATM   26  O   UNL     1     -11.920  16.622  72.779  1.00  0.00    -0.504 OA 
ENDBRANCH  23  24
BRANCH  23  27
HETATM   27  C   UNL     1     -14.081  14.747  71.870  1.00  0.00    -0.609 C  
HETATM   28  C   UNL     1     -13.573  13.367  72.255  1.00  0.00    -0.703 C  
ENDBRANCH  23  27
ENDBRANCH  21  23
ENDBRANCH  15  19
TORSDOF 4
ENDMDL
MODEL       59
REMARK 921   NORMALIZED FREE ENERGY PREDICTED BY IDOCK:   -4.53 KCAL/MOL
REMARK 922        TOTAL FREE ENERGY PREDICTED BY IDOCK:   -6.69 KCAL/MOL
REMARK 923 INTER-LIGAND FREE ENERGY PREDICTED BY IDOCK:   -5.87 KCAL/MOL
REMARK 924 INTRA-LIGAND FREE ENERGY PREDICTED BY IDOCK:   -0.82 KCAL/MOL
REMARK 927      BINDING AFFINITY PREDICTED BY RF-SCORE:    0.00 PKD
ROOT
HETATM    1  C   UNL     1      -8.452   8.577  71.283  1.00  0.00    -0.163 C  
HETATM    2  C   UNL     1      -8.704   8.356  72.794  1.00  0.00    -0.256 C  
HETATM    3  C   UNL     1      -9.606   7.175  72.920  1.00  0.00    -0.188 A  
HETATM    4  C   UNL     1     -10.731   6.898  73.657  1.00  0.00    -0.274 A  
HETATM    5  N   UNL     1     -11.086   5.593  73.383  1.00  0.00    -0.441 NA 
HETATM    6  H   UNL     1     -11.869   5.100  73.814  1.00  0.00     0.000 HD 
HETATM    7  C   UNL     1     -10.234   5.048  72.446  1.00  0.00    -0.201 A  
HETATM    8  C   UNL     1     -10.129   3.779  71.878  1.00  0.00    -0.194 A  
HETATM    9  C   UNL     1      -9.177   3.625  70.851  1.00  0.00    -0.199 A  
HETATM   10  C   UNL     1      -8.457   4.719  70.334  1.00  0.00    -0.102 A  
HETATM   11  C   UNL     1      -8.605   5.988  70.900  1.00  0.00    -0.131 A  
HETATM   12  C   UNL     1      -8.246   7.325  70.372  1.00  0.00    -0.125 C  
HETATM   13  C   UNL     1      -9.413   6.084  72.043  1.00  0.00    -0.161 A  
HETATM   14  C   UNL     1      -8.166   7.573  69.047  1.00  0.00    -0.128 C  
HETATM   15  C   UNL     1      -8.501   8.997  68.592  1.00  0.00    -0.128 C  
HETATM   16  C   UNL     1      -6.117   9.346  71.109  1.00  0.00    -0.078 C  
HETATM   17  C   UNL     1      -7.846  10.081  69.513  1.00  0.00    -0.154 C  
HETATM   18  N   UNL     1      -7.529   9.675  70.910  1.00  0.00    -0.323 NA 
ENDROOT
BRANCH  15  19
HETATM   19  C   UNL     1     -10.063   9.110  68.610  1.00  0.00    -0.194 C  
HETATM   20  O   UNL     1     -10.801   8.460  67.867  1.00  0.00    -0.118 OA 
HETATM   21  N   UNL     1     -10.556  10.050  69.493  1.00  0.00    -0.227 N  
HETATM   22  H   UNL     1      -9.948  10.356  70.252  1.00  0.00     0.000 HD 
BRANCH  21  23
HETATM   23  CA  UNL     1     -11.898  10.635  69.409  1.00  0.00    -0.253 C  
BRANCH  23  24
HETATM   24  C   UNL     1     -11.767  12.072  68.844  1.00  0.00    -0.326 C  
HETATM   25  H   UNL     1     -11.870  12.966  67.078  1.00  0.00     0.000 HD 
HETATM   26  O   UNL     1     -11.950  12.085  67.425  1.00  0.00    -0.583 OA 
ENDBRANCH  23  24
BRANCH  23  27
HETATM   27  C   UNL     1     -12.599  10.669  70.776  1.00  0.00    -0.479 C  
HETATM   28  C   UNL     1     -12.536   9.356  71.541  1.00  0.00    -0.447 C  
ENDBRANCH  23  27
ENDBRANCH  21  23
ENDBRANCH  15  19
TORSDOF 4
ENDMDL
MODEL       60
REMARK 921   NORMALIZED FREE ENERGY PREDICTED BY IDOCK:   -4.53 KCAL/MOL
REMARK 922        TOTAL FREE ENERGY PREDICTED BY IDOCK:   -6.68 KCAL/MOL
REMARK 923 INTER-LIGAND FREE ENERGY PREDICTED BY IDOCK:   -5.77 KCAL/MOL
REMARK 924 INTRA-LIGAND FREE ENERGY PREDICTED BY IDOCK:   -0.91 KCAL/MOL
REMARK 927      BINDING AFFINITY PREDICTED BY RF-SCORE:    0.00 PKD
ROOT
HETATM    1  C   UNL     1     -11.413   9.140  70.930  1.00  0.00    -0.296 C  
HETATM    2  C   UNL     1     -12.123  10.472  70.588  1.00  0.00    -0.452 C  
HETATM    3  C   UNL     1     -11.364  11.099  69.468  1.00  0.00    -0.359 A  
HETATM    4  C   UNL     1     -10.910  12.368  69.204  1.00  0.00    -0.097 A  
HETATM    5  N   UNL     1     -10.317  12.338  67.958  1.00  0.00    -0.208 NA 
HETATM    6  H   UNL     1      -9.917  13.148  67.485  1.00  0.00     0.000 HD 
HETATM    7  C   UNL     1     -10.342  11.059  67.443  1.00  0.00    -0.207 A  
HETATM    8  C   UNL     1      -9.930  10.513  66.228  1.00  0.00    -0.276 A  
HETATM    9  C   UNL     1     -10.021   9.114  66.103  1.00  0.00    -0.338 A  
HETATM   10  C   UNL     1     -10.387   8.291  67.186  1.00  0.00    -0.387 A  
HETATM   11  C   UNL     1     -10.765   8.863  68.405  1.00  0.00    -0.126 A  
HETATM   12  C   UNL     1     -10.870   8.264  69.756  1.00  0.00    -0.186 C  
HETATM   13  C   UNL     1     -10.850  10.262  68.451  1.00  0.00    -0.288 A  
HETATM   14  C   UNL     1     -10.144   7.186  70.120  1.00  0.00    -0.195 C  
HETATM   15  C   UNL     1      -9.763   7.079  71.599  1.00  0.00    -0.164 C  
HETATM   16  C   UNL     1     -13.211   7.572  71.544  1.00  0.00    -0.354 C  
HETATM   17  C   UNL     1     -10.964   7.421  72.545  1.00  0.00    -0.296 C  
HETATM   18  N   UNL     1     -12.026   8.305  71.989  1.00  0.00    -0.325 NA 
ENDROOT
BRANCH  15  19
HETATM   19  C   UNL     1      -8.570   8.069  71.821  1.00  0.00    -0.133 C  
HETATM   20  O   UNL     1      -8.558   8.935  72.697  1.00  0.00    -0.384 OA 
HETATM   21  N   UNL     1      -7.541   7.935  70.910  1.00  0.00    -0.076 N  
HETATM   22  H   UNL     1      -7.473   7.059  70.392  1.00  0.00     0.000 HD 
BRANCH  21  23
HETATM   23  CA  UNL     1      -6.541   8.971  70.638  1.00  0.00    -0.060 C  
BRANCH  23  24
HETATM   24  C   UNL     1      -5.759   9.248  71.948  1.00  0.00    -0.063 C  
HETATM   25  H   UNL     1      -5.137  10.823  72.977  1.00  0.00     0.000 HD 
HETATM   26  O   UNL     1      -5.616  10.653  72.175  1.00  0.00    -0.297 OA 
ENDBRANCH  23  24
BRANCH  23  27
HETATM   27  C   UNL     1      -7.180  10.271  70.124  1.00  0.00    -0.138 C  
HETATM   28  C   UNL     1      -7.001  10.505  68.632  1.00  0.00    -0.067 C  
ENDBRANCH  23  27
ENDBRANCH  21  23
ENDBRANCH  15  19
TORSDOF 4
ENDMDL
MODEL       61
REMARK 921   NORMALIZED FREE ENERGY PREDICTED BY IDOCK:   -4.53 KCAL/MOL
REMARK 922        TOTAL FREE ENERGY PREDICTED BY IDOCK:   -6.68 KCAL/MOL
REMARK 923 INTER-LIGAND FREE ENERGY PREDICTED BY IDOCK:   -5.76 KCAL/MOL
REMARK 924 INTRA-LIGAND FREE ENERGY PREDICTED BY IDOCK:   -0.92 KCAL/MOL
REMARK 927      BINDING AFFINITY PREDICTED BY RF-SCORE:    0.00 PKD
ROOT
HETATM    1  C   UNL     1      -8.960   7.078  71.843  1.00  0.00    -0.132 C  
HETATM    2  C   UNL     1      -8.086   8.355  71.802  1.00  0.00    -0.192 C  
HETATM    3  C   UNL     1      -8.701   9.275  70.802  1.00  0.00    -0.272 A  
HETATM    4  C   UNL     1      -8.214  10.050  69.780  1.00  0.00    -0.178 A  
HETATM    5  N   UNL     1      -9.283  10.738  69.243  1.00  0.00    -0.382 NA 
HETATM    6  H   UNL     1      -9.216  11.417  68.484  1.00  0.00     0.000 HD 
HETATM    7  C   UNL     1     -10.454  10.377  69.875  1.00  0.00    -0.218 A  
HETATM    8  C   UNL     1     -11.775  10.804  69.749  1.00  0.00    -0.399 A  
HETATM    9  C   UNL     1     -12.737  10.111  70.509  1.00  0.00    -0.269 A  
HETATM   10  C   UNL     1     -12.408   8.966  71.260  1.00  0.00    -0.342 A  
HETATM   11  C   UNL     1     -11.079   8.539  71.344  1.00  0.00    -0.328 A  
HETATM   12  C   UNL     1     -10.513   7.237  71.765  1.00  0.00    -0.218 C  
HETATM   13  C   UNL     1     -10.111   9.352  70.735  1.00  0.00    -0.366 A  
HETATM   14  C   UNL     1     -11.213   6.086  71.669  1.00  0.00    -0.328 C  
HETATM   15  C   UNL     1     -10.406   4.807  71.430  1.00  0.00    -0.192 C  
HETATM   16  C   UNL     1      -8.945   6.343  74.195  1.00  0.00    -0.149 C  
HETATM   17  C   UNL     1      -9.130   4.735  72.336  1.00  0.00    -0.126 C  
HETATM   18  N   UNL     1      -8.572   6.029  72.815  1.00  0.00    -0.125 NA 
ENDROOT
BRANCH  15  19
HETATM   19  C   UNL     1     -10.021   4.804  69.912  1.00  0.00    -0.236 C  
HETATM   20  O   UNL     1      -9.092   4.140  69.446  1.00  0.00    -0.102 OA 
HETATM   21  N   UNL     1     -10.773   5.659  69.132  1.00  0.00    -0.276 N  
HETATM   22  H   UNL     1     -11.673   5.970  69.497  1.00  0.00     0.000 HD 
BRANCH  21  23
HETATM   23  CA  UNL     1     -10.362   6.148  67.813  1.00  0.00    -0.198 C  
BRANCH  23  24
HETATM   24  C   UNL     1     -10.904   7.590  67.637  1.00  0.00    -0.127 C  
HETATM   25  H   UNL     1     -10.251   9.324  66.936  1.00  0.00     0.000 HD 
HETATM   26  O   UNL     1      -9.919   8.441  67.043  1.00  0.00    -0.202 OA 
ENDBRANCH  23  24
BRANCH  23  27
HETATM   27  C   UNL     1     -10.878   5.251  66.677  1.00  0.00    -0.168 C  
HETATM   28  C   UNL     1      -9.789   4.480  65.948  1.00  0.00    -0.236 C  
ENDBRANCH  23  27
ENDBRANCH  21  23
ENDBRANCH  15  19
TORSDOF 4
ENDMDL
MODEL       62
REMARK 921   NORMALIZED FREE ENERGY PREDICTED BY IDOCK:   -4.52 KCAL/MOL
REMARK 922        TOTAL FREE ENERGY PREDICTED BY IDOCK:   -6.67 KCAL/MOL
REMARK 923 INTER-LIGAND FREE ENERGY PREDICTED BY IDOCK:   -5.50 KCAL/MOL
REMARK 924 INTRA-LIGAND FREE ENERGY PREDICTED BY IDOCK:   -1.17 KCAL/MOL
REMARK 927      BINDING AFFINITY PREDICTED BY RF-SCORE:    0.00 PKD
ROOT
HETATM    1  C   UNL     1     -11.229  11.876  69.241  1.00  0.00    -0.242 C  
HETATM    2  C   UNL     1     -11.564  13.386  69.197  1.00  0.00    -0.365 C  
HETATM    3  C   UNL     1     -10.891  13.950  67.991  1.00  0.00    -0.259 A  
HETATM    4  C   UNL     1     -10.143  15.073  67.742  1.00  0.00    -0.234 A  
HETATM    5  N   UNL     1      -9.846  15.077  66.395  1.00  0.00    -0.257 NA 
HETATM    6  H   UNL     1      -9.325  15.811  65.916  1.00  0.00     0.000 HD 
HETATM    7  C   UNL     1     -10.352  13.947  65.787  1.00  0.00    -0.316 A  
HETATM    8  C   UNL     1     -10.372  13.504  64.465  1.00  0.00    -0.381 A  
HETATM    9  C   UNL     1     -10.898  12.218  64.240  1.00  0.00    -0.392 A  
HETATM   10  C   UNL     1     -11.270  11.368  65.300  1.00  0.00    -0.144 A  
HETATM   11  C   UNL     1     -11.209  11.826  66.620  1.00  0.00    -0.383 A  
HETATM   12  C   UNL     1     -11.217  11.077  67.898  1.00  0.00    -0.375 C  
HETATM   13  C   UNL     1     -10.863  13.172  66.811  1.00  0.00    -0.289 A  
HETATM   14  C   UNL     1     -10.787   9.800  67.983  1.00  0.00    -0.276 C  
HETATM   15  C   UNL     1     -10.169   9.368  69.316  1.00  0.00    -0.209 C  
HETATM   16  C   UNL     1     -13.253  10.777  70.117  1.00  0.00     0.314 C  
HETATM   17  C   UNL     1     -11.000   9.872  70.544  1.00  0.00    -0.326 C  
HETATM   18  N   UNL     1     -11.839  11.085  70.335  1.00  0.00    -0.344 NA 
ENDROOT
BRANCH  15  19
HETATM   19  C   UNL     1      -8.716   9.952  69.339  1.00  0.00    -0.179 C  
HETATM   20  O   UNL     1      -8.123  10.262  70.374  1.00  0.00    -0.064 OA 
HETATM   21  N   UNL     1      -8.163  10.154  68.090  1.00  0.00    -0.112 N  
HETATM   22  H   UNL     1      -8.567   9.648  67.302  1.00  0.00     0.000 HD 
BRANCH  21  23
HETATM   23  CA  UNL     1      -7.031  11.047  67.824  1.00  0.00    -0.080 C  
BRANCH  23  24
HETATM   24  C   UNL     1      -7.488  12.504  68.092  1.00  0.00    -0.117 C  
HETATM   25  H   UNL     1      -7.031  14.322  67.450  1.00  0.00     0.000 HD 
HETATM   26  O   UNL     1      -6.752  13.429  67.287  1.00  0.00    -0.196 OA 
ENDBRANCH  23  24
BRANCH  23  27
HETATM   27  C   UNL     1      -6.517  10.914  66.382  1.00  0.00    -0.130 C  
HETATM   28  C   UNL     1      -7.520  10.299  65.418  1.00  0.00    -0.145 C  
ENDBRANCH  23  27
ENDBRANCH  21  23
ENDBRANCH  15  19
TORSDOF 4
ENDMDL
MODEL       63
REMARK 921   NORMALIZED FREE ENERGY PREDICTED BY IDOCK:   -4.50 KCAL/MOL
REMARK 922        TOTAL FREE ENERGY PREDICTED BY IDOCK:   -6.64 KCAL/MOL
REMARK 923 INTER-LIGAND FREE ENERGY PREDICTED BY IDOCK:   -5.83 KCAL/MOL
REMARK 924 INTRA-LIGAND FREE ENERGY PREDICTED BY IDOCK:   -0.81 KCAL/MOL
REMARK 927      BINDING AFFINITY PREDICTED BY RF-SCORE:    0.00 PKD
ROOT
HETATM    1  C   UNL     1     -10.662   8.982  69.996  1.00  0.00    -0.229 C  
HETATM    2  C   UNL     1     -11.864   9.787  70.545  1.00  0.00    -0.316 C  
HETATM    3  C   UNL     1     -11.843  11.119  69.872  1.00  0.00    -0.439 A  
HETATM    4  C   UNL     1     -11.992  12.415  70.298  1.00  0.00    -0.289 A  
HETATM    5  N   UNL     1     -11.932  13.222  69.181  1.00  0.00    -0.312 NA 
HETATM    6  H   UNL     1     -12.045  14.236  69.188  1.00  0.00     0.000 HD 
HETATM    7  C   UNL     1     -11.698  12.464  68.052  1.00  0.00    -0.356 A  
HETATM    8  C   UNL     1     -11.603  12.779  66.697  1.00  0.00    -0.430 A  
HETATM    9  C   UNL     1     -11.240  11.730  65.831  1.00  0.00    -0.345 A  
HETATM   10  C   UNL     1     -10.868  10.460  66.314  1.00  0.00    -0.022 A  
HETATM   11  C   UNL     1     -10.941  10.180  67.682  1.00  0.00    -0.331 A  
HETATM   12  C   UNL     1     -10.323   9.093  68.475  1.00  0.00    -0.236 C  
HETATM   13  C   UNL     1     -11.485  11.177  68.506  1.00  0.00    -0.371 A  
HETATM   14  C   UNL     1      -9.187   8.477  68.084  1.00  0.00    -0.142 C  
HETATM   15  C   UNL     1      -8.274   7.945  69.192  1.00  0.00    -0.132 C  
HETATM   16  C   UNL     1     -11.437   6.647  69.866  1.00  0.00    -0.354 C  
HETATM   17  C   UNL     1      -9.078   7.205  70.315  1.00  0.00    -0.156 C  
HETATM   18  N   UNL     1     -10.506   7.591  70.485  1.00  0.00    -0.216 NA 
ENDROOT
BRANCH  15  19
HETATM   19  C   UNL     1      -7.510   9.184  69.768  1.00  0.00    -0.069 C  
HETATM   20  O   UNL     1      -7.672   9.612  70.913  1.00  0.00    -0.314 OA 
HETATM   21  N   UNL     1      -6.672   9.808  68.865  1.00  0.00    -0.049 N  
HETATM   22  H   UNL     1      -6.374   9.278  68.047  1.00  0.00     0.000 HD 
BRANCH  21  23
HETATM   23  CA  UNL     1      -6.183  11.182  69.008  1.00  0.00    -0.047 C  
BRANCH  23  24
HETATM   24  C   UNL     1      -5.436  11.295  70.362  1.00  0.00    -0.121 C  
HETATM   25  H   UNL     1      -5.361  12.552  71.891  1.00  0.00     0.000 HD 
HETATM   26  O   UNL     1      -5.818  12.483  71.062  1.00  0.00    -0.336 OA 
ENDBRANCH  23  24
BRANCH  23  27
HETATM   27  C   UNL     1      -7.325  12.210  68.950  1.00  0.00    -0.054 C  
HETATM   28  C   UNL     1      -7.879  12.447  67.554  1.00  0.00    -0.169 C  
ENDBRANCH  23  27
ENDBRANCH  21  23
ENDBRANCH  15  19
TORSDOF 4
ENDMDL
MODEL       64
REMARK 921   NORMALIZED FREE ENERGY PREDICTED BY IDOCK:   -4.50 KCAL/MOL
REMARK 922        TOTAL FREE ENERGY PREDICTED BY IDOCK:   -6.64 KCAL/MOL
REMARK 923 INTER-LIGAND FREE ENERGY PREDICTED BY IDOCK:   -5.49 KCAL/MOL
REMARK 924 INTRA-LIGAND FREE ENERGY PREDICTED BY IDOCK:   -1.15 KCAL/MOL
REMARK 927      BINDING AFFINITY PREDICTED BY RF-SCORE:    0.00 PKD
ROOT
HETATM    1  C   UNL     1     -11.297  13.350  69.423  1.00  0.00    -0.226 C  
HETATM    2  C   UNL     1     -10.725  14.780  69.274  1.00  0.00    -0.263 C  
HETATM    3  C   UNL     1     -10.121  14.871  67.912  1.00  0.00    -0.227 A  
HETATM    4  C   UNL     1      -8.942  15.367  67.413  1.00  0.00    -0.191 A  
HETATM    5  N   UNL     1      -8.983  15.216  66.043  1.00  0.00    -0.470 NA 
HETATM    6  H   UNL     1      -8.254  15.525  65.401  1.00  0.00     0.000 HD 
HETATM    7  C   UNL     1     -10.150  14.586  65.662  1.00  0.00    -0.359 A  
HETATM    8  C   UNL     1     -10.691  14.250  64.421  1.00  0.00    -0.117 A  
HETATM    9  C   UNL     1     -11.882  13.500  64.436  1.00  0.00    -0.455 A  
HETATM   10  C   UNL     1     -12.436  13.004  65.632  1.00  0.00    -0.452 A  
HETATM   11  C   UNL     1     -11.855  13.329  66.862  1.00  0.00    -0.446 A  
HETATM   12  C   UNL     1     -12.015  12.704  68.195  1.00  0.00    -0.274 C  
HETATM   13  C   UNL     1     -10.782  14.232  66.839  1.00  0.00    -0.290 A  
HETATM   14  C   UNL     1     -12.372  11.410  68.342  1.00  0.00     0.394 C  
HETATM   15  C   UNL     1     -11.842  10.686  69.583  1.00  0.00    -0.358 C  
HETATM   16  C   UNL     1     -13.352  13.598  70.759  1.00  0.00     0.131 C  
HETATM   17  C   UNL     1     -11.968  11.561  70.876  1.00  0.00    -0.115 C  
HETATM   18  N   UNL     1     -12.002  13.038  70.688  1.00  0.00    -0.241 NA 
ENDROOT
BRANCH  15  19
HETATM   19  C   UNL     1     -10.346  10.333  69.284  1.00  0.00    -0.231 C  
HETATM   20  O   UNL     1      -9.539   9.994  70.152  1.00  0.00    -0.225 OA 
HETATM   21  N   UNL     1      -9.977  10.490  67.963  1.00  0.00    -0.153 N  
HETATM   22  H   UNL     1     -10.715  10.508  67.260  1.00  0.00     0.000 HD 
BRANCH  21  23
HETATM   23  CA  UNL     1      -8.591  10.631  67.506  1.00  0.00    -0.122 C  
BRANCH  23  24
HETATM   24  C   UNL     1      -8.027  11.962  68.066  1.00  0.00    -0.147 C  
HETATM   25  H   UNL     1      -6.894  13.456  67.427  1.00  0.00     0.000 HD 
HETATM   26  O   UNL     1      -7.239  12.641  67.083  1.00  0.00    -0.128 OA 
ENDBRANCH  23  24
BRANCH  23  27
HETATM   27  C   UNL     1      -8.486  10.620  65.972  1.00  0.00    -0.165 C  
HETATM   28  C   UNL     1      -9.810  10.399  65.259  1.00  0.00    -0.361 C  
ENDBRANCH  23  27
ENDBRANCH  21  23
ENDBRANCH  15  19
TORSDOF 4
ENDMDL
MODEL       65
REMARK 921   NORMALIZED FREE ENERGY PREDICTED BY IDOCK:   -4.50 KCAL/MOL
REMARK 922        TOTAL FREE ENERGY PREDICTED BY IDOCK:   -6.64 KCAL/MOL
REMARK 923 INTER-LIGAND FREE ENERGY PREDICTED BY IDOCK:   -6.23 KCAL/MOL
REMARK 924 INTRA-LIGAND FREE ENERGY PREDICTED BY IDOCK:   -0.41 KCAL/MOL
REMARK 927      BINDING AFFINITY PREDICTED BY RF-SCORE:    0.00 PKD
ROOT
HETATM    1  C   UNL     1     -10.982  12.320  68.870  1.00  0.00    -0.219 C  
HETATM    2  C   UNL     1     -11.327  13.798  69.172  1.00  0.00    -0.329 C  
HETATM    3  C   UNL     1     -11.078  14.571  67.920  1.00  0.00    -0.290 A  
HETATM    4  C   UNL     1     -10.458  15.761  67.631  1.00  0.00    -0.282 A  
HETATM    5  N   UNL     1     -10.604  15.979  66.277  1.00  0.00    -0.304 NA 
HETATM    6  H   UNL     1     -10.270  16.806  65.781  1.00  0.00     0.000 HD 
HETATM    7  C   UNL     1     -11.267  14.923  65.688  1.00  0.00    -0.347 A  
HETATM    8  C   UNL     1     -11.701  14.678  64.385  1.00  0.00    -0.358 A  
HETATM    9  C   UNL     1     -12.260  13.410  64.136  1.00  0.00    -0.457 A  
HETATM   10  C   UNL     1     -12.267  12.394  65.111  1.00  0.00    -0.449 A  
HETATM   11  C   UNL     1     -11.795  12.656  66.401  1.00  0.00    -0.466 A  
HETATM   12  C   UNL     1     -11.389  11.729  67.482  1.00  0.00    -0.377 C  
HETATM   13  C   UNL     1     -11.419  13.978  66.684  1.00  0.00    -0.377 A  
HETATM   14  C   UNL     1     -10.943  10.481  67.226  1.00  0.00    -0.325 C  
HETATM   15  C   UNL     1      -9.929   9.895  68.213  1.00  0.00    -0.172 C  
HETATM   16  C   UNL     1     -12.612  10.987  70.149  1.00  0.00    -0.211 C  
HETATM   17  C   UNL     1     -10.332  10.164  69.703  1.00  0.00    -0.247 C  
HETATM   18  N   UNL     1     -11.205  11.342  69.961  1.00  0.00    -0.197 NA 
ENDROOT
BRANCH  15  19
HETATM   19  C   UNL     1      -8.550  10.554  67.873  1.00  0.00    -0.123 C  
HETATM   20  O   UNL     1      -8.095  11.529  68.475  1.00  0.00    -0.139 OA 
HETATM   21  N   UNL     1      -7.899   9.991  66.794  1.00  0.00    -0.109 N  
HETATM   22  H   UNL     1      -8.172   9.050  66.510  1.00  0.00     0.000 HD 
BRANCH  21  23
HETATM   23  CA  UNL     1      -6.840  10.657  66.031  1.00  0.00    -0.129 C  
BRANCH  23  24
HETATM   24  C   UNL     1      -6.929  10.182  64.558  1.00  0.00    -0.117 C  
HETATM   25  H   UNL     1      -7.927   8.823  63.516  1.00  0.00     0.000 HD 
HETATM   26  O   UNL     1      -7.872   9.115  64.418  1.00  0.00    -0.114 OA 
ENDBRANCH  23  24
BRANCH  23  27
HETATM   27  C   UNL     1      -5.443  10.354  66.596  1.00  0.00    -0.049 C  
HETATM   28  C   UNL     1      -5.278   8.937  67.122  1.00  0.00    -0.036 C  
ENDBRANCH  23  27
ENDBRANCH  21  23
ENDBRANCH  15  19
TORSDOF 4
ENDMDL
MODEL       66
REMARK 921   NORMALIZED FREE ENERGY PREDICTED BY IDOCK:   -4.46 KCAL/MOL
REMARK 922        TOTAL FREE ENERGY PREDICTED BY IDOCK:   -6.60 KCAL/MOL
REMARK 923 INTER-LIGAND FREE ENERGY PREDICTED BY IDOCK:   -5.94 KCAL/MOL
REMARK 924 INTRA-LIGAND FREE ENERGY PREDICTED BY IDOCK:   -0.66 KCAL/MOL
REMARK 927      BINDING AFFINITY PREDICTED BY RF-SCORE:    0.00 PKD
ROOT
HETATM    1  C   UNL     1      -8.850   7.594  71.341  1.00  0.00    -0.132 C  
HETATM    2  C   UNL     1      -8.142   8.932  71.020  1.00  0.00    -0.205 C  
HETATM    3  C   UNL     1      -9.137   9.798  70.324  1.00  0.00    -0.208 A  
HETATM    4  C   UNL     1      -9.103  10.602  69.212  1.00  0.00    -0.100 A  
HETATM    5  N   UNL     1     -10.340  11.204  69.105  1.00  0.00    -0.338 NA 
HETATM    6  H   UNL     1     -10.596  11.882  68.387  1.00  0.00     0.000 HD 
HETATM    7  C   UNL     1     -11.180  10.760  70.104  1.00  0.00    -0.267 A  
HETATM    8  C   UNL     1     -12.487  11.086  70.465  1.00  0.00    -0.432 A  
HETATM    9  C   UNL     1     -13.062  10.327  71.502  1.00  0.00    -0.534 A  
HETATM   10  C   UNL     1     -12.406   9.214  72.062  1.00  0.00    -0.448 A  
HETATM   11  C   UNL     1     -11.107   8.888  71.659  1.00  0.00    -0.420 A  
HETATM   12  C   UNL     1     -10.335   7.635  71.824  1.00  0.00    -0.233 C  
HETATM   13  C   UNL     1     -10.480   9.768  70.764  1.00  0.00    -0.339 A  
HETATM   14  C   UNL     1     -10.939   6.434  71.958  1.00  0.00    -0.289 C  
HETATM   15  C   UNL     1     -10.180   5.218  71.420  1.00  0.00    -0.279 C  
HETATM   16  C   UNL     1      -7.945   6.875  73.518  1.00  0.00    -0.097 C  
HETATM   17  C   UNL     1      -8.663   5.247  71.812  1.00  0.00    -0.134 C  
HETATM   18  N   UNL     1      -8.066   6.582  72.089  1.00  0.00    -0.106 NA 
ENDROOT
BRANCH  15  19
HETATM   19  C   UNL     1     -10.361   5.236  69.865  1.00  0.00    -0.304 C  
HETATM   20  O   UNL     1     -11.342   5.725  69.299  1.00  0.00    -0.225 OA 
HETATM   21  N   UNL     1      -9.355   4.601  69.165  1.00  0.00    -0.129 N  
HETATM   22  H   UNL     1      -8.463   4.457  69.639  1.00  0.00     0.000 HD 
BRANCH  21  23
HETATM   23  CA  UNL     1      -9.484   4.121  67.787  1.00  0.00    -0.175 C  
BRANCH  23  24
HETATM   24  C   UNL     1      -9.265   2.586  67.782  1.00  0.00    -0.197 C  
HETATM   25  H   UNL     1      -9.200   1.114  69.106  1.00  0.00     0.000 HD 
HETATM   26  O   UNL     1      -9.334   2.054  69.109  1.00  0.00    -0.128 OA 
ENDBRANCH  23  24
BRANCH  23  27
HETATM   27  C   UNL     1      -8.479   4.799  66.843  1.00  0.00    -0.105 C  
HETATM   28  C   UNL     1      -8.591   6.315  66.797  1.00  0.00    -0.116 C  
ENDBRANCH  23  27
ENDBRANCH  21  23
ENDBRANCH  15  19
TORSDOF 4
ENDMDL
MODEL       67
REMARK 921   NORMALIZED FREE ENERGY PREDICTED BY IDOCK:   -4.46 KCAL/MOL
REMARK 922        TOTAL FREE ENERGY PREDICTED BY IDOCK:   -6.59 KCAL/MOL
REMARK 923 INTER-LIGAND FREE ENERGY PREDICTED BY IDOCK:   -5.27 KCAL/MOL
REMARK 924 INTRA-LIGAND FREE ENERGY PREDICTED BY IDOCK:   -1.32 KCAL/MOL
REMARK 927      BINDING AFFINITY PREDICTED BY RF-SCORE:    0.00 PKD
ROOT
HETATM    1  C   UNL     1     -10.491   8.713  70.815  1.00  0.00    -0.204 C  
HETATM    2  C   UNL     1      -9.350   9.532  70.165  1.00  0.00    -0.286 C  
HETATM    3  C   UNL     1      -8.492   8.570  69.414  1.00  0.00    -0.127 A  
HETATM    4  C   UNL     1      -7.138   8.374  69.301  1.00  0.00    -0.062 A  
HETATM    5  N   UNL     1      -6.948   7.350  68.396  1.00  0.00    -0.076 NA 
HETATM    6  H   UNL     1      -6.038   7.007  68.088  1.00  0.00     0.000 HD 
HETATM    7  C   UNL     1      -8.162   6.856  67.966  1.00  0.00    -0.115 A  
HETATM    8  C   UNL     1      -8.518   5.878  67.037  1.00  0.00    -0.107 A  
HETATM    9  C   UNL     1      -9.888   5.568  66.944  1.00  0.00    -0.181 A  
HETATM   10  C   UNL     1     -10.839   6.119  67.824  1.00  0.00    -0.413 A  
HETATM   11  C   UNL     1     -10.450   7.074  68.769  1.00  0.00    -0.222 A  
HETATM   12  C   UNL     1     -11.138   7.554  69.990  1.00  0.00    -0.219 C  
HETATM   13  C   UNL     1      -9.117   7.510  68.720  1.00  0.00    -0.135 A  
HETATM   14  C   UNL     1     -12.031   6.791  70.656  1.00  0.00    -0.418 C  
HETATM   15  C   UNL     1     -12.133   7.012  72.168  1.00  0.00    -0.281 C  
HETATM   16  C   UNL     1     -12.479  10.165  70.727  1.00  0.00    -0.326 C  
HETATM   17  C   UNL     1     -12.147   8.532  72.544  1.00  0.00    -0.326 C  
HETATM   18  N   UNL     1     -11.512   9.469  71.576  1.00  0.00    -0.391 NA 
ENDROOT
BRANCH  15  19
HETATM   19  C   UNL     1     -10.901   6.284  72.805  1.00  0.00    -0.252 C  
HETATM   20  O   UNL     1     -10.424   6.586  73.901  1.00  0.00    -0.310 OA 
HETATM   21  N   UNL     1     -10.344   5.303  72.009  1.00  0.00    -0.210 N  
HETATM   22  H   UNL     1     -10.916   4.916  71.259  1.00  0.00     0.000 HD 
BRANCH  21  23
HETATM   23  CA  UNL     1      -8.984   4.782  72.174  1.00  0.00    -0.127 C  
BRANCH  23  24
HETATM   24  C   UNL     1      -7.984   5.913  71.823  1.00  0.00    -0.111 C  
HETATM   25  H   UNL     1      -6.244   6.091  70.891  1.00  0.00     0.000 HD 
HETATM   26  O   UNL     1      -6.858   5.398  71.106  1.00  0.00    -0.048 OA 
ENDBRANCH  23  24
BRANCH  23  27
HETATM   27  C   UNL     1      -8.725   3.556  71.284  1.00  0.00    -0.121 C  
HETATM   28  C   UNL     1      -9.634   3.465  70.068  1.00  0.00    -0.202 C  
ENDBRANCH  23  27
ENDBRANCH  21  23
ENDBRANCH  15  19
TORSDOF 4
ENDMDL
MODEL       68
REMARK 921   NORMALIZED FREE ENERGY PREDICTED BY IDOCK:   -4.42 KCAL/MOL
REMARK 922        TOTAL FREE ENERGY PREDICTED BY IDOCK:   -6.55 KCAL/MOL
REMARK 923 INTER-LIGAND FREE ENERGY PREDICTED BY IDOCK:   -5.57 KCAL/MOL
REMARK 924 INTRA-LIGAND FREE ENERGY PREDICTED BY IDOCK:   -0.98 KCAL/MOL
REMARK 927      BINDING AFFINITY PREDICTED BY RF-SCORE:    0.00 PKD
ROOT
HETATM    1  C   UNL     1      -8.209   7.978  68.078  1.00  0.00    -0.129 C  
HETATM    2  C   UNL     1      -6.862   7.671  68.775  1.00  0.00    -0.065 C  
HETATM    3  C   UNL     1      -7.176   7.256  70.173  1.00  0.00    -0.074 A  
HETATM    4  C   UNL     1      -6.663   7.565  71.408  1.00  0.00    -0.049 A  
HETATM    5  N   UNL     1      -7.342   6.803  72.335  1.00  0.00    -0.087 NA 
HETATM    6  H   UNL     1      -7.152   6.800  73.338  1.00  0.00     0.000 HD 
HETATM    7  C   UNL     1      -8.316   6.047  71.717  1.00  0.00    -0.119 A  
HETATM    8  C   UNL     1      -9.222   5.095  72.183  1.00  0.00    -0.154 A  
HETATM    9  C   UNL     1     -10.155   4.604  71.250  1.00  0.00    -0.245 A  
HETATM   10  C   UNL     1     -10.256   5.132  69.949  1.00  0.00    -0.361 A  
HETATM   11  C   UNL     1      -9.354   6.110  69.516  1.00  0.00    -0.147 A  
HETATM   12  C   UNL     1      -9.427   7.044  68.369  1.00  0.00    -0.133 C  
HETATM   13  C   UNL     1      -8.315   6.449  70.395  1.00  0.00    -0.126 A  
HETATM   14  C   UNL     1     -10.605   7.439  67.841  1.00  0.00    -0.255 C  
HETATM   15  C   UNL     1     -10.647   8.839  67.221  1.00  0.00    -0.303 C  
HETATM   16  C   UNL     1      -7.930   7.232  65.746  1.00  0.00    -0.122 C  
HETATM   17  C   UNL     1      -9.390   9.130  66.333  1.00  0.00    -0.204 C  
HETATM   18  N   UNL     1      -8.153   8.363  66.648  1.00  0.00    -0.100 NA 
ENDROOT
BRANCH  15  19
HETATM   19  C   UNL     1     -10.741   9.848  68.414  1.00  0.00    -0.232 C  
HETATM   20  O   UNL     1     -10.133  10.920  68.450  1.00  0.00    -0.170 OA 
HETATM   21  N   UNL     1     -11.523   9.416  69.467  1.00  0.00    -0.436 N  
HETATM   22  H   UNL     1     -12.199   8.674  69.285  1.00  0.00     0.000 HD 
BRANCH  21  23
HETATM   23  CA  UNL     1     -11.443   9.952  70.828  1.00  0.00    -0.354 C  
BRANCH  23  24
HETATM   24  C   UNL     1     -10.489   9.049  71.652  1.00  0.00    -0.355 C  
HETATM   25  H   UNL     1     -10.641   7.546  72.934  1.00  0.00     0.000 HD 
HETATM   26  O   UNL     1     -11.225   8.099  72.429  1.00  0.00    -0.330 OA 
ENDBRANCH  23  24
BRANCH  23  27
HETATM   27  C   UNL     1     -12.821  10.017  71.505  1.00  0.00    -0.537 C  
HETATM   28  C   UNL     1     -13.267  11.423  71.877  1.00  0.00    -0.485 C  
ENDBRANCH  23  27
ENDBRANCH  21  23
ENDBRANCH  15  19
TORSDOF 4
ENDMDL
MODEL       69
REMARK 921   NORMALIZED FREE ENERGY PREDICTED BY IDOCK:   -4.42 KCAL/MOL
REMARK 922        TOTAL FREE ENERGY PREDICTED BY IDOCK:   -6.54 KCAL/MOL
REMARK 923 INTER-LIGAND FREE ENERGY PREDICTED BY IDOCK:   -5.67 KCAL/MOL
REMARK 924 INTRA-LIGAND FREE ENERGY PREDICTED BY IDOCK:   -0.87 KCAL/MOL
REMARK 927      BINDING AFFINITY PREDICTED BY RF-SCORE:    0.00 PKD
ROOT
HETATM    1  C   UNL     1      -9.370  12.513  68.047  1.00  0.00    -0.205 C  
HETATM    2  C   UNL     1      -7.846  12.619  68.294  1.00  0.00    -0.144 C  
HETATM    3  C   UNL     1      -7.399  11.309  68.849  1.00  0.00    -0.115 A  
HETATM    4  C   UNL     1      -6.584  10.931  69.887  1.00  0.00    -0.148 A  
HETATM    5  N   UNL     1      -6.507   9.554  69.865  1.00  0.00    -0.048 NA 
HETATM    6  H   UNL     1      -5.944   8.992  70.504  1.00  0.00     0.000 HD 
HETATM    7  C   UNL     1      -7.300   9.043  68.859  1.00  0.00    -0.074 A  
HETATM    8  C   UNL     1      -7.530   7.749  68.392  1.00  0.00    -0.104 A  
HETATM    9  C   UNL     1      -8.511   7.607  67.392  1.00  0.00    -0.122 A  
HETATM   10  C   UNL     1      -9.309   8.688  66.971  1.00  0.00    -0.202 A  
HETATM   11  C   UNL     1      -9.079   9.970  67.480  1.00  0.00    -0.144 A  
HETATM   12  C   UNL     1      -9.939  11.176  67.473  1.00  0.00    -0.204 C  
HETATM   13  C   UNL     1      -7.975  10.127  68.332  1.00  0.00    -0.102 A  
HETATM   14  C   UNL     1     -11.285  11.095  67.408  1.00  0.00    -0.363 C  
HETATM   15  C   UNL     1     -12.077  12.212  68.094  1.00  0.00    -0.057 C  
HETATM   16  C   UNL     1      -9.801  13.816  66.002  1.00  0.00    -0.282 C  
HETATM   17  C   UNL     1     -11.481  13.629  67.795  1.00  0.00    -0.318 C  
HETATM   18  N   UNL     1     -10.036  13.689  67.440  1.00  0.00    -0.239 NA 
ENDROOT
BRANCH  15  19
HETATM   19  C   UNL     1     -12.043  11.897  69.628  1.00  0.00    -0.239 C  
HETATM   20  O   UNL     1     -11.974  12.767  70.500  1.00  0.00    -0.320 OA 
HETATM   21  N   UNL     1     -12.038  10.551  69.935  1.00  0.00    -0.445 N  
HETATM   22  H   UNL     1     -12.361   9.899  69.221  1.00  0.00     0.000 HD 
BRANCH  21  23
HETATM   23  CA  UNL     1     -11.600  10.000  71.220  1.00  0.00    -0.350 C  
BRANCH  23  24
HETATM   24  C   UNL     1     -10.427   9.021  70.955  1.00  0.00    -0.269 C  
HETATM   25  H   UNL     1      -8.803   8.393  71.901  1.00  0.00     0.000 HD 
HETATM   26  O   UNL     1      -9.522   8.993  72.063  1.00  0.00    -0.339 OA 
ENDBRANCH  23  24
BRANCH  23  27
HETATM   27  C   UNL     1     -12.737   9.272  71.954  1.00  0.00    -0.474 C  
HETATM   28  C   UNL     1     -12.826   7.785  71.645  1.00  0.00    -0.365 C  
ENDBRANCH  23  27
ENDBRANCH  21  23
ENDBRANCH  15  19
TORSDOF 4
ENDMDL
MODEL       70
REMARK 921   NORMALIZED FREE ENERGY PREDICTED BY IDOCK:   -4.40 KCAL/MOL
REMARK 922        TOTAL FREE ENERGY PREDICTED BY IDOCK:   -6.52 KCAL/MOL
REMARK 923 INTER-LIGAND FREE ENERGY PREDICTED BY IDOCK:   -6.12 KCAL/MOL
REMARK 924 INTRA-LIGAND FREE ENERGY PREDICTED BY IDOCK:   -0.40 KCAL/MOL
REMARK 927      BINDING AFFINITY PREDICTED BY RF-SCORE:    0.00 PKD
ROOT
HETATM    1  C   UNL     1     -10.503  13.660  65.609  1.00  0.00    -0.299 C  
HETATM    2  C   UNL     1     -10.171  12.335  64.881  1.00  0.00    -0.307 C  
HETATM    3  C   UNL     1      -9.863  11.322  65.931  1.00  0.00    -0.272 A  
HETATM    4  C   UNL     1      -8.883  10.375  66.097  1.00  0.00    -0.158 A  
HETATM    5  N   UNL     1      -9.169   9.691  67.260  1.00  0.00    -0.134 NA 
HETATM    6  H   UNL     1      -8.628   8.905  67.622  1.00  0.00     0.000 HD 
HETATM    7  C   UNL     1     -10.291  10.218  67.866  1.00  0.00    -0.196 A  
HETATM    8  C   UNL     1     -11.012   9.866  69.007  1.00  0.00    -0.223 A  
HETATM    9  C   UNL     1     -12.064  10.726  69.377  1.00  0.00    -0.315 A  
HETATM   10  C   UNL     1     -12.301  11.943  68.709  1.00  0.00     0.227 A  
HETATM   11  C   UNL     1     -11.541  12.288  67.587  1.00  0.00    -0.421 A  
HETATM   12  C   UNL     1     -11.352  13.596  66.919  1.00  0.00    -0.345 C  
HETATM   13  C   UNL     1     -10.626  11.332  67.121  1.00  0.00    -0.274 A  
HETATM   14  C   UNL     1     -11.493  14.765  67.580  1.00  0.00    -0.363 C  
HETATM   15  C   UNL     1     -10.638  15.939  67.095  1.00  0.00    -0.316 C  
HETATM   16  C   UNL     1     -12.272  14.726  64.267  1.00  0.00    -0.379 C  
HETATM   17  C   UNL     1     -10.627  16.056  65.533  1.00  0.00    -0.398 C  
HETATM   18  N   UNL     1     -10.898  14.811  64.764  1.00  0.00    -0.399 NA 
ENDROOT
BRANCH  15  19
HETATM   19  C   UNL     1      -9.195  15.694  67.652  1.00  0.00    -0.193 C  
HETATM   20  O   UNL     1      -8.912  14.783  68.433  1.00  0.00    -0.174 OA 
HETATM   21  N   UNL     1      -8.260  16.625  67.245  1.00  0.00    -0.168 N  
HETATM   22  H   UNL     1      -8.470  17.180  66.415  1.00  0.00     0.000 HD 
BRANCH  21  23
HETATM   23  CA  UNL     1      -6.986  16.868  67.928  1.00  0.00    -0.148 C  
BRANCH  23  24
HETATM   24  C   UNL     1      -7.126  18.160  68.773  1.00  0.00    -0.279 C  
HETATM   25  H   UNL     1      -8.398  19.670  68.940  1.00  0.00     0.000 HD 
HETATM   26  O   UNL     1      -8.312  18.878  68.422  1.00  0.00    -0.322 OA 
ENDBRANCH  23  24
BRANCH  23  27
HETATM   27  C   UNL     1      -5.819  17.011  66.938  1.00  0.00    -0.225 C  
HETATM   28  C   UNL     1      -6.209  17.617  65.599  1.00  0.00    -0.044 C  
ENDBRANCH  23  27
ENDBRANCH  21  23
ENDBRANCH  15  19
TORSDOF 4
ENDMDL
MODEL       71
REMARK 921   NORMALIZED FREE ENERGY PREDICTED BY IDOCK:   -4.38 KCAL/MOL
REMARK 922        TOTAL FREE ENERGY PREDICTED BY IDOCK:   -6.50 KCAL/MOL
REMARK 923 INTER-LIGAND FREE ENERGY PREDICTED BY IDOCK:   -5.86 KCAL/MOL
REMARK 924 INTRA-LIGAND FREE ENERGY PREDICTED BY IDOCK:   -0.64 KCAL/MOL
REMARK 927      BINDING AFFINITY PREDICTED BY RF-SCORE:    0.00 PKD
ROOT
HETATM    1  C   UNL     1      -8.582   9.743  69.628  1.00  0.00    -0.191 C  
HETATM    2  C   UNL     1      -8.986   8.753  70.747  1.00  0.00    -0.231 C  
HETATM    3  C   UNL     1     -10.038   7.858  70.183  1.00  0.00    -0.194 A  
HETATM    4  C   UNL     1     -11.246   7.389  70.636  1.00  0.00    -0.270 A  
HETATM    5  N   UNL     1     -11.739   6.535  69.671  1.00  0.00    -0.643 NA 
HETATM    6  H   UNL     1     -12.612   6.012  69.748  1.00  0.00     0.000 HD 
HETATM    7  C   UNL     1     -10.888   6.489  68.587  1.00  0.00    -0.295 A  
HETATM    8  C   UNL     1     -10.897   5.759  67.399  1.00  0.00    -0.279 A  
HETATM    9  C   UNL     1      -9.890   6.067  66.463  1.00  0.00    -0.186 A  
HETATM   10  C   UNL     1      -8.996   7.137  66.656  1.00  0.00    -0.164 A  
HETATM   11  C   UNL     1      -9.029   7.875  67.844  1.00  0.00    -0.129 A  
HETATM   12  C   UNL     1      -8.461   9.204  68.166  1.00  0.00    -0.125 C  
HETATM   13  C   UNL     1      -9.912   7.433  68.841  1.00  0.00    -0.169 A  
HETATM   14  C   UNL     1      -8.240  10.138  67.217  1.00  0.00    -0.117 C  
HETATM   15  C   UNL     1      -8.353  11.602  67.651  1.00  0.00    -0.142 C  
HETATM   16  C   UNL     1      -6.163  10.112  69.913  1.00  0.00    -0.063 C  
HETATM   17  C   UNL     1      -7.645  11.869  69.022  1.00  0.00     0.029 C  
HETATM   18  N   UNL     1      -7.500  10.705  69.941  1.00  0.00    -0.091 NA 
ENDROOT
BRANCH  15  19
HETATM   19  C   UNL     1      -9.884  11.921  67.735  1.00  0.00    -0.184 C  
HETATM   20  O   UNL     1     -10.721  11.453  66.959  1.00  0.00    -0.235 OA 
HETATM   21  N   UNL     1     -10.225  12.826  68.720  1.00  0.00    -0.410 N  
HETATM   22  H   UNL     1      -9.565  12.971  69.483  1.00  0.00     0.000 HD 
BRANCH  21  23
HETATM   23  CA  UNL     1     -11.476  13.590  68.740  1.00  0.00    -0.311 C  
BRANCH  23  24
HETATM   24  C   UNL     1     -11.241  14.927  67.990  1.00  0.00    -0.308 C  
HETATM   25  H   UNL     1     -11.575  15.669  66.183  1.00  0.00     0.000 HD 
HETATM   26  O   UNL     1     -11.719  14.850  66.643  1.00  0.00    -0.325 OA 
ENDBRANCH  23  24
BRANCH  23  27
HETATM   27  C   UNL     1     -11.958  13.869  70.172  1.00  0.00    -0.402 C  
HETATM   28  C   UNL     1     -12.319  15.323  70.435  1.00  0.00    -0.422 C  
ENDBRANCH  23  27
ENDBRANCH  21  23
ENDBRANCH  15  19
TORSDOF 4
ENDMDL
MODEL       72
REMARK 921   NORMALIZED FREE ENERGY PREDICTED BY IDOCK:   -4.35 KCAL/MOL
REMARK 922        TOTAL FREE ENERGY PREDICTED BY IDOCK:   -6.46 KCAL/MOL
REMARK 923 INTER-LIGAND FREE ENERGY PREDICTED BY IDOCK:   -6.41 KCAL/MOL
REMARK 924 INTRA-LIGAND FREE ENERGY PREDICTED BY IDOCK:   -0.05 KCAL/MOL
REMARK 927      BINDING AFFINITY PREDICTED BY RF-SCORE:    0.00 PKD
ROOT
HETATM    1  C   UNL     1      -8.966  15.400  67.985  1.00  0.00    -0.171 C  
HETATM    2  C   UNL     1      -7.474  15.436  68.397  1.00  0.00    -0.115 C  
HETATM    3  C   UNL     1      -7.137  14.088  68.941  1.00  0.00    -0.111 A  
HETATM    4  C   UNL     1      -6.453  13.639  70.042  1.00  0.00    -0.002 A  
HETATM    5  N   UNL     1      -6.423  12.261  69.971  1.00  0.00    -0.358 NA 
HETATM    6  H   UNL     1      -5.952  11.654  70.642  1.00  0.00     0.000 HD 
HETATM    7  C   UNL     1      -7.120  11.821  68.865  1.00  0.00    -0.114 A  
HETATM    8  C   UNL     1      -7.345  10.557  68.322  1.00  0.00    -0.088 A  
HETATM    9  C   UNL     1      -8.216  10.492  67.218  1.00  0.00    -0.119 A  
HETATM   10  C   UNL     1      -8.925  11.619  66.761  1.00  0.00    -0.189 A  
HETATM   11  C   UNL     1      -8.706  12.871  67.345  1.00  0.00    -0.197 A  
HETATM   12  C   UNL     1      -9.517  14.109  67.297  1.00  0.00    -0.229 C  
HETATM   13  C   UNL     1      -7.696  12.950  68.315  1.00  0.00    -0.137 A  
HETATM   14  C   UNL     1     -10.850  14.085  67.085  1.00  0.00    -0.288 C  
HETATM   15  C   UNL     1     -11.671  15.205  67.731  1.00  0.00    -0.250 C  
HETATM   16  C   UNL     1      -9.126  16.797  65.962  1.00  0.00    -0.190 C  
HETATM   17  C   UNL     1     -10.996  16.608  67.557  1.00  0.00    -0.147 C  
HETATM   18  N   UNL     1      -9.520  16.624  67.360  1.00  0.00    -0.230 NA 
ENDROOT
BRANCH  15  19
HETATM   19  C   UNL     1     -11.814  14.831  69.245  1.00  0.00    -0.318 C  
HETATM   20  O   UNL     1     -11.539  13.719  69.701  1.00  0.00    -0.271 OA 
HETATM   21  N   UNL     1     -12.336  15.837  70.034  1.00  0.00    -0.421 N  
HETATM   22  H   UNL     1     -12.294  16.792  69.678  1.00  0.00     0.000 HD 
BRANCH  21  23
HETATM   23  CA  UNL     1     -12.946  15.621  71.349  1.00  0.00    -0.487 C  
BRANCH  23  24
HETATM   24  C   UNL     1     -11.813  15.357  72.374  1.00  0.00    -0.459 C  
HETATM   25  H   UNL     1     -11.252  16.046  74.145  1.00  0.00     0.000 HD 
HETATM   26  O   UNL     1     -11.946  16.207  73.517  1.00  0.00    -0.427 OA 
ENDBRANCH  23  24
BRANCH  23  27
HETATM   27  C   UNL     1     -13.932  14.442  71.341  1.00  0.00    -0.395 C  
HETATM   28  C   UNL     1     -13.664  13.399  72.416  1.00  0.00    -0.698 C  
ENDBRANCH  23  27
ENDBRANCH  21  23
ENDBRANCH  15  19
TORSDOF 4
ENDMDL
MODEL       73
REMARK 921   NORMALIZED FREE ENERGY PREDICTED BY IDOCK:   -4.28 KCAL/MOL
REMARK 922        TOTAL FREE ENERGY PREDICTED BY IDOCK:   -6.37 KCAL/MOL
REMARK 923 INTER-LIGAND FREE ENERGY PREDICTED BY IDOCK:   -5.34 KCAL/MOL
REMARK 924 INTRA-LIGAND FREE ENERGY PREDICTED BY IDOCK:   -1.02 KCAL/MOL
REMARK 927      BINDING AFFINITY PREDICTED BY RF-SCORE:    0.00 PKD
ROOT
HETATM    1  C   UNL     1     -11.516  13.457  66.890  1.00  0.00    -0.342 C  
HETATM    2  C   UNL     1     -12.505  14.062  67.915  1.00  0.00     0.210 C  
HETATM    3  C   UNL     1     -11.819  15.222  68.553  1.00  0.00    -0.305 A  
HETATM    4  C   UNL     1     -11.682  15.668  69.844  1.00  0.00    -0.362 A  
HETATM    5  N   UNL     1     -10.973  16.851  69.795  1.00  0.00    -0.371 NA 
HETATM    6  H   UNL     1     -10.747  17.428  70.605  1.00  0.00     0.000 HD 
HETATM    7  C   UNL     1     -10.614  17.143  68.496  1.00  0.00    -0.361 A  
HETATM    8  C   UNL     1      -9.949  18.221  67.911  1.00  0.00    -0.359 A  
HETATM    9  C   UNL     1      -9.664  18.113  66.537  1.00  0.00    -0.344 A  
HETATM   10  C   UNL     1      -9.918  16.932  65.813  1.00  0.00    -0.209 A  
HETATM   11  C   UNL     1     -10.556  15.853  66.432  1.00  0.00    -0.298 A  
HETATM   12  C   UNL     1     -10.645  14.430  66.031  1.00  0.00    -0.304 C  
HETATM   13  C   UNL     1     -11.003  16.049  67.748  1.00  0.00    -0.307 A  
HETATM   14  C   UNL     1      -9.709  13.844  65.255  1.00  0.00    -0.047 C  
HETATM   15  C   UNL     1      -9.471  12.347  65.472  1.00  0.00     0.008 C  
HETATM   16  C   UNL     1     -12.905  12.701  65.000  1.00  0.00    -0.159 C  
HETATM   17  C   UNL     1     -10.812  11.550  65.611  1.00  0.00    -0.252 C  
HETATM   18  N   UNL     1     -12.001  12.312  66.083  1.00  0.00    -0.618 NA 
ENDROOT
BRANCH  15  19
HETATM   19  C   UNL     1      -8.603  12.221  66.770  1.00  0.00    -0.149 C  
HETATM   20  O   UNL     1      -8.663  11.260  67.539  1.00  0.00    -0.134 OA 
HETATM   21  N   UNL     1      -7.796  13.312  67.024  1.00  0.00    -0.399 N  
HETATM   22  H   UNL     1      -7.583  13.939  66.248  1.00  0.00     0.000 HD 
BRANCH  21  23
HETATM   23  CA  UNL     1      -7.224  13.627  68.336  1.00  0.00    -0.109 C  
BRANCH  23  24
HETATM   24  C   UNL     1      -8.363  14.142  69.253  1.00  0.00     0.297 C  
HETATM   25  H   UNL     1      -8.705  15.701  70.427  1.00  0.00     0.000 HD 
HETATM   26  O   UNL     1      -8.007  15.385  69.866  1.00  0.00    -0.140 OA 
ENDBRANCH  23  24
BRANCH  23  27
HETATM   27  C   UNL     1      -6.108  14.679  68.242  1.00  0.00    -0.117 C  
HETATM   28  C   UNL     1      -6.431  15.848  67.325  1.00  0.00    -0.174 C  
ENDBRANCH  23  27
ENDBRANCH  21  23
ENDBRANCH  15  19
TORSDOF 4
ENDMDL
MODEL       74
REMARK 921   NORMALIZED FREE ENERGY PREDICTED BY IDOCK:   -4.27 KCAL/MOL
REMARK 922        TOTAL FREE ENERGY PREDICTED BY IDOCK:   -6.36 KCAL/MOL
REMARK 923 INTER-LIGAND FREE ENERGY PREDICTED BY IDOCK:   -5.49 KCAL/MOL
REMARK 924 INTRA-LIGAND FREE ENERGY PREDICTED BY IDOCK:   -0.87 KCAL/MOL
REMARK 927      BINDING AFFINITY PREDICTED BY RF-SCORE:    0.00 PKD
ROOT
HETATM    1  C   UNL     1      -8.118   9.353  70.345  1.00  0.00    -0.175 C  
HETATM    2  C   UNL     1      -9.096   8.702  71.352  1.00  0.00    -0.295 C  
HETATM    3  C   UNL     1     -10.127   7.976  70.555  1.00  0.00    -0.195 A  
HETATM    4  C   UNL     1     -11.495   7.880  70.611  1.00  0.00    -0.238 A  
HETATM    5  N   UNL     1     -11.884   6.995  69.627  1.00  0.00    -0.522 NA 
HETATM    6  H   UNL     1     -12.846   6.703  69.453  1.00  0.00     0.000 HD 
HETATM    7  C   UNL     1     -10.789   6.561  68.910  1.00  0.00    -0.301 A  
HETATM    8  C   UNL     1     -10.633   5.646  67.869  1.00  0.00    -0.266 A  
HETATM    9  C   UNL     1      -9.345   5.543  67.308  1.00  0.00    -0.114 A  
HETATM   10  C   UNL     1      -8.297   6.404  67.687  1.00  0.00    -0.117 A  
HETATM   11  C   UNL     1      -8.489   7.336  68.712  1.00  0.00    -0.129 A  
HETATM   12  C   UNL     1      -7.708   8.541  69.074  1.00  0.00    -0.096 C  
HETATM   13  C   UNL     1      -9.719   7.294  69.386  1.00  0.00    -0.161 A  
HETATM   14  C   UNL     1      -6.963   9.211  68.169  1.00  0.00    -0.076 C  
HETATM   15  C   UNL     1      -6.801  10.718  68.389  1.00  0.00    -0.068 C  
HETATM   16  C   UNL     1      -5.896   9.219  71.401  1.00  0.00    -0.070 C  
HETATM   17  C   UNL     1      -6.501  11.067  69.886  1.00  0.00    -0.144 C  
HETATM   18  N   UNL     1      -6.964  10.091  70.910  1.00  0.00    -0.336 NA 
ENDROOT
BRANCH  15  19
HETATM   19  C   UNL     1      -8.138  11.380  67.912  1.00  0.00    -0.126 C  
HETATM   20  O   UNL     1      -8.744  12.235  68.562  1.00  0.00    -0.157 OA 
HETATM   21  N   UNL     1      -8.626  10.886  66.719  1.00  0.00    -0.133 N  
HETATM   22  H   UNL     1      -7.976  10.395  66.105  1.00  0.00     0.000 HD 
BRANCH  21  23
HETATM   23  CA  UNL     1     -10.017  11.021  66.278  1.00  0.00    -0.224 C  
BRANCH  23  24
HETATM   24  C   UNL     1     -10.893  10.069  67.132  1.00  0.00    -0.170 C  
HETATM   25  H   UNL     1     -12.321  10.226  68.497  1.00  0.00     0.000 HD 
HETATM   26  O   UNL     1     -11.784  10.809  67.973  1.00  0.00    -0.528 OA 
ENDBRANCH  23  24
BRANCH  23  27
HETATM   27  C   UNL     1     -10.184  10.691  64.786  1.00  0.00    -0.401 C  
HETATM   28  C   UNL     1     -10.940  11.748  63.996  1.00  0.00    -0.451 C  
ENDBRANCH  23  27
ENDBRANCH  21  23
ENDBRANCH  15  19
TORSDOF 4
ENDMDL
MODEL       75
REMARK 921   NORMALIZED FREE ENERGY PREDICTED BY IDOCK:   -4.26 KCAL/MOL
REMARK 922        TOTAL FREE ENERGY PREDICTED BY IDOCK:   -6.35 KCAL/MOL
REMARK 923 INTER-LIGAND FREE ENERGY PREDICTED BY IDOCK:   -5.68 KCAL/MOL
REMARK 924 INTRA-LIGAND FREE ENERGY PREDICTED BY IDOCK:   -0.68 KCAL/MOL
REMARK 927      BINDING AFFINITY PREDICTED BY RF-SCORE:    0.00 PKD
ROOT
HETATM    1  C   UNL     1      -8.347   9.851  67.286  1.00  0.00    -0.121 C  
HETATM    2  C   UNL     1      -7.136   9.148  67.944  1.00  0.00    -0.079 C  
HETATM    3  C   UNL     1      -7.678   8.067  68.818  1.00  0.00    -0.108 A  
HETATM    4  C   UNL     1      -7.416   7.642  70.096  1.00  0.00    -0.084 A  
HETATM    5  N   UNL     1      -8.212   6.540  70.332  1.00  0.00    -0.123 NA 
HETATM    6  H   UNL     1      -8.208   5.992  71.192  1.00  0.00     0.000 HD 
HETATM    7  C   UNL     1      -9.015   6.284  69.239  1.00  0.00    -0.125 A  
HETATM    8  C   UNL     1      -9.940   5.281  68.951  1.00  0.00    -0.250 A  
HETATM    9  C   UNL     1     -10.659   5.415  67.748  1.00  0.00    -0.172 A  
HETATM   10  C   UNL     1     -10.548   6.561  66.937  1.00  0.00    -0.376 A  
HETATM   11  C   UNL     1      -9.636   7.568  67.267  1.00  0.00    -0.198 A  
HETATM   12  C   UNL     1      -9.547   8.973  66.806  1.00  0.00    -0.259 C  
HETATM   13  C   UNL     1      -8.794   7.329  68.363  1.00  0.00    -0.128 A  
HETATM   14  C   UNL     1     -10.628   9.652  66.366  1.00  0.00    -0.097 C  
HETATM   15  C   UNL     1     -10.630  11.167  66.593  1.00  0.00    -0.314 C  
HETATM   16  C   UNL     1      -7.608  10.452  65.014  1.00  0.00    -0.086 C  
HETATM   17  C   UNL     1      -9.249  11.818  66.246  1.00  0.00    -0.221 C  
HETATM   18  N   UNL     1      -8.051  10.936  66.321  1.00  0.00    -0.162 NA 
ENDROOT
BRANCH  15  19
HETATM   19  C   UNL     1     -10.994  11.386  68.101  1.00  0.00    -0.232 C  
HETATM   20  O   UNL     1     -10.599  12.347  68.764  1.00  0.00    -0.227 OA 
HETATM   21  N   UNL     1     -11.754  10.376  68.657  1.00  0.00    -0.518 N  
HETATM   22  H   UNL     1     -12.267   9.762  68.024  1.00  0.00     0.000 HD 
BRANCH  21  23
HETATM   23  CA  UNL     1     -11.871  10.130  70.097  1.00  0.00    -0.222 C  
BRANCH  23  24
HETATM   24  C   UNL     1     -12.462  11.401  70.761  1.00  0.00    -0.365 C  
HETATM   25  H   UNL     1     -13.641  11.839  72.292  1.00  0.00     0.000 HD 
HETATM   26  O   UNL     1     -13.280  11.060  71.884  1.00  0.00    -0.473 OA 
ENDBRANCH  23  24
BRANCH  23  27
HETATM   27  C   UNL     1     -10.517   9.785  70.735  1.00  0.00    -0.339 C  
HETATM   28  C   UNL     1     -10.578   8.656  71.753  1.00  0.00    -0.395 C  
ENDBRANCH  23  27
ENDBRANCH  21  23
ENDBRANCH  15  19
TORSDOF 4
ENDMDL
MODEL       76
REMARK 921   NORMALIZED FREE ENERGY PREDICTED BY IDOCK:   -4.26 KCAL/MOL
REMARK 922        TOTAL FREE ENERGY PREDICTED BY IDOCK:   -6.35 KCAL/MOL
REMARK 923 INTER-LIGAND FREE ENERGY PREDICTED BY IDOCK:   -5.72 KCAL/MOL
REMARK 924 INTRA-LIGAND FREE ENERGY PREDICTED BY IDOCK:   -0.63 KCAL/MOL
REMARK 927      BINDING AFFINITY PREDICTED BY RF-SCORE:    0.00 PKD
ROOT
HETATM    1  C   UNL     1      -8.265  12.564  68.254  1.00  0.00    -0.168 C  
HETATM    2  C   UNL     1      -7.392  11.468  68.910  1.00  0.00    -0.116 C  
HETATM    3  C   UNL     1      -7.935  10.151  68.467  1.00  0.00    -0.104 A  
HETATM    4  C   UNL     1      -8.226   8.968  69.099  1.00  0.00    -0.121 A  
HETATM    5  N   UNL     1      -8.652   8.082  68.131  1.00  0.00    -0.126 NA 
HETATM    6  H   UNL     1      -8.908   7.109  68.304  1.00  0.00     0.000 HD 
HETATM    7  C   UNL     1      -8.684   8.696  66.896  1.00  0.00    -0.124 A  
HETATM    8  C   UNL     1      -8.984   8.240  65.613  1.00  0.00    -0.157 A  
HETATM    9  C   UNL     1      -9.012   9.208  64.591  1.00  0.00    -0.159 A  
HETATM   10  C   UNL     1      -8.871  10.582  64.863  1.00  0.00    -0.207 A  
HETATM   11  C   UNL     1      -8.602  11.016  66.165  1.00  0.00    -0.175 A  
HETATM   12  C   UNL     1      -8.732  12.359  66.777  1.00  0.00    -0.160 C  
HETATM   13  C   UNL     1      -8.390  10.024  67.134  1.00  0.00    -0.121 A  
HETATM   14  C   UNL     1      -9.600  13.280  66.306  1.00  0.00    -0.244 C  
HETATM   15  C   UNL     1     -10.178  14.266  67.325  1.00  0.00    -0.252 C  
HETATM   16  C   UNL     1      -6.721  14.411  67.728  1.00  0.00    -0.175 C  
HETATM   17  C   UNL     1      -9.084  14.821  68.298  1.00  0.00    -0.183 C  
HETATM   18  N   UNL     1      -7.878  13.972  68.508  1.00  0.00    -0.137 NA 
ENDROOT
BRANCH  15  19
HETATM   19  C   UNL     1     -11.290  13.489  68.109  1.00  0.00    -0.286 C  
HETATM   20  O   UNL     1     -12.160  12.808  67.562  1.00  0.00    -0.359 OA 
HETATM   21  N   UNL     1     -11.257  13.674  69.477  1.00  0.00    -0.423 N  
HETATM   22  H   UNL     1     -10.389  14.011  69.892  1.00  0.00     0.000 HD 
BRANCH  21  23
HETATM   23  CA  UNL     1     -12.390  13.416  70.370  1.00  0.00    -0.312 C  
BRANCH  23  24
HETATM   24  C   UNL     1     -12.419  14.526  71.453  1.00  0.00    -0.353 C  
HETATM   25  H   UNL     1     -13.119  16.370  71.640  1.00  0.00     0.000 HD 
HETATM   26  O   UNL     1     -13.102  15.690  70.977  1.00  0.00    -0.500 OA 
ENDBRANCH  23  24
BRANCH  23  27
HETATM   27  C   UNL     1     -12.297  12.034  71.037  1.00  0.00    -0.340 C  
HETATM   28  C   UNL     1     -13.401  11.753  72.045  1.00  0.00    -0.417 C  
ENDBRANCH  23  27
ENDBRANCH  21  23
ENDBRANCH  15  19
TORSDOF 4
ENDMDL
MODEL       77
REMARK 921   NORMALIZED FREE ENERGY PREDICTED BY IDOCK:   -4.24 KCAL/MOL
REMARK 922        TOTAL FREE ENERGY PREDICTED BY IDOCK:   -6.32 KCAL/MOL
REMARK 923 INTER-LIGAND FREE ENERGY PREDICTED BY IDOCK:   -6.10 KCAL/MOL
REMARK 924 INTRA-LIGAND FREE ENERGY PREDICTED BY IDOCK:   -0.22 KCAL/MOL
REMARK 927      BINDING AFFINITY PREDICTED BY RF-SCORE:    0.00 PKD
ROOT
HETATM    1  C   UNL     1      -8.014  10.038  68.575  1.00  0.00    -0.102 C  
HETATM    2  C   UNL     1      -8.377  10.138  70.076  1.00  0.00    -0.046 C  
HETATM    3  C   UNL     1      -9.635   9.362  70.276  1.00  0.00    -0.294 A  
HETATM    4  C   UNL     1     -10.810   9.591  70.948  1.00  0.00    -0.337 A  
HETATM    5  N   UNL     1     -11.585   8.457  70.813  1.00  0.00    -0.357 NA 
HETATM    6  H   UNL     1     -12.504   8.326  71.238  1.00  0.00     0.000 HD 
HETATM    7  C   UNL     1     -10.943   7.526  70.024  1.00  0.00    -0.240 A  
HETATM    8  C   UNL     1     -11.264   6.227  69.631  1.00  0.00    -0.506 A  
HETATM    9  C   UNL     1     -10.391   5.614  68.713  1.00  0.00    -0.288 A  
HETATM   10  C   UNL     1      -9.320   6.312  68.122  1.00  0.00    -0.115 A  
HETATM   11  C   UNL     1      -9.039   7.626  68.510  1.00  0.00    -0.131 A  
HETATM   12  C   UNL     1      -8.224   8.670  67.849  1.00  0.00    -0.115 C  
HETATM   13  C   UNL     1      -9.802   8.154  69.562  1.00  0.00    -0.181 A  
HETATM   14  C   UNL     1      -8.019   8.681  66.514  1.00  0.00    -0.099 C  
HETATM   15  C   UNL     1      -7.827  10.051  65.858  1.00  0.00    -0.122 C  
HETATM   16  C   UNL     1      -5.554   9.939  68.495  1.00  0.00    -0.039 C  
HETATM   17  C   UNL     1      -6.868  10.973  66.684  1.00  0.00    -0.137 C  
HETATM   18  N   UNL     1      -6.757  10.693  68.143  1.00  0.00    -0.063 NA 
ENDROOT
BRANCH  15  19
HETATM   19  C   UNL     1      -9.253  10.686  65.735  1.00  0.00    -0.189 C  
HETATM   20  O   UNL     1     -10.270  10.034  65.487  1.00  0.00    -0.280 OA 
HETATM   21  N   UNL     1      -9.280  12.060  65.869  1.00  0.00    -0.392 N  
HETATM   22  H   UNL     1      -8.487  12.509  66.327  1.00  0.00     0.000 HD 
BRANCH  21  23
HETATM   23  CA  UNL     1     -10.373  12.913  65.395  1.00  0.00    -0.296 C  
BRANCH  23  24
HETATM   24  C   UNL     1     -11.642  12.583  66.223  1.00  0.00    -0.394 C  
HETATM   25  H   UNL     1     -12.168  12.519  68.132  1.00  0.00     0.000 HD 
HETATM   26  O   UNL     1     -11.391  12.721  67.624  1.00  0.00    -0.273 OA 
ENDBRANCH  23  24
BRANCH  23  27
HETATM   27  C   UNL     1     -10.656  12.712  63.898  1.00  0.00    -0.460 C  
HETATM   28  C   UNL     1     -12.133  12.628  63.549  1.00  0.00    -0.648 C  
ENDBRANCH  23  27
ENDBRANCH  21  23
ENDBRANCH  15  19
TORSDOF 4
ENDMDL
MODEL       78
REMARK 921   NORMALIZED FREE ENERGY PREDICTED BY IDOCK:   -4.22 KCAL/MOL
REMARK 922        TOTAL FREE ENERGY PREDICTED BY IDOCK:   -6.31 KCAL/MOL
REMARK 923 INTER-LIGAND FREE ENERGY PREDICTED BY IDOCK:   -5.79 KCAL/MOL
REMARK 924 INTRA-LIGAND FREE ENERGY PREDICTED BY IDOCK:   -0.52 KCAL/MOL
REMARK 927      BINDING AFFINITY PREDICTED BY RF-SCORE:    0.00 PKD
ROOT
HETATM    1  C   UNL     1      -7.894  10.387  65.644  1.00  0.00    -0.154 C  
HETATM    2  C   UNL     1      -6.606  10.453  66.499  1.00  0.00    -0.094 C  
HETATM    3  C   UNL     1      -7.030  10.568  67.924  1.00  0.00    -0.077 A  
HETATM    4  C   UNL     1      -6.643  11.349  68.984  1.00  0.00    -0.086 A  
HETATM    5  N   UNL     1      -7.376  10.943  70.080  1.00  0.00    -0.433 NA 
HETATM    6  H   UNL     1      -7.277  11.326  71.021  1.00  0.00     0.000 HD 
HETATM    7  C   UNL     1      -8.262   9.947  69.725  1.00  0.00    -0.180 A  
HETATM    8  C   UNL     1      -9.172   9.179  70.450  1.00  0.00    -0.271 A  
HETATM    9  C   UNL     1      -9.998   8.314  69.708  1.00  0.00    -0.191 A  
HETATM   10  C   UNL     1      -9.999   8.311  68.300  1.00  0.00    -0.217 A  
HETATM   11  C   UNL     1      -9.098   9.116  67.595  1.00  0.00    -0.133 A  
HETATM   12  C   UNL     1      -9.099   9.549  66.179  1.00  0.00    -0.207 C  
HETATM   13  C   UNL     1      -8.155   9.827  68.353  1.00  0.00    -0.104 A  
HETATM   14  C   UNL     1     -10.238   9.639  65.459  1.00  0.00    -0.016 C  
HETATM   15  C   UNL     1     -10.273  10.701  64.356  1.00  0.00    -0.400 C  
HETATM   16  C   UNL     1      -7.378   8.847  63.791  1.00  0.00    -0.101 C  
HETATM   17  C   UNL     1      -8.952  10.724  63.515  1.00  0.00    -0.185 C  
HETATM   18  N   UNL     1      -7.722  10.215  64.182  1.00  0.00    -0.146 NA 
ENDROOT
BRANCH  15  19
HETATM   19  C   UNL     1     -10.512  12.073  65.071  1.00  0.00    -0.287 C  
HETATM   20  O   UNL     1     -10.101  13.150  64.634  1.00  0.00    -0.310 OA 
HETATM   21  N   UNL     1     -11.176  11.979  66.278  1.00  0.00    -0.328 N  
HETATM   22  H   UNL     1     -11.717  11.134  66.460  1.00  0.00     0.000 HD 
BRANCH  21  23
HETATM   23  CA  UNL     1     -11.155  13.017  67.313  1.00  0.00    -0.273 C  
BRANCH  23  24
HETATM   24  C   UNL     1     -11.803  12.436  68.597  1.00  0.00    -0.302 C  
HETATM   25  H   UNL     1     -12.532  10.699  69.211  1.00  0.00     0.000 HD 
HETATM   26  O   UNL     1     -12.135  11.055  68.425  1.00  0.00    -0.594 OA 
ENDBRANCH  23  24
BRANCH  23  27
HETATM   27  C   UNL     1     -11.903  14.285  66.875  1.00  0.00    -0.458 C  
HETATM   28  C   UNL     1     -11.117  15.572  67.074  1.00  0.00    -0.238 C  
ENDBRANCH  23  27
ENDBRANCH  21  23
ENDBRANCH  15  19
TORSDOF 4
ENDMDL
MODEL       79
REMARK 921   NORMALIZED FREE ENERGY PREDICTED BY IDOCK:   -4.20 KCAL/MOL
REMARK 922        TOTAL FREE ENERGY PREDICTED BY IDOCK:   -6.28 KCAL/MOL
REMARK 923 INTER-LIGAND FREE ENERGY PREDICTED BY IDOCK:   -6.11 KCAL/MOL
REMARK 924 INTRA-LIGAND FREE ENERGY PREDICTED BY IDOCK:   -0.17 KCAL/MOL
REMARK 927      BINDING AFFINITY PREDICTED BY RF-SCORE:    0.00 PKD
ROOT
HETATM    1  C   UNL     1     -11.469  13.844  70.043  1.00  0.00    -0.140 C  
HETATM    2  C   UNL     1     -11.018  15.295  70.330  1.00  0.00    -0.317 C  
HETATM    3  C   UNL     1     -10.186  15.733  69.172  1.00  0.00    -0.231 A  
HETATM    4  C   UNL     1      -8.987  16.390  69.041  1.00  0.00    -0.239 A  
HETATM    5  N   UNL     1      -8.761  16.562  67.691  1.00  0.00    -0.189 NA 
HETATM    6  H   UNL     1      -7.958  17.050  67.293  1.00  0.00     0.000 HD 
HETATM    7  C   UNL     1      -9.774  15.982  66.955  1.00  0.00    -0.229 A  
HETATM    8  C   UNL     1     -10.042  15.920  65.589  1.00  0.00    -0.388 A  
HETATM    9  C   UNL     1     -11.139  15.129  65.198  1.00  0.00    -0.410 A  
HETATM   10  C   UNL     1     -11.854  14.339  66.119  1.00  0.00    -0.413 A  
HETATM   11  C   UNL     1     -11.543  14.395  67.482  1.00  0.00    -0.398 A  
HETATM   12  C   UNL     1     -11.886  13.468  68.585  1.00  0.00    -0.404 C  
HETATM   13  C   UNL     1     -10.574  15.331  67.874  1.00  0.00    -0.260 A  
HETATM   14  C   UNL     1     -12.139  12.160  68.369  1.00  0.00    -0.096 C  
HETATM   15  C   UNL     1     -11.781  11.192  69.500  1.00  0.00    -0.405 C  
HETATM   16  C   UNL     1     -13.749  13.668  70.961  1.00  0.00     0.237 C  
HETATM   17  C   UNL     1     -12.224  11.732  70.902  1.00  0.00    -0.276 C  
HETATM   18  N   UNL     1     -12.363  13.208  71.041  1.00  0.00    -0.333 NA 
ENDROOT
BRANCH  15  19
HETATM   19  C   UNL     1     -10.229  10.994  69.437  1.00  0.00    -0.067 C  
HETATM   20  O   UNL     1      -9.508  11.529  68.591  1.00  0.00    -0.188 OA 
HETATM   21  N   UNL     1      -9.726  10.117  70.377  1.00  0.00    -0.344 N  
HETATM   22  H   UNL     1     -10.299   9.918  71.197  1.00  0.00     0.000 HD 
BRANCH  21  23
HETATM   23  CA  UNL     1      -8.424   9.453  70.272  1.00  0.00    -0.212 C  
BRANCH  23  24
HETATM   24  C   UNL     1      -8.455   8.514  69.038  1.00  0.00    -0.126 C  
HETATM   25  H   UNL     1      -9.715   7.231  68.206  1.00  0.00     0.000 HD 
HETATM   26  O   UNL     1      -9.696   7.806  68.962  1.00  0.00    -0.154 OA 
ENDBRANCH  23  24
BRANCH  23  27
HETATM   27  C   UNL     1      -8.083   8.648  71.536  1.00  0.00    -0.188 C  
HETATM   28  C   UNL     1      -9.251   8.465  72.492  1.00  0.00    -0.338 C  
ENDBRANCH  23  27
ENDBRANCH  21  23
ENDBRANCH  15  19
TORSDOF 4
ENDMDL
MODEL       80
REMARK 921   NORMALIZED FREE ENERGY PREDICTED BY IDOCK:   -4.20 KCAL/MOL
REMARK 922        TOTAL FREE ENERGY PREDICTED BY IDOCK:   -6.27 KCAL/MOL
REMARK 923 INTER-LIGAND FREE ENERGY PREDICTED BY IDOCK:   -5.77 KCAL/MOL
REMARK 924 INTRA-LIGAND FREE ENERGY PREDICTED BY IDOCK:   -0.50 KCAL/MOL
REMARK 927      BINDING AFFINITY PREDICTED BY RF-SCORE:    0.00 PKD
ROOT
HETATM    1  C   UNL     1      -8.807   6.071  68.766  1.00  0.00    -0.116 C  
HETATM    2  C   UNL     1      -7.831   6.172  69.963  1.00  0.00    -0.106 C  
HETATM    3  C   UNL     1      -8.400   7.175  70.909  1.00  0.00    -0.121 A  
HETATM    4  C   UNL     1      -7.884   8.232  71.617  1.00  0.00    -0.114 A  
HETATM    5  N   UNL     1      -8.909   8.753  72.379  1.00  0.00    -0.400 NA 
HETATM    6  H   UNL     1      -8.811   9.530  73.033  1.00  0.00     0.000 HD 
HETATM    7  C   UNL     1     -10.085   8.075  72.133  1.00  0.00    -0.234 A  
HETATM    8  C   UNL     1     -11.369   8.171  72.667  1.00  0.00    -0.450 A  
HETATM    9  C   UNL     1     -12.359   7.365  72.074  1.00  0.00    -0.301 A  
HETATM   10  C   UNL     1     -12.103   6.595  70.923  1.00  0.00    -0.379 A  
HETATM   11  C   UNL     1     -10.812   6.542  70.388  1.00  0.00    -0.326 A  
HETATM   12  C   UNL     1     -10.342   6.105  69.053  1.00  0.00    -0.263 C  
HETATM   13  C   UNL     1      -9.800   7.200  71.102  1.00  0.00    -0.180 A  
HETATM   14  C   UNL     1     -11.138   6.150  67.963  1.00  0.00    -0.316 C  
HETATM   15  C   UNL     1     -10.449   6.381  66.615  1.00  0.00    -0.240 C  
HETATM   16  C   UNL     1      -8.775   3.703  68.086  1.00  0.00    -0.105 C  
HETATM   17  C   UNL     1      -9.155   5.514  66.457  1.00  0.00    -0.138 C  
HETATM   18  N   UNL     1      -8.475   5.085  67.711  1.00  0.00    -0.104 NA 
ENDROOT
BRANCH  15  19
HETATM   19  C   UNL     1     -10.117   7.910  66.546  1.00  0.00    -0.175 C  
HETATM   20  O   UNL     1     -10.688   8.763  67.229  1.00  0.00    -0.276 OA 
HETATM   21  N   UNL     1      -9.162   8.244  65.606  1.00  0.00    -0.405 N  
HETATM   22  H   UNL     1      -8.545   7.505  65.270  1.00  0.00     0.000 HD 
BRANCH  21  23
HETATM   23  CA  UNL     1      -8.979   9.592  65.061  1.00  0.00    -0.213 C  
BRANCH  23  24
HETATM   24  C   UNL     1      -8.785   9.474  63.527  1.00  0.00    -0.220 C  
HETATM   25  H   UNL     1      -9.553  10.282  61.889  1.00  0.00     0.000 HD 
HETATM   26  O   UNL     1      -9.671  10.354  62.829  1.00  0.00    -0.312 OA 
ENDBRANCH  23  24
BRANCH  23  27
HETATM   27  C   UNL     1      -7.773  10.309  65.689  1.00  0.00    -0.148 C  
HETATM   28  C   UNL     1      -8.040  10.880  67.073  1.00  0.00    -0.131 C  
ENDBRANCH  23  27
ENDBRANCH  21  23
ENDBRANCH  15  19
TORSDOF 4
ENDMDL
MODEL       81
REMARK 921   NORMALIZED FREE ENERGY PREDICTED BY IDOCK:   -4.18 KCAL/MOL
REMARK 922        TOTAL FREE ENERGY PREDICTED BY IDOCK:   -6.26 KCAL/MOL
REMARK 923 INTER-LIGAND FREE ENERGY PREDICTED BY IDOCK:   -5.69 KCAL/MOL
REMARK 924 INTRA-LIGAND FREE ENERGY PREDICTED BY IDOCK:   -0.56 KCAL/MOL
REMARK 927      BINDING AFFINITY PREDICTED BY RF-SCORE:    0.00 PKD
ROOT
HETATM    1  C   UNL     1      -9.927  11.363  68.275  1.00  0.00    -0.198 C  
HETATM    2  C   UNL     1      -9.504  12.790  68.700  1.00  0.00    -0.002 C  
HETATM    3  C   UNL     1      -9.455  13.620  67.461  1.00  0.00    -0.222 A  
HETATM    4  C   UNL     1      -8.567  14.531  66.947  1.00  0.00    -0.179 A  
HETATM    5  N   UNL     1      -9.110  15.016  65.775  1.00  0.00    -0.416 NA 
HETATM    6  H   UNL     1      -8.684  15.734  65.190  1.00  0.00     0.000 HD 
HETATM    7  C   UNL     1     -10.312  14.393  65.508  1.00  0.00    -0.362 A  
HETATM    8  C   UNL     1     -11.263  14.551  64.501  1.00  0.00    -0.302 A  
HETATM    9  C   UNL     1     -12.335  13.639  64.499  1.00  0.00    -0.402 A  
HETATM   10  C   UNL     1     -12.385  12.545  65.385  1.00  0.00    -0.426 A  
HETATM   11  C   UNL     1     -11.399  12.391  66.365  1.00  0.00    -0.392 A  
HETATM   12  C   UNL     1     -11.028  11.209  67.177  1.00  0.00    -0.350 C  
HETATM   13  C   UNL     1     -10.445  13.414  66.473  1.00  0.00    -0.283 A  
HETATM   14  C   UNL     1     -11.257   9.948  66.753  1.00  0.00     0.425 C  
HETATM   15  C   UNL     1     -10.277   8.872  67.230  1.00  0.00    -0.326 C  
HETATM   16  C   UNL     1     -11.343  10.522  70.107  1.00  0.00    -0.323 C  
HETATM   17  C   UNL     1      -9.943   9.011  68.754  1.00  0.00    -0.182 C  
HETATM   18  N   UNL     1     -10.098  10.364  69.356  1.00  0.00    -0.228 NA 
ENDROOT
BRANCH  15  19
HETATM   19  C   UNL     1      -8.989   9.029  66.353  1.00  0.00    -0.155 C  
HETATM   20  O   UNL     1      -7.951   9.557  66.756  1.00  0.00    -0.107 OA 
HETATM   21  N   UNL     1      -9.124   8.576  65.056  1.00  0.00    -0.420 N  
HETATM   22  H   UNL     1      -9.881   7.923  64.855  1.00  0.00     0.000 HD 
BRANCH  21  23
HETATM   23  CA  UNL     1      -8.249   8.974  63.949  1.00  0.00    -0.172 C  
BRANCH  23  24
HETATM   24  C   UNL     1      -6.784   8.661  64.350  1.00  0.00    -0.070 C  
HETATM   25  H   UNL     1      -5.654   7.057  64.628  1.00  0.00     0.000 HD 
HETATM   26  O   UNL     1      -6.551   7.249  64.382  1.00  0.00    -0.039 OA 
ENDBRANCH  23  24
BRANCH  23  27
HETATM   27  C   UNL     1      -8.392  10.465  63.607  1.00  0.00    -0.153 C  
HETATM   28  C   UNL     1      -9.816  10.897  63.292  1.00  0.00    -0.409 C  
ENDBRANCH  23  27
ENDBRANCH  21  23
ENDBRANCH  15  19
TORSDOF 4
ENDMDL
MODEL       82
REMARK 921   NORMALIZED FREE ENERGY PREDICTED BY IDOCK:   -4.15 KCAL/MOL
REMARK 922        TOTAL FREE ENERGY PREDICTED BY IDOCK:   -6.21 KCAL/MOL
REMARK 923 INTER-LIGAND FREE ENERGY PREDICTED BY IDOCK:   -5.86 KCAL/MOL
REMARK 924 INTRA-LIGAND FREE ENERGY PREDICTED BY IDOCK:   -0.35 KCAL/MOL
REMARK 927      BINDING AFFINITY PREDICTED BY RF-SCORE:    0.00 PKD
ROOT
HETATM    1  C   UNL     1      -8.379   8.072  68.143  1.00  0.00    -0.127 C  
HETATM    2  C   UNL     1      -7.341   7.938  69.283  1.00  0.00    -0.082 C  
HETATM    3  C   UNL     1      -8.073   8.133  70.568  1.00  0.00    -0.104 A  
HETATM    4  C   UNL     1      -7.833   8.851  71.713  1.00  0.00     0.033 A  
HETATM    5  N   UNL     1      -8.864   8.579  72.589  1.00  0.00    -0.361 NA 
HETATM    6  H   UNL     1      -8.936   8.950  73.537  1.00  0.00     0.000 HD 
HETATM    7  C   UNL     1      -9.784   7.735  72.003  1.00  0.00    -0.173 A  
HETATM    8  C   UNL     1     -10.952   7.130  72.466  1.00  0.00    -0.309 A  
HETATM    9  C   UNL     1     -11.701   6.402  71.521  1.00  0.00    -0.369 A  
HETATM   10  C   UNL     1     -11.363   6.387  70.154  1.00  0.00    -0.485 A  
HETATM   11  C   UNL     1     -10.203   7.029  69.711  1.00  0.00    -0.213 A  
HETATM   12  C   UNL     1      -9.795   7.444  68.349  1.00  0.00    -0.165 C  
HETATM   13  C   UNL     1      -9.371   7.587  70.693  1.00  0.00    -0.163 A  
HETATM   14  C   UNL     1     -10.697   7.709  67.380  1.00  0.00    -0.318 C  
HETATM   15  C   UNL     1     -10.297   8.752  66.332  1.00  0.00    -0.169 C  
HETATM   16  C   UNL     1      -7.682   6.452  66.422  1.00  0.00    -0.099 C  
HETATM   17  C   UNL     1      -8.825   8.555  65.834  1.00  0.00    -0.182 C  
HETATM   18  N   UNL     1      -7.889   7.860  66.761  1.00  0.00    -0.101 NA 
ENDROOT
BRANCH  15  19
HETATM   19  C   UNL     1     -10.481  10.152  67.011  1.00  0.00    -0.240 C  
HETATM   20  O   UNL     1     -10.969  10.306  68.133  1.00  0.00    -0.250 OA 
HETATM   21  N   UNL     1     -10.103  11.221  66.224  1.00  0.00    -0.222 N  
HETATM   22  H   UNL     1      -9.475  11.039  65.442  1.00  0.00     0.000 HD 
BRANCH  21  23
HETATM   23  CA  UNL     1     -10.547  12.601  66.440  1.00  0.00    -0.251 C  
BRANCH  23  24
HETATM   24  C   UNL     1     -11.395  13.037  65.218  1.00  0.00    -0.295 C  
HETATM   25  H   UNL     1     -13.187  12.647  64.466  1.00  0.00     0.000 HD 
HETATM   26  O   UNL     1     -12.666  12.380  65.215  1.00  0.00    -0.617 OA 
ENDBRANCH  23  24
BRANCH  23  27
HETATM   27  C   UNL     1      -9.365  13.565  66.630  1.00  0.00    -0.254 C  
HETATM   28  C   UNL     1      -9.641  14.987  66.168  1.00  0.00    -0.345 C  
ENDBRANCH  23  27
ENDBRANCH  21  23
ENDBRANCH  15  19
TORSDOF 4
ENDMDL
MODEL       83
REMARK 921   NORMALIZED FREE ENERGY PREDICTED BY IDOCK:   -4.13 KCAL/MOL
REMARK 922        TOTAL FREE ENERGY PREDICTED BY IDOCK:   -6.19 KCAL/MOL
REMARK 923 INTER-LIGAND FREE ENERGY PREDICTED BY IDOCK:   -5.11 KCAL/MOL
REMARK 924 INTRA-LIGAND FREE ENERGY PREDICTED BY IDOCK:   -1.08 KCAL/MOL
REMARK 927      BINDING AFFINITY PREDICTED BY RF-SCORE:    0.00 PKD
ROOT
HETATM    1  C   UNL     1      -9.609   5.016  73.234  1.00  0.00    -0.140 C  
HETATM    2  C   UNL     1     -11.151   5.146  73.261  1.00  0.00    -0.392 C  
HETATM    3  C   UNL     1     -11.546   5.933  72.057  1.00  0.00    -0.289 A  
HETATM    4  C   UNL     1     -12.407   6.978  71.830  1.00  0.00    -0.354 A  
HETATM    5  N   UNL     1     -12.386   7.237  70.475  1.00  0.00    -0.585 NA 
HETATM    6  H   UNL     1     -12.955   7.944  70.009  1.00  0.00     0.000 HD 
HETATM    7  C   UNL     1     -11.488   6.405  69.839  1.00  0.00    -0.415 A  
HETATM    8  C   UNL     1     -11.135   6.229  68.502  1.00  0.00    -0.397 A  
HETATM    9  C   UNL     1     -10.075   5.339  68.242  1.00  0.00    -0.219 A  
HETATM   10  C   UNL     1      -9.325   4.751  69.279  1.00  0.00    -0.196 A  
HETATM   11  C   UNL     1      -9.680   4.970  70.614  1.00  0.00    -0.266 A  
HETATM   12  C   UNL     1      -8.908   4.764  71.861  1.00  0.00    -0.137 C  
HETATM   13  C   UNL     1     -10.852   5.706  70.847  1.00  0.00    -0.294 A  
HETATM   14  C   UNL     1      -7.558   4.795  71.880  1.00  0.00    -0.089 C  
HETATM   15  C   UNL     1      -6.898   5.281  73.174  1.00  0.00    -0.078 C  
HETATM   16  C   UNL     1      -9.120   2.774  74.130  1.00  0.00    -0.078 C  
HETATM   17  C   UNL     1      -7.568   4.662  74.447  1.00  0.00    -0.085 C  
HETATM   18  N   UNL     1      -8.983   4.218  74.315  1.00  0.00    -0.100 NA 
ENDROOT
BRANCH  15  19
HETATM   19  C   UNL     1      -7.023   6.842  73.173  1.00  0.00    -0.074 C  
HETATM   20  O   UNL     1      -7.351   7.500  74.164  1.00  0.00    -0.107 OA 
HETATM   21  N   UNL     1      -6.792   7.432  71.947  1.00  0.00    -0.057 N  
HETATM   22  H   UNL     1      -6.277   6.896  71.249  1.00  0.00     0.000 HD 
BRANCH  21  23
HETATM   23  CA  UNL     1      -7.240   8.780  71.583  1.00  0.00    -0.071 C  
BRANCH  23  24
HETATM   24  C   UNL     1      -8.598   8.659  70.845  1.00  0.00    -0.172 C  
HETATM   25  H   UNL     1     -10.521   8.863  71.277  1.00  0.00     0.000 HD 
HETATM   26  O   UNL     1      -9.689   8.937  71.729  1.00  0.00    -0.288 OA 
ENDBRANCH  23  24
BRANCH  23  27
HETATM   27  C   UNL     1      -6.221   9.505  70.691  1.00  0.00    -0.077 C  
HETATM   28  C   UNL     1      -6.764  10.753  70.012  1.00  0.00    -0.149 C  
ENDBRANCH  23  27
ENDBRANCH  21  23
ENDBRANCH  15  19
TORSDOF 4
ENDMDL
MODEL       84
REMARK 921   NORMALIZED FREE ENERGY PREDICTED BY IDOCK:   -4.12 KCAL/MOL
REMARK 922        TOTAL FREE ENERGY PREDICTED BY IDOCK:   -6.17 KCAL/MOL
REMARK 923 INTER-LIGAND FREE ENERGY PREDICTED BY IDOCK:   -5.17 KCAL/MOL
REMARK 924 INTRA-LIGAND FREE ENERGY PREDICTED BY IDOCK:   -1.00 KCAL/MOL
REMARK 927      BINDING AFFINITY PREDICTED BY RF-SCORE:    0.00 PKD
ROOT
HETATM    1  C   UNL     1      -9.019   9.978  65.681  1.00  0.00    -0.172 C  
HETATM    2  C   UNL     1      -8.113   9.117  64.769  1.00  0.00    -0.140 C  
HETATM    3  C   UNL     1      -7.813   7.858  65.511  1.00  0.00    -0.112 A  
HETATM    4  C   UNL     1      -6.677   7.122  65.737  1.00  0.00    -0.052 A  
HETATM    5  N   UNL     1      -7.050   6.006  66.458  1.00  0.00    -0.070 NA 
HETATM    6  H   UNL     1      -6.417   5.259  66.743  1.00  0.00     0.000 HD 
HETATM    7  C   UNL     1      -8.401   6.042  66.737  1.00  0.00    -0.106 A  
HETATM    8  C   UNL     1      -9.266   5.155  67.376  1.00  0.00    -0.121 A  
HETATM    9  C   UNL     1     -10.588   5.596  67.571  1.00  0.00    -0.296 A  
HETATM   10  C   UNL     1     -10.991   6.907  67.254  1.00  0.00    -0.406 A  
HETATM   11  C   UNL     1     -10.094   7.789  66.643  1.00  0.00    -0.294 A  
HETATM   12  C   UNL     1     -10.136   9.263  66.508  1.00  0.00    -0.343 C  
HETATM   13  C   UNL     1      -8.840   7.272  66.284  1.00  0.00    -0.179 A  
HETATM   14  C   UNL     1     -10.803  10.044  67.384  1.00  0.00    -0.313 C  
HETATM   15  C   UNL     1     -10.248  11.452  67.615  1.00  0.00    -0.204 C  
HETATM   16  C   UNL     1     -10.587  11.122  64.163  1.00  0.00    -0.368 C  
HETATM   17  C   UNL     1      -9.842  12.154  66.274  1.00  0.00    -0.234 C  
HETATM   18  N   UNL     1      -9.497  11.267  65.129  1.00  0.00    -0.222 NA 
ENDROOT
BRANCH  15  19
HETATM   19  C   UNL     1      -9.012  11.290  68.563  1.00  0.00    -0.166 C  
HETATM   20  O   UNL     1      -7.990  11.974  68.473  1.00  0.00    -0.147 OA 
HETATM   21  N   UNL     1      -9.129  10.268  69.483  1.00  0.00    -0.329 N  
HETATM   22  H   UNL     1     -10.065   9.920  69.693  1.00  0.00     0.000 HD 
BRANCH  21  23
HETATM   23  CA  UNL     1      -7.997   9.650  70.178  1.00  0.00    -0.176 C  
BRANCH  23  24
HETATM   24  C   UNL     1      -7.294   8.678  69.196  1.00  0.00    -0.076 C  
HETATM   25  H   UNL     1      -5.646   8.646  68.097  1.00  0.00     0.000 HD 
HETATM   26  O   UNL     1      -6.076   9.242  68.699  1.00  0.00    -0.044 OA 
ENDBRANCH  23  24
BRANCH  23  27
HETATM   27  C   UNL     1      -8.438   8.893  71.441  1.00  0.00    -0.216 C  
HETATM   28  C   UNL     1      -9.945   8.825  71.632  1.00  0.00    -0.381 C  
ENDBRANCH  23  27
ENDBRANCH  21  23
ENDBRANCH  15  19
TORSDOF 4
ENDMDL
MODEL       85
REMARK 921   NORMALIZED FREE ENERGY PREDICTED BY IDOCK:   -4.11 KCAL/MOL
REMARK 922        TOTAL FREE ENERGY PREDICTED BY IDOCK:   -6.16 KCAL/MOL
REMARK 923 INTER-LIGAND FREE ENERGY PREDICTED BY IDOCK:   -5.26 KCAL/MOL
REMARK 924 INTRA-LIGAND FREE ENERGY PREDICTED BY IDOCK:   -0.90 KCAL/MOL
REMARK 927      BINDING AFFINITY PREDICTED BY RF-SCORE:    0.00 PKD
ROOT
HETATM    1  C   UNL     1      -7.654  10.664  69.537  1.00  0.00    -0.124 C  
HETATM    2  C   UNL     1      -8.386   9.753  70.551  1.00  0.00    -0.014 C  
HETATM    3  C   UNL     1      -9.475   9.055  69.808  1.00  0.00    -0.181 A  
HETATM    4  C   UNL     1     -10.800   8.798  70.058  1.00  0.00    -0.223 A  
HETATM    5  N   UNL     1     -11.276   8.046  69.003  1.00  0.00    -0.317 NA 
HETATM    6  H   UNL     1     -12.225   7.680  68.932  1.00  0.00     0.000 HD 
HETATM    7  C   UNL     1     -10.287   7.859  68.060  1.00  0.00    -0.209 A  
HETATM    8  C   UNL     1     -10.237   7.148  66.861  1.00  0.00    -0.330 A  
HETATM    9  C   UNL     1      -9.061   7.282  66.099  1.00  0.00    -0.160 A  
HETATM   10  C   UNL     1      -8.039   8.183  66.457  1.00  0.00    -0.106 A  
HETATM   11  C   UNL     1      -8.130   8.909  67.649  1.00  0.00    -0.106 A  
HETATM   12  C   UNL     1      -7.402  10.120  68.095  1.00  0.00    -0.082 C  
HETATM   13  C   UNL     1      -9.217   8.621  68.487  1.00  0.00    -0.138 A  
HETATM   14  C   UNL     1      -6.882  11.006  67.219  1.00  0.00    -0.088 C  
HETATM   15  C   UNL     1      -6.812  12.466  67.676  1.00  0.00    -0.132 C  
HETATM   16  C   UNL     1      -5.280  10.611  70.196  1.00  0.00    -0.044 C  
HETATM   17  C   UNL     1      -6.289  12.600  69.146  1.00  0.00    -0.099 C  
HETATM   18  N   UNL     1      -6.486  11.425  70.040  1.00  0.00    -0.132 NA 
ENDROOT
BRANCH  15  19
HETATM   19  C   UNL     1      -8.261  13.043  67.538  1.00  0.00    -0.181 C  
HETATM   20  O   UNL     1      -8.831  13.676  68.430  1.00  0.00    -0.179 OA 
HETATM   21  N   UNL     1      -8.886  12.735  66.346  1.00  0.00    -0.430 N  
HETATM   22  H   UNL     1      -8.301  12.454  65.559  1.00  0.00     0.000 HD 
BRANCH  21  23
HETATM   23  CA  UNL     1     -10.337  12.785  66.139  1.00  0.00    -0.269 C  
BRANCH  23  24
HETATM   24  C   UNL     1     -10.900  11.348  66.291  1.00  0.00    -0.263 C  
HETATM   25  H   UNL     1     -12.331  10.439  67.316  1.00  0.00     0.000 HD 
HETATM   26  O   UNL     1     -11.986  11.319  67.222  1.00  0.00    -0.529 OA 
ENDBRANCH  23  24
BRANCH  23  27
HETATM   27  C   UNL     1     -10.703  13.349  64.757  1.00  0.00    -0.403 C  
HETATM   28  C   UNL     1     -10.901  12.289  63.684  1.00  0.00    -0.522 C  
ENDBRANCH  23  27
ENDBRANCH  21  23
ENDBRANCH  15  19
TORSDOF 4
ENDMDL
MODEL       86
REMARK 921   NORMALIZED FREE ENERGY PREDICTED BY IDOCK:   -4.10 KCAL/MOL
REMARK 922        TOTAL FREE ENERGY PREDICTED BY IDOCK:   -6.15 KCAL/MOL
REMARK 923 INTER-LIGAND FREE ENERGY PREDICTED BY IDOCK:   -5.36 KCAL/MOL
REMARK 924 INTRA-LIGAND FREE ENERGY PREDICTED BY IDOCK:   -0.78 KCAL/MOL
REMARK 927      BINDING AFFINITY PREDICTED BY RF-SCORE:    0.00 PKD
ROOT
HETATM    1  C   UNL     1      -9.269  12.197  67.600  1.00  0.00    -0.181 C  
HETATM    2  C   UNL     1      -8.120  12.738  68.484  1.00  0.00    -0.080 C  
HETATM    3  C   UNL     1      -7.654  14.013  67.866  1.00  0.00    -0.159 A  
HETATM    4  C   UNL     1      -6.424  14.553  67.585  1.00  0.00    -0.132 A  
HETATM    5  N   UNL     1      -6.640  15.809  67.057  1.00  0.00    -0.285 NA 
HETATM    6  H   UNL     1      -5.904  16.460  66.784  1.00  0.00     0.000 HD 
HETATM    7  C   UNL     1      -7.992  16.061  66.952  1.00  0.00    -0.248 A  
HETATM    8  C   UNL     1      -8.724  17.174  66.539  1.00  0.00    -0.293 A  
HETATM    9  C   UNL     1     -10.121  17.016  66.464  1.00  0.00    -0.318 A  
HETATM   10  C   UNL     1     -10.742  15.769  66.671  1.00  0.00    -0.287 A  
HETATM   11  C   UNL     1      -9.980  14.660  67.053  1.00  0.00    -0.246 A  
HETATM   12  C   UNL     1     -10.300  13.214  67.015  1.00  0.00    -0.249 C  
HETATM   13  C   UNL     1      -8.618  14.882  67.306  1.00  0.00    -0.232 A  
HETATM   14  C   UNL     1     -11.196  12.702  66.144  1.00  0.00    -0.350 C  
HETATM   15  C   UNL     1     -10.958  11.262  65.678  1.00  0.00    -0.201 C  
HETATM   16  C   UNL     1     -10.868  11.156  69.159  1.00  0.00    -0.238 C  
HETATM   17  C   UNL     1     -10.565  10.315  66.862  1.00  0.00    -0.217 C  
HETATM   18  N   UNL     1      -9.934  10.952  68.051  1.00  0.00    -0.167 NA 
ENDROOT
BRANCH  15  19
HETATM   19  C   UNL     1      -9.819  11.328  64.605  1.00  0.00    -0.268 C  
HETATM   20  O   UNL     1      -9.912  11.963  63.552  1.00  0.00    -0.380 OA 
HETATM   21  N   UNL     1      -8.709  10.564  64.904  1.00  0.00    -0.180 N  
HETATM   22  H   UNL     1      -8.570  10.286  65.876  1.00  0.00     0.000 HD 
BRANCH  21  23
HETATM   23  CA  UNL     1      -7.718  10.128  63.917  1.00  0.00    -0.140 C  
BRANCH  23  24
HETATM   24  C   UNL     1      -8.048   8.669  63.509  1.00  0.00    -0.167 C  
HETATM   25  H   UNL     1      -7.105   7.129  62.692  1.00  0.00     0.000 HD 
HETATM   26  O   UNL     1      -6.904   8.023  62.942  1.00  0.00    -0.083 OA 
ENDBRANCH  23  24
BRANCH  23  27
HETATM   27  C   UNL     1      -6.284  10.209  64.463  1.00  0.00    -0.133 C  
HETATM   28  C   UNL     1      -6.199  10.581  65.935  1.00  0.00    -0.128 C  
ENDBRANCH  23  27
ENDBRANCH  21  23
ENDBRANCH  15  19
TORSDOF 4
ENDMDL
MODEL       87
REMARK 921   NORMALIZED FREE ENERGY PREDICTED BY IDOCK:   -4.07 KCAL/MOL
REMARK 922        TOTAL FREE ENERGY PREDICTED BY IDOCK:   -6.12 KCAL/MOL
REMARK 923 INTER-LIGAND FREE ENERGY PREDICTED BY IDOCK:   -5.18 KCAL/MOL
REMARK 924 INTRA-LIGAND FREE ENERGY PREDICTED BY IDOCK:   -0.94 KCAL/MOL
REMARK 927      BINDING AFFINITY PREDICTED BY RF-SCORE:    0.00 PKD
ROOT
HETATM    1  C   UNL     1     -10.802   7.074  69.985  1.00  0.00    -0.261 C  
HETATM    2  C   UNL     1     -11.265   6.048  68.923  1.00  0.00    -0.246 C  
HETATM    3  C   UNL     1     -10.040   5.543  68.238  1.00  0.00    -0.226 A  
HETATM    4  C   UNL     1      -9.692   5.320  66.929  1.00  0.00    -0.156 A  
HETATM    5  N   UNL     1      -8.422   4.780  66.930  1.00  0.00    -0.106 NA 
HETATM    6  H   UNL     1      -7.916   4.482  66.096  1.00  0.00     0.000 HD 
HETATM    7  C   UNL     1      -7.934   4.700  68.218  1.00  0.00    -0.084 A  
HETATM    8  C   UNL     1      -6.752   4.196  68.758  1.00  0.00    -0.046 A  
HETATM    9  C   UNL     1      -6.557   4.391  70.139  1.00  0.00    -0.032 A  
HETATM   10  C   UNL     1      -7.444   5.163  70.914  1.00  0.00    -0.078 A  
HETATM   11  C   UNL     1      -8.607   5.686  70.340  1.00  0.00    -0.132 A  
HETATM   12  C   UNL     1      -9.509   6.764  70.805  1.00  0.00    -0.167 C  
HETATM   13  C   UNL     1      -8.878   5.321  69.012  1.00  0.00    -0.111 A  
HETATM   14  C   UNL     1      -9.081   7.755  71.617  1.00  0.00    -0.163 C  
HETATM   15  C   UNL     1      -9.774   9.113  71.472  1.00  0.00    -0.313 C  
HETATM   16  C   UNL     1     -12.332   6.785  71.894  1.00  0.00    -0.326 C  
HETATM   17  C   UNL     1     -11.330   8.972  71.357  1.00  0.00    -0.323 C  
HETATM   18  N   UNL     1     -11.852   7.677  70.839  1.00  0.00    -0.278 NA 
ENDROOT
BRANCH  15  19
HETATM   19  C   UNL     1      -9.172   9.781  70.190  1.00  0.00    -0.208 C  
HETATM   20  O   UNL     1      -7.978  10.061  70.065  1.00  0.00    -0.175 OA 
HETATM   21  N   UNL     1     -10.102  10.092  69.218  1.00  0.00    -0.209 N  
HETATM   22  H   UNL     1     -11.002   9.613  69.249  1.00  0.00     0.000 HD 
BRANCH  21  23
HETATM   23  CA  UNL     1      -9.880  11.066  68.146  1.00  0.00    -0.176 C  
BRANCH  23  24
HETATM   24  C   UNL     1     -11.216  11.806  67.876  1.00  0.00    -0.267 C  
HETATM   25  H   UNL     1     -13.118  11.630  68.400  1.00  0.00     0.000 HD 
HETATM   26  O   UNL     1     -12.300  11.177  68.565  1.00  0.00    -0.561 OA 
ENDBRANCH  23  24
BRANCH  23  27
HETATM   27  C   UNL     1      -9.378  10.400  66.855  1.00  0.00    -0.186 C  
HETATM   28  C   UNL     1      -9.919   8.997  66.628  1.00  0.00    -0.349 C  
ENDBRANCH  23  27
ENDBRANCH  21  23
ENDBRANCH  15  19
TORSDOF 4
ENDMDL
MODEL       88
REMARK 921   NORMALIZED FREE ENERGY PREDICTED BY IDOCK:   -4.06 KCAL/MOL
REMARK 922        TOTAL FREE ENERGY PREDICTED BY IDOCK:   -6.10 KCAL/MOL
REMARK 923 INTER-LIGAND FREE ENERGY PREDICTED BY IDOCK:   -6.16 KCAL/MOL
REMARK 924 INTRA-LIGAND FREE ENERGY PREDICTED BY IDOCK:    0.06 KCAL/MOL
REMARK 927      BINDING AFFINITY PREDICTED BY RF-SCORE:    0.00 PKD
ROOT
HETATM    1  C   UNL     1     -11.403  12.296  69.298  1.00  0.00    -0.256 C  
HETATM    2  C   UNL     1     -11.867  13.743  69.591  1.00  0.00    -0.393 C  
HETATM    3  C   UNL     1     -11.461  14.579  68.424  1.00  0.00    -0.328 A  
HETATM    4  C   UNL     1     -10.864  15.806  68.280  1.00  0.00    -0.305 A  
HETATM    5  N   UNL     1     -10.804  16.076  66.928  1.00  0.00    -0.258 NA 
HETATM    6  H   UNL     1     -10.437  16.937  66.522  1.00  0.00     0.000 HD 
HETATM    7  C   UNL     1     -11.309  15.017  66.203  1.00  0.00    -0.270 A  
HETATM    8  C   UNL     1     -11.517  14.808  64.840  1.00  0.00    -0.412 A  
HETATM    9  C   UNL     1     -11.963  13.528  64.460  1.00  0.00    -0.451 A  
HETATM   10  C   UNL     1     -12.074  12.473  65.385  1.00  0.00    -0.494 A  
HETATM   11  C   UNL     1     -11.828  12.700  66.743  1.00  0.00    -0.440 A  
HETATM   12  C   UNL     1     -11.553  11.747  67.843  1.00  0.00    -0.377 C  
HETATM   13  C   UNL     1     -11.569  14.024  67.128  1.00  0.00    -0.397 A  
HETATM   14  C   UNL     1     -11.008  10.532  67.619  1.00  0.00    -0.375 C  
HETATM   15  C   UNL     1     -10.137   9.951  68.736  1.00  0.00    -0.186 C  
HETATM   16  C   UNL     1     -13.146  10.838  70.249  1.00  0.00     0.053 C  
HETATM   17  C   UNL     1     -10.785  10.138  70.149  1.00  0.00    -0.300 C  
HETATM   18  N   UNL     1     -11.747  11.264  70.303  1.00  0.00    -0.331 NA 
ENDROOT
BRANCH  15  19
HETATM   19  C   UNL     1      -8.756  10.685  68.646  1.00  0.00    -0.148 C  
HETATM   20  O   UNL     1      -8.640  11.892  68.421  1.00  0.00    -0.164 OA 
HETATM   21  N   UNL     1      -7.660   9.857  68.782  1.00  0.00    -0.079 N  
HETATM   22  H   UNL     1      -7.800   8.948  69.222  1.00  0.00     0.000 HD 
BRANCH  21  23
HETATM   23  CA  UNL     1      -6.307  10.201  68.334  1.00  0.00    -0.049 C  
BRANCH  23  24
HETATM   24  C   UNL     1      -5.767   9.029  67.474  1.00  0.00    -0.039 C  
HETATM   25  H   UNL     1      -5.700   7.052  67.572  1.00  0.00     0.000 HD 
HETATM   26  O   UNL     1      -6.030   7.770  68.099  1.00  0.00    -0.037 OA 
ENDBRANCH  23  24
BRANCH  23  27
HETATM   27  C   UNL     1      -5.359  10.468  69.513  1.00  0.00    -0.038 C  
HETATM   28  C   UNL     1      -5.908  10.034  70.864  1.00  0.00    -0.088 C  
ENDBRANCH  23  27
ENDBRANCH  21  23
ENDBRANCH  15  19
TORSDOF 4
ENDMDL
MODEL       89
REMARK 921   NORMALIZED FREE ENERGY PREDICTED BY IDOCK:   -4.05 KCAL/MOL
REMARK 922        TOTAL FREE ENERGY PREDICTED BY IDOCK:   -6.09 KCAL/MOL
REMARK 923 INTER-LIGAND FREE ENERGY PREDICTED BY IDOCK:   -5.59 KCAL/MOL
REMARK 924 INTRA-LIGAND FREE ENERGY PREDICTED BY IDOCK:   -0.51 KCAL/MOL
REMARK 927      BINDING AFFINITY PREDICTED BY RF-SCORE:    0.00 PKD
ROOT
HETATM    1  C   UNL     1     -11.321   6.898  70.675  1.00  0.00    -0.320 C  
HETATM    2  C   UNL     1     -11.431   6.399  69.214  1.00  0.00    -0.318 C  
HETATM    3  C   UNL     1     -10.284   5.475  68.979  1.00  0.00    -0.298 A  
HETATM    4  C   UNL     1      -9.370   5.314  67.967  1.00  0.00    -0.117 A  
HETATM    5  N   UNL     1      -8.578   4.234  68.301  1.00  0.00    -0.093 NA 
HETATM    6  H   UNL     1      -7.830   3.859  67.718  1.00  0.00     0.000 HD 
HETATM    7  C   UNL     1      -8.941   3.733  69.534  1.00  0.00    -0.106 A  
HETATM    8  C   UNL     1      -8.502   2.645  70.286  1.00  0.00    -0.087 A  
HETATM    9  C   UNL     1      -9.049   2.509  71.576  1.00  0.00    -0.161 A  
HETATM   10  C   UNL     1      -9.898   3.486  72.132  1.00  0.00    -0.238 A  
HETATM   11  C   UNL     1     -10.298   4.586  71.366  1.00  0.00    -0.117 A  
HETATM   12  C   UNL     1     -10.887   5.881  71.778  1.00  0.00    -0.316 C  
HETATM   13  C   UNL     1      -9.895   4.605  70.022  1.00  0.00    -0.294 A  
HETATM   14  C   UNL     1     -10.678   6.405  73.005  1.00  0.00    -0.286 C  
HETATM   15  C   UNL     1     -10.677   7.932  73.112  1.00  0.00    -0.331 C  
HETATM   16  C   UNL     1     -13.641   7.099  71.481  1.00  0.00    -0.319 C  
HETATM   17  C   UNL     1     -11.852   8.581  72.303  1.00  0.00    -0.383 C  
HETATM   18  N   UNL     1     -12.395   7.796  71.161  1.00  0.00    -0.283 NA 
ENDROOT
BRANCH  15  19
HETATM   19  C   UNL     1      -9.288   8.412  72.572  1.00  0.00    -0.275 C  
HETATM   20  O   UNL     1      -8.295   8.565  73.287  1.00  0.00    -0.372 OA 
HETATM   21  N   UNL     1      -9.272   8.712  71.224  1.00  0.00    -0.198 N  
HETATM   22  H   UNL     1     -10.013   8.324  70.641  1.00  0.00     0.000 HD 
BRANCH  21  23
HETATM   23  CA  UNL     1      -8.258   9.550  70.578  1.00  0.00    -0.167 C  
BRANCH  23  24
HETATM   24  C   UNL     1      -8.936  10.328  69.421  1.00  0.00    -0.176 C  
HETATM   25  H   UNL     1     -10.776  10.693  68.783  1.00  0.00     0.000 HD 
HETATM   26  O   UNL     1     -10.360  10.217  69.492  1.00  0.00    -0.210 OA 
ENDBRANCH  23  24
BRANCH  23  27
HETATM   27  C   UNL     1      -7.082   8.722  70.037  1.00  0.00    -0.047 C  
HETATM   28  C   UNL     1      -7.280   7.218  70.143  1.00  0.00    -0.074 C  
ENDBRANCH  23  27
ENDBRANCH  21  23
ENDBRANCH  15  19
TORSDOF 4
ENDMDL
MODEL       90
REMARK 921   NORMALIZED FREE ENERGY PREDICTED BY IDOCK:   -4.05 KCAL/MOL
REMARK 922        TOTAL FREE ENERGY PREDICTED BY IDOCK:   -6.09 KCAL/MOL
REMARK 923 INTER-LIGAND FREE ENERGY PREDICTED BY IDOCK:   -5.43 KCAL/MOL
REMARK 924 INTRA-LIGAND FREE ENERGY PREDICTED BY IDOCK:   -0.66 KCAL/MOL
REMARK 927      BINDING AFFINITY PREDICTED BY RF-SCORE:    0.00 PKD
ROOT
HETATM    1  C   UNL     1     -11.534  13.136  65.857  1.00  0.00    -0.333 C  
HETATM    2  C   UNL     1     -12.643  13.956  66.559  1.00  0.00    -0.245 C  
HETATM    3  C   UNL     1     -11.982  14.767  67.622  1.00  0.00    -0.244 A  
HETATM    4  C   UNL     1     -12.262  15.040  68.938  1.00  0.00    -0.101 A  
HETATM    5  N   UNL     1     -11.296  15.917  69.387  1.00  0.00    -0.326 NA 
HETATM    6  H   UNL     1     -11.267  16.321  70.324  1.00  0.00     0.000 HD 
HETATM    7  C   UNL     1     -10.375  16.171  68.392  1.00  0.00    -0.257 A  
HETATM    8  C   UNL     1      -9.261  17.005  68.316  1.00  0.00    -0.255 A  
HETATM    9  C   UNL     1      -8.485  16.914  67.145  1.00  0.00    -0.218 A  
HETATM   10  C   UNL     1      -8.741  15.946  66.155  1.00  0.00    -0.328 A  
HETATM   11  C   UNL     1      -9.848  15.099  66.271  1.00  0.00    -0.317 A  
HETATM   12  C   UNL     1     -10.158  13.824  65.585  1.00  0.00    -0.315 C  
HETATM   13  C   UNL     1     -10.715  15.332  67.349  1.00  0.00    -0.293 A  
HETATM   14  C   UNL     1      -9.190  13.020  65.096  1.00  0.00     0.741 C  
HETATM   15  C   UNL     1      -9.487  11.517  65.075  1.00  0.00    -0.174 C  
HETATM   16  C   UNL     1     -12.188  13.037  63.484  1.00  0.00    -0.501 C  
HETATM   17  C   UNL     1     -10.933  11.208  64.558  1.00  0.00    -0.185 C  
HETATM   18  N   UNL     1     -11.948  12.285  64.716  1.00  0.00    -0.378 NA 
ENDROOT
BRANCH  15  19
HETATM   19  C   UNL     1      -9.292  11.009  66.543  1.00  0.00    -0.180 C  
HETATM   20  O   UNL     1      -8.329  11.319  67.249  1.00  0.00    -0.136 OA 
HETATM   21  N   UNL     1     -10.262  10.127  66.976  1.00  0.00    -0.222 N  
HETATM   22  H   UNL     1     -11.151  10.114  66.476  1.00  0.00     0.000 HD 
BRANCH  21  23
HETATM   23  CA  UNL     1     -10.097   9.210  68.107  1.00  0.00    -0.189 C  
BRANCH  23  24
HETATM   24  C   UNL     1     -10.551   7.797  67.658  1.00  0.00    -0.213 C  
HETATM   25  H   UNL     1     -10.187   6.549  66.162  1.00  0.00     0.000 HD 
HETATM   26  O   UNL     1      -9.909   7.415  66.437  1.00  0.00    -0.165 OA 
ENDBRANCH  23  24
BRANCH  23  27
HETATM   27  C   UNL     1     -10.907   9.656  69.335  1.00  0.00    -0.239 C  
HETATM   28  C   UNL     1     -10.151   9.552  70.650  1.00  0.00    -0.353 C  
ENDBRANCH  23  27
ENDBRANCH  21  23
ENDBRANCH  15  19
TORSDOF 4
ENDMDL
MODEL       91
REMARK 921   NORMALIZED FREE ENERGY PREDICTED BY IDOCK:   -4.00 KCAL/MOL
REMARK 922        TOTAL FREE ENERGY PREDICTED BY IDOCK:   -6.03 KCAL/MOL
REMARK 923 INTER-LIGAND FREE ENERGY PREDICTED BY IDOCK:   -6.63 KCAL/MOL
REMARK 924 INTRA-LIGAND FREE ENERGY PREDICTED BY IDOCK:    0.59 KCAL/MOL
REMARK 927      BINDING AFFINITY PREDICTED BY RF-SCORE:    0.00 PKD
ROOT
HETATM    1  C   UNL     1      -8.990  13.384  67.417  1.00  0.00    -0.215 C  
HETATM    2  C   UNL     1      -8.136  12.341  66.658  1.00  0.00     0.059 C  
HETATM    3  C   UNL     1      -9.071  11.538  65.817  1.00  0.00    -0.164 A  
HETATM    4  C   UNL     1      -9.227  10.198  65.562  1.00  0.00    -0.191 A  
HETATM    5  N   UNL     1     -10.243  10.074  64.637  1.00  0.00    -0.331 NA 
HETATM    6  H   UNL     1     -10.559   9.191  64.235  1.00  0.00     0.000 HD 
HETATM    7  C   UNL     1     -10.771  11.311  64.333  1.00  0.00    -0.339 A  
HETATM    8  C   UNL     1     -11.757  11.733  63.441  1.00  0.00    -0.423 A  
HETATM    9  C   UNL     1     -12.107  13.096  63.488  1.00  0.00    -0.585 A  
HETATM   10  C   UNL     1     -11.586  13.966  64.465  1.00  0.00    -0.409 A  
HETATM   11  C   UNL     1     -10.622  13.509  65.369  1.00  0.00    -0.313 A  
HETATM   12  C   UNL     1     -10.165  14.080  66.657  1.00  0.00    -0.275 C  
HETATM   13  C   UNL     1     -10.147  12.201  65.185  1.00  0.00    -0.288 A  
HETATM   14  C   UNL     1     -10.955  14.876  67.408  1.00  0.00    -0.314 C  
HETATM   15  C   UNL     1     -10.741  14.828  68.924  1.00  0.00    -0.253 C  
HETATM   16  C   UNL     1      -7.596  15.412  67.543  1.00  0.00    -0.181 C  
HETATM   17  C   UNL     1      -9.222  14.847  69.307  1.00  0.00    -0.098 C  
HETATM   18  N   UNL     1      -8.265  14.342  68.285  1.00  0.00    -0.141 NA 
ENDROOT
BRANCH  15  19
HETATM   19  C   UNL     1     -11.434  13.516  69.426  1.00  0.00    -0.282 C  
HETATM   20  O   UNL     1     -12.561  13.489  69.924  1.00  0.00    -0.187 OA 
HETATM   21  N   UNL     1     -10.653  12.383  69.321  1.00  0.00    -0.432 N  
HETATM   22  H   UNL     1      -9.863  12.406  68.676  1.00  0.00     0.000 HD 
BRANCH  21  23
HETATM   23  CA  UNL     1     -10.886  11.148  70.076  1.00  0.00     0.100 C  
BRANCH  23  24
HETATM   24  C   UNL     1     -10.007  10.028  69.461  1.00  0.00    -0.228 C  
HETATM   25  H   UNL     1      -8.364   9.029  69.938  1.00  0.00     0.000 HD 
HETATM   26  O   UNL     1      -8.902   9.716  70.315  1.00  0.00    -0.223 OA 
ENDBRANCH  23  24
BRANCH  23  27
HETATM   27  C   UNL     1     -12.364  10.728  70.054  1.00  0.00    -0.371 C  
HETATM   28  C   UNL     1     -12.908  10.296  71.407  1.00  0.00    -0.544 C  
ENDBRANCH  23  27
ENDBRANCH  21  23
ENDBRANCH  15  19
TORSDOF 4
ENDMDL
MODEL       92
REMARK 921   NORMALIZED FREE ENERGY PREDICTED BY IDOCK:   -3.97 KCAL/MOL
REMARK 922        TOTAL FREE ENERGY PREDICTED BY IDOCK:   -5.99 KCAL/MOL
REMARK 923 INTER-LIGAND FREE ENERGY PREDICTED BY IDOCK:   -5.50 KCAL/MOL
REMARK 924 INTRA-LIGAND FREE ENERGY PREDICTED BY IDOCK:   -0.49 KCAL/MOL
REMARK 927      BINDING AFFINITY PREDICTED BY RF-SCORE:    0.00 PKD
ROOT
HETATM    1  C   UNL     1     -10.379   8.655  70.851  1.00  0.00    -0.211 C  
HETATM    2  C   UNL     1      -9.147   9.394  70.277  1.00  0.00    -0.283 C  
HETATM    3  C   UNL     1      -8.362   8.396  69.494  1.00  0.00    -0.120 A  
HETATM    4  C   UNL     1      -7.030   8.077  69.402  1.00  0.00    -0.055 A  
HETATM    5  N   UNL     1      -6.912   7.090  68.446  1.00  0.00    -0.073 NA 
HETATM    6  H   UNL     1      -6.030   6.677  68.141  1.00  0.00     0.000 HD 
HETATM    7  C   UNL     1      -8.154   6.739  67.959  1.00  0.00    -0.114 A  
HETATM    8  C   UNL     1      -8.573   5.852  66.968  1.00  0.00    -0.110 A  
HETATM    9  C   UNL     1      -9.963   5.681  66.824  1.00  0.00    -0.207 A  
HETATM   10  C   UNL     1     -10.883   6.272  67.711  1.00  0.00    -0.424 A  
HETATM   11  C   UNL     1     -10.433   7.133  68.717  1.00  0.00    -0.217 A  
HETATM   12  C   UNL     1     -11.108   7.611  69.946  1.00  0.00    -0.160 C  
HETATM   13  C   UNL     1      -9.064   7.440  68.726  1.00  0.00    -0.131 A  
HETATM   14  C   UNL     1     -12.089   6.902  70.546  1.00  0.00    -0.315 C  
HETATM   15  C   UNL     1     -12.215   7.049  72.065  1.00  0.00    -0.317 C  
HETATM   16  C   UNL     1     -12.217  10.294  70.797  1.00  0.00    -0.350 C  
HETATM   17  C   UNL     1     -12.096   8.542  72.526  1.00  0.00    -0.326 C  
HETATM   18  N   UNL     1     -11.346   9.464  71.629  1.00  0.00    -0.389 NA 
ENDROOT
BRANCH  15  19
HETATM   19  C   UNL     1     -11.077   6.173  72.689  1.00  0.00    -0.272 C  
HETATM   20  O   UNL     1     -11.171   4.955  72.859  1.00  0.00    -0.260 OA 
HETATM   21  N   UNL     1      -9.967   6.885  73.096  1.00  0.00    -0.184 N  
HETATM   22  H   UNL     1      -9.826   7.815  72.701  1.00  0.00     0.000 HD 
BRANCH  21  23
HETATM   23  CA  UNL     1      -8.977   6.391  74.057  1.00  0.00    -0.143 C  
BRANCH  23  24
HETATM   24  C   UNL     1      -8.127   7.594  74.542  1.00  0.00    -0.215 C  
HETATM   25  H   UNL     1      -7.527   9.343  73.832  1.00  0.00     0.000 HD 
HETATM   26  O   UNL     1      -8.047   8.606  73.535  1.00  0.00    -0.408 OA 
ENDBRANCH  23  24
BRANCH  23  27
HETATM   27  C   UNL     1      -8.065   5.316  73.446  1.00  0.00    -0.111 C  
HETATM   28  C   UNL     1      -7.766   5.519  71.969  1.00  0.00    -0.101 C  
ENDBRANCH  23  27
ENDBRANCH  21  23
ENDBRANCH  15  19
TORSDOF 4
ENDMDL
MODEL       93
REMARK 921   NORMALIZED FREE ENERGY PREDICTED BY IDOCK:   -3.97 KCAL/MOL
REMARK 922        TOTAL FREE ENERGY PREDICTED BY IDOCK:   -5.99 KCAL/MOL
REMARK 923 INTER-LIGAND FREE ENERGY PREDICTED BY IDOCK:   -4.66 KCAL/MOL
REMARK 924 INTRA-LIGAND FREE ENERGY PREDICTED BY IDOCK:   -1.33 KCAL/MOL
REMARK 927      BINDING AFFINITY PREDICTED BY RF-SCORE:    0.00 PKD
ROOT
HETATM    1  C   UNL     1     -10.354   6.556  72.174  1.00  0.00    -0.198 C  
HETATM    2  C   UNL     1     -11.217   7.840  72.188  1.00  0.00    -0.348 C  
HETATM    3  C   UNL     1     -10.927   8.577  70.924  1.00  0.00    -0.292 A  
HETATM    4  C   UNL     1     -10.669   9.889  70.613  1.00  0.00    -0.303 A  
HETATM    5  N   UNL     1     -10.537   9.965  69.242  1.00  0.00    -0.212 NA 
HETATM    6  H   UNL     1     -10.373  10.826  68.720  1.00  0.00     0.000 HD 
HETATM    7  C   UNL     1     -10.658   8.713  68.676  1.00  0.00    -0.129 A  
HETATM    8  C   UNL     1     -10.655   8.259  67.357  1.00  0.00    -0.324 A  
HETATM    9  C   UNL     1     -10.697   6.864  67.172  1.00  0.00    -0.436 A  
HETATM   10  C   UNL     1     -10.620   5.966  68.253  1.00  0.00    -0.310 A  
HETATM   11  C   UNL     1     -10.592   6.448  69.566  1.00  0.00    -0.308 A  
HETATM   12  C   UNL     1     -10.193   5.782  70.827  1.00  0.00    -0.279 C  
HETATM   13  C   UNL     1     -10.742   7.833  69.737  1.00  0.00    -0.236 A  
HETATM   14  C   UNL     1      -9.321   4.750  70.847  1.00  0.00    -0.209 C  
HETATM   15  C   UNL     1      -8.452   4.607  72.099  1.00  0.00    -0.118 C  
HETATM   16  C   UNL     1     -11.734   4.820  73.246  1.00  0.00    -0.093 C  
HETATM   17  C   UNL     1      -9.275   4.807  73.416  1.00  0.00    -0.113 C  
HETATM   18  N   UNL     1     -10.515   5.626  73.316  1.00  0.00    -0.214 NA 
ENDROOT
BRANCH  15  19
HETATM   19  C   UNL     1      -7.318   5.680  71.974  1.00  0.00    -0.093 C  
HETATM   20  O   UNL     1      -6.695   6.128  72.940  1.00  0.00    -0.067 OA 
HETATM   21  N   UNL     1      -7.103   6.136  70.689  1.00  0.00    -0.066 N  
HETATM   22  H   UNL     1      -7.439   5.561  69.917  1.00  0.00     0.000 HD 
BRANCH  21  23
HETATM   23  CA  UNL     1      -6.425   7.394  70.364  1.00  0.00    -0.039 C  
BRANCH  23  24
HETATM   24  C   UNL     1      -7.307   8.567  70.864  1.00  0.00    -0.068 C  
HETATM   25  H   UNL     1      -7.929  10.322  70.187  1.00  0.00     0.000 HD 
HETATM   26  O   UNL     1      -7.388   9.603  69.881  1.00  0.00    -0.087 OA 
ENDBRANCH  23  24
BRANCH  23  27
HETATM   27  C   UNL     1      -6.166   7.537  68.856  1.00  0.00    -0.035 C  
HETATM   28  C   UNL     1      -7.034   6.639  67.987  1.00  0.00    -0.080 C  
ENDBRANCH  23  27
ENDBRANCH  21  23
ENDBRANCH  15  19
TORSDOF 4
ENDMDL
MODEL       94
REMARK 921   NORMALIZED FREE ENERGY PREDICTED BY IDOCK:   -3.97 KCAL/MOL
REMARK 922        TOTAL FREE ENERGY PREDICTED BY IDOCK:   -5.99 KCAL/MOL
REMARK 923 INTER-LIGAND FREE ENERGY PREDICTED BY IDOCK:   -5.21 KCAL/MOL
REMARK 924 INTRA-LIGAND FREE ENERGY PREDICTED BY IDOCK:   -0.78 KCAL/MOL
REMARK 927      BINDING AFFINITY PREDICTED BY RF-SCORE:    0.00 PKD
ROOT
HETATM    1  C   UNL     1      -8.239   8.910  66.970  1.00  0.00    -0.106 C  
HETATM    2  C   UNL     1      -6.808   8.324  66.923  1.00  0.00    -0.069 C  
HETATM    3  C   UNL     1      -6.851   7.005  67.619  1.00  0.00    -0.074 A  
HETATM    4  C   UNL     1      -6.058   6.381  68.549  1.00  0.00    -0.025 A  
HETATM    5  N   UNL     1      -6.590   5.126  68.763  1.00  0.00    -0.047 NA 
HETATM    6  H   UNL     1      -6.190   4.422  69.384  1.00  0.00     0.000 HD 
HETATM    7  C   UNL     1      -7.739   4.956  68.018  1.00  0.00    -0.083 A  
HETATM    8  C   UNL     1      -8.607   3.880  67.839  1.00  0.00    -0.111 A  
HETATM    9  C   UNL     1      -9.760   4.123  67.068  1.00  0.00    -0.230 A  
HETATM   10  C   UNL     1     -10.088   5.412  66.605  1.00  0.00    -0.250 A  
HETATM   11  C   UNL     1      -9.215   6.482  66.827  1.00  0.00    -0.163 A  
HETATM   12  C   UNL     1      -9.447   7.943  66.753  1.00  0.00    -0.257 C  
HETATM   13  C   UNL     1      -7.985   6.182  67.431  1.00  0.00    -0.105 A  
HETATM   14  C   UNL     1     -10.669   8.485  66.939  1.00  0.00    -0.156 C  
HETATM   15  C   UNL     1     -10.715   9.892  67.541  1.00  0.00    -0.333 C  
HETATM   16  C   UNL     1      -8.537  10.094  64.830  1.00  0.00    -0.181 C  
HETATM   17  C   UNL     1      -9.656  10.847  66.893  1.00  0.00    -0.178 C  
HETATM   18  N   UNL     1      -8.456  10.207  66.286  1.00  0.00    -0.126 NA 
ENDROOT
BRANCH  15  19
HETATM   19  C   UNL     1     -10.458   9.724  69.077  1.00  0.00    -0.213 C  
HETATM   20  O   UNL     1      -9.548  10.296  69.682  1.00  0.00    -0.215 OA 
HETATM   21  N   UNL     1     -11.302   8.827  69.702  1.00  0.00    -0.434 N  
HETATM   22  H   UNL     1     -12.179   8.594  69.236  1.00  0.00     0.000 HD 
BRANCH  21  23
HETATM   23  CA  UNL     1     -11.019   8.190  70.991  1.00  0.00    -0.244 C  
BRANCH  23  24
HETATM   24  C   UNL     1     -11.357   6.681  70.872  1.00  0.00    -0.325 C  
HETATM   25  H   UNL     1     -11.796   5.388  69.436  1.00  0.00     0.000 HD 
HETATM   26  O   UNL     1     -11.589   6.312  69.509  1.00  0.00    -0.423 OA 
ENDBRANCH  23  24
BRANCH  23  27
HETATM   27  C   UNL     1     -11.826   8.820  72.136  1.00  0.00    -0.436 C  
HETATM   28  C   UNL     1     -13.333   8.713  71.969  1.00  0.00    -0.428 C  
ENDBRANCH  23  27
ENDBRANCH  21  23
ENDBRANCH  15  19
TORSDOF 4
ENDMDL
MODEL       95
REMARK 921   NORMALIZED FREE ENERGY PREDICTED BY IDOCK:   -3.95 KCAL/MOL
REMARK 922        TOTAL FREE ENERGY PREDICTED BY IDOCK:   -5.97 KCAL/MOL
REMARK 923 INTER-LIGAND FREE ENERGY PREDICTED BY IDOCK:   -6.71 KCAL/MOL
REMARK 924 INTRA-LIGAND FREE ENERGY PREDICTED BY IDOCK:    0.74 KCAL/MOL
REMARK 927      BINDING AFFINITY PREDICTED BY RF-SCORE:    0.00 PKD
ROOT
HETATM    1  C   UNL     1     -10.000  10.346  67.235  1.00  0.00    -0.188 C  
HETATM    2  C   UNL     1     -11.213  10.796  68.083  1.00  0.00    -0.365 C  
HETATM    3  C   UNL     1     -11.613  12.147  67.594  1.00  0.00    -0.413 A  
HETATM    4  C   UNL     1     -11.950  13.330  68.203  1.00  0.00    -0.304 A  
HETATM    5  N   UNL     1     -12.288  14.221  67.206  1.00  0.00    -0.592 NA 
HETATM    6  H   UNL     1     -12.612  15.176  67.363  1.00  0.00     0.000 HD 
HETATM    7  C   UNL     1     -12.126  13.640  65.966  1.00  0.00    -0.441 A  
HETATM    8  C   UNL     1     -12.373  14.083  64.666  1.00  0.00    -0.425 A  
HETATM    9  C   UNL     1     -11.973  13.227  63.623  1.00  0.00    -0.547 A  
HETATM   10  C   UNL     1     -11.248  12.044  63.866  1.00  0.00    -0.490 A  
HETATM   11  C   UNL     1     -10.986  11.639  65.178  1.00  0.00    -0.326 A  
HETATM   12  C   UNL     1     -10.003  10.663  65.705  1.00  0.00    -0.327 C  
HETATM   13  C   UNL     1     -11.556  12.405  66.206  1.00  0.00    -0.449 A  
HETATM   14  C   UNL     1      -8.863  10.368  65.045  1.00  0.00    -0.209 C  
HETATM   15  C   UNL     1      -7.655   9.972  65.900  1.00  0.00    -0.114 C  
HETATM   16  C   UNL     1     -10.265   7.914  66.942  1.00  0.00    -0.310 C  
HETATM   17  C   UNL     1      -8.041   8.971  67.041  1.00  0.00    -0.106 C  
HETATM   18  N   UNL     1      -9.456   8.994  67.505  1.00  0.00    -0.135 NA 
ENDROOT
BRANCH  15  19
HETATM   19  C   UNL     1      -7.076  11.303  66.488  1.00  0.00    -0.097 C  
HETATM   20  O   UNL     1      -6.032  11.826  66.091  1.00  0.00    -0.094 OA 
HETATM   21  N   UNL     1      -7.801  11.824  67.541  1.00  0.00    -0.139 N  
HETATM   22  H   UNL     1      -8.768  11.519  67.651  1.00  0.00     0.000 HD 
BRANCH  21  23
HETATM   23  CA  UNL     1      -7.271  12.788  68.510  1.00  0.00    -0.114 C  
BRANCH  23  24
HETATM   24  C   UNL     1      -7.013  14.128  67.773  1.00  0.00    -0.177 C  
HETATM   25  H   UNL     1      -7.824  15.933  67.691  1.00  0.00     0.000 HD 
HETATM   26  O   UNL     1      -7.982  15.113  68.143  1.00  0.00    -0.119 OA 
ENDBRANCH  23  24
BRANCH  23  27
HETATM   27  C   UNL     1      -5.974  12.291  69.167  1.00  0.00    -0.080 C  
HETATM   28  C   UNL     1      -6.171  11.143  70.144  1.00  0.00    -0.147 C  
ENDBRANCH  23  27
ENDBRANCH  21  23
ENDBRANCH  15  19
TORSDOF 4
ENDMDL
MODEL       96
REMARK 921   NORMALIZED FREE ENERGY PREDICTED BY IDOCK:   -3.95 KCAL/MOL
REMARK 922        TOTAL FREE ENERGY PREDICTED BY IDOCK:   -5.96 KCAL/MOL
REMARK 923 INTER-LIGAND FREE ENERGY PREDICTED BY IDOCK:   -5.77 KCAL/MOL
REMARK 924 INTRA-LIGAND FREE ENERGY PREDICTED BY IDOCK:   -0.19 KCAL/MOL
REMARK 927      BINDING AFFINITY PREDICTED BY RF-SCORE:    0.00 PKD
ROOT
HETATM    1  C   UNL     1      -8.517   8.523  70.481  1.00  0.00    -0.137 C  
HETATM    2  C   UNL     1      -8.657   9.955  69.910  1.00  0.00    -0.216 C  
HETATM    3  C   UNL     1     -10.107  10.179  69.640  1.00  0.00    -0.265 A  
HETATM    4  C   UNL     1     -10.820  10.711  68.594  1.00  0.00    -0.227 A  
HETATM    5  N   UNL     1     -12.150  10.703  68.961  1.00  0.00    -0.714 NA 
HETATM    6  H   UNL     1     -12.913  11.070  68.392  1.00  0.00     0.000 HD 
HETATM    7  C   UNL     1     -12.303  10.130  70.207  1.00  0.00    -0.138 A  
HETATM    8  C   UNL     1     -13.407   9.931  71.035  1.00  0.00    -0.322 A  
HETATM    9  C   UNL     1     -13.184   9.196  72.215  1.00  0.00    -0.528 A  
HETATM   10  C   UNL     1     -11.946   8.585  72.490  1.00  0.00    -0.401 A  
HETATM   11  C   UNL     1     -10.862   8.774  71.625  1.00  0.00    -0.399 A  
HETATM   12  C   UNL     1      -9.597   8.016  71.490  1.00  0.00    -0.209 C  
HETATM   13  C   UNL     1     -11.050   9.662  70.556  1.00  0.00    -0.369 A  
HETATM   14  C   UNL     1      -9.498   6.718  71.848  1.00  0.00    -0.146 C  
HETATM   15  C   UNL     1      -8.495   5.863  71.068  1.00  0.00    -0.124 C  
HETATM   16  C   UNL     1      -6.714   8.653  72.155  1.00  0.00    -0.060 C  
HETATM   17  C   UNL     1      -7.129   6.600  70.855  1.00  0.00    -0.069 C  
HETATM   18  N   UNL     1      -7.158   8.089  70.880  1.00  0.00    -0.048 NA 
ENDROOT
BRANCH  15  19
HETATM   19  C   UNL     1      -9.174   5.526  69.697  1.00  0.00    -0.132 C  
HETATM   20  O   UNL     1     -10.390   5.381  69.557  1.00  0.00    -0.244 OA 
HETATM   21  N   UNL     1      -8.290   5.344  68.652  1.00  0.00    -0.094 N  
HETATM   22  H   UNL     1      -7.350   5.728  68.750  1.00  0.00     0.000 HD 
BRANCH  21  23
HETATM   23  CA  UNL     1      -8.615   4.634  67.412  1.00  0.00    -0.104 C  
BRANCH  23  24
HETATM   24  C   UNL     1      -9.358   5.615  66.469  1.00  0.00    -0.150 C  
HETATM   25  H   UNL     1     -11.153   5.776  65.644  1.00  0.00     0.000 HD 
HETATM   26  O   UNL     1     -10.697   5.175  66.222  1.00  0.00    -0.310 OA 
ENDBRANCH  23  24
BRANCH  23  27
HETATM   27  C   UNL     1      -9.484   3.392  67.669  1.00  0.00    -0.231 C  
HETATM   28  C   UNL     1      -8.735   2.074  67.555  1.00  0.00    -0.134 C  
ENDBRANCH  23  27
ENDBRANCH  21  23
ENDBRANCH  15  19
TORSDOF 4
ENDMDL
MODEL       97
REMARK 921   NORMALIZED FREE ENERGY PREDICTED BY IDOCK:   -3.94 KCAL/MOL
REMARK 922        TOTAL FREE ENERGY PREDICTED BY IDOCK:   -5.96 KCAL/MOL
REMARK 923 INTER-LIGAND FREE ENERGY PREDICTED BY IDOCK:   -6.34 KCAL/MOL
REMARK 924 INTRA-LIGAND FREE ENERGY PREDICTED BY IDOCK:    0.38 KCAL/MOL
REMARK 927      BINDING AFFINITY PREDICTED BY RF-SCORE:    0.00 PKD
ROOT
HETATM    1  C   UNL     1      -9.060  10.430  69.112  1.00  0.00    -0.187 C  
HETATM    2  C   UNL     1      -8.001   9.911  70.114  1.00  0.00    -0.181 C  
HETATM    3  C   UNL     1      -8.663   8.866  70.949  1.00  0.00    -0.256 A  
HETATM    4  C   UNL     1      -8.695   8.586  72.292  1.00  0.00    -0.190 A  
HETATM    5  N   UNL     1      -9.442   7.437  72.452  1.00  0.00    -0.148 NA 
HETATM    6  H   UNL     1      -9.611   6.972  73.344  1.00  0.00     0.000 HD 
HETATM    7  C   UNL     1      -9.929   7.006  71.236  1.00  0.00    -0.189 A  
HETATM    8  C   UNL     1     -10.678   5.895  70.849  1.00  0.00    -0.338 A  
HETATM    9  C   UNL     1     -11.085   5.849  69.502  1.00  0.00    -0.403 A  
HETATM   10  C   UNL     1     -10.860   6.921  68.618  1.00  0.00    -0.236 A  
HETATM   11  C   UNL     1     -10.134   8.039  69.041  1.00  0.00    -0.206 A  
HETATM   12  C   UNL     1     -10.037   9.399  68.460  1.00  0.00    -0.208 C  
HETATM   13  C   UNL     1      -9.575   7.984  70.327  1.00  0.00    -0.171 A  
HETATM   14  C   UNL     1     -11.022   9.926  67.702  1.00  0.00    -0.263 C  
HETATM   15  C   UNL     1     -11.190  11.447  67.752  1.00  0.00    -0.346 C  
HETATM   16  C   UNL     1      -7.828  10.892  67.029  1.00  0.00    -0.132 C  
HETATM   17  C   UNL     1      -9.817  12.197  67.673  1.00  0.00    -0.194 C  
HETATM   18  N   UNL     1      -8.615  11.447  68.131  1.00  0.00    -0.147 NA 
ENDROOT
BRANCH  15  19
HETATM   19  C   UNL     1     -11.931  11.765  69.095  1.00  0.00    -0.293 C  
HETATM   20  O   UNL     1     -12.930  11.155  69.483  1.00  0.00    -0.031 OA 
HETATM   21  N   UNL     1     -11.410  12.835  69.794  1.00  0.00    -0.495 N  
HETATM   22  H   UNL     1     -10.455  13.124  69.581  1.00  0.00     0.000 HD 
BRANCH  21  23
HETATM   23  CA  UNL     1     -12.139  13.581  70.823  1.00  0.00    -0.271 C  
BRANCH  23  24
HETATM   24  C   UNL     1     -13.236  12.656  71.411  1.00  0.00    -0.127 C  
HETATM   25  H   UNL     1     -14.338  12.553  73.054  1.00  0.00     0.000 HD 
HETATM   26  O   UNL     1     -13.666  13.120  72.694  1.00  0.00    -0.651 OA 
ENDBRANCH  23  24
BRANCH  23  27
HETATM   27  C   UNL     1     -12.777  14.863  70.264  1.00  0.00    -0.317 C  
HETATM   28  C   UNL     1     -11.829  15.724  69.444  1.00  0.00    -0.361 C  
ENDBRANCH  23  27
ENDBRANCH  21  23
ENDBRANCH  15  19
TORSDOF 4
ENDMDL
MODEL       98
REMARK 921   NORMALIZED FREE ENERGY PREDICTED BY IDOCK:   -3.93 KCAL/MOL
REMARK 922        TOTAL FREE ENERGY PREDICTED BY IDOCK:   -5.94 KCAL/MOL
REMARK 923 INTER-LIGAND FREE ENERGY PREDICTED BY IDOCK:   -5.32 KCAL/MOL
REMARK 924 INTRA-LIGAND FREE ENERGY PREDICTED BY IDOCK:   -0.62 KCAL/MOL
REMARK 927      BINDING AFFINITY PREDICTED BY RF-SCORE:    0.00 PKD
ROOT
HETATM    1  C   UNL     1      -9.314  10.172  65.051  1.00  0.00    -0.243 C  
HETATM    2  C   UNL     1     -10.345  11.192  64.511  1.00  0.00    -0.400 C  
HETATM    3  C   UNL     1     -10.776  12.033  65.665  1.00  0.00    -0.313 A  
HETATM    4  C   UNL     1     -11.987  12.483  66.128  1.00  0.00    -0.366 A  
HETATM    5  N   UNL     1     -11.733  13.285  67.222  1.00  0.00    -0.358 NA 
HETATM    6  H   UNL     1     -12.445  13.785  67.755  1.00  0.00     0.000 HD 
HETATM    7  C   UNL     1     -10.381  13.315  67.494  1.00  0.00    -0.229 A  
HETATM    8  C   UNL     1      -9.614  13.998  68.438  1.00  0.00    -0.222 A  
HETATM    9  C   UNL     1      -8.242  13.684  68.480  1.00  0.00    -0.112 A  
HETATM   10  C   UNL     1      -7.691  12.648  67.702  1.00  0.00    -0.155 A  
HETATM   11  C   UNL     1      -8.489  11.956  66.786  1.00  0.00    -0.167 A  
HETATM   12  C   UNL     1      -8.271  10.657  66.108  1.00  0.00    -0.156 C  
HETATM   13  C   UNL     1      -9.807  12.410  66.623  1.00  0.00    -0.231 A  
HETATM   14  C   UNL     1      -7.488   9.695  66.641  1.00  0.00    -0.094 C  
HETATM   15  C   UNL     1      -7.859   8.245  66.314  1.00  0.00    -0.098 C  
HETATM   16  C   UNL     1      -7.661   9.885  63.247  1.00  0.00    -0.137 C  
HETATM   17  C   UNL     1      -8.213   8.053  64.801  1.00  0.00    -0.121 C  
HETATM   18  N   UNL     1      -8.697   9.254  64.065  1.00  0.00    -0.198 NA 
ENDROOT
BRANCH  15  19
HETATM   19  C   UNL     1      -9.079   7.886  67.229  1.00  0.00    -0.135 C  
HETATM   20  O   UNL     1     -10.229   7.744  66.807  1.00  0.00    -0.273 OA 
HETATM   21  N   UNL     1      -8.777   7.795  68.573  1.00  0.00    -0.128 N  
HETATM   22  H   UNL     1      -7.801   7.656  68.834  1.00  0.00     0.000 HD 
BRANCH  21  23
HETATM   23  CA  UNL     1      -9.768   7.887  69.649  1.00  0.00    -0.173 C  
BRANCH  23  24
HETATM   24  C   UNL     1     -10.417   6.491  69.833  1.00  0.00    -0.213 C  
HETATM   25  H   UNL     1     -12.241   5.720  69.889  1.00  0.00     0.000 HD 
HETATM   26  O   UNL     1     -11.844   6.576  69.776  1.00  0.00    -0.345 OA 
ENDBRANCH  23  24
BRANCH  23  27
HETATM   27  C   UNL     1     -10.852   8.934  69.347  1.00  0.00    -0.133 C  
HETATM   28  C   UNL     1     -10.558  10.315  69.913  1.00  0.00    -0.324 C  
ENDBRANCH  23  27
ENDBRANCH  21  23
ENDBRANCH  15  19
TORSDOF 4
ENDMDL
MODEL       99
REMARK 921   NORMALIZED FREE ENERGY PREDICTED BY IDOCK:   -3.93 KCAL/MOL
REMARK 922        TOTAL FREE ENERGY PREDICTED BY IDOCK:   -5.94 KCAL/MOL
REMARK 923 INTER-LIGAND FREE ENERGY PREDICTED BY IDOCK:   -4.90 KCAL/MOL
REMARK 924 INTRA-LIGAND FREE ENERGY PREDICTED BY IDOCK:   -1.04 KCAL/MOL
REMARK 927      BINDING AFFINITY PREDICTED BY RF-SCORE:    0.00 PKD
ROOT
HETATM    1  C   UNL     1      -8.071   7.293  67.397  1.00  0.00    -0.113 C  
HETATM    2  C   UNL     1      -7.130   6.629  68.430  1.00  0.00    -0.083 C  
HETATM    3  C   UNL     1      -7.718   6.873  69.779  1.00  0.00    -0.113 A  
HETATM    4  C   UNL     1      -7.214   7.277  70.990  1.00  0.00    -0.073 A  
HETATM    5  N   UNL     1      -8.257   7.258  71.893  1.00  0.00    -0.102 NA 
HETATM    6  H   UNL     1      -8.172   7.482  72.885  1.00  0.00     0.000 HD 
HETATM    7  C   UNL     1      -9.430   6.894  71.267  1.00  0.00    -0.165 A  
HETATM    8  C   UNL     1     -10.729   6.679  71.727  1.00  0.00    -0.257 A  
HETATM    9  C   UNL     1     -11.708   6.416  70.750  1.00  0.00    -0.378 A  
HETATM   10  C   UNL     1     -11.424   6.489  69.373  1.00  0.00    -0.346 A  
HETATM   11  C   UNL     1     -10.119   6.739  68.937  1.00  0.00    -0.170 A  
HETATM   12  C   UNL     1      -9.614   7.183  67.617  1.00  0.00    -0.152 C  
HETATM   13  C   UNL     1      -9.123   6.810  69.923  1.00  0.00    -0.144 A  
HETATM   14  C   UNL     1     -10.378   7.894  66.761  1.00  0.00    -0.357 C  
HETATM   15  C   UNL     1      -9.649   8.874  65.837  1.00  0.00    -0.293 C  
HETATM   16  C   UNL     1      -8.038   5.812  65.428  1.00  0.00    -0.131 C  
HETATM   17  C   UNL     1      -8.357   8.247  65.212  1.00  0.00    -0.166 C  
HETATM   18  N   UNL     1      -7.717   7.134  65.966  1.00  0.00    -0.095 NA 
ENDROOT
BRANCH  15  19
HETATM   19  C   UNL     1      -9.302  10.128  66.710  1.00  0.00    -0.160 C  
HETATM   20  O   UNL     1      -8.180  10.637  66.754  1.00  0.00    -0.123 OA 
HETATM   21  N   UNL     1     -10.348  10.592  67.482  1.00  0.00    -0.202 N  
HETATM   22  H   UNL     1     -11.294  10.319  67.217  1.00  0.00     0.000 HD 
BRANCH  21  23
HETATM   23  CA  UNL     1     -10.186  11.451  68.659  1.00  0.00    -0.208 C  
BRANCH  23  24
HETATM   24  C   UNL     1     -10.175  10.552  69.921  1.00  0.00    -0.061 C  
HETATM   25  H   UNL     1     -11.426   9.338  70.864  1.00  0.00     0.000 HD 
HETATM   26  O   UNL     1     -11.432   9.890  70.090  1.00  0.00    -0.250 OA 
ENDBRANCH  23  24
BRANCH  23  27
HETATM   27  C   UNL     1     -11.306  12.497  68.768  1.00  0.00    -0.337 C  
HETATM   28  C   UNL     1     -11.900  12.916  67.432  1.00  0.00    -0.418 C  
ENDBRANCH  23  27
ENDBRANCH  21  23
ENDBRANCH  15  19
TORSDOF 4
ENDMDL
MODEL      100
REMARK 921   NORMALIZED FREE ENERGY PREDICTED BY IDOCK:   -3.93 KCAL/MOL
REMARK 922        TOTAL FREE ENERGY PREDICTED BY IDOCK:   -5.94 KCAL/MOL
REMARK 923 INTER-LIGAND FREE ENERGY PREDICTED BY IDOCK:   -5.98 KCAL/MOL
REMARK 924 INTRA-LIGAND FREE ENERGY PREDICTED BY IDOCK:    0.05 KCAL/MOL
REMARK 927      BINDING AFFINITY PREDICTED BY RF-SCORE:    0.00 PKD
ROOT
HETATM    1  C   UNL     1     -10.217  13.749  68.346  1.00  0.00    -0.248 C  
HETATM    2  C   UNL     1     -10.154  12.205  68.272  1.00  0.00    -0.210 C  
HETATM    3  C   UNL     1      -8.911  11.852  67.526  1.00  0.00    -0.171 A  
HETATM    4  C   UNL     1      -8.611  10.968  66.520  1.00  0.00    -0.165 A  
HETATM    5  N   UNL     1      -7.253  11.058  66.290  1.00  0.00    -0.250 NA 
HETATM    6  H   UNL     1      -6.739  10.492  65.614  1.00  0.00     0.000 HD 
HETATM    7  C   UNL     1      -6.689  12.020  67.101  1.00  0.00    -0.136 A  
HETATM    8  C   UNL     1      -5.379  12.455  67.293  1.00  0.00    -0.072 A  
HETATM    9  C   UNL     1      -5.201  13.558  68.149  1.00  0.00    -0.106 A  
HETATM   10  C   UNL     1      -6.292  14.268  68.686  1.00  0.00    -0.088 A  
HETATM   11  C   UNL     1      -7.599  13.830  68.451  1.00  0.00    -0.135 A  
HETATM   12  C   UNL     1      -8.892  14.536  68.602  1.00  0.00    -0.180 C  
HETATM   13  C   UNL     1      -7.748  12.621  67.755  1.00  0.00    -0.145 A  
HETATM   14  C   UNL     1      -8.987  15.881  68.521  1.00  0.00    -0.199 C  
HETATM   15  C   UNL     1     -10.304  16.448  67.983  1.00  0.00    -0.288 C  
HETATM   16  C   UNL     1     -11.193  14.265  70.549  1.00  0.00     0.110 C  
HETATM   17  C   UNL     1     -11.552  15.729  68.598  1.00  0.00    -0.386 C  
HETATM   18  N   UNL     1     -11.350  14.340  69.096  1.00  0.00    -0.262 NA 
ENDROOT
BRANCH  15  19
HETATM   19  C   UNL     1     -10.259  16.268  66.428  1.00  0.00    -0.313 C  
HETATM   20  O   UNL     1     -10.132  17.205  65.637  1.00  0.00    -0.561 OA 
HETATM   21  N   UNL     1     -10.433  14.967  65.999  1.00  0.00    -0.299 N  
HETATM   22  H   UNL     1     -10.267  14.217  66.670  1.00  0.00     0.000 HD 
BRANCH  21  23
HETATM   23  CA  UNL     1     -10.842  14.595  64.641  1.00  0.00    -0.313 C  
BRANCH  23  24
HETATM   24  C   UNL     1     -12.377  14.780  64.527  1.00  0.00    -0.366 C  
HETATM   25  H   UNL     1     -13.645  15.857  63.451  1.00  0.00     0.000 HD 
HETATM   26  O   UNL     1     -12.705  15.744  63.522  1.00  0.00    -0.209 OA 
ENDBRANCH  23  24
BRANCH  23  27
HETATM   27  C   UNL     1     -10.461  13.146  64.301  1.00  0.00    -0.410 C  
HETATM   28  C   UNL     1     -11.565  12.356  63.615  1.00  0.00    -0.580 C  
ENDBRANCH  23  27
ENDBRANCH  21  23
ENDBRANCH  15  19
TORSDOF 4
ENDMDL
MODEL      101
REMARK 921   NORMALIZED FREE ENERGY PREDICTED BY IDOCK:   -3.89 KCAL/MOL
REMARK 922        TOTAL FREE ENERGY PREDICTED BY IDOCK:   -5.89 KCAL/MOL
REMARK 923 INTER-LIGAND FREE ENERGY PREDICTED BY IDOCK:   -4.77 KCAL/MOL
REMARK 924 INTRA-LIGAND FREE ENERGY PREDICTED BY IDOCK:   -1.12 KCAL/MOL
REMARK 927      BINDING AFFINITY PREDICTED BY RF-SCORE:    0.00 PKD
ROOT
HETATM    1  C   UNL     1     -10.331   7.883  71.001  1.00  0.00    -0.201 C  
HETATM    2  C   UNL     1      -9.806   9.326  71.194  1.00  0.00    -0.342 C  
HETATM    3  C   UNL     1      -8.897   9.619  70.047  1.00  0.00    -0.259 A  
HETATM    4  C   UNL     1      -7.657  10.194  69.925  1.00  0.00    -0.166 A  
HETATM    5  N   UNL     1      -7.359  10.241  68.579  1.00  0.00    -0.080 NA 
HETATM    6  H   UNL     1      -6.511  10.648  68.184  1.00  0.00     0.000 HD 
HETATM    7  C   UNL     1      -8.370   9.661  67.842  1.00  0.00    -0.117 A  
HETATM    8  C   UNL     1      -8.580   9.501  66.472  1.00  0.00    -0.142 A  
HETATM    9  C   UNL     1      -9.704   8.744  66.091  1.00  0.00    -0.320 A  
HETATM   10  C   UNL     1     -10.506   8.074  67.036  1.00  0.00    -0.410 A  
HETATM   11  C   UNL     1     -10.254   8.225  68.403  1.00  0.00    -0.242 A  
HETATM   12  C   UNL     1     -10.702   7.413  69.558  1.00  0.00    -0.233 C  
HETATM   13  C   UNL     1      -9.249   9.133  68.768  1.00  0.00    -0.136 A  
HETATM   14  C   UNL     1     -11.024   6.108  69.434  1.00  0.00    -0.454 C  
HETATM   15  C   UNL     1     -10.776   5.218  70.656  1.00  0.00    -0.201 C  
HETATM   16  C   UNL     1     -12.656   7.913  71.814  1.00  0.00    -0.328 C  
HETATM   17  C   UNL     1     -11.250   5.896  71.986  1.00  0.00    -0.273 C  
HETATM   18  N   UNL     1     -11.305   7.384  72.000  1.00  0.00    -0.255 NA 
ENDROOT
BRANCH  15  19
HETATM   19  C   UNL     1      -9.238   4.928  70.687  1.00  0.00    -0.136 C  
HETATM   20  O   UNL     1      -8.574   4.878  71.725  1.00  0.00    -0.123 OA 
HETATM   21  N   UNL     1      -8.658   4.789  69.441  1.00  0.00    -0.082 N  
HETATM   22  H   UNL     1      -9.269   4.575  68.653  1.00  0.00     0.000 HD 
BRANCH  21  23
HETATM   23  CA  UNL     1      -7.223   4.930  69.179  1.00  0.00    -0.053 C  
BRANCH  23  24
HETATM   24  C   UNL     1      -6.996   6.260  68.414  1.00  0.00    -0.080 C  
HETATM   25  H   UNL     1      -6.116   8.004  68.742  1.00  0.00     0.000 HD 
HETATM   26  O   UNL     1      -6.255   7.190  69.210  1.00  0.00    -0.032 OA 
ENDBRANCH  23  24
BRANCH  23  27
HETATM   27  C   UNL     1      -6.667   3.753  68.363  1.00  0.00    -0.046 C  
HETATM   28  C   UNL     1      -7.643   2.599  68.190  1.00  0.00    -0.055 C  
ENDBRANCH  23  27
ENDBRANCH  21  23
ENDBRANCH  15  19
TORSDOF 4
ENDMDL
MODEL      102
REMARK 921   NORMALIZED FREE ENERGY PREDICTED BY IDOCK:   -3.84 KCAL/MOL
REMARK 922        TOTAL FREE ENERGY PREDICTED BY IDOCK:   -5.83 KCAL/MOL
REMARK 923 INTER-LIGAND FREE ENERGY PREDICTED BY IDOCK:   -4.71 KCAL/MOL
REMARK 924 INTRA-LIGAND FREE ENERGY PREDICTED BY IDOCK:   -1.12 KCAL/MOL
REMARK 927      BINDING AFFINITY PREDICTED BY RF-SCORE:    0.00 PKD
ROOT
HETATM    1  C   UNL     1      -9.667  11.920  68.304  1.00  0.00    -0.200 C  
HETATM    2  C   UNL     1      -8.436  12.764  67.897  1.00  0.00    -0.173 C  
HETATM    3  C   UNL     1      -7.546  11.881  67.090  1.00  0.00    -0.154 A  
HETATM    4  C   UNL     1      -6.196  11.631  67.073  1.00  0.00    -0.144 A  
HETATM    5  N   UNL     1      -5.957  10.745  66.043  1.00  0.00    -0.127 NA 
HETATM    6  H   UNL     1      -5.035  10.403  65.771  1.00  0.00     0.000 HD 
HETATM    7  C   UNL     1      -7.141  10.387  65.432  1.00  0.00    -0.117 A  
HETATM    8  C   UNL     1      -7.440   9.579  64.335  1.00  0.00    -0.118 A  
HETATM    9  C   UNL     1      -8.805   9.360  64.068  1.00  0.00    -0.210 A  
HETATM   10  C   UNL     1      -9.817   9.824  64.931  1.00  0.00    -0.183 A  
HETATM   11  C   UNL     1      -9.487  10.605  66.043  1.00  0.00    -0.233 A  
HETATM   12  C   UNL     1     -10.273  10.934  67.255  1.00  0.00    -0.242 C  
HETATM   13  C   UNL     1      -8.140  10.971  66.186  1.00  0.00    -0.141 A  
HETATM   14  C   UNL     1     -11.257  10.129  67.710  1.00  0.00    -0.205 C  
HETATM   15  C   UNL     1     -11.501  10.127  69.222  1.00  0.00    -0.168 C  
HETATM   16  C   UNL     1     -11.578  13.474  68.257  1.00  0.00    -0.346 C  
HETATM   17  C   UNL     1     -11.493  11.573  69.824  1.00  0.00    -0.286 C  
HETATM   18  N   UNL     1     -10.729  12.609  69.075  1.00  0.00    -0.152 NA 
ENDROOT
BRANCH  15  19
HETATM   19  C   UNL     1     -10.368   9.247  69.850  1.00  0.00    -0.220 C  
HETATM   20  O   UNL     1      -9.757   9.555  70.876  1.00  0.00    -0.259 OA 
HETATM   21  N   UNL     1     -10.059   8.113  69.127  1.00  0.00    -0.197 N  
HETATM   22  H   UNL     1     -10.750   7.771  68.459  1.00  0.00     0.000 HD 
BRANCH  21  23
HETATM   23  CA  UNL     1      -8.803   7.369  69.258  1.00  0.00    -0.136 C  
BRANCH  23  24
HETATM   24  C   UNL     1      -7.995   7.545  67.946  1.00  0.00    -0.119 C  
HETATM   25  H   UNL     1      -6.328   8.444  67.365  1.00  0.00     0.000 HD 
HETATM   26  O   UNL     1      -6.823   8.336  68.168  1.00  0.00    -0.066 OA 
ENDBRANCH  23  24
BRANCH  23  27
HETATM   27  C   UNL     1      -9.043   5.875  69.530  1.00  0.00    -0.140 C  
HETATM   28  C   UNL     1     -10.436   5.553  70.049  1.00  0.00    -0.373 C  
ENDBRANCH  23  27
ENDBRANCH  21  23
ENDBRANCH  15  19
TORSDOF 4
ENDMDL
MODEL      103
REMARK 921   NORMALIZED FREE ENERGY PREDICTED BY IDOCK:   -3.82 KCAL/MOL
REMARK 922        TOTAL FREE ENERGY PREDICTED BY IDOCK:   -5.81 KCAL/MOL
REMARK 923 INTER-LIGAND FREE ENERGY PREDICTED BY IDOCK:   -5.57 KCAL/MOL
REMARK 924 INTRA-LIGAND FREE ENERGY PREDICTED BY IDOCK:   -0.24 KCAL/MOL
REMARK 927      BINDING AFFINITY PREDICTED BY RF-SCORE:    0.00 PKD
ROOT
HETATM    1  C   UNL     1     -10.781  16.209  66.565  1.00  0.00    -0.220 C  
HETATM    2  C   UNL     1     -11.035  17.730  66.693  1.00  0.00     0.199 C  
HETATM    3  C   UNL     1     -10.007  18.268  67.631  1.00  0.00    -0.348 A  
HETATM    4  C   UNL     1     -10.036  19.132  68.697  1.00  0.00    -0.419 A  
HETATM    5  N   UNL     1      -8.735  19.290  69.130  1.00  0.00    -0.217 NA 
HETATM    6  H   UNL     1      -8.446  19.903  69.893  1.00  0.00     0.000 HD 
HETATM    7  C   UNL     1      -7.881  18.502  68.387  1.00  0.00    -0.310 A  
HETATM    8  C   UNL     1      -6.497  18.336  68.385  1.00  0.00    -0.208 A  
HETATM    9  C   UNL     1      -5.983  17.339  67.534  1.00  0.00    -0.158 A  
HETATM   10  C   UNL     1      -6.823  16.467  66.816  1.00  0.00    -0.225 A  
HETATM   11  C   UNL     1      -8.211  16.634  66.860  1.00  0.00    -0.247 A  
HETATM   12  C   UNL     1      -9.304  15.705  66.492  1.00  0.00    -0.305 C  
HETATM   13  C   UNL     1      -8.694  17.750  67.561  1.00  0.00    -0.239 A  
HETATM   14  C   UNL     1      -9.142  14.364  66.518  1.00  0.00    -0.233 C  
HETATM   15  C   UNL     1     -10.385  13.526  66.831  1.00  0.00    -0.265 C  
HETATM   16  C   UNL     1     -11.306  15.647  64.224  1.00  0.00    -0.171 C  
HETATM   17  C   UNL     1     -11.648  14.029  66.052  1.00  0.00    -0.357 C  
HETATM   18  N   UNL     1     -11.654  15.458  65.633  1.00  0.00    -0.052 NA 
ENDROOT
BRANCH  15  19
HETATM   19  C   UNL     1     -10.602  13.620  68.379  1.00  0.00    -0.251 C  
HETATM   20  O   UNL     1      -9.685  13.557  69.201  1.00  0.00     0.144 OA 
HETATM   21  N   UNL     1     -11.924  13.721  68.765  1.00  0.00    -0.361 N  
HETATM   22  H   UNL     1     -12.601  14.033  68.069  1.00  0.00     0.000 HD 
BRANCH  21  23
HETATM   23  CA  UNL     1     -12.417  13.408  70.109  1.00  0.00    -0.174 C  
BRANCH  23  24
HETATM   24  C   UNL     1     -12.040  14.582  71.050  1.00  0.00    -0.344 C  
HETATM   25  H   UNL     1     -12.208  16.556  71.067  1.00  0.00     0.000 HD 
HETATM   26  O   UNL     1     -12.438  15.837  70.490  1.00  0.00    -0.414 OA 
ENDBRANCH  23  24
BRANCH  23  27
HETATM   27  C   UNL     1     -11.830  12.094  70.648  1.00  0.00    -0.065 C  
HETATM   28  C   UNL     1     -12.439  10.843  70.035  1.00  0.00    -0.332 C  
ENDBRANCH  23  27
ENDBRANCH  21  23
ENDBRANCH  15  19
TORSDOF 4
ENDMDL
MODEL      104
REMARK 921   NORMALIZED FREE ENERGY PREDICTED BY IDOCK:   -3.79 KCAL/MOL
REMARK 922        TOTAL FREE ENERGY PREDICTED BY IDOCK:   -5.76 KCAL/MOL
REMARK 923 INTER-LIGAND FREE ENERGY PREDICTED BY IDOCK:   -4.48 KCAL/MOL
REMARK 924 INTRA-LIGAND FREE ENERGY PREDICTED BY IDOCK:   -1.28 KCAL/MOL
REMARK 927      BINDING AFFINITY PREDICTED BY RF-SCORE:    0.00 PKD
ROOT
HETATM    1  C   UNL     1      -9.241   7.426  70.102  1.00  0.00    -0.151 C  
HETATM    2  C   UNL     1      -7.706   7.540  69.945  1.00  0.00    -0.098 C  
HETATM    3  C   UNL     1      -7.118   6.261  70.438  1.00  0.00    -0.071 A  
HETATM    4  C   UNL     1      -6.061   5.938  71.252  1.00  0.00    -0.034 A  
HETATM    5  N   UNL     1      -5.978   4.561  71.286  1.00  0.00    -0.016 NA 
HETATM    6  H   UNL     1      -5.264   4.033  71.788  1.00  0.00     0.000 HD 
HETATM    7  C   UNL     1      -6.996   3.998  70.544  1.00  0.00    -0.034 A  
HETATM    8  C   UNL     1      -7.325   2.682  70.221  1.00  0.00    -0.037 A  
HETATM    9  C   UNL     1      -8.527   2.488  69.514  1.00  0.00    -0.097 A  
HETATM   10  C   UNL     1      -9.417   3.548  69.254  1.00  0.00    -0.233 A  
HETATM   11  C   UNL     1      -9.078   4.855  69.618  1.00  0.00    -0.153 A  
HETATM   12  C   UNL     1      -9.924   6.062  69.765  1.00  0.00    -0.223 C  
HETATM   13  C   UNL     1      -7.795   5.054  70.149  1.00  0.00    -0.067 A  
HETATM   14  C   UNL     1     -11.241   5.982  70.050  1.00  0.00    -0.425 C  
HETATM   15  C   UNL     1     -11.843   7.138  70.855  1.00  0.00    -0.379 C  
HETATM   16  C   UNL     1     -10.193   8.617  68.167  1.00  0.00    -0.205 C  
HETATM   17  C   UNL     1     -11.358   8.534  70.338  1.00  0.00    -0.182 C  
HETATM   18  N   UNL     1     -10.052   8.570  69.623  1.00  0.00    -0.197 NA 
ENDROOT
BRANCH  15  19
HETATM   19  C   UNL     1     -11.416   6.908  72.344  1.00  0.00    -0.259 C  
HETATM   20  O   UNL     1     -11.216   7.824  73.145  1.00  0.00    -0.402 OA 
HETATM   21  N   UNL     1     -11.219   5.584  72.684  1.00  0.00    -0.286 N  
HETATM   22  H   UNL     1     -11.644   4.872  72.090  1.00  0.00     0.000 HD 
BRANCH  21  23
HETATM   23  CA  UNL     1     -10.439   5.137  73.841  1.00  0.00    -0.274 C  
BRANCH  23  24
HETATM   24  C   UNL     1      -8.973   5.603  73.649  1.00  0.00    -0.124 C  
HETATM   25  H   UNL     1      -7.158   4.817  73.774  1.00  0.00     0.000 HD 
HETATM   26  O   UNL     1      -8.057   4.531  73.891  1.00  0.00    -0.099 OA 
ENDBRANCH  23  24
BRANCH  23  27
HETATM   27  C   UNL     1     -10.486   3.610  74.014  1.00  0.00    -0.260 C  
HETATM   28  C   UNL     1     -10.588   2.839  72.707  1.00  0.00    -0.180 C  
ENDBRANCH  23  27
ENDBRANCH  21  23
ENDBRANCH  15  19
TORSDOF 4
ENDMDL
MODEL      105
REMARK 921   NORMALIZED FREE ENERGY PREDICTED BY IDOCK:   -3.77 KCAL/MOL
REMARK 922        TOTAL FREE ENERGY PREDICTED BY IDOCK:   -5.75 KCAL/MOL
REMARK 923 INTER-LIGAND FREE ENERGY PREDICTED BY IDOCK:   -5.65 KCAL/MOL
REMARK 924 INTRA-LIGAND FREE ENERGY PREDICTED BY IDOCK:   -0.10 KCAL/MOL
REMARK 927      BINDING AFFINITY PREDICTED BY RF-SCORE:    0.00 PKD
ROOT
HETATM    1  C   UNL     1      -7.860   9.810  66.365  1.00  0.00    -0.106 C  
HETATM    2  C   UNL     1      -6.543   9.770  67.176  1.00  0.00    -0.070 C  
HETATM    3  C   UNL     1      -6.906   9.944  68.612  1.00  0.00    -0.051 A  
HETATM    4  C   UNL     1      -6.412  10.701  69.645  1.00  0.00    -0.096 A  
HETATM    5  N   UNL     1      -7.141  10.380  70.771  1.00  0.00    -0.406 NA 
HETATM    6  H   UNL     1      -6.975  10.766  71.701  1.00  0.00     0.000 HD 
HETATM    7  C   UNL     1      -8.126   9.465  70.464  1.00  0.00    -0.184 A  
HETATM    8  C   UNL     1      -9.078   8.795  71.232  1.00  0.00    -0.300 A  
HETATM    9  C   UNL     1     -10.005   8.000  70.532  1.00  0.00    -0.193 A  
HETATM   10  C   UNL     1     -10.055   7.977  69.125  1.00  0.00    -0.202 A  
HETATM   11  C   UNL     1      -9.108   8.684  68.377  1.00  0.00    -0.138 A  
HETATM   12  C   UNL     1      -9.119   9.095  66.954  1.00  0.00    -0.163 C  
HETATM   13  C   UNL     1      -8.079   9.317  69.091  1.00  0.00    -0.106 A  
HETATM   14  C   UNL     1     -10.268   9.280  66.271  1.00  0.00    -0.273 C  
HETATM   15  C   UNL     1     -10.244  10.324  65.151  1.00  0.00    -0.295 C  
HETATM   16  C   UNL     1      -7.552   8.203  64.524  1.00  0.00    -0.113 C  
HETATM   17  C   UNL     1      -8.956  10.213  64.267  1.00  0.00    -0.237 C  
HETATM   18  N   UNL     1      -7.756   9.602  64.902  1.00  0.00    -0.114 NA 
ENDROOT
BRANCH  15  19
HETATM   19  C   UNL     1     -10.331  11.723  65.850  1.00  0.00    -0.241 C  
HETATM   20  O   UNL     1     -10.886  11.909  66.935  1.00  0.00    -0.239 OA 
HETATM   21  N   UNL     1      -9.782  12.759  65.122  1.00  0.00    -0.487 N  
HETATM   22  H   UNL     1      -9.117  12.524  64.385  1.00  0.00     0.000 HD 
BRANCH  21  23
HETATM   23  CA  UNL     1     -10.092  14.175  65.340  1.00  0.00    -0.333 C  
BRANCH  23  24
HETATM   24  C   UNL     1      -9.212  14.692  66.507  1.00  0.00    -0.266 C  
HETATM   25  H   UNL     1      -8.051  16.253  66.883  1.00  0.00     0.000 HD 
HETATM   26  O   UNL     1      -8.591  15.936  66.169  1.00  0.00    -0.330 OA 
ENDBRANCH  23  24
BRANCH  23  27
HETATM   27  C   UNL     1     -11.578  14.397  65.664  1.00  0.00    -0.347 C  
HETATM   28  C   UNL     1     -12.508  14.219  64.474  1.00  0.00    -0.357 C  
ENDBRANCH  23  27
ENDBRANCH  21  23
ENDBRANCH  15  19
TORSDOF 4
ENDMDL
MODEL      106
REMARK 921   NORMALIZED FREE ENERGY PREDICTED BY IDOCK:   -3.72 KCAL/MOL
REMARK 922        TOTAL FREE ENERGY PREDICTED BY IDOCK:   -5.68 KCAL/MOL
REMARK 923 INTER-LIGAND FREE ENERGY PREDICTED BY IDOCK:   -5.57 KCAL/MOL
REMARK 924 INTRA-LIGAND FREE ENERGY PREDICTED BY IDOCK:   -0.12 KCAL/MOL
REMARK 927      BINDING AFFINITY PREDICTED BY RF-SCORE:    0.00 PKD
ROOT
HETATM    1  C   UNL     1      -7.807  15.019  68.283  1.00  0.00    -0.119 C  
HETATM    2  C   UNL     1      -8.631  13.970  69.067  1.00  0.00     0.161 C  
HETATM    3  C   UNL     1     -10.065  14.192  68.722  1.00  0.00    -0.199 A  
HETATM    4  C   UNL     1     -11.230  14.258  69.445  1.00  0.00    -0.273 A  
HETATM    5  N   UNL     1     -12.261  14.427  68.544  1.00  0.00    -0.588 NA 
HETATM    6  H   UNL     1     -13.249  14.478  68.793  1.00  0.00     0.000 HD 
HETATM    7  C   UNL     1     -11.767  14.519  67.259  1.00  0.00    -0.406 A  
HETATM    8  C   UNL     1     -12.377  14.641  66.011  1.00  0.00    -0.119 A  
HETATM    9  C   UNL     1     -11.522  14.818  64.907  1.00  0.00    -0.412 A  
HETATM   10  C   UNL     1     -10.133  14.990  65.061  1.00  0.00    -0.289 A  
HETATM   11  C   UNL     1      -9.550  14.896  66.328  1.00  0.00    -0.334 A  
HETATM   12  C   UNL     1      -8.224  15.346  66.813  1.00  0.00    -0.252 C  
HETATM   13  C   UNL     1     -10.392  14.532  67.390  1.00  0.00    -0.252 A  
HETATM   14  C   UNL     1      -7.555  16.363  66.228  1.00  0.00    -0.075 C  
HETATM   15  C   UNL     1      -6.643  17.197  67.132  1.00  0.00    -0.210 C  
HETATM   16  C   UNL     1      -5.714  13.880  67.655  1.00  0.00     0.003 C  
HETATM   17  C   UNL     1      -5.787  16.305  68.094  1.00  0.00    -0.107 C  
HETATM   18  N   UNL     1      -6.333  14.959  68.425  1.00  0.00    -0.097 NA 
ENDROOT
BRANCH  15  19
HETATM   19  C   UNL     1      -7.580  18.159  67.938  1.00  0.00    -0.233 C  
HETATM   20  O   UNL     1      -7.501  18.322  69.158  1.00  0.00    -0.219 OA 
HETATM   21  N   UNL     1      -8.554  18.775  67.179  1.00  0.00    -0.272 N  
HETATM   22  H   UNL     1      -8.415  18.820  66.170  1.00  0.00     0.000 HD 
BRANCH  21  23
HETATM   23  CA  UNL     1      -9.776  19.368  67.730  1.00  0.00    -0.335 C  
BRANCH  23  24
HETATM   24  C   UNL     1     -10.142  18.609  69.031  1.00  0.00    -0.243 C  
HETATM   25  H   UNL     1     -11.138  16.973  69.540  1.00  0.00     0.000 HD 
HETATM   26  O   UNL     1     -10.914  17.438  68.743  1.00  0.00    -0.179 OA 
ENDBRANCH  23  24
BRANCH  23  27
HETATM   27  C   UNL     1     -10.947  19.304  66.737  1.00  0.00    -0.326 C  
HETATM   28  C   UNL     1     -10.729  20.107  65.464  1.00  0.00    -0.191 C  
ENDBRANCH  23  27
ENDBRANCH  21  23
ENDBRANCH  15  19
TORSDOF 4
ENDMDL
MODEL      107
REMARK 921   NORMALIZED FREE ENERGY PREDICTED BY IDOCK:   -3.71 KCAL/MOL
REMARK 922        TOTAL FREE ENERGY PREDICTED BY IDOCK:   -5.67 KCAL/MOL
REMARK 923 INTER-LIGAND FREE ENERGY PREDICTED BY IDOCK:   -4.61 KCAL/MOL
REMARK 924 INTRA-LIGAND FREE ENERGY PREDICTED BY IDOCK:   -1.06 KCAL/MOL
REMARK 927      BINDING AFFINITY PREDICTED BY RF-SCORE:    0.00 PKD
ROOT
HETATM    1  C   UNL     1     -10.743   8.462  70.151  1.00  0.00    -0.236 C  
HETATM    2  C   UNL     1     -11.969   7.902  70.912  1.00  0.00    -0.211 C  
HETATM    3  C   UNL     1     -11.453   6.938  71.926  1.00  0.00    -0.308 A  
HETATM    4  C   UNL     1     -11.817   5.676  72.327  1.00  0.00    -0.080 A  
HETATM    5  N   UNL     1     -10.981   5.321  73.366  1.00  0.00    -0.304 NA 
HETATM    6  H   UNL     1     -11.038   4.445  73.886  1.00  0.00     0.000 HD 
HETATM    7  C   UNL     1     -10.056   6.317  73.603  1.00  0.00    -0.230 A  
HETATM    8  C   UNL     1      -9.046   6.473  74.551  1.00  0.00    -0.208 A  
HETATM    9  C   UNL     1      -8.218   7.603  74.408  1.00  0.00    -0.269 A  
HETATM   10  C   UNL     1      -8.317   8.464  73.298  1.00  0.00    -0.183 A  
HETATM   11  C   UNL     1      -9.319   8.266  72.343  1.00  0.00    -0.338 A  
HETATM   12  C   UNL     1      -9.448   8.787  70.963  1.00  0.00    -0.287 C  
HETATM   13  C   UNL     1     -10.252   7.250  72.603  1.00  0.00    -0.251 A  
HETATM   14  C   UNL     1      -8.373   9.142  70.228  1.00  0.00    -0.187 C  
HETATM   15  C   UNL     1      -8.489   8.974  68.710  1.00  0.00    -0.131 C  
HETATM   16  C   UNL     1     -11.283  10.818  69.673  1.00  0.00    -0.291 C  
HETATM   17  C   UNL     1      -9.865   9.482  68.163  1.00  0.00    -0.155 C  
HETATM   18  N   UNL     1     -11.007   9.493  69.119  1.00  0.00    -0.175 NA 
ENDROOT
BRANCH  15  19
HETATM   19  C   UNL     1      -8.295   7.447  68.420  1.00  0.00    -0.125 C  
HETATM   20  O   UNL     1      -8.751   6.880  67.424  1.00  0.00    -0.120 OA 
HETATM   21  N   UNL     1      -7.614   6.761  69.405  1.00  0.00    -0.094 N  
HETATM   22  H   UNL     1      -7.040   7.301  70.053  1.00  0.00     0.000 HD 
BRANCH  21  23
HETATM   23  CA  UNL     1      -7.663   5.306  69.581  1.00  0.00    -0.073 C  
BRANCH  23  24
HETATM   24  C   UNL     1      -9.057   4.931  70.146  1.00  0.00    -0.110 C  
HETATM   25  H   UNL     1     -10.224   3.331  70.220  1.00  0.00     0.000 HD 
HETATM   26  O   UNL     1      -9.370   3.561  69.874  1.00  0.00    -0.146 OA 
ENDBRANCH  23  24
BRANCH  23  27
HETATM   27  C   UNL     1      -6.561   4.802  70.525  1.00  0.00    -0.035 C  
HETATM   28  C   UNL     1      -6.789   5.145  71.989  1.00  0.00    -0.061 C  
ENDBRANCH  23  27
ENDBRANCH  21  23
ENDBRANCH  15  19
TORSDOF 4
ENDMDL
MODEL      108
REMARK 921   NORMALIZED FREE ENERGY PREDICTED BY IDOCK:   -3.70 KCAL/MOL
REMARK 922        TOTAL FREE ENERGY PREDICTED BY IDOCK:   -5.66 KCAL/MOL
REMARK 923 INTER-LIGAND FREE ENERGY PREDICTED BY IDOCK:   -6.57 KCAL/MOL
REMARK 924 INTRA-LIGAND FREE ENERGY PREDICTED BY IDOCK:    0.91 KCAL/MOL
REMARK 927      BINDING AFFINITY PREDICTED BY RF-SCORE:    0.00 PKD
ROOT
HETATM    1  C   UNL     1     -10.141  15.167  66.705  1.00  0.00    -0.258 C  
HETATM    2  C   UNL     1     -10.445  13.677  66.422  1.00  0.00    -0.288 C  
HETATM    3  C   UNL     1     -10.647  13.012  67.742  1.00  0.00    -0.235 A  
HETATM    4  C   UNL     1     -10.211  11.838  68.304  1.00  0.00    -0.205 A  
HETATM    5  N   UNL     1     -10.792  11.743  69.552  1.00  0.00    -0.462 NA 
HETATM    6  H   UNL     1     -10.675  10.956  70.191  1.00  0.00     0.000 HD 
HETATM    7  C   UNL     1     -11.555  12.862  69.815  1.00  0.00    -0.218 A  
HETATM    8  C   UNL     1     -12.369  13.230  70.885  1.00  0.00    -0.413 A  
HETATM    9  C   UNL     1     -12.915  14.527  70.844  1.00  0.00    -0.424 A  
HETATM   10  C   UNL     1     -12.560  15.453  69.845  1.00  0.00    -0.203 A  
HETATM   11  C   UNL     1     -11.715  15.068  68.799  1.00  0.00    -0.360 A  
HETATM   12  C   UNL     1     -10.940  15.887  67.839  1.00  0.00    -0.327 C  
HETATM   13  C   UNL     1     -11.334  13.719  68.754  1.00  0.00    -0.318 A  
HETATM   14  C   UNL     1     -10.537  17.143  68.129  1.00  0.00    -0.380 C  
HETATM   15  C   UNL     1      -9.234  17.617  67.479  1.00  0.00    -0.243 C  
HETATM   16  C   UNL     1     -11.210  16.419  64.872  1.00  0.00    -0.185 C  
HETATM   17  C   UNL     1      -9.153  17.227  65.965  1.00  0.00    -0.079 C  
HETATM   18  N   UNL     1      -9.956  16.050  65.530  1.00  0.00    -0.459 NA 
ENDROOT
BRANCH  15  19
HETATM   19  C   UNL     1      -8.070  16.959  68.295  1.00  0.00    -0.217 C  
HETATM   20  O   UNL     1      -8.247  16.108  69.170  1.00  0.00    -0.233 OA 
HETATM   21  N   UNL     1      -6.815  17.452  67.997  1.00  0.00    -0.177 N  
HETATM   22  H   UNL     1      -6.693  17.938  67.109  1.00  0.00     0.000 HD 
BRANCH  21  23
HETATM   23  CA  UNL     1      -5.648  17.321  68.874  1.00  0.00    -0.155 C  
BRANCH  23  24
HETATM   24  C   UNL     1      -5.993  16.307  69.995  1.00  0.00    -0.167 C  
HETATM   25  H   UNL     1      -5.346  14.543  70.623  1.00  0.00     0.000 HD 
HETATM   26  O   UNL     1      -5.134  15.164  69.936  1.00  0.00    -0.094 OA 
ENDBRANCH  23  24
BRANCH  23  27
HETATM   27  C   UNL     1      -5.237  18.667  69.491  1.00  0.00    -0.193 C  
HETATM   28  C   UNL     1      -5.234  18.680  71.012  1.00  0.00    -0.282 C  
ENDBRANCH  23  27
ENDBRANCH  21  23
ENDBRANCH  15  19
TORSDOF 4
ENDMDL
MODEL      109
REMARK 921   NORMALIZED FREE ENERGY PREDICTED BY IDOCK:   -3.70 KCAL/MOL
REMARK 922        TOTAL FREE ENERGY PREDICTED BY IDOCK:   -5.66 KCAL/MOL
REMARK 923 INTER-LIGAND FREE ENERGY PREDICTED BY IDOCK:   -5.00 KCAL/MOL
REMARK 924 INTRA-LIGAND FREE ENERGY PREDICTED BY IDOCK:   -0.66 KCAL/MOL
REMARK 927      BINDING AFFINITY PREDICTED BY RF-SCORE:    0.00 PKD
ROOT
HETATM    1  C   UNL     1     -11.285   6.861  70.666  1.00  0.00    -0.301 C  
HETATM    2  C   UNL     1     -11.392   6.336  69.214  1.00  0.00    -0.411 C  
HETATM    3  C   UNL     1     -10.246   5.406  68.998  1.00  0.00    -0.291 A  
HETATM    4  C   UNL     1      -9.331   5.224  67.992  1.00  0.00    -0.117 A  
HETATM    5  N   UNL     1      -8.542   4.149  68.347  1.00  0.00    -0.092 NA 
HETATM    6  H   UNL     1      -7.793   3.762  67.772  1.00  0.00     0.000 HD 
HETATM    7  C   UNL     1      -8.909   3.671  69.587  1.00  0.00    -0.089 A  
HETATM    8  C   UNL     1      -8.474   2.595  70.361  1.00  0.00    -0.090 A  
HETATM    9  C   UNL     1      -9.025   2.484  71.652  1.00  0.00    -0.139 A  
HETATM   10  C   UNL     1      -9.874   3.472  72.187  1.00  0.00    -0.238 A  
HETATM   11  C   UNL     1     -10.269   4.559  71.401  1.00  0.00    -0.183 A  
HETATM   12  C   UNL     1     -10.855   5.863  71.788  1.00  0.00    -0.316 C  
HETATM   13  C   UNL     1      -9.863   4.553  70.058  1.00  0.00    -0.296 A  
HETATM   14  C   UNL     1     -10.648   6.408  73.006  1.00  0.00    -0.267 C  
HETATM   15  C   UNL     1     -10.644   7.937  73.085  1.00  0.00    -0.342 C  
HETATM   16  C   UNL     1     -13.606   7.082  71.462  1.00  0.00    -0.259 C  
HETATM   17  C   UNL     1     -11.815   8.574  72.262  1.00  0.00    -0.383 C  
HETATM   18  N   UNL     1     -12.358   7.770  71.133  1.00  0.00    -0.283 NA 
ENDROOT
BRANCH  15  19
HETATM   19  C   UNL     1      -9.252   8.404  72.540  1.00  0.00    -0.268 C  
HETATM   20  O   UNL     1      -9.089   9.435  71.884  1.00  0.00    -0.180 OA 
HETATM   21  N   UNL     1      -8.215   7.532  72.804  1.00  0.00    -0.111 N  
HETATM   22  H   UNL     1      -8.341   6.855  73.555  1.00  0.00     0.000 HD 
BRANCH  21  23
HETATM   23  CA  UNL     1      -6.945   7.517  72.072  1.00  0.00    -0.063 C  
BRANCH  23  24
HETATM   24  C   UNL     1      -6.320   6.105  72.211  1.00  0.00    -0.053 C  
HETATM   25  H   UNL     1      -6.839   4.341  72.950  1.00  0.00     0.000 HD 
HETATM   26  O   UNL     1      -7.221   5.206  72.865  1.00  0.00    -0.085 OA 
ENDBRANCH  23  24
BRANCH  23  27
HETATM   27  C   UNL     1      -5.965   8.579  72.595  1.00  0.00    -0.074 C  
HETATM   28  C   UNL     1      -5.418   9.505  71.520  1.00  0.00    -0.072 C  
ENDBRANCH  23  27
ENDBRANCH  21  23
ENDBRANCH  15  19
TORSDOF 4
ENDMDL
MODEL      110
REMARK 921   NORMALIZED FREE ENERGY PREDICTED BY IDOCK:   -3.66 KCAL/MOL
REMARK 922        TOTAL FREE ENERGY PREDICTED BY IDOCK:   -5.61 KCAL/MOL
REMARK 923 INTER-LIGAND FREE ENERGY PREDICTED BY IDOCK:   -4.75 KCAL/MOL
REMARK 924 INTRA-LIGAND FREE ENERGY PREDICTED BY IDOCK:   -0.86 KCAL/MOL
REMARK 927      BINDING AFFINITY PREDICTED BY RF-SCORE:    0.00 PKD
ROOT
HETATM    1  C   UNL     1     -10.778   8.573  70.386  1.00  0.00    -0.228 C  
HETATM    2  C   UNL     1     -11.956   7.791  71.015  1.00  0.00    -0.281 C  
HETATM    3  C   UNL     1     -11.365   6.740  71.894  1.00  0.00    -0.306 A  
HETATM    4  C   UNL     1     -11.608   5.404  72.094  1.00  0.00     0.044 A  
HETATM    5  N   UNL     1     -10.761   4.981  73.097  1.00  0.00    -0.232 NA 
HETATM    6  H   UNL     1     -10.740   4.036  73.481  1.00  0.00     0.000 HD 
HETATM    7  C   UNL     1      -9.945   6.015  73.508  1.00  0.00    -0.186 A  
HETATM    8  C   UNL     1      -8.974   6.125  74.502  1.00  0.00    -0.146 A  
HETATM    9  C   UNL     1      -8.260   7.337  74.553  1.00  0.00    -0.216 A  
HETATM   10  C   UNL     1      -8.424   8.340  73.579  1.00  0.00    -0.264 A  
HETATM   11  C   UNL     1      -9.383   8.191  72.572  1.00  0.00    -0.329 A  
HETATM   12  C   UNL     1      -9.538   8.897  71.279  1.00  0.00    -0.348 C  
HETATM   13  C   UNL     1     -10.214   7.063  72.649  1.00  0.00    -0.218 A  
HETATM   14  C   UNL     1      -8.490   9.459  70.640  1.00  0.00    -0.239 C  
HETATM   15  C   UNL     1      -8.559   9.508  69.111  1.00  0.00    -0.140 C  
HETATM   16  C   UNL     1     -11.542  10.911  70.239  1.00  0.00    -0.334 C  
HETATM   17  C   UNL     1      -9.969   9.957  68.598  1.00  0.00    -0.164 C  
HETATM   18  N   UNL     1     -11.124   9.715  69.507  1.00  0.00    -0.207 NA 
ENDROOT
BRANCH  15  19
HETATM   19  C   UNL     1      -8.208   8.067  68.607  1.00  0.00    -0.126 C  
HETATM   20  O   UNL     1      -7.251   7.413  69.028  1.00  0.00    -0.080 OA 
HETATM   21  N   UNL     1      -9.027   7.600  67.600  1.00  0.00    -0.127 N  
HETATM   22  H   UNL     1      -9.937   8.045  67.479  1.00  0.00     0.000 HD 
BRANCH  21  23
HETATM   23  CA  UNL     1      -8.675   6.504  66.692  1.00  0.00    -0.128 C  
BRANCH  23  24
HETATM   24  C   UNL     1      -8.444   7.097  65.279  1.00  0.00    -0.051 C  
HETATM   25  H   UNL     1      -8.699   8.835  64.362  1.00  0.00     0.000 HD 
HETATM   26  O   UNL     1      -8.840   8.471  65.228  1.00  0.00    -0.172 OA 
ENDBRANCH  23  24
BRANCH  23  27
HETATM   27  C   UNL     1      -9.769   5.426  66.637  1.00  0.00    -0.174 C  
HETATM   28  C   UNL     1     -10.696   5.417  67.843  1.00  0.00    -0.095 C  
ENDBRANCH  23  27
ENDBRANCH  21  23
ENDBRANCH  15  19
TORSDOF 4
ENDMDL
MODEL      111
REMARK 921   NORMALIZED FREE ENERGY PREDICTED BY IDOCK:   -3.65 KCAL/MOL
REMARK 922        TOTAL FREE ENERGY PREDICTED BY IDOCK:   -5.60 KCAL/MOL
REMARK 923 INTER-LIGAND FREE ENERGY PREDICTED BY IDOCK:   -5.08 KCAL/MOL
REMARK 924 INTRA-LIGAND FREE ENERGY PREDICTED BY IDOCK:   -0.51 KCAL/MOL
REMARK 927      BINDING AFFINITY PREDICTED BY RF-SCORE:    0.00 PKD
ROOT
HETATM    1  C   UNL     1      -7.746  10.400  68.487  1.00  0.00    -0.101 C  
HETATM    2  C   UNL     1      -8.788  11.534  68.338  1.00  0.00    -0.163 C  
HETATM    3  C   UNL     1     -10.107  10.975  68.754  1.00  0.00    -0.214 A  
HETATM    4  C   UNL     1     -11.378  11.023  68.239  1.00  0.00    -0.299 A  
HETATM    5  N   UNL     1     -12.202  10.352  69.119  1.00  0.00    -0.695 NA 
HETATM    6  H   UNL     1     -13.211  10.253  69.012  1.00  0.00     0.000 HD 
HETATM    7  C   UNL     1     -11.467   9.833  70.165  1.00  0.00    -0.216 A  
HETATM    8  C   UNL     1     -11.816   9.132  71.319  1.00  0.00    -0.396 A  
HETATM    9  C   UNL     1     -10.754   8.664  72.117  1.00  0.00    -0.417 A  
HETATM   10  C   UNL     1      -9.411   8.784  71.713  1.00  0.00    -0.350 A  
HETATM   11  C   UNL     1      -9.089   9.464  70.534  1.00  0.00    -0.308 A  
HETATM   12  C   UNL     1      -7.847   9.455  69.727  1.00  0.00    -0.115 C  
HETATM   13  C   UNL     1     -10.145  10.086  69.852  1.00  0.00    -0.289 A  
HETATM   14  C   UNL     1      -6.997   8.406  69.733  1.00  0.00    -0.047 C  
HETATM   15  C   UNL     1      -6.207   8.153  68.446  1.00  0.00    -0.049 C  
HETATM   16  C   UNL     1      -5.674  11.503  69.238  1.00  0.00    -0.052 C  
HETATM   17  C   UNL     1      -5.628   9.475  67.838  1.00  0.00    -0.040 C  
HETATM   18  N   UNL     1      -6.336  10.739  68.180  1.00  0.00    -0.057 NA 
ENDROOT
BRANCH  15  19
HETATM   19  C   UNL     1      -7.197   7.460  67.449  1.00  0.00    -0.093 C  
HETATM   20  O   UNL     1      -7.461   7.906  66.330  1.00  0.00    -0.084 OA 
HETATM   21  N   UNL     1      -7.807   6.326  67.947  1.00  0.00    -0.102 N  
HETATM   22  H   UNL     1      -7.370   5.860  68.742  1.00  0.00     0.000 HD 
BRANCH  21  23
HETATM   23  CA  UNL     1      -9.042   5.750  67.407  1.00  0.00    -0.110 C  
BRANCH  23  24
HETATM   24  C   UNL     1      -9.013   5.896  65.864  1.00  0.00    -0.140 C  
HETATM   25  H   UNL     1      -9.392   4.769  64.279  1.00  0.00     0.000 HD 
HETATM   26  O   UNL     1      -9.409   4.679  65.225  1.00  0.00    -0.152 OA 
ENDBRANCH  23  24
BRANCH  23  27
HETATM   27  C   UNL     1     -10.295   6.433  67.977  1.00  0.00    -0.234 C  
HETATM   28  C   UNL     1     -10.784   7.619  67.160  1.00  0.00    -0.361 C  
ENDBRANCH  23  27
ENDBRANCH  21  23
ENDBRANCH  15  19
TORSDOF 4
ENDMDL
MODEL      112
REMARK 921   NORMALIZED FREE ENERGY PREDICTED BY IDOCK:   -3.62 KCAL/MOL
REMARK 922        TOTAL FREE ENERGY PREDICTED BY IDOCK:   -5.56 KCAL/MOL
REMARK 923 INTER-LIGAND FREE ENERGY PREDICTED BY IDOCK:   -4.73 KCAL/MOL
REMARK 924 INTRA-LIGAND FREE ENERGY PREDICTED BY IDOCK:   -0.83 KCAL/MOL
REMARK 927      BINDING AFFINITY PREDICTED BY RF-SCORE:    0.00 PKD
ROOT
HETATM    1  C   UNL     1      -9.357   7.227  69.179  1.00  0.00    -0.146 C  
HETATM    2  C   UNL     1      -8.703   8.016  70.338  1.00  0.00    -0.136 C  
HETATM    3  C   UNL     1      -8.383   9.377  69.816  1.00  0.00    -0.161 A  
HETATM    4  C   UNL     1      -7.290  10.204  69.894  1.00  0.00    -0.165 A  
HETATM    5  N   UNL     1      -7.622  11.379  69.250  1.00  0.00    -0.334 NA 
HETATM    6  H   UNL     1      -7.013  12.194  69.176  1.00  0.00     0.000 HD 
HETATM    7  C   UNL     1      -8.892  11.296  68.719  1.00  0.00    -0.102 A  
HETATM    8  C   UNL     1      -9.700  12.203  68.035  1.00  0.00    -0.203 A  
HETATM    9  C   UNL     1     -10.925  11.711  67.545  1.00  0.00    -0.312 A  
HETATM   10  C   UNL     1     -11.266  10.347  67.628  1.00  0.00    -0.287 A  
HETATM   11  C   UNL     1     -10.422   9.451  68.291  1.00  0.00    -0.260 A  
HETATM   12  C   UNL     1     -10.363   7.972  68.245  1.00  0.00    -0.240 C  
HETATM   13  C   UNL     1      -9.300   9.994  68.936  1.00  0.00    -0.172 A  
HETATM   14  C   UNL     1     -10.795   7.271  67.175  1.00  0.00    -0.378 C  
HETATM   15  C   UNL     1     -10.090   5.941  66.892  1.00  0.00    -0.228 C  
HETATM   16  C   UNL     1     -11.068   5.802  70.233  1.00  0.00    -0.230 C  
HETATM   17  C   UNL     1      -9.874   5.098  68.195  1.00  0.00    -0.151 C  
HETATM   18  N   UNL     1      -9.815   5.850  69.479  1.00  0.00    -0.161 NA 
ENDROOT
BRANCH  15  19
HETATM   19  C   UNL     1      -8.723   6.300  66.219  1.00  0.00    -0.142 C  
HETATM   20  O   UNL     1      -7.664   5.725  66.479  1.00  0.00    -0.097 OA 
HETATM   21  N   UNL     1      -8.781   7.363  65.341  1.00  0.00    -0.343 N  
HETATM   22  H   UNL     1      -9.693   7.622  64.964  1.00  0.00     0.000 HD 
BRANCH  21  23
HETATM   23  CA  UNL     1      -7.617   8.146  64.915  1.00  0.00    -0.098 C  
BRANCH  23  24
HETATM   24  C   UNL     1      -7.192   9.065  66.089  1.00  0.00    -0.090 C  
HETATM   25  H   UNL     1      -5.512   9.806  66.834  1.00  0.00     0.000 HD 
HETATM   26  O   UNL     1      -5.773   9.242  66.114  1.00  0.00    -0.048 OA 
ENDBRANCH  23  24
BRANCH  23  27
HETATM   27  C   UNL     1      -7.915   8.991  63.667  1.00  0.00    -0.150 C  
HETATM   28  C   UNL     1      -6.991   8.714  62.491  1.00  0.00    -0.094 C  
ENDBRANCH  23  27
ENDBRANCH  21  23
ENDBRANCH  15  19
TORSDOF 4
ENDMDL
MODEL      113
REMARK 921   NORMALIZED FREE ENERGY PREDICTED BY IDOCK:   -3.60 KCAL/MOL
REMARK 922        TOTAL FREE ENERGY PREDICTED BY IDOCK:   -5.54 KCAL/MOL
REMARK 923 INTER-LIGAND FREE ENERGY PREDICTED BY IDOCK:   -4.75 KCAL/MOL
REMARK 924 INTRA-LIGAND FREE ENERGY PREDICTED BY IDOCK:   -0.78 KCAL/MOL
REMARK 927      BINDING AFFINITY PREDICTED BY RF-SCORE:    0.00 PKD
ROOT
HETATM    1  C   UNL     1      -8.095   9.763  68.219  1.00  0.00    -0.104 C  
HETATM    2  C   UNL     1      -7.407   9.877  66.838  1.00  0.00    -0.091 C  
HETATM    3  C   UNL     1      -8.487  10.027  65.820  1.00  0.00    -0.145 A  
HETATM    4  C   UNL     1      -8.738   9.465  64.594  1.00  0.00    -0.200 A  
HETATM    5  N   UNL     1      -9.880  10.059  64.098  1.00  0.00    -0.450 NA 
HETATM    6  H   UNL     1     -10.290   9.861  63.185  1.00  0.00     0.000 HD 
HETATM    7  C   UNL     1     -10.390  10.958  65.011  1.00  0.00    -0.288 A  
HETATM    8  C   UNL     1     -11.474  11.835  64.981  1.00  0.00    -0.253 A  
HETATM    9  C   UNL     1     -11.752  12.533  66.171  1.00  0.00    -0.466 A  
HETATM   10  C   UNL     1     -11.058  12.271  67.368  1.00  0.00    -0.333 A  
HETATM   11  C   UNL     1      -9.996  11.361  67.380  1.00  0.00    -0.207 A  
HETATM   12  C   UNL     1      -9.335  10.670  68.510  1.00  0.00    -0.170 C  
HETATM   13  C   UNL     1      -9.612  10.819  66.144  1.00  0.00    -0.236 A  
HETATM   14  C   UNL     1      -9.973  10.430  69.675  1.00  0.00    -0.209 C  
HETATM   15  C   UNL     1      -9.547   9.179  70.449  1.00  0.00    -0.268 C  
HETATM   16  C   UNL     1      -6.609  10.934  69.797  1.00  0.00    -0.140 C  
HETATM   17  C   UNL     1      -7.990   9.017  70.499  1.00  0.00    -0.139 C  
HETATM   18  N   UNL     1      -7.212   9.660  69.404  1.00  0.00    -0.066 NA 
ENDROOT
BRANCH  15  19
HETATM   19  C   UNL     1     -10.219   7.963  69.727  1.00  0.00    -0.212 C  
HETATM   20  O   UNL     1     -11.364   7.989  69.270  1.00  0.00     0.175 OA 
HETATM   21  N   UNL     1      -9.443   6.821  69.692  1.00  0.00    -0.147 N  
HETATM   22  H   UNL     1      -8.439   6.922  69.834  1.00  0.00     0.000 HD 
BRANCH  21  23
HETATM   23  CA  UNL     1      -9.971   5.473  69.464  1.00  0.00    -0.210 C  
BRANCH  23  24
HETATM   24  C   UNL     1      -9.494   4.560  70.623  1.00  0.00    -0.170 C  
HETATM   25  H   UNL     1      -8.648   4.776  72.402  1.00  0.00     0.000 HD 
HETATM   26  O   UNL     1      -8.940   5.334  71.691  1.00  0.00    -0.133 OA 
ENDBRANCH  23  24
BRANCH  23  27
HETATM   27  C   UNL     1      -9.512   4.894  68.116  1.00  0.00    -0.178 C  
HETATM   28  C   UNL     1      -9.132   5.944  67.084  1.00  0.00    -0.113 C  
ENDBRANCH  23  27
ENDBRANCH  21  23
ENDBRANCH  15  19
TORSDOF 4
ENDMDL
MODEL      114
REMARK 921   NORMALIZED FREE ENERGY PREDICTED BY IDOCK:   -3.59 KCAL/MOL
REMARK 922        TOTAL FREE ENERGY PREDICTED BY IDOCK:   -5.52 KCAL/MOL
REMARK 923 INTER-LIGAND FREE ENERGY PREDICTED BY IDOCK:   -4.42 KCAL/MOL
REMARK 924 INTRA-LIGAND FREE ENERGY PREDICTED BY IDOCK:   -1.10 KCAL/MOL
REMARK 927      BINDING AFFINITY PREDICTED BY RF-SCORE:    0.00 PKD
ROOT
HETATM    1  C   UNL     1      -8.024   4.959  72.144  1.00  0.00    -0.110 C  
HETATM    2  C   UNL     1      -7.295   6.163  72.788  1.00  0.00    -0.089 C  
HETATM    3  C   UNL     1      -7.967   7.399  72.291  1.00  0.00    -0.110 A  
HETATM    4  C   UNL     1      -7.526   8.604  71.804  1.00  0.00    -0.081 A  
HETATM    5  N   UNL     1      -8.642   9.379  71.563  1.00  0.00    -0.244 NA 
HETATM    6  H   UNL     1      -8.620  10.342  71.225  1.00  0.00     0.000 HD 
HETATM    7  C   UNL     1      -9.791   8.670  71.843  1.00  0.00    -0.314 A  
HETATM    8  C   UNL     1     -11.145   9.002  71.818  1.00  0.00    -0.444 A  
HETATM    9  C   UNL     1     -12.054   7.957  72.071  1.00  0.00    -0.363 A  
HETATM   10  C   UNL     1     -11.632   6.622  72.219  1.00  0.00    -0.313 A  
HETATM   11  C   UNL     1     -10.269   6.311  72.208  1.00  0.00    -0.209 A  
HETATM   12  C   UNL     1      -9.580   5.014  72.013  1.00  0.00    -0.200 C  
HETATM   13  C   UNL     1      -9.373   7.388  72.144  1.00  0.00    -0.164 A  
HETATM   14  C   UNL     1     -10.144   4.000  71.323  1.00  0.00    -0.133 C  
HETATM   15  C   UNL     1      -9.192   3.058  70.580  1.00  0.00    -0.208 C  
HETATM   16  C   UNL     1      -8.024   3.192  73.860  1.00  0.00    -0.069 C  
HETATM   17  C   UNL     1      -7.954   2.660  71.454  1.00  0.00    -0.051 C  
HETATM   18  N   UNL     1      -7.562   3.606  72.535  1.00  0.00    -0.061 NA 
ENDROOT
BRANCH  15  19
HETATM   19  C   UNL     1      -8.748   3.813  69.282  1.00  0.00    -0.085 C  
HETATM   20  O   UNL     1      -7.589   3.817  68.860  1.00  0.00    -0.053 OA 
HETATM   21  N   UNL     1      -9.753   4.532  68.668  1.00  0.00    -0.153 N  
HETATM   22  H   UNL     1     -10.718   4.287  68.890  1.00  0.00     0.000 HD 
BRANCH  21  23
HETATM   23  CA  UNL     1      -9.523   5.625  67.718  1.00  0.00    -0.115 C  
BRANCH  23  24
HETATM   24  C   UNL     1      -9.741   6.969  68.461  1.00  0.00    -0.141 C  
HETATM   25  H   UNL     1      -8.631   8.470  69.125  1.00  0.00     0.000 HD 
HETATM   26  O   UNL     1      -8.498   7.647  68.670  1.00  0.00    -0.128 OA 
ENDBRANCH  23  24
BRANCH  23  27
HETATM   27  C   UNL     1     -10.459   5.539  66.502  1.00  0.00    -0.331 C  
HETATM   28  C   UNL     1     -10.107   4.429  65.524  1.00  0.00    -0.251 C  
ENDBRANCH  23  27
ENDBRANCH  21  23
ENDBRANCH  15  19
TORSDOF 4
ENDMDL
MODEL      115
REMARK 921   NORMALIZED FREE ENERGY PREDICTED BY IDOCK:   -3.59 KCAL/MOL
REMARK 922        TOTAL FREE ENERGY PREDICTED BY IDOCK:   -5.52 KCAL/MOL
REMARK 923 INTER-LIGAND FREE ENERGY PREDICTED BY IDOCK:   -4.89 KCAL/MOL
REMARK 924 INTRA-LIGAND FREE ENERGY PREDICTED BY IDOCK:   -0.63 KCAL/MOL
REMARK 927      BINDING AFFINITY PREDICTED BY RF-SCORE:    0.00 PKD
ROOT
HETATM    1  C   UNL     1      -8.678   9.376  68.703  1.00  0.00    -0.131 C  
HETATM    2  C   UNL     1      -7.891  10.528  69.371  1.00  0.00    -0.151 C  
HETATM    3  C   UNL     1      -7.992  11.710  68.467  1.00  0.00    -0.144 A  
HETATM    4  C   UNL     1      -7.100  12.639  67.994  1.00  0.00    -0.103 A  
HETATM    5  N   UNL     1      -7.814  13.539  67.230  1.00  0.00    -0.317 NA 
HETATM    6  H   UNL     1      -7.416  14.361  66.775  1.00  0.00     0.000 HD 
HETATM    7  C   UNL     1      -9.142  13.172  67.168  1.00  0.00    -0.230 A  
HETATM    8  C   UNL     1     -10.265  13.755  66.583  1.00  0.00    -0.276 A  
HETATM    9  C   UNL     1     -11.461  13.015  66.642  1.00  0.00    -0.382 A  
HETATM   10  C   UNL     1     -11.501  11.702  67.149  1.00  0.00    -0.344 A  
HETATM   11  C   UNL     1     -10.351  11.128  67.701  1.00  0.00    -0.223 A  
HETATM   12  C   UNL     1     -10.028   9.711  67.991  1.00  0.00    -0.190 C  
HETATM   13  C   UNL     1      -9.219  11.949  67.806  1.00  0.00    -0.184 A  
HETATM   14  C   UNL     1     -10.599   8.693  67.313  1.00  0.00    -0.308 C  
HETATM   15  C   UNL     1      -9.762   7.422  67.144  1.00  0.00    -0.223 C  
HETATM   16  C   UNL     1      -9.726   8.133  70.555  1.00  0.00    -0.174 C  
HETATM   17  C   UNL     1      -9.036   7.013  68.470  1.00  0.00    -0.122 C  
HETATM   18  N   UNL     1      -8.766   8.099  69.452  1.00  0.00    -0.142 NA 
ENDROOT
BRANCH  15  19
HETATM   19  C   UNL     1      -8.730   7.721  66.004  1.00  0.00    -0.161 C  
HETATM   20  O   UNL     1      -7.569   7.307  66.012  1.00  0.00    -0.084 OA 
HETATM   21  N   UNL     1      -9.208   8.543  65.004  1.00  0.00    -0.395 N  
HETATM   22  H   UNL     1     -10.219   8.634  64.903  1.00  0.00     0.000 HD 
BRANCH  21  23
HETATM   23  CA  UNL     1      -8.356   9.294  64.077  1.00  0.00    -0.178 C  
BRANCH  23  24
HETATM   24  C   UNL     1      -7.423   8.290  63.352  1.00  0.00    -0.119 C  
HETATM   25  H   UNL     1      -7.606   6.744  62.126  1.00  0.00     0.000 HD 
HETATM   26  O   UNL     1      -8.178   7.359  62.570  1.00  0.00    -0.131 OA 
ENDBRANCH  23  24
BRANCH  23  27
HETATM   27  C   UNL     1      -7.519  10.362  64.798  1.00  0.00    -0.049 C  
HETATM   28  C   UNL     1      -6.025  10.265  64.535  1.00  0.00    -0.132 C  
ENDBRANCH  23  27
ENDBRANCH  21  23
ENDBRANCH  15  19
TORSDOF 4
ENDMDL
MODEL      116
REMARK 921   NORMALIZED FREE ENERGY PREDICTED BY IDOCK:   -3.56 KCAL/MOL
REMARK 922        TOTAL FREE ENERGY PREDICTED BY IDOCK:   -5.49 KCAL/MOL
REMARK 923 INTER-LIGAND FREE ENERGY PREDICTED BY IDOCK:   -4.63 KCAL/MOL
REMARK 924 INTRA-LIGAND FREE ENERGY PREDICTED BY IDOCK:   -0.86 KCAL/MOL
REMARK 927      BINDING AFFINITY PREDICTED BY RF-SCORE:    0.00 PKD
ROOT
HETATM    1  C   UNL     1     -11.793  13.069  65.595  1.00  0.00    -0.399 C  
HETATM    2  C   UNL     1     -12.719  13.535  66.744  1.00  0.00     0.213 C  
HETATM    3  C   UNL     1     -11.845  13.859  67.909  1.00  0.00    -0.413 A  
HETATM    4  C   UNL     1     -11.890  13.583  69.252  1.00  0.00    -0.341 A  
HETATM    5  N   UNL     1     -10.811  14.215  69.836  1.00  0.00    -0.459 NA 
HETATM    6  H   UNL     1     -10.606  14.213  70.835  1.00  0.00     0.000 HD 
HETATM    7  C   UNL     1     -10.050  14.851  68.878  1.00  0.00    -0.236 A  
HETATM    8  C   UNL     1      -8.912  15.654  68.944  1.00  0.00    -0.221 A  
HETATM    9  C   UNL     1      -8.343  16.043  67.716  1.00  0.00    -0.159 A  
HETATM   10  C   UNL     1      -8.817  15.548  66.486  1.00  0.00    -0.348 A  
HETATM   11  C   UNL     1      -9.941  14.717  66.449  1.00  0.00    -0.296 A  
HETATM   12  C   UNL     1     -10.438  13.818  65.382  1.00  0.00    -0.342 C  
HETATM   13  C   UNL     1     -10.606  14.495  67.664  1.00  0.00    -0.251 A  
HETATM   14  C   UNL     1      -9.615  13.283  64.456  1.00  0.00     0.516 C  
HETATM   15  C   UNL     1     -10.005  11.911  63.897  1.00  0.00    -0.354 C  
HETATM   16  C   UNL     1     -12.827  13.920  63.527  1.00  0.00     0.840 C  
HETATM   17  C   UNL     1     -11.532  11.823  63.560  1.00  0.00    -0.394 C  
HETATM   18  N   UNL     1     -12.438  12.742  64.302  1.00  0.00    -0.607 NA 
ENDROOT
BRANCH  15  19
HETATM   19  C   UNL     1      -9.606  10.861  64.988  1.00  0.00    -0.251 C  
HETATM   20  O   UNL     1     -10.270   9.852  65.237  1.00  0.00    -0.269 OA 
HETATM   21  N   UNL     1      -8.470  11.184  65.703  1.00  0.00    -0.347 N  
HETATM   22  H   UNL     1      -7.827  11.862  65.295  1.00  0.00     0.000 HD 
BRANCH  21  23
HETATM   23  CA  UNL     1      -8.129  10.615  67.010  1.00  0.00    -0.120 C  
BRANCH  23  24
HETATM   24  C   UNL     1      -8.314  11.718  68.084  1.00  0.00    -0.156 C  
HETATM   25  H   UNL     1      -7.203  12.642  69.440  1.00  0.00     0.000 HD 
HETATM   26  O   UNL     1      -7.090  11.966  68.782  1.00  0.00    -0.099 OA 
ENDBRANCH  23  24
BRANCH  23  27
HETATM   27  C   UNL     1      -6.689  10.081  67.049  1.00  0.00    -0.078 C  
HETATM   28  C   UNL     1      -6.233   9.424  65.755  1.00  0.00    -0.060 C  
ENDBRANCH  23  27
ENDBRANCH  21  23
ENDBRANCH  15  19
TORSDOF 4
ENDMDL
MODEL      117
REMARK 921   NORMALIZED FREE ENERGY PREDICTED BY IDOCK:   -3.53 KCAL/MOL
REMARK 922        TOTAL FREE ENERGY PREDICTED BY IDOCK:   -5.45 KCAL/MOL
REMARK 923 INTER-LIGAND FREE ENERGY PREDICTED BY IDOCK:   -4.84 KCAL/MOL
REMARK 924 INTRA-LIGAND FREE ENERGY PREDICTED BY IDOCK:   -0.62 KCAL/MOL
REMARK 927      BINDING AFFINITY PREDICTED BY RF-SCORE:    0.00 PKD
ROOT
HETATM    1  C   UNL     1      -8.463   9.045  69.349  1.00  0.00    -0.117 C  
HETATM    2  C   UNL     1      -7.416  10.146  69.059  1.00  0.00    -0.091 C  
HETATM    3  C   UNL     1      -8.047  11.115  68.116  1.00  0.00    -0.128 A  
HETATM    4  C   UNL     1      -7.638  11.747  66.968  1.00  0.00    -0.147 A  
HETATM    5  N   UNL     1      -8.662  12.585  66.577  1.00  0.00    -0.407 NA 
HETATM    6  H   UNL     1      -8.627  13.208  65.770  1.00  0.00     0.000 HD 
HETATM    7  C   UNL     1      -9.738  12.463  67.431  1.00  0.00    -0.193 A  
HETATM    8  C   UNL     1     -10.972  13.108  67.507  1.00  0.00    -0.282 A  
HETATM    9  C   UNL     1     -11.875  12.627  68.474  1.00  0.00    -0.342 A  
HETATM   10  C   UNL     1     -11.604  11.477  69.240  1.00  0.00    -0.388 A  
HETATM   11  C   UNL     1     -10.371  10.829  69.121  1.00  0.00    -0.238 A  
HETATM   12  C   UNL     1      -9.956   9.468  69.533  1.00  0.00    -0.205 C  
HETATM   13  C   UNL     1      -9.413  11.433  68.292  1.00  0.00    -0.187 A  
HETATM   14  C   UNL     1     -10.840   8.454  69.649  1.00  0.00    -0.153 C  
HETATM   15  C   UNL     1     -10.312   7.044  69.369  1.00  0.00    -0.218 C  
HETATM   16  C   UNL     1      -8.131   8.424  71.710  1.00  0.00    -0.148 C  
HETATM   17  C   UNL     1      -8.919   6.791  70.039  1.00  0.00    -0.141 C  
HETATM   18  N   UNL     1      -8.077   7.989  70.314  1.00  0.00    -0.111 NA 
ENDROOT
BRANCH  15  19
HETATM   19  C   UNL     1     -10.221   6.907  67.812  1.00  0.00    -0.180 C  
HETATM   20  O   UNL     1     -11.023   7.430  67.034  1.00  0.00    -0.332 OA 
HETATM   21  N   UNL     1      -9.195   6.097  67.368  1.00  0.00    -0.113 N  
HETATM   22  H   UNL     1      -8.422   5.914  68.008  1.00  0.00     0.000 HD 
BRANCH  21  23
HETATM   23  CA  UNL     1      -9.146   5.482  66.039  1.00  0.00    -0.156 C  
BRANCH  23  24
HETATM   24  C   UNL     1      -9.295   3.948  66.206  1.00  0.00    -0.179 C  
HETATM   25  H   UNL     1      -9.693   2.383  65.057  1.00  0.00     0.000 HD 
HETATM   26  O   UNL     1      -9.601   3.323  64.956  1.00  0.00    -0.160 OA 
ENDBRANCH  23  24
BRANCH  23  27
HETATM   27  C   UNL     1      -7.836   5.806  65.302  1.00  0.00    -0.106 C  
HETATM   28  C   UNL     1      -7.784   7.206  64.711  1.00  0.00    -0.115 C  
ENDBRANCH  23  27
ENDBRANCH  21  23
ENDBRANCH  15  19
TORSDOF 4
ENDMDL
MODEL      118
REMARK 921   NORMALIZED FREE ENERGY PREDICTED BY IDOCK:   -3.52 KCAL/MOL
REMARK 922        TOTAL FREE ENERGY PREDICTED BY IDOCK:   -5.43 KCAL/MOL
REMARK 923 INTER-LIGAND FREE ENERGY PREDICTED BY IDOCK:   -5.25 KCAL/MOL
REMARK 924 INTRA-LIGAND FREE ENERGY PREDICTED BY IDOCK:   -0.18 KCAL/MOL
REMARK 927      BINDING AFFINITY PREDICTED BY RF-SCORE:    0.00 PKD
ROOT
HETATM    1  C   UNL     1      -7.853   9.834  67.033  1.00  0.00    -0.102 C  
HETATM    2  C   UNL     1      -8.093   9.775  65.505  1.00  0.00    -0.125 C  
HETATM    3  C   UNL     1      -9.222  10.702  65.203  1.00  0.00    -0.241 A  
HETATM    4  C   UNL     1     -10.353  10.621  64.429  1.00  0.00    -0.276 A  
HETATM    5  N   UNL     1     -10.988  11.844  64.505  1.00  0.00    -0.307 NA 
HETATM    6  H   UNL     1     -11.843  12.088  64.004  1.00  0.00     0.000 HD 
HETATM    7  C   UNL     1     -10.305  12.690  65.354  1.00  0.00    -0.291 A  
HETATM    8  C   UNL     1     -10.493  14.020  65.727  1.00  0.00    -0.317 A  
HETATM    9  C   UNL     1      -9.633  14.522  66.723  1.00  0.00    -0.274 A  
HETATM   10  C   UNL     1      -8.714  13.696  67.399  1.00  0.00    -0.214 A  
HETATM   11  C   UNL     1      -8.568  12.356  67.027  1.00  0.00    -0.191 A  
HETATM   12  C   UNL     1      -7.951  11.220  67.749  1.00  0.00    -0.117 C  
HETATM   13  C   UNL     1      -9.297  11.925  65.908  1.00  0.00    -0.193 A  
HETATM   14  C   UNL     1      -7.867  11.188  69.096  1.00  0.00    -0.065 C  
HETATM   15  C   UNL     1      -7.906   9.807  69.756  1.00  0.00    -0.159 C  
HETATM   16  C   UNL     1      -5.416   9.622  67.327  1.00  0.00    -0.036 C  
HETATM   17  C   UNL     1      -7.002   8.769  69.009  1.00  0.00    -0.064 C  
HETATM   18  N   UNL     1      -6.731   9.028  67.568  1.00  0.00    -0.068 NA 
ENDROOT
BRANCH  15  19
HETATM   19  C   UNL     1      -9.406   9.357  69.750  1.00  0.00    -0.203 C  
HETATM   20  O   UNL     1     -10.291   9.946  69.125  1.00  0.00    -0.187 OA 
HETATM   21  N   UNL     1      -9.679   8.270  70.556  1.00  0.00    -0.170 N  
HETATM   22  H   UNL     1      -8.900   7.671  70.829  1.00  0.00     0.000 HD 
BRANCH  21  23
HETATM   23  CA  UNL     1     -11.016   7.922  71.045  1.00  0.00    -0.244 C  
BRANCH  23  24
HETATM   24  C   UNL     1     -11.011   8.026  72.592  1.00  0.00    -0.382 C  
HETATM   25  H   UNL     1     -11.094   6.794  74.142  1.00  0.00     0.000 HD 
HETATM   26  O   UNL     1     -11.098   6.731  73.194  1.00  0.00    -0.256 OA 
ENDBRANCH  23  24
BRANCH  23  27
HETATM   27  C   UNL     1     -11.437   6.508  70.615  1.00  0.00    -0.433 C  
HETATM   28  C   UNL     1     -10.376   5.754  69.830  1.00  0.00    -0.332 C  
ENDBRANCH  23  27
ENDBRANCH  21  23
ENDBRANCH  15  19
TORSDOF 4
ENDMDL
MODEL      119
REMARK 921   NORMALIZED FREE ENERGY PREDICTED BY IDOCK:   -3.52 KCAL/MOL
REMARK 922        TOTAL FREE ENERGY PREDICTED BY IDOCK:   -5.43 KCAL/MOL
REMARK 923 INTER-LIGAND FREE ENERGY PREDICTED BY IDOCK:   -4.27 KCAL/MOL
REMARK 924 INTRA-LIGAND FREE ENERGY PREDICTED BY IDOCK:   -1.16 KCAL/MOL
REMARK 927      BINDING AFFINITY PREDICTED BY RF-SCORE:    0.00 PKD
ROOT
HETATM    1  C   UNL     1     -10.302   8.621  69.924  1.00  0.00    -0.209 C  
HETATM    2  C   UNL     1     -10.781   9.280  68.609  1.00  0.00    -0.180 C  
HETATM    3  C   UNL     1     -10.044   8.619  67.493  1.00  0.00    -0.277 A  
HETATM    4  C   UNL     1      -9.391   9.067  66.372  1.00  0.00    -0.206 A  
HETATM    5  N   UNL     1      -8.954   7.955  65.682  1.00  0.00    -0.364 NA 
HETATM    6  H   UNL     1      -8.462   7.981  64.789  1.00  0.00     0.000 HD 
HETATM    7  C   UNL     1      -9.276   6.804  66.370  1.00  0.00    -0.153 A  
HETATM    8  C   UNL     1      -9.109   5.449  66.090  1.00  0.00    -0.154 A  
HETATM    9  C   UNL     1      -9.476   4.546  67.106  1.00  0.00    -0.182 A  
HETATM   10  C   UNL     1      -9.870   4.983  68.385  1.00  0.00    -0.209 A  
HETATM   11  C   UNL     1      -9.997   6.350  68.651  1.00  0.00    -0.162 A  
HETATM   12  C   UNL     1     -10.065   7.077  69.940  1.00  0.00    -0.202 C  
HETATM   13  C   UNL     1      -9.812   7.227  67.571  1.00  0.00    -0.198 A  
HETATM   14  C   UNL     1      -9.520   6.581  71.071  1.00  0.00    -0.171 C  
HETATM   15  C   UNL     1      -9.007   7.600  72.093  1.00  0.00    -0.170 C  
HETATM   16  C   UNL     1     -12.285   8.541  71.383  1.00  0.00    -0.304 C  
HETATM   17  C   UNL     1     -10.011   8.783  72.302  1.00  0.00    -0.232 C  
HETATM   18  N   UNL     1     -10.941   9.082  71.179  1.00  0.00    -0.273 NA 
ENDROOT
BRANCH  15  19
HETATM   19  C   UNL     1      -7.631   8.116  71.549  1.00  0.00    -0.083 C  
HETATM   20  O   UNL     1      -7.153   9.214  71.840  1.00  0.00    -0.314 OA 
HETATM   21  N   UNL     1      -7.012   7.260  70.661  1.00  0.00    -0.056 N  
HETATM   22  H   UNL     1      -7.300   6.281  70.661  1.00  0.00     0.000 HD 
BRANCH  21  23
HETATM   23  CA  UNL     1      -5.967   7.667  69.716  1.00  0.00    -0.023 C  
BRANCH  23  24
HETATM   24  C   UNL     1      -6.576   8.699  68.732  1.00  0.00    -0.054 C  
HETATM   25  H   UNL     1      -6.186   9.399  66.920  1.00  0.00     0.000 HD 
HETATM   26  O   UNL     1      -5.813   8.767  67.523  1.00  0.00    -0.042 OA 
ENDBRANCH  23  24
BRANCH  23  27
HETATM   27  C   UNL     1      -5.396   6.471  68.938  1.00  0.00    -0.015 C  
HETATM   28  C   UNL     1      -6.316   5.261  68.891  1.00  0.00    -0.035 C  
ENDBRANCH  23  27
ENDBRANCH  21  23
ENDBRANCH  15  19
TORSDOF 4
ENDMDL
MODEL      120
REMARK 921   NORMALIZED FREE ENERGY PREDICTED BY IDOCK:   -3.50 KCAL/MOL
REMARK 922        TOTAL FREE ENERGY PREDICTED BY IDOCK:   -5.41 KCAL/MOL
REMARK 923 INTER-LIGAND FREE ENERGY PREDICTED BY IDOCK:   -4.86 KCAL/MOL
REMARK 924 INTRA-LIGAND FREE ENERGY PREDICTED BY IDOCK:   -0.54 KCAL/MOL
REMARK 927      BINDING AFFINITY PREDICTED BY RF-SCORE:    0.00 PKD
ROOT
HETATM    1  C   UNL     1     -10.627  12.250  65.780  1.00  0.00    -0.254 C  
HETATM    2  C   UNL     1      -9.559  11.627  64.850  1.00  0.00    -0.173 C  
HETATM    3  C   UNL     1      -8.684  10.768  65.700  1.00  0.00    -0.198 A  
HETATM    4  C   UNL     1      -7.328  10.587  65.811  1.00  0.00    -0.137 A  
HETATM    5  N   UNL     1      -7.124   9.595  66.747  1.00  0.00    -0.085 NA 
HETATM    6  H   UNL     1      -6.211   9.225  67.014  1.00  0.00     0.000 HD 
HETATM    7  C   UNL     1      -8.327   9.172  67.272  1.00  0.00    -0.121 A  
HETATM    8  C   UNL     1      -8.670   8.181  68.190  1.00  0.00    -0.136 A  
HETATM    9  C   UNL     1     -10.025   8.114  68.568  1.00  0.00    -0.204 A  
HETATM   10  C   UNL     1     -10.965   9.072  68.142  1.00  0.00     0.015 A  
HETATM   11  C   UNL     1     -10.587  10.076  67.246  1.00  0.00    -0.319 A  
HETATM   12  C   UNL     1     -11.247  11.358  66.903  1.00  0.00    -0.331 C  
HETATM   13  C   UNL     1      -9.282  10.013  66.734  1.00  0.00    -0.173 A  
HETATM   14  C   UNL     1     -12.069  11.992  67.765  1.00  0.00     0.031 C  
HETATM   15  C   UNL     1     -12.119  13.520  67.672  1.00  0.00    -0.321 C  
HETATM   16  C   UNL     1     -12.690  12.357  64.438  1.00  0.00    -0.342 C  
HETATM   17  C   UNL     1     -12.197  14.020  66.190  1.00  0.00    -0.465 C  
HETATM   18  N   UNL     1     -11.653  13.109  65.145  1.00  0.00    -0.308 NA 
ENDROOT
BRANCH  15  19
HETATM   19  C   UNL     1     -10.825  14.048  68.379  1.00  0.00    -0.249 C  
HETATM   20  O   UNL     1     -10.670  14.051  69.602  1.00  0.00    -0.070 OA 
HETATM   21  N   UNL     1      -9.880  14.571  67.520  1.00  0.00    -0.221 N  
HETATM   22  H   UNL     1      -9.931  14.308  66.536  1.00  0.00     0.000 HD 
BRANCH  21  23
HETATM   23  CA  UNL     1      -8.806  15.481  67.932  1.00  0.00    -0.171 C  
BRANCH  23  24
HETATM   24  C   UNL     1      -8.475  16.414  66.739  1.00  0.00    -0.244 C  
HETATM   25  H   UNL     1      -6.947  17.514  66.121  1.00  0.00     0.000 HD 
HETATM   26  O   UNL     1      -7.150  16.942  66.852  1.00  0.00    -0.171 OA 
ENDBRANCH  23  24
BRANCH  23  27
HETATM   27  C   UNL     1      -7.544  14.723  68.372  1.00  0.00    -0.116 C  
HETATM   28  C   UNL     1      -7.138  13.595  67.436  1.00  0.00    -0.097 C  
ENDBRANCH  23  27
ENDBRANCH  21  23
ENDBRANCH  15  19
TORSDOF 4
ENDMDL
MODEL      121
REMARK 921   NORMALIZED FREE ENERGY PREDICTED BY IDOCK:   -3.49 KCAL/MOL
REMARK 922        TOTAL FREE ENERGY PREDICTED BY IDOCK:   -5.40 KCAL/MOL
REMARK 923 INTER-LIGAND FREE ENERGY PREDICTED BY IDOCK:   -4.36 KCAL/MOL
REMARK 924 INTRA-LIGAND FREE ENERGY PREDICTED BY IDOCK:   -1.03 KCAL/MOL
REMARK 927      BINDING AFFINITY PREDICTED BY RF-SCORE:    0.00 PKD
ROOT
HETATM    1  C   UNL     1      -9.436   7.442  71.096  1.00  0.00    -0.155 C  
HETATM    2  C   UNL     1      -8.541   8.533  71.731  1.00  0.00    -0.254 C  
HETATM    3  C   UNL     1      -8.124   9.452  70.632  1.00  0.00    -0.197 A  
HETATM    4  C   UNL     1      -6.937  10.030  70.259  1.00  0.00    -0.150 A  
HETATM    5  N   UNL     1      -7.201  10.844  69.177  1.00  0.00    -0.107 NA 
HETATM    6  H   UNL     1      -6.510  11.428  68.705  1.00  0.00     0.000 HD 
HETATM    7  C   UNL     1      -8.531  10.758  68.822  1.00  0.00    -0.148 A  
HETATM    8  C   UNL     1      -9.303  11.400  67.854  1.00  0.00    -0.164 A  
HETATM    9  C   UNL     1     -10.634  10.962  67.717  1.00  0.00    -0.255 A  
HETATM   10  C   UNL     1     -11.129   9.851  68.427  1.00  0.00    -0.193 A  
HETATM   11  C   UNL     1     -10.323   9.204  69.369  1.00  0.00    -0.220 A  
HETATM   12  C   UNL     1     -10.456   7.866  69.992  1.00  0.00    -0.231 C  
HETATM   13  C   UNL     1      -9.067   9.772  69.628  1.00  0.00    -0.235 A  
HETATM   14  C   UNL     1     -11.111   6.855  69.382  1.00  0.00    -0.249 C  
HETATM   15  C   UNL     1     -10.623   5.435  69.686  1.00  0.00    -0.328 C  
HETATM   16  C   UNL     1     -11.157   6.936  72.785  1.00  0.00    -0.269 C  
HETATM   17  C   UNL     1     -10.342   5.221  71.212  1.00  0.00    -0.222 C  
HETATM   18  N   UNL     1     -10.020   6.435  72.013  1.00  0.00    -0.168 NA 
ENDROOT
BRANCH  15  19
HETATM   19  C   UNL     1      -9.323   5.225  68.839  1.00  0.00    -0.124 C  
HETATM   20  O   UNL     1      -8.293   4.715  69.286  1.00  0.00    -0.078 OA 
HETATM   21  N   UNL     1      -9.397   5.713  67.550  1.00  0.00    -0.109 N  
HETATM   22  H   UNL     1     -10.323   5.873  67.153  1.00  0.00     0.000 HD 
BRANCH  21  23
HETATM   23  CA  UNL     1      -8.231   6.016  66.714  1.00  0.00    -0.106 C  
BRANCH  23  24
HETATM   24  C   UNL     1      -7.782   7.469  67.014  1.00  0.00    -0.111 C  
HETATM   25  H   UNL     1      -6.425   8.380  68.134  1.00  0.00     0.000 HD 
HETATM   26  O   UNL     1      -6.701   7.490  67.950  1.00  0.00    -0.061 OA 
ENDBRANCH  23  24
BRANCH  23  27
HETATM   27  C   UNL     1      -8.538   5.858  65.217  1.00  0.00    -0.119 C  
HETATM   28  C   UNL     1      -8.165   4.499  64.644  1.00  0.00    -0.109 C  
ENDBRANCH  23  27
ENDBRANCH  21  23
ENDBRANCH  15  19
TORSDOF 4
ENDMDL
MODEL      122
REMARK 921   NORMALIZED FREE ENERGY PREDICTED BY IDOCK:   -3.48 KCAL/MOL
REMARK 922        TOTAL FREE ENERGY PREDICTED BY IDOCK:   -5.39 KCAL/MOL
REMARK 923 INTER-LIGAND FREE ENERGY PREDICTED BY IDOCK:   -4.82 KCAL/MOL
REMARK 924 INTRA-LIGAND FREE ENERGY PREDICTED BY IDOCK:   -0.57 KCAL/MOL
REMARK 927      BINDING AFFINITY PREDICTED BY RF-SCORE:    0.00 PKD
ROOT
HETATM    1  C   UNL     1     -10.896   8.568  71.037  1.00  0.00    -0.241 C  
HETATM    2  C   UNL     1     -10.779   9.883  70.231  1.00  0.00    -0.367 C  
HETATM    3  C   UNL     1      -9.948   9.588  69.028  1.00  0.00    -0.185 A  
HETATM    4  C   UNL     1      -8.902  10.219  68.402  1.00  0.00    -0.129 A  
HETATM    5  N   UNL     1      -8.590   9.478  67.281  1.00  0.00    -0.128 NA 
HETATM    6  H   UNL     1      -7.870   9.725  66.602  1.00  0.00     0.000 HD 
HETATM    7  C   UNL     1      -9.389   8.356  67.207  1.00  0.00    -0.146 A  
HETATM    8  C   UNL     1      -9.509   7.332  66.269  1.00  0.00    -0.133 A  
HETATM    9  C   UNL     1     -10.380   6.275  66.597  1.00  0.00    -0.235 A  
HETATM   10  C   UNL     1     -11.002   6.187  67.858  1.00  0.00    -0.399 A  
HETATM   11  C   UNL     1     -10.839   7.213  68.794  1.00  0.00    -0.157 A  
HETATM   12  C   UNL     1     -11.088   7.230  70.254  1.00  0.00    -0.289 C  
HETATM   13  C   UNL     1     -10.122   8.345  68.378  1.00  0.00    -0.224 A  
HETATM   14  C   UNL     1     -11.047   6.105  71.001  1.00  0.00    -0.359 C  
HETATM   15  C   UNL     1     -10.607   6.262  72.459  1.00  0.00    -0.239 C  
HETATM   16  C   UNL     1     -13.168   8.577  71.990  1.00  0.00    -0.369 C  
HETATM   17  C   UNL     1     -11.281   7.495  73.151  1.00  0.00    -0.267 C  
HETATM   18  N   UNL     1     -11.730   8.602  72.262  1.00  0.00    -0.370 NA 
ENDROOT
BRANCH  15  19
HETATM   19  C   UNL     1      -9.048   6.411  72.437  1.00  0.00    -0.137 C  
HETATM   20  O   UNL     1      -8.432   7.231  73.120  1.00  0.00    -0.116 OA 
HETATM   21  N   UNL     1      -8.409   5.581  71.537  1.00  0.00    -0.122 N  
HETATM   22  H   UNL     1      -8.914   4.760  71.204  1.00  0.00     0.000 HD 
BRANCH  21  23
HETATM   23  CA  UNL     1      -7.053   5.805  71.029  1.00  0.00    -0.068 C  
BRANCH  23  24
HETATM   24  C   UNL     1      -6.076   5.809  72.233  1.00  0.00    -0.040 C  
HETATM   25  H   UNL     1      -5.502   4.554  73.655  1.00  0.00     0.000 HD 
HETATM   26  O   UNL     1      -6.100   4.552  72.917  1.00  0.00    -0.015 OA 
ENDBRANCH  23  24
BRANCH  23  27
HETATM   27  C   UNL     1      -6.937   7.128  70.255  1.00  0.00    -0.061 C  
HETATM   28  C   UNL     1      -5.554   7.395  69.681  1.00  0.00    -0.023 C  
ENDBRANCH  23  27
ENDBRANCH  21  23
ENDBRANCH  15  19
TORSDOF 4
ENDMDL
MODEL      123
REMARK 921   NORMALIZED FREE ENERGY PREDICTED BY IDOCK:   -3.47 KCAL/MOL
REMARK 922        TOTAL FREE ENERGY PREDICTED BY IDOCK:   -5.38 KCAL/MOL
REMARK 923 INTER-LIGAND FREE ENERGY PREDICTED BY IDOCK:   -5.07 KCAL/MOL
REMARK 924 INTRA-LIGAND FREE ENERGY PREDICTED BY IDOCK:   -0.31 KCAL/MOL
REMARK 927      BINDING AFFINITY PREDICTED BY RF-SCORE:    0.00 PKD
ROOT
HETATM    1  C   UNL     1      -7.222   8.781  66.965  1.00  0.00    -0.079 C  
HETATM    2  C   UNL     1      -6.479   8.668  68.318  1.00  0.00    -0.060 C  
HETATM    3  C   UNL     1      -7.503   8.810  69.394  1.00  0.00    -0.080 A  
HETATM    4  C   UNL     1      -7.573   9.516  70.569  1.00  0.00    -0.149 A  
HETATM    5  N   UNL     1      -8.770   9.188  71.172  1.00  0.00    -0.284 NA 
HETATM    6  H   UNL     1      -9.080   9.538  72.078  1.00  0.00     0.000 HD 
HETATM    7  C   UNL     1      -9.488   8.319  70.376  1.00  0.00    -0.167 A  
HETATM    8  C   UNL     1     -10.706   7.661  70.543  1.00  0.00    -0.241 A  
HETATM    9  C   UNL     1     -11.178   6.922  69.441  1.00  0.00    -0.215 A  
HETATM   10  C   UNL     1     -10.524   6.944  68.194  1.00  0.00    -0.243 A  
HETATM   11  C   UNL     1      -9.320   7.640  68.045  1.00  0.00    -0.144 A  
HETATM   12  C   UNL     1      -8.618   8.095  66.822  1.00  0.00    -0.136 C  
HETATM   13  C   UNL     1      -8.769   8.212  69.201  1.00  0.00    -0.140 A  
HETATM   14  C   UNL     1      -9.275   8.342  65.669  1.00  0.00    -0.118 C  
HETATM   15  C   UNL     1      -8.682   9.419  64.756  1.00  0.00    -0.227 C  
HETATM   16  C   UNL     1      -6.068   7.222  65.446  1.00  0.00    -0.038 C  
HETATM   17  C   UNL     1      -7.127   9.289  64.620  1.00  0.00    -0.096 C  
HETATM   18  N   UNL     1      -6.410   8.615  65.737  1.00  0.00    -0.055 NA 
ENDROOT
BRANCH  15  19
HETATM   19  C   UNL     1      -9.081  10.798  65.383  1.00  0.00    -0.194 C  
HETATM   20  O   UNL     1      -8.343  11.445  66.130  1.00  0.00    -0.155 OA 
HETATM   21  N   UNL     1     -10.362  11.213  65.080  1.00  0.00    -0.287 N  
HETATM   22  H   UNL     1     -10.819  10.796  64.269  1.00  0.00     0.000 HD 
BRANCH  21  23
HETATM   23  CA  UNL     1     -11.107  12.215  65.848  1.00  0.00    -0.318 C  
BRANCH  23  24
HETATM   24  C   UNL     1     -11.421  11.623  67.246  1.00  0.00    -0.277 C  
HETATM   25  H   UNL     1     -10.988  12.025  69.137  1.00  0.00     0.000 HD 
HETATM   26  O   UNL     1     -10.796  12.388  68.280  1.00  0.00    -0.217 OA 
ENDBRANCH  23  24
BRANCH  23  27
HETATM   27  C   UNL     1     -12.411  12.627  65.147  1.00  0.00    -0.531 C  
HETATM   28  C   UNL     1     -12.528  12.137  63.712  1.00  0.00    -0.620 C  
ENDBRANCH  23  27
ENDBRANCH  21  23
ENDBRANCH  15  19
TORSDOF 4
ENDMDL
MODEL      124
REMARK 921   NORMALIZED FREE ENERGY PREDICTED BY IDOCK:   -3.41 KCAL/MOL
REMARK 922        TOTAL FREE ENERGY PREDICTED BY IDOCK:   -5.30 KCAL/MOL
REMARK 923 INTER-LIGAND FREE ENERGY PREDICTED BY IDOCK:   -4.46 KCAL/MOL
REMARK 924 INTRA-LIGAND FREE ENERGY PREDICTED BY IDOCK:   -0.84 KCAL/MOL
REMARK 927      BINDING AFFINITY PREDICTED BY RF-SCORE:    0.00 PKD
ROOT
HETATM    1  C   UNL     1      -9.822   7.660  70.938  1.00  0.00    -0.176 C  
HETATM    2  C   UNL     1      -9.239   9.051  71.287  1.00  0.00    -0.314 C  
HETATM    3  C   UNL     1      -8.531   9.547  70.072  1.00  0.00    -0.210 A  
HETATM    4  C   UNL     1      -7.316  10.143  69.842  1.00  0.00    -0.165 A  
HETATM    5  N   UNL     1      -7.249  10.428  68.494  1.00  0.00    -0.081 NA 
HETATM    6  H   UNL     1      -6.471  10.904  68.038  1.00  0.00     0.000 HD 
HETATM    7  C   UNL     1      -8.383   9.979  67.850  1.00  0.00    -0.117 A  
HETATM    8  C   UNL     1      -8.824  10.060  66.530  1.00  0.00    -0.154 A  
HETATM    9  C   UNL     1     -10.013   9.373  66.220  1.00  0.00    -0.353 A  
HETATM   10  C   UNL     1     -10.659   8.543  67.155  1.00  0.00    -0.314 A  
HETATM   11  C   UNL     1     -10.177   8.453  68.465  1.00  0.00    -0.228 A  
HETATM   12  C   UNL     1     -10.442   7.448  69.520  1.00  0.00    -0.236 C  
HETATM   13  C   UNL     1      -9.105   9.291  68.806  1.00  0.00    -0.136 A  
HETATM   14  C   UNL     1     -10.810   6.182  69.228  1.00  0.00    -0.418 C  
HETATM   15  C   UNL     1     -10.380   5.094  70.216  1.00  0.00    -0.331 C  
HETATM   16  C   UNL     1     -11.976   7.530  72.128  1.00  0.00    -0.285 C  
HETATM   17  C   UNL     1     -10.607   5.524  71.704  1.00  0.00    -0.231 C  
HETATM   18  N   UNL     1     -10.625   6.986  71.986  1.00  0.00    -0.209 NA 
ENDROOT
BRANCH  15  19
HETATM   19  C   UNL     1      -8.865   4.814  69.933  1.00  0.00    -0.090 C  
HETATM   20  O   UNL     1      -7.999   4.808  70.811  1.00  0.00    -0.078 OA 
HETATM   21  N   UNL     1      -8.558   4.631  68.600  1.00  0.00    -0.088 N  
HETATM   22  H   UNL     1      -9.317   4.382  67.966  1.00  0.00     0.000 HD 
BRANCH  21  23
HETATM   23  CA  UNL     1      -7.212   4.770  68.038  1.00  0.00    -0.066 C  
BRANCH  23  24
HETATM   24  C   UNL     1      -6.326   3.633  68.608  1.00  0.00    -0.033 C  
HETATM   25  H   UNL     1      -6.243   1.655  68.515  1.00  0.00     0.000 HD 
HETATM   26  O   UNL     1      -6.785   2.352  68.166  1.00  0.00    -0.038 OA 
ENDBRANCH  23  24
BRANCH  23  27
HETATM   27  C   UNL     1      -6.588   6.136  68.364  1.00  0.00    -0.058 C  
HETATM   28  C   UNL     1      -6.329   7.009  67.146  1.00  0.00    -0.052 C  
ENDBRANCH  23  27
ENDBRANCH  21  23
ENDBRANCH  15  19
TORSDOF 4
ENDMDL
MODEL      125
REMARK 921   NORMALIZED FREE ENERGY PREDICTED BY IDOCK:   -3.40 KCAL/MOL
REMARK 922        TOTAL FREE ENERGY PREDICTED BY IDOCK:   -5.29 KCAL/MOL
REMARK 923 INTER-LIGAND FREE ENERGY PREDICTED BY IDOCK:   -4.51 KCAL/MOL
REMARK 924 INTRA-LIGAND FREE ENERGY PREDICTED BY IDOCK:   -0.78 KCAL/MOL
REMARK 927      BINDING AFFINITY PREDICTED BY RF-SCORE:    0.00 PKD
ROOT
HETATM    1  C   UNL     1     -10.660   8.014  71.053  1.00  0.00    -0.213 C  
HETATM    2  C   UNL     1     -10.047   9.434  71.102  1.00  0.00    -0.335 C  
HETATM    3  C   UNL     1      -8.969   9.482  70.072  1.00  0.00    -0.249 A  
HETATM    4  C   UNL     1      -7.680   9.953  70.049  1.00  0.00    -0.178 A  
HETATM    5  N   UNL     1      -7.199   9.765  68.769  1.00  0.00    -0.071 NA 
HETATM    6  H   UNL     1      -6.274  10.050  68.447  1.00  0.00     0.000 HD 
HETATM    7  C   UNL     1      -8.145   9.136  67.987  1.00  0.00    -0.105 A  
HETATM    8  C   UNL     1      -8.179   8.771  66.641  1.00  0.00    -0.107 A  
HETATM    9  C   UNL     1      -9.300   8.032  66.217  1.00  0.00    -0.246 A  
HETATM   10  C   UNL     1     -10.276   7.574  67.122  1.00  0.00    -0.350 A  
HETATM   11  C   UNL     1     -10.202   7.927  68.474  1.00  0.00    -0.229 A  
HETATM   12  C   UNL     1     -10.869   7.341  69.659  1.00  0.00    -0.238 C  
HETATM   13  C   UNL     1      -9.184   8.819  68.842  1.00  0.00    -0.141 A  
HETATM   14  C   UNL     1     -11.279   6.055  69.687  1.00  0.00    -0.428 C  
HETATM   15  C   UNL     1     -11.276   5.360  71.052  1.00  0.00     0.121 C  
HETATM   16  C   UNL     1     -13.064   8.317  71.500  1.00  0.00    -0.293 C  
HETATM   17  C   UNL     1     -11.868   6.271  72.180  1.00  0.00    -0.315 C  
HETATM   18  N   UNL     1     -11.800   7.743  71.961  1.00  0.00    -0.293 NA 
ENDROOT
BRANCH  15  19
HETATM   19  C   UNL     1      -9.785   4.986  71.353  1.00  0.00    -0.171 C  
HETATM   20  O   UNL     1      -9.150   4.148  70.708  1.00  0.00    -0.096 OA 
HETATM   21  N   UNL     1      -9.245   5.630  72.447  1.00  0.00    -0.144 N  
HETATM   22  H   UNL     1      -9.701   6.483  72.771  1.00  0.00     0.000 HD 
BRANCH  21  23
HETATM   23  CA  UNL     1      -8.059   5.168  73.174  1.00  0.00    -0.105 C  
BRANCH  23  24
HETATM   24  C   UNL     1      -8.515   4.150  74.251  1.00  0.00    -0.097 C  
HETATM   25  H   UNL     1      -8.328   2.209  74.602  1.00  0.00     0.000 HD 
HETATM   26  O   UNL     1      -8.049   2.833  73.942  1.00  0.00    -0.065 OA 
ENDBRANCH  23  24
BRANCH  23  27
HETATM   27  C   UNL     1      -7.299   6.328  73.836  1.00  0.00    -0.086 C  
HETATM   28  C   UNL     1      -7.050   7.514  72.917  1.00  0.00    -0.078 C  
ENDBRANCH  23  27
ENDBRANCH  21  23
ENDBRANCH  15  19
TORSDOF 4
ENDMDL
MODEL      126
REMARK 921   NORMALIZED FREE ENERGY PREDICTED BY IDOCK:   -3.39 KCAL/MOL
REMARK 922        TOTAL FREE ENERGY PREDICTED BY IDOCK:   -5.28 KCAL/MOL
REMARK 923 INTER-LIGAND FREE ENERGY PREDICTED BY IDOCK:   -4.41 KCAL/MOL
REMARK 924 INTRA-LIGAND FREE ENERGY PREDICTED BY IDOCK:   -0.87 KCAL/MOL
REMARK 927      BINDING AFFINITY PREDICTED BY RF-SCORE:    0.00 PKD
ROOT
HETATM    1  C   UNL     1     -10.447   7.735  70.044  1.00  0.00    -0.230 C  
HETATM    2  C   UNL     1     -11.182   6.390  69.831  1.00  0.00    -0.485 C  
HETATM    3  C   UNL     1     -10.159   5.309  69.937  1.00  0.00    -0.333 A  
HETATM    4  C   UNL     1      -9.870   4.183  69.209  1.00  0.00    -0.067 A  
HETATM    5  N   UNL     1      -8.830   3.539  69.847  1.00  0.00    -0.080 NA 
HETATM    6  H   UNL     1      -8.423   2.653  69.548  1.00  0.00     0.000 HD 
HETATM    7  C   UNL     1      -8.418   4.263  70.946  1.00  0.00    -0.083 A  
HETATM    8  C   UNL     1      -7.461   4.033  71.934  1.00  0.00    -0.061 A  
HETATM    9  C   UNL     1      -7.244   5.075  72.855  1.00  0.00    -0.085 A  
HETATM   10  C   UNL     1      -7.864   6.331  72.718  1.00  0.00    -0.105 A  
HETATM   11  C   UNL     1      -8.796   6.547  71.699  1.00  0.00    -0.135 A  
HETATM   12  C   UNL     1      -9.330   7.808  71.134  1.00  0.00    -0.164 C  
HETATM   13  C   UNL     1      -9.140   5.440  70.908  1.00  0.00    -0.164 A  
HETATM   14  C   UNL     1      -8.634   8.964  71.180  1.00  0.00    -0.263 C  
HETATM   15  C   UNL     1      -8.870   9.957  70.038  1.00  0.00    -0.194 C  
HETATM   16  C   UNL     1     -12.031   9.166  71.273  1.00  0.00    -0.325 C  
HETATM   17  C   UNL     1     -10.390  10.109  69.693  1.00  0.00    -0.247 C  
HETATM   18  N   UNL     1     -11.276   8.963  70.036  1.00  0.00    -0.170 NA 
ENDROOT
BRANCH  15  19
HETATM   19  C   UNL     1      -8.064   9.416  68.809  1.00  0.00    -0.103 C  
HETATM   20  O   UNL     1      -6.866   9.127  68.854  1.00  0.00    -0.055 OA 
HETATM   21  N   UNL     1      -8.792   9.340  67.638  1.00  0.00    -0.120 N  
HETATM   22  H   UNL     1      -9.809   9.329  67.709  1.00  0.00     0.000 HD 
BRANCH  21  23
HETATM   23  CA  UNL     1      -8.196   9.274  66.301  1.00  0.00    -0.107 C  
BRANCH  23  24
HETATM   24  C   UNL     1      -8.790  10.424  65.446  1.00  0.00    -0.179 C  
HETATM   25  H   UNL     1     -10.318  10.692  64.213  1.00  0.00     0.000 HD 
HETATM   26  O   UNL     1      -9.954   9.988  64.737  1.00  0.00    -0.321 OA 
ENDBRANCH  23  24
BRANCH  23  27
HETATM   27  C   UNL     1      -8.459   7.922  65.618  1.00  0.00    -0.160 C  
HETATM   28  C   UNL     1      -9.445   7.032  66.358  1.00  0.00    -0.176 C  
ENDBRANCH  23  27
ENDBRANCH  21  23
ENDBRANCH  15  19
TORSDOF 4
ENDMDL
MODEL      127
REMARK 921   NORMALIZED FREE ENERGY PREDICTED BY IDOCK:   -3.35 KCAL/MOL
REMARK 922        TOTAL FREE ENERGY PREDICTED BY IDOCK:   -5.23 KCAL/MOL
REMARK 923 INTER-LIGAND FREE ENERGY PREDICTED BY IDOCK:   -5.10 KCAL/MOL
REMARK 924 INTRA-LIGAND FREE ENERGY PREDICTED BY IDOCK:   -0.13 KCAL/MOL
REMARK 927      BINDING AFFINITY PREDICTED BY RF-SCORE:    0.00 PKD
ROOT
HETATM    1  C   UNL     1      -8.658   9.584  69.229  1.00  0.00    -0.149 C  
HETATM    2  C   UNL     1      -7.562  10.668  69.098  1.00  0.00    -0.131 C  
HETATM    3  C   UNL     1      -8.111  11.744  68.223  1.00  0.00    -0.154 A  
HETATM    4  C   UNL     1      -7.621  12.465  67.162  1.00  0.00    -0.104 A  
HETATM    5  N   UNL     1      -8.595  13.374  66.803  1.00  0.00    -0.430 NA 
HETATM    6  H   UNL     1      -8.498  14.069  66.062  1.00  0.00     0.000 HD 
HETATM    7  C   UNL     1      -9.718  13.212  67.586  1.00  0.00    -0.213 A  
HETATM    8  C   UNL     1     -10.933  13.893  67.662  1.00  0.00    -0.278 A  
HETATM    9  C   UNL     1     -11.902  13.357  68.533  1.00  0.00    -0.401 A  
HETATM   10  C   UNL     1     -11.709  12.131  69.198  1.00  0.00    -0.384 A  
HETATM   11  C   UNL     1     -10.493  11.451  69.079  1.00  0.00    -0.196 A  
HETATM   12  C   UNL     1     -10.144  10.043  69.379  1.00  0.00    -0.235 C  
HETATM   13  C   UNL     1      -9.473  12.095  68.360  1.00  0.00    -0.179 A  
HETATM   14  C   UNL     1     -11.066   9.057  69.353  1.00  0.00    -0.000 C  
HETATM   15  C   UNL     1     -10.569   7.661  68.966  1.00  0.00    -0.186 C  
HETATM   16  C   UNL     1      -8.472   8.732  71.534  1.00  0.00    -0.167 C  
HETATM   17  C   UNL     1      -9.223   7.294  69.678  1.00  0.00    -0.143 C  
HETATM   18  N   UNL     1      -8.359   8.428  70.107  1.00  0.00    -0.117 NA 
ENDROOT
BRANCH  15  19
HETATM   19  C   UNL     1     -10.401   7.667  67.409  1.00  0.00    -0.277 C  
HETATM   20  O   UNL     1     -10.754   6.736  66.682  1.00  0.00    -0.245 OA 
HETATM   21  N   UNL     1      -9.765   8.786  66.909  1.00  0.00    -0.190 N  
HETATM   22  H   UNL     1      -9.739   9.621  67.494  1.00  0.00     0.000 HD 
BRANCH  21  23
HETATM   23  CA  UNL     1      -9.127   8.852  65.591  1.00  0.00    -0.212 C  
BRANCH  23  24
HETATM   24  C   UNL     1      -7.643   8.430  65.748  1.00  0.00    -0.085 C  
HETATM   25  H   UNL     1      -5.874   9.316  65.854  1.00  0.00     0.000 HD 
HETATM   26  O   UNL     1      -6.783   9.573  65.758  1.00  0.00    -0.078 OA 
ENDBRANCH  23  24
BRANCH  23  27
HETATM   27  C   UNL     1      -9.212  10.258  64.978  1.00  0.00    -0.259 C  
HETATM   28  C   UNL     1     -10.600  10.878  65.031  1.00  0.00    -0.287 C  
ENDBRANCH  23  27
ENDBRANCH  21  23
ENDBRANCH  15  19
TORSDOF 4
ENDMDL
MODEL      128
REMARK 921   NORMALIZED FREE ENERGY PREDICTED BY IDOCK:   -3.33 KCAL/MOL
REMARK 922        TOTAL FREE ENERGY PREDICTED BY IDOCK:   -5.20 KCAL/MOL
REMARK 923 INTER-LIGAND FREE ENERGY PREDICTED BY IDOCK:   -4.68 KCAL/MOL
REMARK 924 INTRA-LIGAND FREE ENERGY PREDICTED BY IDOCK:   -0.52 KCAL/MOL
REMARK 927      BINDING AFFINITY PREDICTED BY RF-SCORE:    0.00 PKD
ROOT
HETATM    1  C   UNL     1      -7.954   7.005  68.090  1.00  0.00    -0.119 C  
HETATM    2  C   UNL     1      -6.652   6.204  68.327  1.00  0.00    -0.058 C  
HETATM    3  C   UNL     1      -6.988   4.760  68.159  1.00  0.00    -0.057 A  
HETATM    4  C   UNL     1      -6.701   3.617  68.862  1.00  0.00    -0.045 A  
HETATM    5  N   UNL     1      -7.251   2.560  68.166  1.00  0.00    -0.048 NA 
HETATM    6  H   UNL     1      -7.170   1.580  68.435  1.00  0.00     0.000 HD 
HETATM    7  C   UNL     1      -7.928   3.017  67.054  1.00  0.00    -0.079 A  
HETATM    8  C   UNL     1      -8.600   2.371  66.016  1.00  0.00    -0.110 A  
HETATM    9  C   UNL     1      -9.274   3.195  65.094  1.00  0.00    -0.150 A  
HETATM   10  C   UNL     1      -9.374   4.588  65.274  1.00  0.00    -0.160 A  
HETATM   11  C   UNL     1      -8.718   5.207  66.342  1.00  0.00    -0.113 A  
HETATM   12  C   UNL     1      -8.912   6.546  66.945  1.00  0.00    -0.128 C  
HETATM   13  C   UNL     1      -7.897   4.395  67.140  1.00  0.00    -0.097 A  
HETATM   14  C   UNL     1     -10.092   7.198  66.874  1.00  0.00    -0.308 C  
HETATM   15  C   UNL     1     -10.431   8.137  68.036  1.00  0.00    -0.242 C  
HETATM   16  C   UNL     1      -7.256   9.078  66.956  1.00  0.00    -0.086 C  
HETATM   17  C   UNL     1      -9.208   9.019  68.459  1.00  0.00    -0.136 C  
HETATM   18  N   UNL     1      -7.854   8.483  68.151  1.00  0.00    -0.102 NA 
ENDROOT
BRANCH  15  19
HETATM   19  C   UNL     1     -10.905   7.224  69.217  1.00  0.00    -0.159 C  
HETATM   20  O   UNL     1     -11.391   6.102  69.058  1.00  0.00    -0.390 OA 
HETATM   21  N   UNL     1     -10.789   7.801  70.466  1.00  0.00    -0.238 N  
HETATM   22  H   UNL     1     -10.152   8.591  70.569  1.00  0.00     0.000 HD 
BRANCH  21  23
HETATM   23  CA  UNL     1     -11.521   7.351  71.653  1.00  0.00    -0.263 C  
BRANCH  23  24
HETATM   24  C   UNL     1     -12.953   7.944  71.595  1.00  0.00    -0.334 C  
HETATM   25  H   UNL     1     -13.954   9.437  72.428  1.00  0.00     0.000 HD 
HETATM   26  O   UNL     1     -13.077   9.074  72.464  1.00  0.00    -0.433 OA 
ENDBRANCH  23  24
BRANCH  23  27
HETATM   27  C   UNL     1     -10.828   7.779  72.956  1.00  0.00    -0.451 C  
HETATM   28  C   UNL     1     -10.367   6.620  73.826  1.00  0.00    -0.373 C  
ENDBRANCH  23  27
ENDBRANCH  21  23
ENDBRANCH  15  19
TORSDOF 4
ENDMDL
MODEL      129
REMARK 921   NORMALIZED FREE ENERGY PREDICTED BY IDOCK:   -3.28 KCAL/MOL
REMARK 922        TOTAL FREE ENERGY PREDICTED BY IDOCK:   -5.14 KCAL/MOL
REMARK 923 INTER-LIGAND FREE ENERGY PREDICTED BY IDOCK:   -4.51 KCAL/MOL
REMARK 924 INTRA-LIGAND FREE ENERGY PREDICTED BY IDOCK:   -0.63 KCAL/MOL
REMARK 927      BINDING AFFINITY PREDICTED BY RF-SCORE:    0.00 PKD
ROOT
HETATM    1  C   UNL     1      -7.164  10.126  65.820  1.00  0.00    -0.128 C  
HETATM    2  C   UNL     1      -5.913  10.805  66.427  1.00  0.00    -0.110 C  
HETATM    3  C   UNL     1      -6.174  10.980  67.885  1.00  0.00    -0.053 A  
HETATM    4  C   UNL     1      -6.000  12.009  68.777  1.00  0.00    -0.056 A  
HETATM    5  N   UNL     1      -6.377  11.541  70.019  1.00  0.00    -0.226 NA 
HETATM    6  H   UNL     1      -6.324  12.079  70.885  1.00  0.00     0.000 HD 
HETATM    7  C   UNL     1      -6.834  10.243  69.926  1.00  0.00    -0.134 A  
HETATM    8  C   UNL     1      -7.274   9.318  70.872  1.00  0.00    -0.113 A  
HETATM    9  C   UNL     1      -7.776   8.100  70.376  1.00  0.00    -0.085 A  
HETATM   10  C   UNL     1      -7.945   7.870  68.997  1.00  0.00    -0.122 A  
HETATM   11  C   UNL     1      -7.526   8.829  68.069  1.00  0.00    -0.093 A  
HETATM   12  C   UNL     1      -7.868   8.996  66.638  1.00  0.00    -0.100 C  
HETATM   13  C   UNL     1      -6.856   9.953  68.576  1.00  0.00    -0.059 A  
HETATM   14  C   UNL     1      -9.028   8.537  66.120  1.00  0.00    -0.220 C  
HETATM   15  C   UNL     1      -9.611   9.317  64.938  1.00  0.00     0.069 C  
HETATM   16  C   UNL     1      -6.311   8.614  64.071  1.00  0.00    -0.072 C  
HETATM   17  C   UNL     1      -8.517   9.697  63.883  1.00  0.00    -0.187 C  
HETATM   18  N   UNL     1      -7.116   9.798  64.375  1.00  0.00    -0.123 NA 
ENDROOT
BRANCH  15  19
HETATM   19  C   UNL     1     -10.283  10.597  65.541  1.00  0.00    -0.262 C  
HETATM   20  O   UNL     1     -10.941  10.593  66.584  1.00  0.00    -0.190 OA 
HETATM   21  N   UNL     1     -10.130  11.735  64.776  1.00  0.00    -0.257 N  
HETATM   22  H   UNL     1      -9.376  11.750  64.089  1.00  0.00     0.000 HD 
BRANCH  21  23
HETATM   23  CA  UNL     1     -10.980  12.924  64.888  1.00  0.00    -0.301 C  
BRANCH  23  24
HETATM   24  C   UNL     1     -12.142  12.788  63.871  1.00  0.00    -0.486 C  
HETATM   25  H   UNL     1     -14.106  12.529  63.919  1.00  0.00     0.000 HD 
HETATM   26  O   UNL     1     -13.394  12.612  64.542  1.00  0.00    -0.679 OA 
ENDBRANCH  23  24
BRANCH  23  27
HETATM   27  C   UNL     1     -10.198  14.220  64.623  1.00  0.00    -0.147 C  
HETATM   28  C   UNL     1     -11.061  15.472  64.591  1.00  0.00    -0.373 C  
ENDBRANCH  23  27
ENDBRANCH  21  23
ENDBRANCH  15  19
TORSDOF 4
ENDMDL
MODEL      130
REMARK 921   NORMALIZED FREE ENERGY PREDICTED BY IDOCK:   -3.21 KCAL/MOL
REMARK 922        TOTAL FREE ENERGY PREDICTED BY IDOCK:   -5.05 KCAL/MOL
REMARK 923 INTER-LIGAND FREE ENERGY PREDICTED BY IDOCK:   -5.04 KCAL/MOL
REMARK 924 INTRA-LIGAND FREE ENERGY PREDICTED BY IDOCK:   -0.01 KCAL/MOL
REMARK 927      BINDING AFFINITY PREDICTED BY RF-SCORE:    0.00 PKD
ROOT
HETATM    1  C   UNL     1     -10.679  13.104  68.382  1.00  0.00    -0.253 C  
HETATM    2  C   UNL     1     -10.789  14.574  68.852  1.00  0.00    -0.262 C  
HETATM    3  C   UNL     1     -10.632  15.434  67.643  1.00  0.00    -0.280 A  
HETATM    4  C   UNL     1      -9.917  16.570  67.357  1.00  0.00    -0.267 A  
HETATM    5  N   UNL     1     -10.233  16.936  66.064  1.00  0.00    -0.407 NA 
HETATM    6  H   UNL     1      -9.874  17.765  65.590  1.00  0.00     0.000 HD 
HETATM    7  C   UNL     1     -11.101  16.023  65.504  1.00  0.00    -0.105 A  
HETATM    8  C   UNL     1     -11.750  15.957  64.271  1.00  0.00    -0.132 A  
HETATM    9  C   UNL     1     -12.493  14.790  64.012  1.00  0.00    -0.015 A  
HETATM   10  C   UNL     1     -12.484  13.690  64.891  1.00  0.00    -0.423 A  
HETATM   11  C   UNL     1     -11.798  13.769  66.107  1.00  0.00    -0.424 A  
HETATM   12  C   UNL     1     -11.356  12.701  67.033  1.00  0.00    -0.377 C  
HETATM   13  C   UNL     1     -11.222  15.007  66.432  1.00  0.00    -0.310 A  
HETATM   14  C   UNL     1     -11.112  11.442  66.610  1.00  0.00    -0.333 C  
HETATM   15  C   UNL     1     -10.046  10.653  67.375  1.00  0.00    -0.231 C  
HETATM   16  C   UNL     1     -12.257  11.841  69.791  1.00  0.00    -0.203 C  
HETATM   17  C   UNL     1     -10.188  10.817  68.926  1.00  0.00    -0.203 C  
HETATM   18  N   UNL     1     -10.860  12.054  69.413  1.00  0.00    -0.079 NA 
ENDROOT
BRANCH  15  19
HETATM   19  C   UNL     1      -8.660  11.185  66.876  1.00  0.00    -0.148 C  
HETATM   20  O   UNL     1      -8.432  11.500  65.706  1.00  0.00    -0.036 OA 
HETATM   21  N   UNL     1      -7.680  11.222  67.847  1.00  0.00    -0.106 N  
HETATM   22  H   UNL     1      -7.975  11.213  68.824  1.00  0.00     0.000 HD 
BRANCH  21  23
HETATM   23  CA  UNL     1      -6.242  11.273  67.566  1.00  0.00    -0.064 C  
BRANCH  23  24
HETATM   24  C   UNL     1      -5.779  12.749  67.662  1.00  0.00    -0.134 C  
HETATM   25  H   UNL     1      -6.385  14.419  68.541  1.00  0.00     0.000 HD 
HETATM   26  O   UNL     1      -6.668  13.514  68.482  1.00  0.00    -0.080 OA 
ENDBRANCH  23  24
BRANCH  23  27
HETATM   27  C   UNL     1      -5.905  10.706  66.178  1.00  0.00    -0.112 C  
HETATM   28  C   UNL     1      -5.759   9.192  66.143  1.00  0.00    -0.053 C  
ENDBRANCH  23  27
ENDBRANCH  21  23
ENDBRANCH  15  19
TORSDOF 4
ENDMDL
MODEL      131
REMARK 921   NORMALIZED FREE ENERGY PREDICTED BY IDOCK:   -3.21 KCAL/MOL
REMARK 922        TOTAL FREE ENERGY PREDICTED BY IDOCK:   -5.05 KCAL/MOL
REMARK 923 INTER-LIGAND FREE ENERGY PREDICTED BY IDOCK:   -4.41 KCAL/MOL
REMARK 924 INTRA-LIGAND FREE ENERGY PREDICTED BY IDOCK:   -0.64 KCAL/MOL
REMARK 927      BINDING AFFINITY PREDICTED BY RF-SCORE:    0.00 PKD
ROOT
HETATM    1  C   UNL     1      -9.344   7.749  68.917  1.00  0.00    -0.146 C  
HETATM    2  C   UNL     1      -8.060   8.143  68.147  1.00  0.00    -0.128 C  
HETATM    3  C   UNL     1      -7.576   6.918  67.446  1.00  0.00    -0.109 A  
HETATM    4  C   UNL     1      -6.351   6.320  67.289  1.00  0.00    -0.037 A  
HETATM    5  N   UNL     1      -6.533   5.224  66.471  1.00  0.00    -0.043 NA 
HETATM    6  H   UNL     1      -5.788   4.604  66.154  1.00  0.00     0.000 HD 
HETATM    7  C   UNL     1      -7.866   5.086  66.141  1.00  0.00    -0.099 A  
HETATM    8  C   UNL     1      -8.556   4.195  65.319  1.00  0.00    -0.119 A  
HETATM    9  C   UNL     1      -9.960   4.302  65.315  1.00  0.00    -0.229 A  
HETATM   10  C   UNL     1     -10.644   5.172  66.186  1.00  0.00    -0.293 A  
HETATM   11  C   UNL     1      -9.927   6.033  67.024  1.00  0.00    -0.197 A  
HETATM   12  C   UNL     1     -10.358   6.781  68.227  1.00  0.00    -0.215 C  
HETATM   13  C   UNL     1      -8.532   6.046  66.877  1.00  0.00    -0.109 A  
HETATM   14  C   UNL     1     -11.387   6.368  68.997  1.00  0.00    -0.332 C  
HETATM   15  C   UNL     1     -11.315   6.716  70.487  1.00  0.00    -0.413 C  
HETATM   16  C   UNL     1     -10.819   9.718  68.791  1.00  0.00    -0.188 C  
HETATM   17  C   UNL     1     -10.856   8.194  70.728  1.00  0.00    -0.228 C  
HETATM   18  N   UNL     1     -10.042   8.828  69.654  1.00  0.00    -0.198 NA 
ENDROOT
BRANCH  15  19
HETATM   19  C   UNL     1     -10.310   5.701  71.130  1.00  0.00    -0.232 C  
HETATM   20  O   UNL     1     -10.238   4.515  70.802  1.00  0.00    -0.194 OA 
HETATM   21  N   UNL     1      -9.539   6.228  72.146  1.00  0.00    -0.151 N  
HETATM   22  H   UNL     1      -9.443   7.242  72.195  1.00  0.00     0.000 HD 
BRANCH  21  23
HETATM   23  CA  UNL     1      -8.850   5.424  73.160  1.00  0.00    -0.119 C  
BRANCH  23  24
HETATM   24  C   UNL     1      -9.372   5.849  74.556  1.00  0.00    -0.159 C  
HETATM   25  H   UNL     1     -10.593   7.217  75.308  1.00  0.00     0.000 HD 
HETATM   26  O   UNL     1     -10.273   6.956  74.453  1.00  0.00    -0.317 OA 
ENDBRANCH  23  24
BRANCH  23  27
HETATM   27  C   UNL     1      -7.325   5.597  73.094  1.00  0.00    -0.095 C  
HETATM   28  C   UNL     1      -6.554   4.693  74.044  1.00  0.00    -0.059 C  
ENDBRANCH  23  27
ENDBRANCH  21  23
ENDBRANCH  15  19
TORSDOF 4
ENDMDL
MODEL      132
REMARK 921   NORMALIZED FREE ENERGY PREDICTED BY IDOCK:   -3.17 KCAL/MOL
REMARK 922        TOTAL FREE ENERGY PREDICTED BY IDOCK:   -5.01 KCAL/MOL
REMARK 923 INTER-LIGAND FREE ENERGY PREDICTED BY IDOCK:   -4.07 KCAL/MOL
REMARK 924 INTRA-LIGAND FREE ENERGY PREDICTED BY IDOCK:   -0.94 KCAL/MOL
REMARK 927      BINDING AFFINITY PREDICTED BY RF-SCORE:    0.00 PKD
ROOT
HETATM    1  C   UNL     1      -9.294  10.480  68.607  1.00  0.00    -0.172 C  
HETATM    2  C   UNL     1      -8.317  11.667  68.426  1.00  0.00    -0.157 C  
HETATM    3  C   UNL     1      -7.463  11.355  67.243  1.00  0.00    -0.134 A  
HETATM    4  C   UNL     1      -6.118  11.436  66.979  1.00  0.00    -0.120 A  
HETATM    5  N   UNL     1      -5.937  11.056  65.665  1.00  0.00    -0.350 NA 
HETATM    6  H   UNL     1      -5.039  11.049  65.180  1.00  0.00     0.000 HD 
HETATM    7  C   UNL     1      -7.139  10.687  65.100  1.00  0.00     0.064 A  
HETATM    8  C   UNL     1      -7.504  10.282  63.816  1.00  0.00    -0.081 A  
HETATM    9  C   UNL     1      -8.841   9.875  63.640  1.00  0.00    -0.256 A  
HETATM   10  C   UNL     1      -9.733   9.760  64.723  1.00  0.00    -0.213 A  
HETATM   11  C   UNL     1      -9.332  10.142  66.007  1.00  0.00    -0.216 A  
HETATM   12  C   UNL     1      -9.918   9.829  67.331  1.00  0.00    -0.239 C  
HETATM   13  C   UNL     1      -8.060  10.722  66.129  1.00  0.00    -0.160 A  
HETATM   14  C   UNL     1     -10.654   8.717  67.544  1.00  0.00    -0.292 C  
HETATM   15  C   UNL     1     -10.604   8.117  68.952  1.00  0.00    -0.161 C  
HETATM   16  C   UNL     1     -11.408  11.479  69.384  1.00  0.00    -0.289 C  
HETATM   17  C   UNL     1     -10.719   9.213  70.065  1.00  0.00    -0.232 C  
HETATM   18  N   UNL     1     -10.289  10.590  69.699  1.00  0.00    -0.222 NA 
ENDROOT
BRANCH  15  19
HETATM   19  C   UNL     1      -9.245   7.347  69.056  1.00  0.00    -0.146 C  
HETATM   20  O   UNL     1      -8.475   7.450  70.014  1.00  0.00    -0.135 OA 
HETATM   21  N   UNL     1      -8.939   6.576  67.952  1.00  0.00    -0.117 N  
HETATM   22  H   UNL     1      -9.702   6.316  67.327  1.00  0.00     0.000 HD 
BRANCH  21  23
HETATM   23  CA  UNL     1      -7.590   6.109  67.620  1.00  0.00    -0.097 C  
BRANCH  23  24
HETATM   24  C   UNL     1      -6.964   7.105  66.610  1.00  0.00    -0.077 C  
HETATM   25  H   UNL     1      -6.751   7.257  64.646  1.00  0.00     0.000 HD 
HETATM   26  O   UNL     1      -7.134   6.647  65.265  1.00  0.00    -0.060 OA 
ENDBRANCH  23  24
BRANCH  23  27
HETATM   27  C   UNL     1      -7.600   4.693  67.024  1.00  0.00    -0.086 C  
HETATM   28  C   UNL     1      -8.989   4.164  66.698  1.00  0.00    -0.128 C  
ENDBRANCH  23  27
ENDBRANCH  21  23
ENDBRANCH  15  19
TORSDOF 4
ENDMDL
MODEL      133
REMARK 921   NORMALIZED FREE ENERGY PREDICTED BY IDOCK:   -3.17 KCAL/MOL
REMARK 922        TOTAL FREE ENERGY PREDICTED BY IDOCK:   -5.00 KCAL/MOL
REMARK 923 INTER-LIGAND FREE ENERGY PREDICTED BY IDOCK:   -4.77 KCAL/MOL
REMARK 924 INTRA-LIGAND FREE ENERGY PREDICTED BY IDOCK:   -0.23 KCAL/MOL
REMARK 927      BINDING AFFINITY PREDICTED BY RF-SCORE:    0.00 PKD
ROOT
HETATM    1  C   UNL     1      -9.443   8.977  69.494  1.00  0.00    -0.164 C  
HETATM    2  C   UNL     1     -10.866   9.342  69.982  1.00  0.00    -0.271 C  
HETATM    3  C   UNL     1     -11.174   8.454  71.140  1.00  0.00    -0.307 A  
HETATM    4  C   UNL     1     -12.262   7.706  71.517  1.00  0.00    -0.324 A  
HETATM    5  N   UNL     1     -11.964   7.140  72.739  1.00  0.00    -0.520 NA 
HETATM    6  H   UNL     1     -12.601   6.555  73.280  1.00  0.00     0.000 HD 
HETATM    7  C   UNL     1     -10.683   7.475  73.127  1.00  0.00    -0.398 A  
HETATM    8  C   UNL     1      -9.934   7.210  74.272  1.00  0.00    -0.147 A  
HETATM    9  C   UNL     1      -8.593   7.639  74.261  1.00  0.00    -0.276 A  
HETATM   10  C   UNL     1      -7.998   8.193  73.112  1.00  0.00    -0.223 A  
HETATM   11  C   UNL     1      -8.764   8.419  71.964  1.00  0.00    -0.267 A  
HETATM   12  C   UNL     1      -8.348   8.665  70.564  1.00  0.00    -0.147 C  
HETATM   13  C   UNL     1     -10.140   8.161  72.057  1.00  0.00    -0.304 A  
HETATM   14  C   UNL     1      -7.168   8.222  70.079  1.00  0.00    -0.059 C  
HETATM   15  C   UNL     1      -7.122   7.877  68.587  1.00  0.00    -0.076 C  
HETATM   16  C   UNL     1      -8.427  11.102  68.772  1.00  0.00    -0.134 C  
HETATM   17  C   UNL     1      -7.839   8.958  67.708  1.00  0.00    -0.102 C  
HETATM   18  N   UNL     1      -8.892   9.773  68.373  1.00  0.00    -0.119 NA 
ENDROOT
BRANCH  15  19
HETATM   19  C   UNL     1      -7.811   6.479  68.436  1.00  0.00    -0.106 C  
HETATM   20  O   UNL     1      -7.726   5.583  69.279  1.00  0.00    -0.084 OA 
HETATM   21  N   UNL     1      -8.482   6.300  67.244  1.00  0.00    -0.109 N  
HETATM   22  H   UNL     1      -8.747   7.131  66.716  1.00  0.00     0.000 HD 
BRANCH  21  23
HETATM   23  CA  UNL     1      -8.840   4.992  66.687  1.00  0.00    -0.111 C  
BRANCH  23  24
HETATM   24  C   UNL     1      -9.647   5.222  65.384  1.00  0.00     0.065 C  
HETATM   25  H   UNL     1     -10.175   4.176  63.786  1.00  0.00     0.000 HD 
HETATM   26  O   UNL     1      -9.681   4.035  64.585  1.00  0.00    -0.166 OA 
ENDBRANCH  23  24
BRANCH  23  27
HETATM   27  C   UNL     1      -9.665   4.151  67.675  1.00  0.00    -0.176 C  
HETATM   28  C   UNL     1      -9.187   2.715  67.820  1.00  0.00    -0.244 C  
ENDBRANCH  23  27
ENDBRANCH  21  23
ENDBRANCH  15  19
TORSDOF 4
ENDMDL
MODEL      134
REMARK 921   NORMALIZED FREE ENERGY PREDICTED BY IDOCK:   -3.12 KCAL/MOL
REMARK 922        TOTAL FREE ENERGY PREDICTED BY IDOCK:   -4.94 KCAL/MOL
REMARK 923 INTER-LIGAND FREE ENERGY PREDICTED BY IDOCK:   -4.07 KCAL/MOL
REMARK 924 INTRA-LIGAND FREE ENERGY PREDICTED BY IDOCK:   -0.88 KCAL/MOL
REMARK 927      BINDING AFFINITY PREDICTED BY RF-SCORE:    0.00 PKD
ROOT
HETATM    1  C   UNL     1      -9.609   7.831  71.083  1.00  0.00    -0.158 C  
HETATM    2  C   UNL     1      -8.459   8.457  71.908  1.00  0.00    -0.237 C  
HETATM    3  C   UNL     1      -7.234   8.413  71.058  1.00  0.00    -0.063 A  
HETATM    4  C   UNL     1      -5.926   8.057  71.272  1.00  0.00    -0.034 A  
HETATM    5  N   UNL     1      -5.241   8.292  70.098  1.00  0.00    -0.023 NA 
HETATM    6  H   UNL     1      -4.239   8.148  69.970  1.00  0.00     0.000 HD 
HETATM    7  C   UNL     1      -6.102   8.747  69.121  1.00  0.00    -0.043 A  
HETATM    8  C   UNL     1      -5.913   9.169  67.806  1.00  0.00    -0.049 A  
HETATM    9  C   UNL     1      -7.073   9.468  67.067  1.00  0.00    -0.086 A  
HETATM   10  C   UNL     1      -8.364   9.236  67.581  1.00  0.00    -0.116 A  
HETATM   11  C   UNL     1      -8.526   8.781  68.893  1.00  0.00    -0.131 A  
HETATM   12  C   UNL     1      -9.694   8.159  69.558  1.00  0.00    -0.170 C  
HETATM   13  C   UNL     1      -7.366   8.670  69.675  1.00  0.00    -0.056 A  
HETATM   14  C   UNL     1     -10.633   7.479  68.866  1.00  0.00    -0.184 C  
HETATM   15  C   UNL     1     -11.336   6.334  69.601  1.00  0.00    -0.492 C  
HETATM   16  C   UNL     1     -11.626   9.112  71.682  1.00  0.00    -0.379 C  
HETATM   17  C   UNL     1     -11.742   6.730  71.061  1.00  0.00    -0.355 C  
HETATM   18  N   UNL     1     -10.952   7.813  71.708  1.00  0.00    -0.233 NA 
ENDROOT
BRANCH  15  19
HETATM   19  C   UNL     1     -10.335   5.129  69.600  1.00  0.00    -0.246 C  
HETATM   20  O   UNL     1      -9.890   4.613  70.628  1.00  0.00    -0.195 OA 
HETATM   21  N   UNL     1      -9.937   4.719  68.344  1.00  0.00    -0.122 N  
HETATM   22  H   UNL     1     -10.518   4.984  67.549  1.00  0.00     0.000 HD 
BRANCH  21  23
HETATM   23  CA  UNL     1      -8.732   3.926  68.079  1.00  0.00    -0.102 C  
BRANCH  23  24
HETATM   24  C   UNL     1      -7.918   4.636  66.967  1.00  0.00    -0.102 C  
HETATM   25  H   UNL     1      -6.783   6.250  66.787  1.00  0.00     0.000 HD 
HETATM   26  O   UNL     1      -7.282   5.815  67.469  1.00  0.00    -0.073 OA 
ENDBRANCH  23  24
BRANCH  23  27
HETATM   27  C   UNL     1      -9.069   2.490  67.649  1.00  0.00    -0.222 C  
HETATM   28  C   UNL     1      -9.272   1.525  68.806  1.00  0.00    -0.193 C  
ENDBRANCH  23  27
ENDBRANCH  21  23
ENDBRANCH  15  19
TORSDOF 4
ENDMDL
MODEL      135
REMARK 921   NORMALIZED FREE ENERGY PREDICTED BY IDOCK:   -3.10 KCAL/MOL
REMARK 922        TOTAL FREE ENERGY PREDICTED BY IDOCK:   -4.91 KCAL/MOL
REMARK 923 INTER-LIGAND FREE ENERGY PREDICTED BY IDOCK:   -4.03 KCAL/MOL
REMARK 924 INTRA-LIGAND FREE ENERGY PREDICTED BY IDOCK:   -0.89 KCAL/MOL
REMARK 927      BINDING AFFINITY PREDICTED BY RF-SCORE:    0.00 PKD
ROOT
HETATM    1  C   UNL     1      -9.299   8.043  68.066  1.00  0.00    -0.138 C  
HETATM    2  C   UNL     1      -8.124   8.392  67.122  1.00  0.00    -0.104 C  
HETATM    3  C   UNL     1      -7.540   7.101  66.654  1.00  0.00    -0.093 A  
HETATM    4  C   UNL     1      -6.264   6.615  66.519  1.00  0.00    -0.041 A  
HETATM    5  N   UNL     1      -6.363   5.354  65.968  1.00  0.00    -0.034 NA 
HETATM    6  H   UNL     1      -5.569   4.762  65.724  1.00  0.00     0.000 HD 
HETATM    7  C   UNL     1      -7.686   5.008  65.793  1.00  0.00    -0.091 A  
HETATM    8  C   UNL     1      -8.314   3.892  65.240  1.00  0.00    -0.105 A  
HETATM    9  C   UNL     1      -9.718   3.847  65.336  1.00  0.00    -0.181 A  
HETATM   10  C   UNL     1     -10.446   4.810  66.061  1.00  0.00    -0.332 A  
HETATM   11  C   UNL     1      -9.788   5.903  66.634  1.00  0.00    -0.197 A  
HETATM   12  C   UNL     1     -10.229   6.847  67.687  1.00  0.00    -0.235 C  
HETATM   13  C   UNL     1      -8.417   6.031  66.366  1.00  0.00    -0.118 A  
HETATM   14  C   UNL     1     -11.150   6.507  68.614  1.00  0.00    -0.348 C  
HETATM   15  C   UNL     1     -11.028   7.177  69.985  1.00  0.00    -0.287 C  
HETATM   16  C   UNL     1     -11.008   9.771  67.660  1.00  0.00    -0.162 C  
HETATM   17  C   UNL     1     -10.737   8.712  69.869  1.00  0.00    -0.225 C  
HETATM   18  N   UNL     1     -10.076   9.178  68.619  1.00  0.00    -0.188 NA 
ENDROOT
BRANCH  15  19
HETATM   19  C   UNL     1      -9.869   6.438  70.736  1.00  0.00    -0.184 C  
HETATM   20  O   UNL     1      -8.990   7.022  71.374  1.00  0.00    -0.139 OA 
HETATM   21  N   UNL     1      -9.870   5.067  70.579  1.00  0.00    -0.202 N  
HETATM   22  H   UNL     1     -10.738   4.622  70.281  1.00  0.00     0.000 HD 
BRANCH  21  23
HETATM   23  CA  UNL     1      -8.705   4.209  70.812  1.00  0.00    -0.080 C  
BRANCH  23  24
HETATM   24  C   UNL     1      -8.441   3.386  69.524  1.00  0.00    -0.061 C  
HETATM   25  H   UNL     1      -9.482   2.711  67.980  1.00  0.00     0.000 HD 
HETATM   26  O   UNL     1      -9.643   3.215  68.768  1.00  0.00    -0.157 OA 
ENDBRANCH  23  24
BRANCH  23  27
HETATM   27  C   UNL     1      -8.913   3.264  72.006  1.00  0.00    -0.143 C  
HETATM   28  C   UNL     1     -10.346   3.207  72.512  1.00  0.00    -0.181 C  
ENDBRANCH  23  27
ENDBRANCH  21  23
ENDBRANCH  15  19
TORSDOF 4
ENDMDL
MODEL      136
REMARK 921   NORMALIZED FREE ENERGY PREDICTED BY IDOCK:   -3.09 KCAL/MOL
REMARK 922        TOTAL FREE ENERGY PREDICTED BY IDOCK:   -4.90 KCAL/MOL
REMARK 923 INTER-LIGAND FREE ENERGY PREDICTED BY IDOCK:   -4.86 KCAL/MOL
REMARK 924 INTRA-LIGAND FREE ENERGY PREDICTED BY IDOCK:   -0.04 KCAL/MOL
REMARK 927      BINDING AFFINITY PREDICTED BY RF-SCORE:    0.00 PKD
ROOT
HETATM    1  C   UNL     1      -9.822  11.176  67.727  1.00  0.00    -0.171 C  
HETATM    2  C   UNL     1     -11.280  11.447  67.283  1.00  0.00    -0.370 C  
HETATM    3  C   UNL     1     -11.236  11.830  65.842  1.00  0.00    -0.345 A  
HETATM    4  C   UNL     1     -11.824  12.816  65.090  1.00  0.00    -0.391 A  
HETATM    5  N   UNL     1     -11.438  12.616  63.780  1.00  0.00    -0.434 NA 
HETATM    6  H   UNL     1     -11.749  13.180  62.989  1.00  0.00     0.000 HD 
HETATM    7  C   UNL     1     -10.574  11.544  63.691  1.00  0.00    -0.429 A  
HETATM    8  C   UNL     1      -9.951  10.910  62.617  1.00  0.00    -0.083 A  
HETATM    9  C   UNL     1      -9.032   9.892  62.935  1.00  0.00    -0.271 A  
HETATM   10  C   UNL     1      -8.662   9.610  64.264  1.00  0.00    -0.229 A  
HETATM   11  C   UNL     1      -9.279  10.284  65.322  1.00  0.00    -0.244 A  
HETATM   12  C   UNL     1      -8.871  10.427  66.739  1.00  0.00    -0.139 C  
HETATM   13  C   UNL     1     -10.326  11.158  64.994  1.00  0.00    -0.362 A  
HETATM   14  C   UNL     1      -7.580  10.340  67.125  1.00  0.00    -0.092 C  
HETATM   15  C   UNL     1      -7.171  11.161  68.352  1.00  0.00    -0.083 C  
HETATM   16  C   UNL     1      -9.957   9.315  69.335  1.00  0.00    -0.181 C  
HETATM   17  C   UNL     1      -8.220  11.055  69.510  1.00  0.00     0.237 C  
HETATM   18  N   UNL     1      -9.618  10.722  69.122  1.00  0.00    -0.187 NA 
ENDROOT
BRANCH  15  19
HETATM   19  C   UNL     1      -7.018  12.641  67.862  1.00  0.00    -0.110 C  
HETATM   20  O   UNL     1      -5.936  13.151  67.564  1.00  0.00    -0.219 OA 
HETATM   21  N   UNL     1      -8.196  13.360  67.845  1.00  0.00    -0.148 N  
HETATM   22  H   UNL     1      -9.073  12.839  67.838  1.00  0.00     0.000 HD 
BRANCH  21  23
HETATM   23  CA  UNL     1      -8.268  14.824  67.837  1.00  0.00    -0.150 C  
BRANCH  23  24
HETATM   24  C   UNL     1      -9.490  15.256  68.688  1.00  0.00    -0.204 C  
HETATM   25  H   UNL     1     -11.357  15.841  68.378  1.00  0.00     0.000 HD 
HETATM   26  O   UNL     1     -10.609  15.576  67.856  1.00  0.00    -0.260 OA 
ENDBRANCH  23  24
BRANCH  23  27
HETATM   27  C   UNL     1      -8.395  15.387  66.413  1.00  0.00    -0.080 C  
HETATM   28  C   UNL     1      -7.472  16.561  66.123  1.00  0.00     0.083 C  
ENDBRANCH  23  27
ENDBRANCH  21  23
ENDBRANCH  15  19
TORSDOF 4
ENDMDL
MODEL      137
REMARK 921   NORMALIZED FREE ENERGY PREDICTED BY IDOCK:   -3.07 KCAL/MOL
REMARK 922        TOTAL FREE ENERGY PREDICTED BY IDOCK:   -4.88 KCAL/MOL
REMARK 923 INTER-LIGAND FREE ENERGY PREDICTED BY IDOCK:   -4.18 KCAL/MOL
REMARK 924 INTRA-LIGAND FREE ENERGY PREDICTED BY IDOCK:   -0.71 KCAL/MOL
REMARK 927      BINDING AFFINITY PREDICTED BY RF-SCORE:    0.00 PKD
ROOT
HETATM    1  C   UNL     1     -10.642   6.112  72.040  1.00  0.00    -0.218 C  
HETATM    2  C   UNL     1     -11.332   7.477  72.280  1.00  0.00    -0.338 C  
HETATM    3  C   UNL     1     -10.964   8.361  71.137  1.00  0.00    -0.292 A  
HETATM    4  C   UNL     1     -10.543   9.663  71.023  1.00  0.00    -0.292 A  
HETATM    5  N   UNL     1     -10.420   9.936  69.677  1.00  0.00    -0.231 NA 
HETATM    6  H   UNL     1     -10.153  10.841  69.289  1.00  0.00     0.000 HD 
HETATM    7  C   UNL     1     -10.711   8.814  68.929  1.00  0.00    -0.087 A  
HETATM    8  C   UNL     1     -10.783   8.577  67.557  1.00  0.00    -0.211 A  
HETATM    9  C   UNL     1     -11.009   7.245  67.159  1.00  0.00    -0.285 A  
HETATM   10  C   UNL     1     -11.035   6.185  68.086  1.00  0.00    -0.398 A  
HETATM   11  C   UNL     1     -10.927   6.447  69.456  1.00  0.00    -0.421 A  
HETATM   12  C   UNL     1     -10.601   5.546  70.584  1.00  0.00    -0.329 C  
HETATM   13  C   UNL     1     -10.894   7.795  69.843  1.00  0.00    -0.228 A  
HETATM   14  C   UNL     1      -9.871   4.423  70.416  1.00  0.00    -0.286 C  
HETATM   15  C   UNL     1      -9.010   3.975  71.601  1.00  0.00    -0.162 C  
HETATM   16  C   UNL     1     -12.222   4.417  72.877  1.00  0.00     0.608 C  
HETATM   17  C   UNL     1      -9.784   4.068  72.960  1.00  0.00    -0.129 C  
HETATM   18  N   UNL     1     -10.908   5.042  73.029  1.00  0.00    -0.250 NA 
ENDROOT
BRANCH  15  19
HETATM   19  C   UNL     1      -7.748   4.903  71.606  1.00  0.00    -0.097 C  
HETATM   20  O   UNL     1      -7.006   5.047  70.632  1.00  0.00    -0.042 OA 
HETATM   21  N   UNL     1      -7.491   5.510  72.818  1.00  0.00    -0.095 N  
HETATM   22  H   UNL     1      -8.256   5.576  73.490  1.00  0.00     0.000 HD 
BRANCH  21  23
HETATM   23  CA  UNL     1      -6.191   6.068  73.202  1.00  0.00    -0.058 C  
BRANCH  23  24
HETATM   24  C   UNL     1      -5.775   5.443  74.558  1.00  0.00    -0.047 C  
HETATM   25  H   UNL     1      -5.358   3.643  75.274  1.00  0.00     0.000 HD 
HETATM   26  O   UNL     1      -5.613   4.026  74.443  1.00  0.00    -0.004 OA 
ENDBRANCH  23  24
BRANCH  23  27
HETATM   27  C   UNL     1      -6.232   7.600  73.319  1.00  0.00    -0.062 C  
HETATM   28  C   UNL     1      -7.351   8.127  74.205  1.00  0.00    -0.221 C  
ENDBRANCH  23  27
ENDBRANCH  21  23
ENDBRANCH  15  19
TORSDOF 4
ENDMDL
MODEL      138
REMARK 921   NORMALIZED FREE ENERGY PREDICTED BY IDOCK:   -3.03 KCAL/MOL
REMARK 922        TOTAL FREE ENERGY PREDICTED BY IDOCK:   -4.83 KCAL/MOL
REMARK 923 INTER-LIGAND FREE ENERGY PREDICTED BY IDOCK:   -4.61 KCAL/MOL
REMARK 924 INTRA-LIGAND FREE ENERGY PREDICTED BY IDOCK:   -0.22 KCAL/MOL
REMARK 927      BINDING AFFINITY PREDICTED BY RF-SCORE:    0.00 PKD
ROOT
HETATM    1  C   UNL     1      -8.334   6.617  68.053  1.00  0.00    -0.117 C  
HETATM    2  C   UNL     1      -6.836   6.342  68.324  1.00  0.00    -0.071 C  
HETATM    3  C   UNL     1      -6.761   5.131  69.191  1.00  0.00    -0.052 A  
HETATM    4  C   UNL     1      -6.053   4.797  70.319  1.00  0.00    -0.021 A  
HETATM    5  N   UNL     1      -6.372   3.491  70.629  1.00  0.00    -0.026 NA 
HETATM    6  H   UNL     1      -5.970   2.963  71.404  1.00  0.00     0.000 HD 
HETATM    7  C   UNL     1      -7.310   3.001  69.745  1.00  0.00    -0.044 A  
HETATM    8  C   UNL     1      -7.913   1.754  69.591  1.00  0.00    -0.052 A  
HETATM    9  C   UNL     1      -8.927   1.660  68.618  1.00  0.00    -0.152 A  
HETATM   10  C   UNL     1      -9.398   2.790  67.923  1.00  0.00    -0.251 A  
HETATM   11  C   UNL     1      -8.797   4.037  68.120  1.00  0.00    -0.135 A  
HETATM   12  C   UNL     1      -9.279   5.399  67.793  1.00  0.00    -0.115 C  
HETATM   13  C   UNL     1      -7.666   4.073  68.950  1.00  0.00    -0.054 A  
HETATM   14  C   UNL     1     -10.594   5.691  67.699  1.00  0.00    -0.279 C  
HETATM   15  C   UNL     1     -11.012   7.116  68.070  1.00  0.00    -0.127 C  
HETATM   16  C   UNL     1      -8.444   7.461  65.741  1.00  0.00    -0.143 C  
HETATM   17  C   UNL     1     -10.048   8.192  67.464  1.00  0.00    -0.224 C  
HETATM   18  N   UNL     1      -8.658   7.753  67.159  1.00  0.00    -0.126 NA 
ENDROOT
BRANCH  15  19
HETATM   19  C   UNL     1     -11.018   7.181  69.635  1.00  0.00    -0.212 C  
HETATM   20  O   UNL     1     -11.327   6.229  70.355  1.00  0.00    -0.345 OA 
HETATM   21  N   UNL     1     -10.705   8.421  70.155  1.00  0.00    -0.234 N  
HETATM   22  H   UNL     1     -10.209   9.079  69.554  1.00  0.00     0.000 HD 
BRANCH  21  23
HETATM   23  CA  UNL     1     -11.037   8.852  71.516  1.00  0.00    -0.326 C  
BRANCH  23  24
HETATM   24  C   UNL     1     -10.086   8.127  72.503  1.00  0.00    -0.300 C  
HETATM   25  H   UNL     1     -10.231   6.811  73.977  1.00  0.00     0.000 HD 
HETATM   26  O   UNL     1     -10.814   7.255  73.372  1.00  0.00    -0.374 OA 
ENDBRANCH  23  24
BRANCH  23  27
HETATM   27  C   UNL     1     -12.500   8.546  71.877  1.00  0.00    -0.402 C  
HETATM   28  C   UNL     1     -13.478   9.645  71.493  1.00  0.00    -0.430 C  
ENDBRANCH  23  27
ENDBRANCH  21  23
ENDBRANCH  15  19
TORSDOF 4
ENDMDL
MODEL      139
REMARK 921   NORMALIZED FREE ENERGY PREDICTED BY IDOCK:   -3.02 KCAL/MOL
REMARK 922        TOTAL FREE ENERGY PREDICTED BY IDOCK:   -4.82 KCAL/MOL
REMARK 923 INTER-LIGAND FREE ENERGY PREDICTED BY IDOCK:   -4.29 KCAL/MOL
REMARK 924 INTRA-LIGAND FREE ENERGY PREDICTED BY IDOCK:   -0.53 KCAL/MOL
REMARK 927      BINDING AFFINITY PREDICTED BY RF-SCORE:    0.00 PKD
ROOT
HETATM    1  C   UNL     1      -8.772   7.125  67.371  1.00  0.00    -0.120 C  
HETATM    2  C   UNL     1      -7.311   7.273  66.885  1.00  0.00    -0.092 C  
HETATM    3  C   UNL     1      -6.797   5.900  66.612  1.00  0.00    -0.059 A  
HETATM    4  C   UNL     1      -5.635   5.231  66.905  1.00  0.00    -0.017 A  
HETATM    5  N   UNL     1      -5.725   3.983  66.325  1.00  0.00    -0.018 NA 
HETATM    6  H   UNL     1      -4.990   3.275  66.349  1.00  0.00     0.000 HD 
HETATM    7  C   UNL     1      -6.948   3.825  65.707  1.00  0.00    -0.058 A  
HETATM    8  C   UNL     1      -7.508   2.796  64.951  1.00  0.00    -0.071 A  
HETATM    9  C   UNL     1      -8.853   2.956  64.569  1.00  0.00    -0.109 A  
HETATM   10  C   UNL     1      -9.635   4.034  65.027  1.00  0.00    -0.180 A  
HETATM   11  C   UNL     1      -9.057   5.037  65.812  1.00  0.00    -0.154 A  
HETATM   12  C   UNL     1      -9.684   6.064  66.675  1.00  0.00    -0.189 C  
HETATM   13  C   UNL     1      -7.672   4.958  66.024  1.00  0.00    -0.091 A  
HETATM   14  C   UNL     1     -10.902   5.886  67.230  1.00  0.00    -0.351 C  
HETATM   15  C   UNL     1     -11.151   6.571  68.577  1.00  0.00    -0.347 C  
HETATM   16  C   UNL     1      -9.975   9.068  66.452  1.00  0.00    -0.300 C  
HETATM   17  C   UNL     1     -10.620   8.044  68.599  1.00  0.00    -0.109 C  
HETATM   18  N   UNL     1      -9.516   8.374  67.655  1.00  0.00    -0.146 NA 
ENDROOT
BRANCH  15  19
HETATM   19  C   UNL     1     -10.432   5.695  69.658  1.00  0.00    -0.304 C  
HETATM   20  O   UNL     1     -10.203   4.491  69.517  1.00  0.00    -0.168 OA 
HETATM   21  N   UNL     1     -10.119   6.367  70.822  1.00  0.00    -0.185 N  
HETATM   22  H   UNL     1     -10.081   7.386  70.789  1.00  0.00     0.000 HD 
BRANCH  21  23
HETATM   23  CA  UNL     1      -9.839   5.712  72.103  1.00  0.00    -0.158 C  
BRANCH  23  24
HETATM   24  C   UNL     1     -11.172   5.577  72.883  1.00  0.00    -0.305 C  
HETATM   25  H   UNL     1     -12.008   4.296  74.142  1.00  0.00     0.000 HD 
HETATM   26  O   UNL     1     -11.191   4.378  73.663  1.00  0.00    -0.287 OA 
ENDBRANCH  23  24
BRANCH  23  27
HETATM   27  C   UNL     1      -8.816   6.496  72.941  1.00  0.00    -0.127 C  
HETATM   28  C   UNL     1      -9.233   7.925  73.253  1.00  0.00    -0.346 C  
ENDBRANCH  23  27
ENDBRANCH  21  23
ENDBRANCH  15  19
TORSDOF 4
ENDMDL
MODEL      140
REMARK 921   NORMALIZED FREE ENERGY PREDICTED BY IDOCK:   -3.00 KCAL/MOL
REMARK 922        TOTAL FREE ENERGY PREDICTED BY IDOCK:   -4.79 KCAL/MOL
REMARK 923 INTER-LIGAND FREE ENERGY PREDICTED BY IDOCK:   -4.11 KCAL/MOL
REMARK 924 INTRA-LIGAND FREE ENERGY PREDICTED BY IDOCK:   -0.68 KCAL/MOL
REMARK 927      BINDING AFFINITY PREDICTED BY RF-SCORE:    0.00 PKD
ROOT
HETATM    1  C   UNL     1      -7.651   7.687  70.872  1.00  0.00    -0.080 C  
HETATM    2  C   UNL     1      -6.824   7.636  69.565  1.00  0.00    -0.044 C  
HETATM    3  C   UNL     1      -7.778   7.826  68.434  1.00  0.00    -0.119 A  
HETATM    4  C   UNL     1      -7.969   7.210  67.222  1.00  0.00    -0.111 A  
HETATM    5  N   UNL     1      -8.988   7.883  66.579  1.00  0.00    -0.152 NA 
HETATM    6  H   UNL     1      -9.327   7.667  65.641  1.00  0.00     0.000 HD 
HETATM    7  C   UNL     1      -9.483   8.889  67.382  1.00  0.00    -0.145 A  
HETATM    8  C   UNL     1     -10.457   9.868  67.190  1.00  0.00    -0.305 A  
HETATM    9  C   UNL     1     -10.772  10.670  68.304  1.00  0.00    -0.260 A  
HETATM   10  C   UNL     1     -10.229  10.420  69.579  1.00  0.00    -0.258 A  
HETATM   11  C   UNL     1      -9.278   9.410  69.751  1.00  0.00    -0.209 A  
HETATM   12  C   UNL     1      -8.807   8.732  70.981  1.00  0.00    -0.260 C  
HETATM   13  C   UNL     1      -8.837   8.748  68.595  1.00  0.00    -0.138 A  
HETATM   14  C   UNL     1      -9.576   8.638  72.086  1.00  0.00    -0.378 C  
HETATM   15  C   UNL     1      -9.365   7.406  72.971  1.00  0.00    -0.225 C  
HETATM   16  C   UNL     1      -6.205   8.804  72.525  1.00  0.00    -0.044 C  
HETATM   17  C   UNL     1      -7.846   7.089  73.189  1.00  0.00    -0.097 C  
HETATM   18  N   UNL     1      -6.901   7.574  72.145  1.00  0.00    -0.058 NA 
ENDROOT
BRANCH  15  19
HETATM   19  C   UNL     1     -10.091   6.218  72.254  1.00  0.00    -0.177 C  
HETATM   20  O   UNL     1     -11.261   6.270  71.865  1.00  0.00    -0.257 OA 
HETATM   21  N   UNL     1      -9.333   5.070  72.140  1.00  0.00    -0.135 N  
HETATM   22  H   UNL     1      -8.320   5.157  72.226  1.00  0.00     0.000 HD 
BRANCH  21  23
HETATM   23  CA  UNL     1      -9.889   3.735  71.904  1.00  0.00    -0.178 C  
BRANCH  23  24
HETATM   24  C   UNL     1      -9.942   2.983  73.259  1.00  0.00    -0.112 C  
HETATM   25  H   UNL     1      -8.945   2.980  74.971  1.00  0.00     0.000 HD 
HETATM   26  O   UNL     1      -8.913   3.440  74.141  1.00  0.00    -0.086 OA 
ENDBRANCH  23  24
BRANCH  23  27
HETATM   27  C   UNL     1      -9.055   2.933  70.891  1.00  0.00    -0.184 C  
HETATM   28  C   UNL     1      -8.866   1.470  71.260  1.00  0.00    -0.102 C  
ENDBRANCH  23  27
ENDBRANCH  21  23
ENDBRANCH  15  19
TORSDOF 4
ENDMDL
MODEL      141
REMARK 921   NORMALIZED FREE ENERGY PREDICTED BY IDOCK:   -2.99 KCAL/MOL
REMARK 922        TOTAL FREE ENERGY PREDICTED BY IDOCK:   -4.79 KCAL/MOL
REMARK 923 INTER-LIGAND FREE ENERGY PREDICTED BY IDOCK:   -4.15 KCAL/MOL
REMARK 924 INTRA-LIGAND FREE ENERGY PREDICTED BY IDOCK:   -0.64 KCAL/MOL
REMARK 927      BINDING AFFINITY PREDICTED BY RF-SCORE:    0.00 PKD
ROOT
HETATM    1  C   UNL     1      -8.034   9.982  67.135  1.00  0.00    -0.109 C  
HETATM    2  C   UNL     1      -9.030  10.450  66.047  1.00  0.00    -0.178 C  
HETATM    3  C   UNL     1      -9.863  11.531  66.650  1.00  0.00    -0.228 A  
HETATM    4  C   UNL     1     -11.205  11.819  66.663  1.00  0.00    -0.323 A  
HETATM    5  N   UNL     1     -11.362  13.005  67.350  1.00  0.00    -0.289 NA 
HETATM    6  H   UNL     1     -12.253  13.482  67.491  1.00  0.00     0.000 HD 
HETATM    7  C   UNL     1     -10.145  13.455  67.818  1.00  0.00    -0.232 A  
HETATM    8  C   UNL     1      -9.756  14.601  68.511  1.00  0.00    -0.225 A  
HETATM    9  C   UNL     1      -8.411  14.663  68.920  1.00  0.00    -0.142 A  
HETATM   10  C   UNL     1      -7.531  13.576  68.754  1.00  0.00    -0.071 A  
HETATM   11  C   UNL     1      -7.956  12.424  68.085  1.00  0.00    -0.153 A  
HETATM   12  C   UNL     1      -7.382  11.059  68.060  1.00  0.00    -0.088 C  
HETATM   13  C   UNL     1      -9.239  12.456  67.519  1.00  0.00    -0.183 A  
HETATM   14  C   UNL     1      -6.630  10.580  69.073  1.00  0.00    -0.060 C  
HETATM   15  C   UNL     1      -6.687   9.070  69.320  1.00  0.00    -0.049 C  
HETATM   16  C   UNL     1      -5.949   9.448  65.936  1.00  0.00    -0.055 C  
HETATM   17  C   UNL     1      -6.607   8.250  67.987  1.00  0.00    -0.057 C  
HETATM   18  N   UNL     1      -7.056   8.939  66.746  1.00  0.00    -0.080 NA 
ENDROOT
BRANCH  15  19
HETATM   19  C   UNL     1      -8.034   8.796  70.071  1.00  0.00    -0.108 C  
HETATM   20  O   UNL     1      -8.442   9.483  71.010  1.00  0.00    -0.284 OA 
HETATM   21  N   UNL     1      -8.712   7.675  69.635  1.00  0.00    -0.136 N  
HETATM   22  H   UNL     1      -8.484   7.309  68.711  1.00  0.00     0.000 HD 
BRANCH  21  23
HETATM   23  CA  UNL     1      -9.740   6.979  70.414  1.00  0.00    -0.176 C  
BRANCH  23  24
HETATM   24  C   UNL     1      -9.634   5.462  70.112  1.00  0.00    -0.177 C  
HETATM   25  H   UNL     1      -9.615   3.764  71.134  1.00  0.00     0.000 HD 
HETATM   26  O   UNL     1      -9.680   4.694  71.319  1.00  0.00    -0.161 OA 
ENDBRANCH  23  24
BRANCH  23  27
HETATM   27  C   UNL     1     -11.154   7.483  70.086  1.00  0.00    -0.246 C  
HETATM   28  C   UNL     1     -12.065   7.612  71.297  1.00  0.00    -0.337 C  
ENDBRANCH  23  27
ENDBRANCH  21  23
ENDBRANCH  15  19
TORSDOF 4
ENDMDL
MODEL      142
REMARK 921   NORMALIZED FREE ENERGY PREDICTED BY IDOCK:   -2.99 KCAL/MOL
REMARK 922        TOTAL FREE ENERGY PREDICTED BY IDOCK:   -4.78 KCAL/MOL
REMARK 923 INTER-LIGAND FREE ENERGY PREDICTED BY IDOCK:   -4.04 KCAL/MOL
REMARK 924 INTRA-LIGAND FREE ENERGY PREDICTED BY IDOCK:   -0.74 KCAL/MOL
REMARK 927      BINDING AFFINITY PREDICTED BY RF-SCORE:    0.00 PKD
ROOT
HETATM    1  C   UNL     1      -7.700   9.626  64.898  1.00  0.00    -0.120 C  
HETATM    2  C   UNL     1      -8.441  10.473  63.836  1.00  0.00    -0.120 C  
HETATM    3  C   UNL     1      -9.613  11.100  64.514  1.00  0.00    -0.288 A  
HETATM    4  C   UNL     1     -10.938  11.260  64.193  1.00  0.00    -0.305 A  
HETATM    5  N   UNL     1     -11.519  11.986  65.212  1.00  0.00    -0.328 NA 
HETATM    6  H   UNL     1     -12.495  12.285  65.230  1.00  0.00     0.000 HD 
HETATM    7  C   UNL     1     -10.597  12.251  66.203  1.00  0.00    -0.249 A  
HETATM    8  C   UNL     1     -10.658  12.975  67.393  1.00  0.00    -0.239 A  
HETATM    9  C   UNL     1      -9.517  12.932  68.216  1.00  0.00    -0.206 A  
HETATM   10  C   UNL     1      -8.417  12.102  67.922  1.00  0.00    -0.163 A  
HETATM   11  C   UNL     1      -8.395  11.360  66.737  1.00  0.00    -0.163 A  
HETATM   12  C   UNL     1      -7.562  10.200  66.344  1.00  0.00    -0.108 C  
HETATM   13  C   UNL     1      -9.455  11.563  65.840  1.00  0.00    -0.251 A  
HETATM   14  C   UNL     1      -7.028   9.360  67.257  1.00  0.00    -0.085 C  
HETATM   15  C   UNL     1      -6.832   7.905  66.823  1.00  0.00    -0.072 C  
HETATM   16  C   UNL     1      -5.305   9.840  64.360  1.00  0.00    -0.069 C  
HETATM   17  C   UNL     1      -6.225   7.794  65.383  1.00  0.00    -0.038 C  
HETATM   18  N   UNL     1      -6.457   8.944  64.466  1.00  0.00    -0.070 NA 
ENDROOT
BRANCH  15  19
HETATM   19  C   UNL     1      -8.243   7.229  66.894  1.00  0.00    -0.117 C  
HETATM   20  O   UNL     1      -8.870   6.854  65.901  1.00  0.00    -0.155 OA 
HETATM   21  N   UNL     1      -8.767   7.135  68.168  1.00  0.00    -0.128 N  
HETATM   22  H   UNL     1      -8.122   7.206  68.955  1.00  0.00     0.000 HD 
BRANCH  21  23
HETATM   23  CA  UNL     1     -10.189   6.941  68.462  1.00  0.00    -0.177 C  
BRANCH  23  24
HETATM   24  C   UNL     1     -10.627   8.021  69.485  1.00  0.00    -0.214 C  
HETATM   25  H   UNL     1     -10.449   9.982  69.709  1.00  0.00     0.000 HD 
HETATM   26  O   UNL     1     -10.181   9.320  69.083  1.00  0.00    -0.193 OA 
ENDBRANCH  23  24
BRANCH  23  27
HETATM   27  C   UNL     1     -10.477   5.540  69.023  1.00  0.00    -0.296 C  
HETATM   28  C   UNL     1     -10.254   4.412  68.027  1.00  0.00     0.109 C  
ENDBRANCH  23  27
ENDBRANCH  21  23
ENDBRANCH  15  19
TORSDOF 4
ENDMDL
MODEL      143
REMARK 921   NORMALIZED FREE ENERGY PREDICTED BY IDOCK:   -2.98 KCAL/MOL
REMARK 922        TOTAL FREE ENERGY PREDICTED BY IDOCK:   -4.77 KCAL/MOL
REMARK 923 INTER-LIGAND FREE ENERGY PREDICTED BY IDOCK:   -4.82 KCAL/MOL
REMARK 924 INTRA-LIGAND FREE ENERGY PREDICTED BY IDOCK:    0.04 KCAL/MOL
REMARK 927      BINDING AFFINITY PREDICTED BY RF-SCORE:    0.00 PKD
ROOT
HETATM    1  C   UNL     1     -10.699   6.593  71.136  1.00  0.00    -0.234 C  
HETATM    2  C   UNL     1     -10.879   5.643  69.928  1.00  0.00    -0.370 C  
HETATM    3  C   UNL     1     -10.109   4.401  70.227  1.00  0.00    -0.173 A  
HETATM    4  C   UNL     1      -9.244   3.610  69.514  1.00  0.00    -0.155 A  
HETATM    5  N   UNL     1      -8.897   2.549  70.325  1.00  0.00    -0.073 NA 
HETATM    6  H   UNL     1      -8.288   1.779  70.048  1.00  0.00     0.000 HD 
HETATM    7  C   UNL     1      -9.490   2.676  71.564  1.00  0.00    -0.142 A  
HETATM    8  C   UNL     1      -9.504   1.869  72.701  1.00  0.00    -0.130 A  
HETATM    9  C   UNL     1     -10.147   2.394  73.838  1.00  0.00    -0.165 A  
HETATM   10  C   UNL     1     -10.641   3.712  73.873  1.00  0.00    -0.286 A  
HETATM   11  C   UNL     1     -10.585   4.513  72.728  1.00  0.00    -0.263 A  
HETATM   12  C   UNL     1     -10.715   5.980  72.573  1.00  0.00    -0.264 C  
HETATM   13  C   UNL     1     -10.114   3.909  71.552  1.00  0.00    -0.148 A  
HETATM   14  C   UNL     1     -10.419   6.835  73.576  1.00  0.00    -0.356 C  
HETATM   15  C   UNL     1      -9.898   8.217  73.171  1.00  0.00    -0.267 C  
HETATM   16  C   UNL     1     -12.854   7.761  71.385  1.00  0.00    -0.298 C  
HETATM   17  C   UNL     1     -10.720   8.837  71.991  1.00  0.00    -0.347 C  
HETATM   18  N   UNL     1     -11.426   7.884  71.091  1.00  0.00    -0.270 NA 
ENDROOT
BRANCH  15  19
HETATM   19  C   UNL     1      -8.396   8.023  72.772  1.00  0.00    -0.167 C  
HETATM   20  O   UNL     1      -7.533   8.891  72.922  1.00  0.00    -0.354 OA 
HETATM   21  N   UNL     1      -8.116   6.809  72.177  1.00  0.00    -0.100 N  
HETATM   22  H   UNL     1      -8.777   6.045  72.318  1.00  0.00     0.000 HD 
BRANCH  21  23
HETATM   23  CA  UNL     1      -6.930   6.547  71.357  1.00  0.00    -0.075 C  
BRANCH  23  24
HETATM   24  C   UNL     1      -7.286   6.844  69.877  1.00  0.00    -0.088 C  
HETATM   25  H   UNL     1      -7.136   8.362  68.612  1.00  0.00     0.000 HD 
HETATM   26  O   UNL     1      -6.918   8.180  69.519  1.00  0.00    -0.048 OA 
ENDBRANCH  23  24
BRANCH  23  27
HETATM   27  C   UNL     1      -6.439   5.097  71.498  1.00  0.00    -0.032 C  
HETATM   28  C   UNL     1      -5.447   4.669  70.428  1.00  0.00    -0.011 C  
ENDBRANCH  23  27
ENDBRANCH  21  23
ENDBRANCH  15  19
TORSDOF 4
ENDMDL
MODEL      144
REMARK 921   NORMALIZED FREE ENERGY PREDICTED BY IDOCK:   -2.97 KCAL/MOL
REMARK 922        TOTAL FREE ENERGY PREDICTED BY IDOCK:   -4.76 KCAL/MOL
REMARK 923 INTER-LIGAND FREE ENERGY PREDICTED BY IDOCK:   -3.85 KCAL/MOL
REMARK 924 INTRA-LIGAND FREE ENERGY PREDICTED BY IDOCK:   -0.90 KCAL/MOL
REMARK 927      BINDING AFFINITY PREDICTED BY RF-SCORE:    0.00 PKD
ROOT
HETATM    1  C   UNL     1      -9.218   8.112  68.072  1.00  0.00    -0.132 C  
HETATM    2  C   UNL     1      -8.234   8.560  66.965  1.00  0.00    -0.107 C  
HETATM    3  C   UNL     1      -7.758   7.326  66.276  1.00  0.00    -0.097 A  
HETATM    4  C   UNL     1      -6.532   6.866  65.863  1.00  0.00    -0.051 A  
HETATM    5  N   UNL     1      -6.742   5.663  65.221  1.00  0.00    -0.040 NA 
HETATM    6  H   UNL     1      -6.012   5.104  64.780  1.00  0.00     0.000 HD 
HETATM    7  C   UNL     1      -8.078   5.323  65.261  1.00  0.00    -0.123 A  
HETATM    8  C   UNL     1      -8.806   4.259  64.729  1.00  0.00    -0.140 A  
HETATM    9  C   UNL     1     -10.169   4.192  65.078  1.00  0.00    -0.218 A  
HETATM   10  C   UNL     1     -10.743   5.074  66.013  1.00  0.00    -0.241 A  
HETATM   11  C   UNL     1      -9.981   6.114  66.557  1.00  0.00    -0.179 A  
HETATM   12  C   UNL     1     -10.213   6.949  67.758  1.00  0.00    -0.224 C  
HETATM   13  C   UNL     1      -8.682   6.279  66.055  1.00  0.00    -0.155 A  
HETATM   14  C   UNL     1     -10.950   6.513  68.802  1.00  0.00    -0.371 C  
HETATM   15  C   UNL     1     -10.571   7.051  70.185  1.00  0.00    -0.249 C  
HETATM   16  C   UNL     1     -10.958   9.855  68.155  1.00  0.00    -0.207 C  
HETATM   17  C   UNL     1     -10.294   8.592  70.165  1.00  0.00    -0.207 C  
HETATM   18  N   UNL     1      -9.870   9.181  68.865  1.00  0.00    -0.169 NA 
ENDROOT
BRANCH  15  19
HETATM   19  C   UNL     1      -9.299   6.254  70.635  1.00  0.00    -0.162 C  
HETATM   20  O   UNL     1      -9.286   5.033  70.807  1.00  0.00    -0.135 OA 
HETATM   21  N   UNL     1      -8.193   7.041  70.886  1.00  0.00    -0.119 N  
HETATM   22  H   UNL     1      -8.173   7.978  70.483  1.00  0.00     0.000 HD 
BRANCH  21  23
HETATM   23  CA  UNL     1      -7.046   6.617  71.693  1.00  0.00    -0.080 C  
BRANCH  23  24
HETATM   24  C   UNL     1      -6.787   7.696  72.776  1.00  0.00    -0.070 C  
HETATM   25  H   UNL     1      -7.146   9.628  73.032  1.00  0.00     0.000 HD 
HETATM   26  O   UNL     1      -7.304   8.966  72.369  1.00  0.00    -0.335 OA 
ENDBRANCH  23  24
BRANCH  23  27
HETATM   27  C   UNL     1      -5.783   6.415  70.841  1.00  0.00    -0.026 C  
HETATM   28  C   UNL     1      -5.908   6.923  69.413  1.00  0.00    -0.018 C  
ENDBRANCH  23  27
ENDBRANCH  21  23
ENDBRANCH  15  19
TORSDOF 4
ENDMDL
MODEL      145
REMARK 921   NORMALIZED FREE ENERGY PREDICTED BY IDOCK:   -2.97 KCAL/MOL
REMARK 922        TOTAL FREE ENERGY PREDICTED BY IDOCK:   -4.75 KCAL/MOL
REMARK 923 INTER-LIGAND FREE ENERGY PREDICTED BY IDOCK:   -4.04 KCAL/MOL
REMARK 924 INTRA-LIGAND FREE ENERGY PREDICTED BY IDOCK:   -0.72 KCAL/MOL
REMARK 927      BINDING AFFINITY PREDICTED BY RF-SCORE:    0.00 PKD
ROOT
HETATM    1  C   UNL     1      -9.294  10.480  68.607  1.00  0.00    -0.172 C  
HETATM    2  C   UNL     1      -8.317  11.667  68.426  1.00  0.00    -0.157 C  
HETATM    3  C   UNL     1      -7.463  11.355  67.243  1.00  0.00    -0.134 A  
HETATM    4  C   UNL     1      -6.118  11.436  66.979  1.00  0.00    -0.120 A  
HETATM    5  N   UNL     1      -5.937  11.056  65.665  1.00  0.00    -0.350 NA 
HETATM    6  H   UNL     1      -5.039  11.049  65.180  1.00  0.00     0.000 HD 
HETATM    7  C   UNL     1      -7.139  10.687  65.100  1.00  0.00     0.064 A  
HETATM    8  C   UNL     1      -7.504  10.282  63.816  1.00  0.00    -0.081 A  
HETATM    9  C   UNL     1      -8.841   9.875  63.640  1.00  0.00    -0.256 A  
HETATM   10  C   UNL     1      -9.733   9.760  64.723  1.00  0.00    -0.213 A  
HETATM   11  C   UNL     1      -9.332  10.142  66.007  1.00  0.00    -0.216 A  
HETATM   12  C   UNL     1      -9.918   9.829  67.331  1.00  0.00    -0.239 C  
HETATM   13  C   UNL     1      -8.060  10.722  66.129  1.00  0.00    -0.160 A  
HETATM   14  C   UNL     1     -10.654   8.717  67.544  1.00  0.00    -0.292 C  
HETATM   15  C   UNL     1     -10.604   8.117  68.952  1.00  0.00    -0.161 C  
HETATM   16  C   UNL     1     -11.408  11.479  69.384  1.00  0.00    -0.289 C  
HETATM   17  C   UNL     1     -10.719   9.213  70.065  1.00  0.00    -0.232 C  
HETATM   18  N   UNL     1     -10.289  10.590  69.699  1.00  0.00    -0.222 NA 
ENDROOT
BRANCH  15  19
HETATM   19  C   UNL     1      -9.245   7.347  69.056  1.00  0.00    -0.146 C  
HETATM   20  O   UNL     1      -8.852   6.540  68.210  1.00  0.00    -0.121 OA 
HETATM   21  N   UNL     1      -8.534   7.597  70.213  1.00  0.00    -0.132 N  
HETATM   22  H   UNL     1      -8.757   8.444  70.735  1.00  0.00     0.000 HD 
BRANCH  21  23
HETATM   23  CA  UNL     1      -7.481   6.724  70.739  1.00  0.00    -0.083 C  
BRANCH  23  24
HETATM   24  C   UNL     1      -8.111   5.782  71.796  1.00  0.00    -0.118 C  
HETATM   25  H   UNL     1      -8.319   5.723  73.766  1.00  0.00     0.000 HD 
HETATM   26  O   UNL     1      -7.932   6.300  73.118  1.00  0.00    -0.106 OA 
ENDBRANCH  23  24
BRANCH  23  27
HETATM   27  C   UNL     1      -6.329   7.524  71.368  1.00  0.00    -0.035 C  
HETATM   28  C   UNL     1      -6.612   9.011  71.517  1.00  0.00    -0.065 C  
ENDBRANCH  23  27
ENDBRANCH  21  23
ENDBRANCH  15  19
TORSDOF 4
ENDMDL
MODEL      146
REMARK 921   NORMALIZED FREE ENERGY PREDICTED BY IDOCK:   -2.90 KCAL/MOL
REMARK 922        TOTAL FREE ENERGY PREDICTED BY IDOCK:   -4.67 KCAL/MOL
REMARK 923 INTER-LIGAND FREE ENERGY PREDICTED BY IDOCK:   -3.83 KCAL/MOL
REMARK 924 INTRA-LIGAND FREE ENERGY PREDICTED BY IDOCK:   -0.84 KCAL/MOL
REMARK 927      BINDING AFFINITY PREDICTED BY RF-SCORE:    0.00 PKD
ROOT
HETATM    1  C   UNL     1      -8.602   6.061  71.983  1.00  0.00    -0.136 C  
HETATM    2  C   UNL     1      -7.809   7.222  72.630  1.00  0.00    -0.105 C  
HETATM    3  C   UNL     1      -7.835   8.361  71.667  1.00  0.00    -0.151 A  
HETATM    4  C   UNL     1      -6.894   9.239  71.191  1.00  0.00    -0.063 A  
HETATM    5  N   UNL     1      -7.546  10.121  70.353  1.00  0.00    -0.428 NA 
HETATM    6  H   UNL     1      -7.103  10.908  69.878  1.00  0.00     0.000 HD 
HETATM    7  C   UNL     1      -8.881   9.790  70.249  1.00  0.00    -0.142 A  
HETATM    8  C   UNL     1      -9.959  10.375  69.587  1.00  0.00    -0.209 A  
HETATM    9  C   UNL     1     -11.179   9.673  69.626  1.00  0.00    -0.176 A  
HETATM   10  C   UNL     1     -11.281   8.388  70.194  1.00  0.00    -0.136 A  
HETATM   11  C   UNL     1     -10.175   7.809  70.824  1.00  0.00    -0.200 A  
HETATM   12  C   UNL     1      -9.908   6.400  71.195  1.00  0.00    -0.198 C  
HETATM   13  C   UNL     1      -9.023   8.602  70.941  1.00  0.00    -0.227 A  
HETATM   14  C   UNL     1     -10.481   5.367  70.541  1.00  0.00    -0.335 C  
HETATM   15  C   UNL     1      -9.677   4.065  70.472  1.00  0.00    -0.258 C  
HETATM   16  C   UNL     1      -9.768   4.941  73.843  1.00  0.00    -0.138 C  
HETATM   17  C   UNL     1      -9.022   3.701  71.847  1.00  0.00    -0.105 C  
HETATM   18  N   UNL     1      -8.762   4.826  72.787  1.00  0.00    -0.114 NA 
ENDROOT
BRANCH  15  19
HETATM   19  C   UNL     1      -8.587   4.278  69.367  1.00  0.00    -0.080 C  
HETATM   20  O   UNL     1      -7.418   3.904  69.482  1.00  0.00    -0.052 OA 
HETATM   21  N   UNL     1      -9.026   4.978  68.261  1.00  0.00    -0.106 N  
HETATM   22  H   UNL     1     -10.031   5.027  68.095  1.00  0.00     0.000 HD 
BRANCH  21  23
HETATM   23  CA  UNL     1      -8.140   5.656  67.310  1.00  0.00    -0.102 C  
BRANCH  23  24
HETATM   24  C   UNL     1      -7.165   4.606  66.718  1.00  0.00    -0.080 C  
HETATM   25  H   UNL     1      -7.232   3.124  65.405  1.00  0.00     0.000 HD 
HETATM   26  O   UNL     1      -7.829   3.768  65.767  1.00  0.00    -0.088 OA 
ENDBRANCH  23  24
BRANCH  23  27
HETATM   27  C   UNL     1      -7.347   6.795  67.971  1.00  0.00    -0.097 C  
HETATM   28  C   UNL     1      -7.570   8.159  67.337  1.00  0.00    -0.101 C  
ENDBRANCH  23  27
ENDBRANCH  21  23
ENDBRANCH  15  19
TORSDOF 4
ENDMDL
MODEL      147
REMARK 921   NORMALIZED FREE ENERGY PREDICTED BY IDOCK:   -2.90 KCAL/MOL
REMARK 922        TOTAL FREE ENERGY PREDICTED BY IDOCK:   -4.67 KCAL/MOL
REMARK 923 INTER-LIGAND FREE ENERGY PREDICTED BY IDOCK:   -3.89 KCAL/MOL
REMARK 924 INTRA-LIGAND FREE ENERGY PREDICTED BY IDOCK:   -0.78 KCAL/MOL
REMARK 927      BINDING AFFINITY PREDICTED BY RF-SCORE:    0.00 PKD
ROOT
HETATM    1  C   UNL     1      -8.388   7.549  67.827  1.00  0.00    -0.119 C  
HETATM    2  C   UNL     1      -7.629   6.925  69.022  1.00  0.00    -0.104 C  
HETATM    3  C   UNL     1      -8.059   7.660  70.247  1.00  0.00    -0.114 A  
HETATM    4  C   UNL     1      -7.405   8.193  71.329  1.00  0.00    -0.072 A  
HETATM    5  N   UNL     1      -8.366   8.704  72.177  1.00  0.00    -0.341 NA 
HETATM    6  H   UNL     1      -8.174   9.136  73.081  1.00  0.00     0.000 HD 
HETATM    7  C   UNL     1      -9.622   8.549  71.630  1.00  0.00    -0.249 A  
HETATM    8  C   UNL     1     -10.905   8.842  72.092  1.00  0.00    -0.400 A  
HETATM    9  C   UNL     1     -11.963   8.635  71.186  1.00  0.00    -0.320 A  
HETATM   10  C   UNL     1     -11.734   8.274  69.844  1.00  0.00     0.426 A  
HETATM   11  C   UNL     1     -10.434   8.018  69.397  1.00  0.00    -0.223 A  
HETATM   12  C   UNL     1      -9.885   7.950  68.023  1.00  0.00    -0.195 C  
HETATM   13  C   UNL     1      -9.415   8.044  70.361  1.00  0.00    -0.166 A  
HETATM   14  C   UNL     1     -10.453   8.612  66.992  1.00  0.00    -0.354 C  
HETATM   15  C   UNL     1      -9.517   9.074  65.871  1.00  0.00    -0.317 C  
HETATM   16  C   UNL     1      -8.873   5.677  66.301  1.00  0.00    -0.137 C  
HETATM   17  C   UNL     1      -8.490   7.963  65.464  1.00  0.00    -0.139 C  
HETATM   18  N   UNL     1      -8.162   6.940  66.495  1.00  0.00    -0.114 NA 
ENDROOT
BRANCH  15  19
HETATM   19  C   UNL     1      -8.785  10.351  66.405  1.00  0.00    -0.141 C  
HETATM   20  O   UNL     1      -9.351  11.428  66.602  1.00  0.00    -0.176 OA 
HETATM   21  N   UNL     1      -7.425  10.195  66.587  1.00  0.00    -0.103 N  
HETATM   22  H   UNL     1      -7.061   9.246  66.670  1.00  0.00     0.000 HD 
BRANCH  21  23
HETATM   23  CA  UNL     1      -6.472  11.306  66.668  1.00  0.00    -0.128 C  
BRANCH  23  24
HETATM   24  C   UNL     1      -5.300  11.014  65.696  1.00  0.00    -0.100 C  
HETATM   25  H   UNL     1      -5.065  10.320  63.855  1.00  0.00     0.000 HD 
HETATM   26  O   UNL     1      -5.782  10.499  64.451  1.00  0.00    -0.140 OA 
ENDBRANCH  23  24
BRANCH  23  27
HETATM   27  C   UNL     1      -5.935  11.501  68.095  1.00  0.00    -0.045 C  
HETATM   28  C   UNL     1      -6.956  11.229  69.188  1.00  0.00    -0.114 C  
ENDBRANCH  23  27
ENDBRANCH  21  23
ENDBRANCH  15  19
TORSDOF 4
ENDMDL
MODEL      148
REMARK 921   NORMALIZED FREE ENERGY PREDICTED BY IDOCK:   -2.89 KCAL/MOL
REMARK 922        TOTAL FREE ENERGY PREDICTED BY IDOCK:   -4.66 KCAL/MOL
REMARK 923 INTER-LIGAND FREE ENERGY PREDICTED BY IDOCK:   -4.27 KCAL/MOL
REMARK 924 INTRA-LIGAND FREE ENERGY PREDICTED BY IDOCK:   -0.39 KCAL/MOL
REMARK 927      BINDING AFFINITY PREDICTED BY RF-SCORE:    0.00 PKD
ROOT
HETATM    1  C   UNL     1     -10.028   4.878  72.116  1.00  0.00    -0.179 C  
HETATM    2  C   UNL     1     -11.286   5.730  71.825  1.00  0.00    -0.240 C  
HETATM    3  C   UNL     1     -11.127   6.293  70.453  1.00  0.00    -0.416 A  
HETATM    4  C   UNL     1     -11.317   7.532  69.893  1.00  0.00    -0.037 A  
HETATM    5  N   UNL     1     -11.056   7.414  68.544  1.00  0.00    -0.434 NA 
HETATM    6  H   UNL     1     -11.147   8.171  67.865  1.00  0.00     0.000 HD 
HETATM    7  C   UNL     1     -10.655   6.130  68.240  1.00  0.00    -0.262 A  
HETATM    8  C   UNL     1     -10.331   5.490  67.044  1.00  0.00    -0.306 A  
HETATM    9  C   UNL     1      -9.853   4.170  67.146  1.00  0.00    -0.182 A  
HETATM   10  C   UNL     1      -9.592   3.566  68.391  1.00  0.00    -0.154 A  
HETATM   11  C   UNL     1      -9.896   4.242  69.577  1.00  0.00    -0.224 A  
HETATM   12  C   UNL     1      -9.441   4.000  70.965  1.00  0.00    -0.233 C  
HETATM   13  C   UNL     1     -10.547   5.478  69.454  1.00  0.00    -0.349 A  
HETATM   14  C   UNL     1      -8.269   3.387  71.238  1.00  0.00    -0.074 C  
HETATM   15  C   UNL     1      -7.563   3.795  72.534  1.00  0.00    -0.060 C  
HETATM   16  C   UNL     1     -10.820   2.965  73.452  1.00  0.00    -0.199 C  
HETATM   17  C   UNL     1      -8.556   3.898  73.741  1.00  0.00    -0.090 C  
HETATM   18  N   UNL     1      -9.984   4.166  73.415  1.00  0.00    -0.126 NA 
ENDROOT
BRANCH  15  19
HETATM   19  C   UNL     1      -6.878   5.174  72.248  1.00  0.00    -0.073 C  
HETATM   20  O   UNL     1      -5.757   5.287  71.748  1.00  0.00    -0.018 OA 
HETATM   21  N   UNL     1      -7.610   6.271  72.658  1.00  0.00    -0.100 N  
HETATM   22  H   UNL     1      -8.611   6.146  72.811  1.00  0.00     0.000 HD 
BRANCH  21  23
HETATM   23  CA  UNL     1      -7.042   7.602  72.888  1.00  0.00    -0.076 C  
BRANCH  23  24
HETATM   24  C   UNL     1      -7.312   7.999  74.362  1.00  0.00    -0.181 C  
HETATM   25  H   UNL     1      -7.696   9.651  75.386  1.00  0.00     0.000 HD 
HETATM   26  O   UNL     1      -7.531   9.407  74.483  1.00  0.00    -0.106 OA 
ENDBRANCH  23  24
BRANCH  23  27
HETATM   27  C   UNL     1      -7.640   8.656  71.942  1.00  0.00    -0.106 C  
HETATM   28  C   UNL     1      -7.229   8.492  70.487  1.00  0.00    -0.045 C  
ENDBRANCH  23  27
ENDBRANCH  21  23
ENDBRANCH  15  19
TORSDOF 4
ENDMDL
MODEL      149
REMARK 921   NORMALIZED FREE ENERGY PREDICTED BY IDOCK:   -2.88 KCAL/MOL
REMARK 922        TOTAL FREE ENERGY PREDICTED BY IDOCK:   -4.64 KCAL/MOL
REMARK 923 INTER-LIGAND FREE ENERGY PREDICTED BY IDOCK:   -4.07 KCAL/MOL
REMARK 924 INTRA-LIGAND FREE ENERGY PREDICTED BY IDOCK:   -0.57 KCAL/MOL
REMARK 927      BINDING AFFINITY PREDICTED BY RF-SCORE:    0.00 PKD
ROOT
HETATM    1  C   UNL     1      -9.652   8.536  70.061  1.00  0.00    -0.169 C  
HETATM    2  C   UNL     1      -8.469   9.514  70.254  1.00  0.00    -0.237 C  
HETATM    3  C   UNL     1      -7.449   9.177  69.219  1.00  0.00    -0.075 A  
HETATM    4  C   UNL     1      -6.086   9.016  69.228  1.00  0.00    -0.041 A  
HETATM    5  N   UNL     1      -5.696   8.765  67.928  1.00  0.00    -0.035 NA 
HETATM    6  H   UNL     1      -4.730   8.634  67.625  1.00  0.00     0.000 HD 
HETATM    7  C   UNL     1      -6.795   8.715  67.097  1.00  0.00    -0.067 A  
HETATM    8  C   UNL     1      -6.941   8.546  65.720  1.00  0.00    -0.071 A  
HETATM    9  C   UNL     1      -8.258   8.440  65.235  1.00  0.00    -0.151 A  
HETATM   10  C   UNL     1      -9.368   8.380  66.100  1.00  0.00    -0.267 A  
HETATM   11  C   UNL     1      -9.191   8.520  67.480  1.00  0.00    -0.151 A  
HETATM   12  C   UNL     1     -10.092   8.179  68.605  1.00  0.00    -0.211 C  
HETATM   13  C   UNL     1      -7.894   8.814  67.928  1.00  0.00    -0.102 A  
HETATM   14  C   UNL     1     -11.037   7.220  68.499  1.00  0.00     0.063 C  
HETATM   15  C   UNL     1     -11.395   6.461  69.781  1.00  0.00    -0.494 C  
HETATM   16  C   UNL     1     -11.678   9.842  70.574  1.00  0.00    -0.295 C  
HETATM   17  C   UNL     1     -11.554   7.419  71.010  1.00  0.00    -0.288 C  
HETATM   18  N   UNL     1     -10.824   8.715  70.951  1.00  0.00    -0.229 NA 
ENDROOT
BRANCH  15  19
HETATM   19  C   UNL     1     -10.244   5.426  70.017  1.00  0.00    -0.279 C  
HETATM   20  O   UNL     1      -9.807   4.681  69.137  1.00  0.00    -0.183 OA 
HETATM   21  N   UNL     1      -9.788   5.367  71.318  1.00  0.00    -0.172 N  
HETATM   22  H   UNL     1      -9.981   6.162  71.928  1.00  0.00     0.000 HD 
BRANCH  21  23
HETATM   23  CA  UNL     1      -9.044   4.236  71.881  1.00  0.00    -0.122 C  
BRANCH  23  24
HETATM   24  C   UNL     1     -10.001   3.019  71.966  1.00  0.00    -0.154 C  
HETATM   25  H   UNL     1     -10.021   1.129  71.372  1.00  0.00     0.000 HD 
HETATM   26  O   UNL     1      -9.435   1.875  71.320  1.00  0.00    -0.113 OA 
ENDBRANCH  23  24
BRANCH  23  27
HETATM   27  C   UNL     1      -8.474   4.555  73.272  1.00  0.00    -0.102 C  
HETATM   28  C   UNL     1      -9.398   4.187  74.423  1.00  0.00    -0.123 C  
ENDBRANCH  23  27
ENDBRANCH  21  23
ENDBRANCH  15  19
TORSDOF 4
ENDMDL
MODEL      150
REMARK 921   NORMALIZED FREE ENERGY PREDICTED BY IDOCK:   -2.85 KCAL/MOL
REMARK 922        TOTAL FREE ENERGY PREDICTED BY IDOCK:   -4.61 KCAL/MOL
REMARK 923 INTER-LIGAND FREE ENERGY PREDICTED BY IDOCK:   -4.24 KCAL/MOL
REMARK 924 INTRA-LIGAND FREE ENERGY PREDICTED BY IDOCK:   -0.37 KCAL/MOL
REMARK 927      BINDING AFFINITY PREDICTED BY RF-SCORE:    0.00 PKD
ROOT
HETATM    1  C   UNL     1      -9.331   7.783  68.570  1.00  0.00    -0.147 C  
HETATM    2  C   UNL     1     -10.346   6.622  68.443  1.00  0.00    -0.220 C  
HETATM    3  C   UNL     1      -9.994   5.867  67.205  1.00  0.00    -0.179 A  
HETATM    4  C   UNL     1     -10.713   5.354  66.154  1.00  0.00    -0.095 A  
HETATM    5  N   UNL     1      -9.821   4.696  65.332  1.00  0.00    -0.268 NA 
HETATM    6  H   UNL     1     -10.076   4.188  64.485  1.00  0.00     0.000 HD 
HETATM    7  C   UNL     1      -8.536   4.821  65.818  1.00  0.00    -0.124 A  
HETATM    8  C   UNL     1      -7.307   4.313  65.400  1.00  0.00    -0.073 A  
HETATM    9  C   UNL     1      -6.171   4.756  66.104  1.00  0.00    -0.035 A  
HETATM   10  C   UNL     1      -6.250   5.754  67.094  1.00  0.00    -0.034 A  
HETATM   11  C   UNL     1      -7.493   6.271  67.472  1.00  0.00    -0.088 A  
HETATM   12  C   UNL     1      -7.836   7.508  68.210  1.00  0.00    -0.122 C  
HETATM   13  C   UNL     1      -8.628   5.682  66.894  1.00  0.00    -0.110 A  
HETATM   14  C   UNL     1      -7.027   8.589  68.211  1.00  0.00    -0.070 C  
HETATM   15  C   UNL     1      -7.704   9.957  68.344  1.00  0.00    -0.084 C  
HETATM   16  C   UNL     1      -8.919   8.038  70.986  1.00  0.00    -0.144 C  
HETATM   17  C   UNL     1      -8.818   9.959  69.446  1.00  0.00    -0.187 C  
HETATM   18  N   UNL     1      -9.449   8.649  69.767  1.00  0.00    -0.164 NA 
ENDROOT
BRANCH  15  19
HETATM   19  C   UNL     1      -8.302  10.292  66.936  1.00  0.00    -0.123 C  
HETATM   20  O   UNL     1      -7.807   9.905  65.876  1.00  0.00    -0.109 OA 
HETATM   21  N   UNL     1      -9.409  11.117  66.968  1.00  0.00    -0.168 N  
HETATM   22  H   UNL     1      -9.926  11.186  67.845  1.00  0.00     0.000 HD 
BRANCH  21  23
HETATM   23  CA  UNL     1      -9.889  11.898  65.825  1.00  0.00    -0.238 C  
BRANCH  23  24
HETATM   24  C   UNL     1     -10.940  12.916  66.337  1.00  0.00    -0.285 C  
HETATM   25  H   UNL     1     -10.955  14.613  67.360  1.00  0.00     0.000 HD 
HETATM   26  O   UNL     1     -10.312  13.989  67.046  1.00  0.00    -0.264 OA 
ENDBRANCH  23  24
BRANCH  23  27
HETATM   27  C   UNL     1     -10.509  11.006  64.737  1.00  0.00    -0.384 C  
HETATM   28  C   UNL     1     -11.387  11.754  63.745  1.00  0.00    -0.524 C  
ENDBRANCH  23  27
ENDBRANCH  21  23
ENDBRANCH  15  19
TORSDOF 4
ENDMDL
MODEL      151
REMARK 921   NORMALIZED FREE ENERGY PREDICTED BY IDOCK:   -2.85 KCAL/MOL
REMARK 922        TOTAL FREE ENERGY PREDICTED BY IDOCK:   -4.61 KCAL/MOL
REMARK 923 INTER-LIGAND FREE ENERGY PREDICTED BY IDOCK:   -3.65 KCAL/MOL
REMARK 924 INTRA-LIGAND FREE ENERGY PREDICTED BY IDOCK:   -0.96 KCAL/MOL
REMARK 927      BINDING AFFINITY PREDICTED BY RF-SCORE:    0.00 PKD
ROOT
HETATM    1  C   UNL     1      -6.779   8.479  67.111  1.00  0.00    -0.063 C  
HETATM    2  C   UNL     1      -5.932   7.306  67.660  1.00  0.00    -0.034 C  
HETATM    3  C   UNL     1      -6.820   6.502  68.549  1.00  0.00    -0.071 A  
HETATM    4  C   UNL     1      -6.682   5.942  69.794  1.00  0.00    -0.052 A  
HETATM    5  N   UNL     1      -7.848   5.256  70.066  1.00  0.00    -0.078 NA 
HETATM    6  H   UNL     1      -8.020   4.712  70.911  1.00  0.00     0.000 HD 
HETATM    7  C   UNL     1      -8.749   5.410  69.032  1.00  0.00    -0.101 A  
HETATM    8  C   UNL     1     -10.022   4.895  68.794  1.00  0.00    -0.206 A  
HETATM    9  C   UNL     1     -10.692   5.375  67.652  1.00  0.00    -0.125 A  
HETATM   10  C   UNL     1     -10.164   6.412  66.860  1.00  0.00    -0.277 A  
HETATM   11  C   UNL     1      -8.898   6.936  67.141  1.00  0.00    -0.120 A  
HETATM   12  C   UNL     1      -8.262   8.200  66.705  1.00  0.00    -0.103 C  
HETATM   13  C   UNL     1      -8.167   6.315  68.165  1.00  0.00    -0.115 A  
HETATM   14  C   UNL     1      -8.988   9.286  66.363  1.00  0.00    -0.185 C  
HETATM   15  C   UNL     1      -8.347  10.653  66.623  1.00  0.00    -0.136 C  
HETATM   16  C   UNL     1      -5.996   8.837  64.803  1.00  0.00    -0.064 C  
HETATM   17  C   UNL     1      -6.844  10.693  66.185  1.00  0.00    -0.135 C  
HETATM   18  N   UNL     1      -6.118   9.393  66.151  1.00  0.00    -0.059 NA 
ENDROOT
BRANCH  15  19
HETATM   19  C   UNL     1      -8.496  10.925  68.158  1.00  0.00    -0.131 C  
HETATM   20  O   UNL     1      -7.621  11.462  68.842  1.00  0.00    -0.124 OA 
HETATM   21  N   UNL     1      -9.673  10.460  68.708  1.00  0.00    -0.174 N  
HETATM   22  H   UNL     1     -10.454  10.276  68.078  1.00  0.00     0.000 HD 
BRANCH  21  23
HETATM   23  CA  UNL     1      -9.874  10.215  70.139  1.00  0.00    -0.053 C  
BRANCH  23  24
HETATM   24  C   UNL     1      -9.255   8.837  70.488  1.00  0.00    -0.188 C  
HETATM   25  H   UNL     1      -7.848   8.127  71.690  1.00  0.00     0.000 HD 
HETATM   26  O   UNL     1      -8.228   8.971  71.476  1.00  0.00    -0.303 OA 
ENDBRANCH  23  24
BRANCH  23  27
HETATM   27  C   UNL     1     -11.361  10.236  70.526  1.00  0.00    -0.422 C  
HETATM   28  C   UNL     1     -12.255  10.952  69.525  1.00  0.00    -0.331 C  
ENDBRANCH  23  27
ENDBRANCH  21  23
ENDBRANCH  15  19
TORSDOF 4
ENDMDL
MODEL      152
REMARK 921   NORMALIZED FREE ENERGY PREDICTED BY IDOCK:   -2.78 KCAL/MOL
REMARK 922        TOTAL FREE ENERGY PREDICTED BY IDOCK:   -4.52 KCAL/MOL
REMARK 923 INTER-LIGAND FREE ENERGY PREDICTED BY IDOCK:   -4.36 KCAL/MOL
REMARK 924 INTRA-LIGAND FREE ENERGY PREDICTED BY IDOCK:   -0.16 KCAL/MOL
REMARK 927      BINDING AFFINITY PREDICTED BY RF-SCORE:    0.00 PKD
ROOT
HETATM    1  C   UNL     1     -10.663   8.199  70.437  1.00  0.00    -0.232 C  
HETATM    2  C   UNL     1     -11.291   6.902  71.001  1.00  0.00    -0.342 C  
HETATM    3  C   UNL     1     -10.199   5.891  71.095  1.00  0.00    -0.266 A  
HETATM    4  C   UNL     1     -10.083   4.565  70.760  1.00  0.00    -0.163 A  
HETATM    5  N   UNL     1      -8.826   4.153  71.151  1.00  0.00    -0.102 NA 
HETATM    6  H   UNL     1      -8.469   3.202  71.056  1.00  0.00     0.000 HD 
HETATM    7  C   UNL     1      -8.118   5.209  71.688  1.00  0.00    -0.115 A  
HETATM    8  C   UNL     1      -6.853   5.312  72.264  1.00  0.00    -0.077 A  
HETATM    9  C   UNL     1      -6.422   6.608  72.608  1.00  0.00    -0.059 A  
HETATM   10  C   UNL     1      -7.169   7.754  72.276  1.00  0.00    -0.086 A  
HETATM   11  C   UNL     1      -8.422   7.624  71.668  1.00  0.00    -0.120 A  
HETATM   12  C   UNL     1      -9.242   8.616  70.935  1.00  0.00    -0.234 C  
HETATM   13  C   UNL     1      -8.917   6.321  71.506  1.00  0.00    -0.142 A  
HETATM   14  C   UNL     1      -8.692   9.678  70.309  1.00  0.00    -0.248 C  
HETATM   15  C   UNL     1      -9.418  10.196  69.064  1.00  0.00    -0.195 C  
HETATM   16  C   UNL     1     -11.831  10.047  71.573  1.00  0.00    -0.324 C  
HETATM   17  C   UNL     1     -10.968  10.279  69.276  1.00  0.00    -0.241 C  
HETATM   18  N   UNL     1     -11.555   9.375  70.303  1.00  0.00    -0.193 NA 
ENDROOT
BRANCH  15  19
HETATM   19  C   UNL     1      -9.059   9.211  67.901  1.00  0.00    -0.127 C  
HETATM   20  O   UNL     1      -8.312   9.505  66.966  1.00  0.00    -0.122 OA 
HETATM   21  N   UNL     1      -9.698   7.989  67.971  1.00  0.00    -0.156 N  
HETATM   22  H   UNL     1     -10.079   7.701  68.872  1.00  0.00     0.000 HD 
BRANCH  21  23
HETATM   23  CA  UNL     1      -9.863   7.079  66.834  1.00  0.00    -0.199 C  
BRANCH  23  24
HETATM   24  C   UNL     1     -11.139   6.231  67.071  1.00  0.00    -0.297 C  
HETATM   25  H   UNL     1     -11.885   4.504  66.447  1.00  0.00     0.000 HD 
HETATM   26  O   UNL     1     -11.104   5.025  66.302  1.00  0.00    -0.108 OA 
ENDBRANCH  23  24
BRANCH  23  27
HETATM   27  C   UNL     1      -8.647   6.159  66.649  1.00  0.00    -0.118 C  
HETATM   28  C   UNL     1      -7.786   6.008  67.893  1.00  0.00    -0.098 C  
ENDBRANCH  23  27
ENDBRANCH  21  23
ENDBRANCH  15  19
TORSDOF 4
ENDMDL
MODEL      153
REMARK 921   NORMALIZED FREE ENERGY PREDICTED BY IDOCK:   -2.78 KCAL/MOL
REMARK 922        TOTAL FREE ENERGY PREDICTED BY IDOCK:   -4.52 KCAL/MOL
REMARK 923 INTER-LIGAND FREE ENERGY PREDICTED BY IDOCK:   -3.63 KCAL/MOL
REMARK 924 INTRA-LIGAND FREE ENERGY PREDICTED BY IDOCK:   -0.89 KCAL/MOL
REMARK 927      BINDING AFFINITY PREDICTED BY RF-SCORE:    0.00 PKD
ROOT
HETATM    1  C   UNL     1      -9.114   5.874  70.020  1.00  0.00    -0.144 C  
HETATM    2  C   UNL     1     -10.597   5.880  69.579  1.00  0.00    -0.378 C  
HETATM    3  C   UNL     1     -10.619   5.618  68.111  1.00  0.00    -0.256 A  
HETATM    4  C   UNL     1     -11.284   6.172  67.045  1.00  0.00    -0.101 A  
HETATM    5  N   UNL     1     -10.930   5.451  65.924  1.00  0.00    -0.744 NA 
HETATM    6  H   UNL     1     -11.295   5.616  64.986  1.00  0.00     0.000 HD 
HETATM    7  C   UNL     1     -10.012   4.474  66.249  1.00  0.00    -0.247 A  
HETATM    8  C   UNL     1      -9.389   3.468  65.511  1.00  0.00    -0.158 A  
HETATM    9  C   UNL     1      -8.406   2.713  66.180  1.00  0.00    -0.092 A  
HETATM   10  C   UNL     1      -7.980   3.033  67.483  1.00  0.00    -0.076 A  
HETATM   11  C   UNL     1      -8.599   4.069  68.190  1.00  0.00    -0.111 A  
HETATM   12  C   UNL     1      -8.155   4.813  69.392  1.00  0.00    -0.070 C  
HETATM   13  C   UNL     1      -9.702   4.684  67.579  1.00  0.00    -0.213 A  
HETATM   14  C   UNL     1      -6.849   4.944  69.711  1.00  0.00    -0.052 C  
HETATM   15  C   UNL     1      -6.447   6.220  70.456  1.00  0.00    -0.044 C  
HETATM   16  C   UNL     1      -9.096   4.864  72.267  1.00  0.00    -0.130 C  
HETATM   17  C   UNL     1      -7.451   6.576  71.604  1.00  0.00    -0.089 C  
HETATM   18  N   UNL     1      -8.841   6.061  71.465  1.00  0.00    -0.139 NA 
ENDROOT
BRANCH  15  19
HETATM   19  C   UNL     1      -6.391   7.359  69.382  1.00  0.00    -0.035 C  
HETATM   20  O   UNL     1      -6.091   8.526  69.642  1.00  0.00    -0.032 OA 
HETATM   21  N   UNL     1      -6.764   6.964  68.112  1.00  0.00    -0.065 N  
HETATM   22  H   UNL     1      -6.740   5.968  67.896  1.00  0.00     0.000 HD 
BRANCH  21  23
HETATM   23  CA  UNL     1      -7.192   7.885  67.055  1.00  0.00    -0.090 C  
BRANCH  23  24
HETATM   24  C   UNL     1      -8.509   8.567  67.508  1.00  0.00    -0.128 C  
HETATM   25  H   UNL     1      -9.120  10.384  68.007  1.00  0.00     0.000 HD 
HETATM   26  O   UNL     1      -8.313   9.967  67.730  1.00  0.00    -0.114 OA 
ENDBRANCH  23  24
BRANCH  23  27
HETATM   27  C   UNL     1      -7.406   7.166  65.715  1.00  0.00    -0.075 C  
HETATM   28  C   UNL     1      -6.534   5.934  65.523  1.00  0.00    -0.043 C  
ENDBRANCH  23  27
ENDBRANCH  21  23
ENDBRANCH  15  19
TORSDOF 4
ENDMDL
MODEL      154
REMARK 921   NORMALIZED FREE ENERGY PREDICTED BY IDOCK:   -2.76 KCAL/MOL
REMARK 922        TOTAL FREE ENERGY PREDICTED BY IDOCK:   -4.50 KCAL/MOL
REMARK 923 INTER-LIGAND FREE ENERGY PREDICTED BY IDOCK:   -4.62 KCAL/MOL
REMARK 924 INTRA-LIGAND FREE ENERGY PREDICTED BY IDOCK:    0.12 KCAL/MOL
REMARK 927      BINDING AFFINITY PREDICTED BY RF-SCORE:    0.00 PKD
ROOT
HETATM    1  C   UNL     1      -9.035  10.787  67.281  1.00  0.00    -0.140 C  
HETATM    2  C   UNL     1      -8.357  11.890  66.434  1.00  0.00     0.005 C  
HETATM    3  C   UNL     1      -7.798  12.893  67.386  1.00  0.00    -0.170 A  
HETATM    4  C   UNL     1      -7.800  14.264  67.449  1.00  0.00    -0.187 A  
HETATM    5  N   UNL     1      -7.054  14.623  68.554  1.00  0.00    -0.105 NA 
HETATM    6  H   UNL     1      -6.855  15.583  68.835  1.00  0.00     0.000 HD 
HETATM    7  C   UNL     1      -6.617  13.500  69.225  1.00  0.00    -0.103 A  
HETATM    8  C   UNL     1      -5.807  13.314  70.344  1.00  0.00    -0.161 A  
HETATM    9  C   UNL     1      -5.667  11.993  70.808  1.00  0.00    -0.075 A  
HETATM   10  C   UNL     1      -6.402  10.927  70.255  1.00  0.00    -0.135 A  
HETATM   11  C   UNL     1      -7.234  11.146  69.152  1.00  0.00    -0.123 A  
HETATM   12  C   UNL     1      -8.332  10.322  68.597  1.00  0.00    -0.122 C  
HETATM   13  C   UNL     1      -7.214  12.430  68.586  1.00  0.00    -0.104 A  
HETATM   14  C   UNL     1      -9.035   9.458  69.360  1.00  0.00    -0.157 C  
HETATM   15  C   UNL     1     -10.494   9.217  68.962  1.00  0.00    -0.238 C  
HETATM   16  C   UNL     1      -8.624   8.680  66.072  1.00  0.00    -0.155 C  
HETATM   17  C   UNL     1     -10.661   9.026  67.417  1.00  0.00    -0.161 C  
HETATM   18  N   UNL     1      -9.620   9.640  66.547  1.00  0.00    -0.182 NA 
ENDROOT
BRANCH  15  19
HETATM   19  C   UNL     1     -11.301  10.460  69.468  1.00  0.00    -0.265 C  
HETATM   20  O   UNL     1     -12.091  10.421  70.414  1.00  0.00    -0.282 OA 
HETATM   21  N   UNL     1     -11.103  11.608  68.728  1.00  0.00    -0.212 N  
HETATM   22  H   UNL     1     -10.266  11.663  68.147  1.00  0.00     0.000 HD 
BRANCH  21  23
HETATM   23  CA  UNL     1     -12.017  12.754  68.722  1.00  0.00    -0.240 C  
BRANCH  23  24
HETATM   24  C   UNL     1     -12.097  13.307  67.276  1.00  0.00    -0.289 C  
HETATM   25  H   UNL     1     -11.204  14.705  66.193  1.00  0.00     0.000 HD 
HETATM   26  O   UNL     1     -11.156  14.366  67.079  1.00  0.00    -0.297 OA 
ENDBRANCH  23  24
BRANCH  23  27
HETATM   27  C   UNL     1     -11.559  13.862  69.684  1.00  0.00    -0.347 C  
HETATM   28  C   UNL     1     -12.697  14.581  70.392  1.00  0.00    -0.378 C  
ENDBRANCH  23  27
ENDBRANCH  21  23
ENDBRANCH  15  19
TORSDOF 4
ENDMDL
MODEL      155
REMARK 921   NORMALIZED FREE ENERGY PREDICTED BY IDOCK:   -2.72 KCAL/MOL
REMARK 922        TOTAL FREE ENERGY PREDICTED BY IDOCK:   -4.45 KCAL/MOL
REMARK 923 INTER-LIGAND FREE ENERGY PREDICTED BY IDOCK:   -3.90 KCAL/MOL
REMARK 924 INTRA-LIGAND FREE ENERGY PREDICTED BY IDOCK:   -0.55 KCAL/MOL
REMARK 927      BINDING AFFINITY PREDICTED BY RF-SCORE:    0.00 PKD
ROOT
HETATM    1  C   UNL     1      -7.191  16.039  67.719  1.00  0.00    -0.143 C  
HETATM    2  C   UNL     1      -5.796  16.292  67.099  1.00  0.00    -0.107 C  
HETATM    3  C   UNL     1      -5.872  17.586  66.361  1.00  0.00    -0.245 A  
HETATM    4  C   UNL     1      -5.453  18.016  65.126  1.00  0.00    -0.019 A  
HETATM    5  N   UNL     1      -5.762  19.357  65.035  1.00  0.00    -0.198 NA 
HETATM    6  H   UNL     1      -5.539  19.953  64.237  1.00  0.00     0.000 HD 
HETATM    7  C   UNL     1      -6.415  19.780  66.174  1.00  0.00    -0.197 A  
HETATM    8  C   UNL     1      -6.885  21.023  66.596  1.00  0.00    -0.287 A  
HETATM    9  C   UNL     1      -7.613  21.045  67.802  1.00  0.00    -0.036 A  
HETATM   10  C   UNL     1      -7.959  19.862  68.484  1.00  0.00    -0.220 A  
HETATM   11  C   UNL     1      -7.502  18.625  68.021  1.00  0.00    -0.268 A  
HETATM   12  C   UNL     1      -7.965  17.252  68.328  1.00  0.00    -0.244 C  
HETATM   13  C   UNL     1      -6.622  18.641  66.928  1.00  0.00    -0.204 A  
HETATM   14  C   UNL     1      -9.228  16.996  68.730  1.00  0.00    -0.252 C  
HETATM   15  C   UNL     1      -9.811  15.633  68.345  1.00  0.00    -0.206 C  
HETATM   16  C   UNL     1      -6.762  14.956  69.890  1.00  0.00    -0.178 C  
HETATM   17  C   UNL     1      -8.790  14.467  68.577  1.00  0.00    -0.182 C  
HETATM   18  N   UNL     1      -7.345  14.825  68.554  1.00  0.00    -0.111 NA 
ENDROOT
BRANCH  15  19
HETATM   19  C   UNL     1     -10.216  15.736  66.836  1.00  0.00    -0.280 C  
HETATM   20  O   UNL     1     -10.536  16.794  66.288  1.00  0.00    -0.307 OA 
HETATM   21  N   UNL     1     -10.247  14.528  66.170  1.00  0.00    -0.293 N  
HETATM   22  H   UNL     1      -9.732  13.747  66.574  1.00  0.00     0.000 HD 
BRANCH  21  23
HETATM   23  CA  UNL     1     -10.973  14.295  64.918  1.00  0.00    -0.404 C  
BRANCH  23  24
HETATM   24  C   UNL     1     -12.097  13.263  65.191  1.00  0.00    -0.413 C  
HETATM   25  H   UNL     1     -14.057  13.275  65.480  1.00  0.00     0.000 HD 
HETATM   26  O   UNL     1     -13.369  13.907  65.312  1.00  0.00    -0.732 OA 
ENDBRANCH  23  24
BRANCH  23  27
HETATM   27  C   UNL     1     -10.050  13.784  63.801  1.00  0.00     1.949 C  
HETATM   28  C   UNL     1     -10.309  12.343  63.390  1.00  0.00    -0.319 C  
ENDBRANCH  23  27
ENDBRANCH  21  23
ENDBRANCH  15  19
TORSDOF 4
ENDMDL
MODEL      156
REMARK 921   NORMALIZED FREE ENERGY PREDICTED BY IDOCK:   -2.69 KCAL/MOL
REMARK 922        TOTAL FREE ENERGY PREDICTED BY IDOCK:   -4.41 KCAL/MOL
REMARK 923 INTER-LIGAND FREE ENERGY PREDICTED BY IDOCK:   -3.57 KCAL/MOL
REMARK 924 INTRA-LIGAND FREE ENERGY PREDICTED BY IDOCK:   -0.83 KCAL/MOL
REMARK 927      BINDING AFFINITY PREDICTED BY RF-SCORE:    0.00 PKD
ROOT
HETATM    1  C   UNL     1      -9.087   8.073  66.959  1.00  0.00    -0.144 C  
HETATM    2  C   UNL     1     -10.460   8.205  67.661  1.00  0.00    -0.300 C  
HETATM    3  C   UNL     1     -10.422   7.329  68.867  1.00  0.00    -0.216 A  
HETATM    4  C   UNL     1     -11.287   6.420  69.424  1.00  0.00    -0.377 A  
HETATM    5  N   UNL     1     -10.708   5.968  70.592  1.00  0.00    -0.258 NA 
HETATM    6  H   UNL     1     -11.139   5.305  71.237  1.00  0.00     0.000 HD 
HETATM    7  C   UNL     1      -9.465   6.539  70.766  1.00  0.00    -0.172 A  
HETATM    8  C   UNL     1      -8.513   6.459  71.782  1.00  0.00    -0.124 A  
HETATM    9  C   UNL     1      -7.289   7.114  71.551  1.00  0.00    -0.078 A  
HETATM   10  C   UNL     1      -6.986   7.713  70.313  1.00  0.00    -0.051 A  
HETATM   11  C   UNL     1      -7.947   7.751  69.298  1.00  0.00    -0.125 A  
HETATM   12  C   UNL     1      -7.802   8.004  67.846  1.00  0.00    -0.126 C  
HETATM   13  C   UNL     1      -9.224   7.261  69.613  1.00  0.00    -0.143 A  
HETATM   14  C   UNL     1      -6.651   7.753  67.187  1.00  0.00    -0.063 C  
HETATM   15  C   UNL     1      -6.773   7.356  65.712  1.00  0.00    -0.052 C  
HETATM   16  C   UNL     1      -8.592  10.309  66.051  1.00  0.00    -0.145 C  
HETATM   17  C   UNL     1      -7.799   8.255  64.942  1.00  0.00    -0.126 C  
HETATM   18  N   UNL     1      -8.867   8.903  65.752  1.00  0.00    -0.174 NA 
ENDROOT
BRANCH  15  19
HETATM   19  C   UNL     1      -7.215   5.854  65.695  1.00  0.00    -0.075 C  
HETATM   20  O   UNL     1      -6.605   4.958  66.282  1.00  0.00    -0.046 OA 
HETATM   21  N   UNL     1      -8.323   5.594  64.913  1.00  0.00    -0.141 N  
HETATM   22  H   UNL     1      -8.933   6.376  64.675  1.00  0.00     0.000 HD 
BRANCH  21  23
HETATM   23  CA  UNL     1      -8.678   4.267  64.402  1.00  0.00    -0.139 C  
BRANCH  23  24
HETATM   24  C   UNL     1      -8.434   4.254  62.871  1.00  0.00    -0.096 C  
HETATM   25  H   UNL     1      -7.883   2.946  61.488  1.00  0.00     0.000 HD 
HETATM   26  O   UNL     1      -8.032   2.955  62.426  1.00  0.00    -0.067 OA 
ENDBRANCH  23  24
BRANCH  23  27
HETATM   27  C   UNL     1     -10.140   3.905  64.704  1.00  0.00    -0.219 C  
HETATM   28  C   UNL     1     -10.817   4.829  65.705  1.00  0.00    -0.117 C  
ENDBRANCH  23  27
ENDBRANCH  21  23
ENDBRANCH  15  19
TORSDOF 4
ENDMDL
MODEL      157
REMARK 921   NORMALIZED FREE ENERGY PREDICTED BY IDOCK:   -2.65 KCAL/MOL
REMARK 922        TOTAL FREE ENERGY PREDICTED BY IDOCK:   -4.36 KCAL/MOL
REMARK 923 INTER-LIGAND FREE ENERGY PREDICTED BY IDOCK:   -3.66 KCAL/MOL
REMARK 924 INTRA-LIGAND FREE ENERGY PREDICTED BY IDOCK:   -0.70 KCAL/MOL
REMARK 927      BINDING AFFINITY PREDICTED BY RF-SCORE:    0.00 PKD
ROOT
HETATM    1  C   UNL     1     -11.159   9.163  69.870  1.00  0.00    -0.159 C  
HETATM    2  C   UNL     1     -11.306   7.649  70.149  1.00  0.00    -0.147 C  
HETATM    3  C   UNL     1     -10.078   6.985  69.625  1.00  0.00    -0.194 A  
HETATM    4  C   UNL     1      -9.837   5.861  68.875  1.00  0.00    -0.145 A  
HETATM    5  N   UNL     1      -8.468   5.730  68.763  1.00  0.00    -0.107 NA 
HETATM    6  H   UNL     1      -7.994   4.964  68.284  1.00  0.00     0.000 HD 
HETATM    7  C   UNL     1      -7.831   6.781  69.389  1.00  0.00    -0.113 A  
HETATM    8  C   UNL     1      -6.488   7.089  69.604  1.00  0.00    -0.043 A  
HETATM    9  C   UNL     1      -6.216   8.333  70.205  1.00  0.00    -0.031 A  
HETATM   10  C   UNL     1      -7.231   9.274  70.461  1.00  0.00    -0.111 A  
HETATM   11  C   UNL     1      -8.568   8.953  70.206  1.00  0.00    -0.178 A  
HETATM   12  C   UNL     1      -9.757   9.824  70.069  1.00  0.00    -0.292 C  
HETATM   13  C   UNL     1      -8.836   7.641  69.786  1.00  0.00    -0.140 A  
HETATM   14  C   UNL     1      -9.659  11.114  69.681  1.00  0.00     0.530 C  
HETATM   15  C   UNL     1     -10.847  11.692  68.906  1.00  0.00    -0.264 C  
HETATM   16  C   UNL     1     -12.197  10.294  71.797  1.00  0.00    -0.192 C  
HETATM   17  C   UNL     1     -12.220  11.292  69.543  1.00  0.00    -0.256 C  
HETATM   18  N   UNL     1     -12.246  10.045  70.356  1.00  0.00    -0.214 NA 
ENDROOT
BRANCH  15  19
HETATM   19  C   UNL     1     -10.724  11.149  67.442  1.00  0.00    -0.250 C  
HETATM   20  O   UNL     1     -11.485  10.305  66.963  1.00  0.00    -0.113 OA 
HETATM   21  N   UNL     1      -9.649  11.649  66.735  1.00  0.00    -0.189 N  
HETATM   22  H   UNL     1      -9.224  12.516  67.065  1.00  0.00     0.000 HD 
BRANCH  21  23
HETATM   23  CA  UNL     1      -9.080  11.016  65.543  1.00  0.00    -0.207 C  
BRANCH  23  24
HETATM   24  C   UNL     1     -10.103  11.147  64.386  1.00  0.00    -0.320 C  
HETATM   25  H   UNL     1     -10.127  10.910  62.419  1.00  0.00     0.000 HD 
HETATM   26  O   UNL     1      -9.500  10.830  63.128  1.00  0.00    -0.267 OA 
ENDBRANCH  23  24
BRANCH  23  27
HETATM   27  C   UNL     1      -8.742   9.536  65.781  1.00  0.00    -0.170 C  
HETATM   28  C   UNL     1      -7.596   9.307  66.753  1.00  0.00    -0.090 C  
ENDBRANCH  23  27
ENDBRANCH  21  23
ENDBRANCH  15  19
TORSDOF 4
ENDMDL
MODEL      158
REMARK 921   NORMALIZED FREE ENERGY PREDICTED BY IDOCK:   -2.65 KCAL/MOL
REMARK 922        TOTAL FREE ENERGY PREDICTED BY IDOCK:   -4.36 KCAL/MOL
REMARK 923 INTER-LIGAND FREE ENERGY PREDICTED BY IDOCK:   -3.45 KCAL/MOL
REMARK 924 INTRA-LIGAND FREE ENERGY PREDICTED BY IDOCK:   -0.91 KCAL/MOL
REMARK 927      BINDING AFFINITY PREDICTED BY RF-SCORE:    0.00 PKD
ROOT
HETATM    1  C   UNL     1      -7.586   5.769  67.166  1.00  0.00    -0.099 C  
HETATM    2  C   UNL     1      -8.957   5.363  67.757  1.00  0.00    -0.108 C  
HETATM    3  C   UNL     1      -9.840   5.003  66.609  1.00  0.00    -0.215 A  
HETATM    4  C   UNL     1     -11.137   5.292  66.266  1.00  0.00     0.196 A  
HETATM    5  N   UNL     1     -11.412   4.609  65.099  1.00  0.00    -1.107 NA 
HETATM    6  H   UNL     1     -12.314   4.609  64.623  1.00  0.00     0.000 HD 
HETATM    7  C   UNL     1     -10.295   3.926  64.666  1.00  0.00    -0.202 A  
HETATM    8  C   UNL     1     -10.060   3.065  63.594  1.00  0.00    -0.170 A  
HETATM    9  C   UNL     1      -8.732   2.636  63.409  1.00  0.00    -0.085 A  
HETATM   10  C   UNL     1      -7.671   3.145  64.182  1.00  0.00    -0.077 A  
HETATM   11  C   UNL     1      -7.929   4.034  65.231  1.00  0.00    -0.097 A  
HETATM   12  C   UNL     1      -7.022   4.948  65.962  1.00  0.00    -0.066 C  
HETATM   13  C   UNL     1      -9.276   4.301  65.520  1.00  0.00    -0.150 A  
HETATM   14  C   UNL     1      -5.891   5.432  65.404  1.00  0.00    -0.021 C  
HETATM   15  C   UNL     1      -5.432   6.818  65.868  1.00  0.00    -0.025 C  
HETATM   16  C   UNL     1      -5.906   4.957  68.775  1.00  0.00    -0.021 C  
HETATM   17  C   UNL     1      -5.530   6.983  67.422  1.00  0.00    -0.020 C  
HETATM   18  N   UNL     1      -6.516   6.119  68.129  1.00  0.00    -0.047 NA 
ENDROOT
BRANCH  15  19
HETATM   19  C   UNL     1      -6.346   7.855  65.131  1.00  0.00    -0.041 C  
HETATM   20  O   UNL     1      -6.375   7.987  63.906  1.00  0.00    -0.064 OA 
HETATM   21  N   UNL     1      -7.085   8.662  65.972  1.00  0.00    -0.082 N  
HETATM   22  H   UNL     1      -7.230   8.346  66.931  1.00  0.00     0.000 HD 
BRANCH  21  23
HETATM   23  CA  UNL     1      -7.674   9.945  65.576  1.00  0.00    -0.124 C  
BRANCH  23  24
HETATM   24  C   UNL     1      -7.375  10.982  66.689  1.00  0.00    -0.143 C  
HETATM   25  H   UNL     1      -6.059  11.222  68.152  1.00  0.00     0.000 HD 
HETATM   26  O   UNL     1      -6.243  10.586  67.470  1.00  0.00    -0.055 OA 
ENDBRANCH  23  24
BRANCH  23  27
HETATM   27  C   UNL     1      -9.190   9.839  65.351  1.00  0.00    -0.282 C  
HETATM   28  C   UNL     1      -9.876   8.790  66.212  1.00  0.00    -0.342 C  
ENDBRANCH  23  27
ENDBRANCH  21  23
ENDBRANCH  15  19
TORSDOF 4
ENDMDL
MODEL      159
REMARK 921   NORMALIZED FREE ENERGY PREDICTED BY IDOCK:   -2.59 KCAL/MOL
REMARK 922        TOTAL FREE ENERGY PREDICTED BY IDOCK:   -4.29 KCAL/MOL
REMARK 923 INTER-LIGAND FREE ENERGY PREDICTED BY IDOCK:   -3.54 KCAL/MOL
REMARK 924 INTRA-LIGAND FREE ENERGY PREDICTED BY IDOCK:   -0.75 KCAL/MOL
REMARK 927      BINDING AFFINITY PREDICTED BY RF-SCORE:    0.00 PKD
ROOT
HETATM    1  C   UNL     1      -9.586   6.720  71.445  1.00  0.00    -0.167 C  
HETATM    2  C   UNL     1     -10.540   7.922  71.253  1.00  0.00    -0.241 C  
HETATM    3  C   UNL     1     -10.157   8.585  69.973  1.00  0.00    -0.195 A  
HETATM    4  C   UNL     1      -9.965   9.888  69.583  1.00  0.00    -0.231 A  
HETATM    5  N   UNL     1      -9.675   9.872  68.234  1.00  0.00    -0.143 NA 
HETATM    6  H   UNL     1      -9.516  10.702  67.664  1.00  0.00     0.000 HD 
HETATM    7  C   UNL     1      -9.632   8.575  67.766  1.00  0.00    -0.156 A  
HETATM    8  C   UNL     1      -9.436   8.026  66.499  1.00  0.00    -0.278 A  
HETATM    9  C   UNL     1      -9.350   6.623  66.428  1.00  0.00    -0.175 A  
HETATM   10  C   UNL     1      -9.335   5.818  67.583  1.00  0.00    -0.108 A  
HETATM   11  C   UNL     1      -9.501   6.397  68.845  1.00  0.00    -0.128 A  
HETATM   12  C   UNL     1      -9.206   5.863  70.195  1.00  0.00    -0.169 C  
HETATM   13  C   UNL     1      -9.775   7.773  68.881  1.00  0.00    -0.160 A  
HETATM   14  C   UNL     1      -8.268   4.915  70.400  1.00  0.00    -0.088 C  
HETATM   15  C   UNL     1      -7.546   4.940  71.751  1.00  0.00    -0.096 C  
HETATM   16  C   UNL     1     -10.949   4.957  72.496  1.00  0.00    -0.137 C  
HETATM   17  C   UNL     1      -8.535   5.167  72.945  1.00  0.00    -0.116 C  
HETATM   18  N   UNL     1      -9.812   5.867  72.636  1.00  0.00    -0.164 NA 
ENDROOT
BRANCH  15  19
HETATM   19  C   UNL     1      -6.490   6.093  71.666  1.00  0.00    -0.050 C  
HETATM   20  O   UNL     1      -5.506   6.062  70.923  1.00  0.00    -0.016 OA 
HETATM   21  N   UNL     1      -6.715   7.138  72.540  1.00  0.00    -0.063 N  
HETATM   22  H   UNL     1      -7.653   7.244  72.925  1.00  0.00     0.000 HD 
BRANCH  21  23
HETATM   23  CA  UNL     1      -5.691   8.104  72.950  1.00  0.00    -0.052 C  
BRANCH  23  24
HETATM   24  C   UNL     1      -6.132   8.739  74.294  1.00  0.00    -0.116 C  
HETATM   25  H   UNL     1      -7.827   9.110  75.251  1.00  0.00     0.000 HD 
HETATM   26  O   UNL     1      -7.557   8.721  74.427  1.00  0.00    -0.414 OA 
ENDBRANCH  23  24
BRANCH  23  27
HETATM   27  C   UNL     1      -5.477   9.201  71.895  1.00  0.00    -0.066 C  
HETATM   28  C   UNL     1      -6.737   9.591  71.138  1.00  0.00    -0.009 C  
ENDBRANCH  23  27
ENDBRANCH  21  23
ENDBRANCH  15  19
TORSDOF 4
ENDMDL
MODEL      160
REMARK 921   NORMALIZED FREE ENERGY PREDICTED BY IDOCK:   -2.50 KCAL/MOL
REMARK 922        TOTAL FREE ENERGY PREDICTED BY IDOCK:   -4.18 KCAL/MOL
REMARK 923 INTER-LIGAND FREE ENERGY PREDICTED BY IDOCK:   -4.50 KCAL/MOL
REMARK 924 INTRA-LIGAND FREE ENERGY PREDICTED BY IDOCK:    0.32 KCAL/MOL
REMARK 927      BINDING AFFINITY PREDICTED BY RF-SCORE:    0.00 PKD
ROOT
HETATM    1  C   UNL     1      -9.133  15.008  67.216  1.00  0.00    -0.201 C  
HETATM    2  C   UNL     1      -9.605  15.237  65.761  1.00  0.00    -0.359 C  
HETATM    3  C   UNL     1     -10.010  16.669  65.651  1.00  0.00    -0.197 A  
HETATM    4  C   UNL     1     -11.082  17.325  65.100  1.00  0.00     0.256 A  
HETATM    5  N   UNL     1     -10.862  18.677  65.265  1.00  0.00    -0.448 NA 
HETATM    6  H   UNL     1     -11.480  19.414  64.924  1.00  0.00     0.000 HD 
HETATM    7  C   UNL     1      -9.687  18.893  65.956  1.00  0.00    -0.162 A  
HETATM    8  C   UNL     1      -9.000  20.047  66.329  1.00  0.00    -0.383 A  
HETATM    9  C   UNL     1      -7.862  19.868  67.139  1.00  0.00    -0.325 A  
HETATM   10  C   UNL     1      -7.504  18.607  67.652  1.00  0.00    -0.241 A  
HETATM   11  C   UNL     1      -8.230  17.469  67.288  1.00  0.00    -0.222 A  
HETATM   12  C   UNL     1      -8.286  16.125  67.908  1.00  0.00    -0.165 C  
HETATM   13  C   UNL     1      -9.242  17.640  66.332  1.00  0.00    -0.263 A  
HETATM   14  C   UNL     1      -8.020  15.929  69.217  1.00  0.00    -0.229 C  
HETATM   15  C   UNL     1      -8.752  14.771  69.903  1.00  0.00     0.461 C  
HETATM   16  C   UNL     1      -7.271  13.403  67.062  1.00  0.00     0.378 C  
HETATM   17  C   UNL     1      -8.760  13.474  69.025  1.00  0.00     0.370 C  
HETATM   18  N   UNL     1      -8.625  13.658  67.554  1.00  0.00    -0.184 NA 
ENDROOT
BRANCH  15  19
HETATM   19  C   UNL     1     -10.209  15.273  70.183  1.00  0.00    -0.144 C  
HETATM   20  O   UNL     1     -10.679  16.303  69.694  1.00  0.00    -0.296 OA 
HETATM   21  N   UNL     1     -10.918  14.496  71.076  1.00  0.00    -0.316 N  
HETATM   22  H   UNL     1     -10.598  13.541  71.237  1.00  0.00     0.000 HD 
BRANCH  21  23
HETATM   23  CA  UNL     1     -12.102  14.954  71.808  1.00  0.00    -0.360 C  
BRANCH  23  24
HETATM   24  C   UNL     1     -13.259  15.145  70.794  1.00  0.00    -0.382 C  
HETATM   25  H   UNL     1     -14.882  14.163  70.223  1.00  0.00     0.000 HD 
HETATM   26  O   UNL     1     -14.173  14.046  70.845  1.00  0.00     0.177 OA 
ENDBRANCH  23  24
BRANCH  23  27
HETATM   27  C   UNL     1     -11.842  16.268  72.562  1.00  0.00    -0.608 C  
HETATM   28  C   UNL     1     -12.356  16.278  73.993  1.00  0.00    -0.650 C  
ENDBRANCH  23  27
ENDBRANCH  21  23
ENDBRANCH  15  19
TORSDOF 4
ENDMDL
MODEL      161
REMARK 921   NORMALIZED FREE ENERGY PREDICTED BY IDOCK:   -2.45 KCAL/MOL
REMARK 922        TOTAL FREE ENERGY PREDICTED BY IDOCK:   -4.12 KCAL/MOL
REMARK 923 INTER-LIGAND FREE ENERGY PREDICTED BY IDOCK:   -5.05 KCAL/MOL
REMARK 924 INTRA-LIGAND FREE ENERGY PREDICTED BY IDOCK:    0.93 KCAL/MOL
REMARK 927      BINDING AFFINITY PREDICTED BY RF-SCORE:    0.00 PKD
ROOT
HETATM    1  C   UNL     1      -8.087  10.049  67.159  1.00  0.00    -0.117 C  
HETATM    2  C   UNL     1      -9.027  10.228  65.944  1.00  0.00    -0.181 C  
HETATM    3  C   UNL     1      -9.931  11.374  66.254  1.00  0.00    -0.259 A  
HETATM    4  C   UNL     1     -11.280  11.596  66.132  1.00  0.00    -0.254 A  
HETATM    5  N   UNL     1     -11.519  12.893  66.537  1.00  0.00    -0.323 NA 
HETATM    6  H   UNL     1     -12.432  13.348  66.524  1.00  0.00     0.000 HD 
HETATM    7  C   UNL     1     -10.350  13.488  66.963  1.00  0.00    -0.252 A  
HETATM    8  C   UNL     1     -10.043  14.771  67.412  1.00  0.00    -0.231 A  
HETATM    9  C   UNL     1      -8.728  14.980  67.871  1.00  0.00    -0.155 A  
HETATM   10  C   UNL     1      -7.804  13.924  67.991  1.00  0.00    -0.154 A  
HETATM   11  C   UNL     1      -8.149  12.638  67.563  1.00  0.00    -0.178 A  
HETATM   12  C   UNL     1      -7.529  11.327  67.864  1.00  0.00    -0.094 C  
HETATM   13  C   UNL     1      -9.394  12.490  66.935  1.00  0.00    -0.219 A  
HETATM   14  C   UNL     1      -6.827  11.110  68.996  1.00  0.00    -0.092 C  
HETATM   15  C   UNL     1      -6.850   9.685  69.559  1.00  0.00    -0.056 C  
HETATM   16  C   UNL     1      -5.914   9.367  66.218  1.00  0.00    -0.059 C  
HETATM   17  C   UNL     1      -6.659   8.605  68.441  1.00  0.00    -0.060 C  
HETATM   18  N   UNL     1      -7.052   8.992  67.058  1.00  0.00    -0.078 NA 
ENDROOT
BRANCH  15  19
HETATM   19  C   UNL     1      -8.231   9.517  70.277  1.00  0.00    -0.187 C  
HETATM   20  O   UNL     1      -8.441   8.686  71.164  1.00  0.00    -0.139 OA 
HETATM   21  N   UNL     1      -9.229  10.340  69.796  1.00  0.00    -0.400 N  
HETATM   22  H   UNL     1      -8.951  11.169  69.270  1.00  0.00     0.000 HD 
BRANCH  21  23
HETATM   23  CA  UNL     1     -10.662  10.100  69.990  1.00  0.00    -0.305 C  
BRANCH  23  24
HETATM   24  C   UNL     1     -11.401  11.460  69.891  1.00  0.00    -0.219 C  
HETATM   25  H   UNL     1     -13.020  12.184  69.008  1.00  0.00     0.000 HD 
HETATM   26  O   UNL     1     -12.567  11.351  69.069  1.00  0.00    -0.271 OA 
ENDBRANCH  23  24
BRANCH  23  27
HETATM   27  C   UNL     1     -10.957   9.440  71.346  1.00  0.00    -0.443 C  
HETATM   28  C   UNL     1     -12.035   8.367  71.294  1.00  0.00    -0.323 C  
ENDBRANCH  23  27
ENDBRANCH  21  23
ENDBRANCH  15  19
TORSDOF 4
ENDMDL
MODEL      162
REMARK 921   NORMALIZED FREE ENERGY PREDICTED BY IDOCK:   -2.43 KCAL/MOL
REMARK 922        TOTAL FREE ENERGY PREDICTED BY IDOCK:   -4.09 KCAL/MOL
REMARK 923 INTER-LIGAND FREE ENERGY PREDICTED BY IDOCK:   -3.41 KCAL/MOL
REMARK 924 INTRA-LIGAND FREE ENERGY PREDICTED BY IDOCK:   -0.68 KCAL/MOL
REMARK 927      BINDING AFFINITY PREDICTED BY RF-SCORE:    0.00 PKD
ROOT
HETATM    1  C   UNL     1      -6.628  12.157  67.450  1.00  0.00    -0.147 C  
HETATM    2  C   UNL     1      -5.948  13.537  67.281  1.00  0.00     0.333 C  
HETATM    3  C   UNL     1      -6.017  14.224  68.604  1.00  0.00    -0.085 A  
HETATM    4  C   UNL     1      -6.346  15.492  69.013  1.00  0.00    -0.113 A  
HETATM    5  N   UNL     1      -6.158  15.542  70.379  1.00  0.00    -0.083 NA 
HETATM    6  H   UNL     1      -6.294  16.372  70.956  1.00  0.00     0.000 HD 
HETATM    7  C   UNL     1      -5.761  14.310  70.856  1.00  0.00    -0.199 A  
HETATM    8  C   UNL     1      -5.401  13.849  72.122  1.00  0.00    -0.210 A  
HETATM    9  C   UNL     1      -5.153  12.468  72.242  1.00  0.00     0.136 A  
HETATM   10  C   UNL     1      -5.377  11.575  71.176  1.00  0.00    -0.060 A  
HETATM   11  C   UNL     1      -5.770  12.060  69.925  1.00  0.00    -0.126 A  
HETATM   12  C   UNL     1      -6.375  11.359  68.769  1.00  0.00    -0.053 C  
HETATM   13  C   UNL     1      -5.828  13.454  69.773  1.00  0.00    -0.119 A  
HETATM   14  C   UNL     1      -7.100  10.229  68.916  1.00  0.00    -0.075 C  
HETATM   15  C   UNL     1      -8.217   9.990  67.896  1.00  0.00    -0.113 C  
HETATM   16  C   UNL     1      -5.346  10.611  66.023  1.00  0.00    -0.099 C  
HETATM   17  C   UNL     1      -7.757  10.299  66.431  1.00  0.00    -0.116 C  
HETATM   18  N   UNL     1      -6.633  11.262  66.269  1.00  0.00    -0.073 NA 
ENDROOT
BRANCH  15  19
HETATM   19  C   UNL     1      -9.407  10.915  68.321  1.00  0.00    -0.168 C  
HETATM   20  O   UNL     1      -9.914  10.901  69.445  1.00  0.00    -0.172 OA 
HETATM   21  N   UNL     1      -9.894  11.719  67.310  1.00  0.00    -0.185 N  
HETATM   22  H   UNL     1      -9.291  11.890  66.505  1.00  0.00     0.000 HD 
BRANCH  21  23
HETATM   23  CA  UNL     1     -11.220  12.344  67.318  1.00  0.00    -0.303 C  
BRANCH  23  24
HETATM   24  C   UNL     1     -11.783  12.309  65.874  1.00  0.00    -0.389 C  
HETATM   25  H   UNL     1     -12.044  13.578  64.375  1.00  0.00     0.000 HD 
HETATM   26  O   UNL     1     -11.699  13.599  65.259  1.00  0.00    -0.317 OA 
ENDBRANCH  23  24
BRANCH  23  27
HETATM   27  C   UNL     1     -11.172  13.792  67.830  1.00  0.00    -0.312 C  
HETATM   28  C   UNL     1     -11.620  13.957  69.274  1.00  0.00    -0.358 C  
ENDBRANCH  23  27
ENDBRANCH  21  23
ENDBRANCH  15  19
TORSDOF 4
ENDMDL
MODEL      163
REMARK 921   NORMALIZED FREE ENERGY PREDICTED BY IDOCK:   -2.19 KCAL/MOL
REMARK 922        TOTAL FREE ENERGY PREDICTED BY IDOCK:   -3.79 KCAL/MOL
REMARK 923 INTER-LIGAND FREE ENERGY PREDICTED BY IDOCK:   -3.14 KCAL/MOL
REMARK 924 INTRA-LIGAND FREE ENERGY PREDICTED BY IDOCK:   -0.65 KCAL/MOL
REMARK 927      BINDING AFFINITY PREDICTED BY RF-SCORE:    0.00 PKD
ROOT
HETATM    1  C   UNL     1      -8.926   6.239  66.645  1.00  0.00    -0.135 C  
HETATM    2  C   UNL     1     -10.350   5.646  66.529  1.00  0.00    -0.287 C  
HETATM    3  C   UNL     1     -10.270   4.493  65.586  1.00  0.00    -0.275 A  
HETATM    4  C   UNL     1     -11.028   4.062  64.526  1.00  0.00    -0.023 A  
HETATM    5  N   UNL     1     -10.474   2.879  64.082  1.00  0.00    -0.406 NA 
HETATM    6  H   UNL     1     -10.848   2.311  63.321  1.00  0.00     0.000 HD 
HETATM    7  C   UNL     1      -9.346   2.571  64.812  1.00  0.00    -0.127 A  
HETATM    8  C   UNL     1      -8.469   1.487  64.800  1.00  0.00    -0.083 A  
HETATM    9  C   UNL     1      -7.342   1.579  65.639  1.00  0.00    -0.056 A  
HETATM   10  C   UNL     1      -7.043   2.751  66.360  1.00  0.00    -0.053 A  
HETATM   11  C   UNL     1      -7.923   3.837  66.329  1.00  0.00    -0.089 A  
HETATM   12  C   UNL     1      -7.713   5.256  66.701  1.00  0.00    -0.096 C  
HETATM   13  C   UNL     1      -9.132   3.657  65.640  1.00  0.00    -0.150 A  
HETATM   14  C   UNL     1      -6.492   5.832  66.665  1.00  0.00    -0.050 C  
HETATM   15  C   UNL     1      -6.447   7.332  66.358  1.00  0.00    -0.048 C  
HETATM   16  C   UNL     1      -8.705   6.972  68.987  1.00  0.00    -0.128 C  
HETATM   17  C   UNL     1      -7.536   8.130  67.151  1.00  0.00    -0.096 C  
HETATM   18  N   UNL     1      -8.745   7.374  67.580  1.00  0.00    -0.125 NA 
ENDROOT
BRANCH  15  19
HETATM   19  C   UNL     1      -6.658   7.472  64.812  1.00  0.00    -0.040 C  
HETATM   20  O   UNL     1      -6.301   6.620  63.996  1.00  0.00    -0.033 OA 
HETATM   21  N   UNL     1      -7.229   8.666  64.421  1.00  0.00    -0.094 N  
HETATM   22  H   UNL     1      -7.738   9.204  65.122  1.00  0.00     0.000 HD 
BRANCH  21  23
HETATM   23  CA  UNL     1      -7.151   9.211  63.062  1.00  0.00    -0.091 C  
BRANCH  23  24
HETATM   24  C   UNL     1      -5.773   9.902  62.893  1.00  0.00    -0.101 C  
HETATM   25  H   UNL     1      -4.760  11.375  63.746  1.00  0.00     0.000 HD 
HETATM   26  O   UNL     1      -5.604  10.952  63.849  1.00  0.00    -0.058 OA 
ENDBRANCH  23  24
BRANCH  23  27
HETATM   27  C   UNL     1      -8.280  10.215  62.777  1.00  0.00    -0.159 C  
HETATM   28  C   UNL     1      -9.312  10.323  63.889  1.00  0.00    -0.337 C  
ENDBRANCH  23  27
ENDBRANCH  21  23
ENDBRANCH  15  19
TORSDOF 4
ENDMDL
MODEL      164
REMARK 921   NORMALIZED FREE ENERGY PREDICTED BY IDOCK:   -2.18 KCAL/MOL
REMARK 922        TOTAL FREE ENERGY PREDICTED BY IDOCK:   -3.78 KCAL/MOL
REMARK 923 INTER-LIGAND FREE ENERGY PREDICTED BY IDOCK:   -3.46 KCAL/MOL
REMARK 924 INTRA-LIGAND FREE ENERGY PREDICTED BY IDOCK:   -0.32 KCAL/MOL
REMARK 927      BINDING AFFINITY PREDICTED BY RF-SCORE:    0.00 PKD
ROOT
HETATM    1  C   UNL     1     -10.563  17.391  67.723  1.00  0.00    -0.371 C  
HETATM    2  C   UNL     1     -11.017  16.737  69.049  1.00  0.00    -0.239 C  
HETATM    3  C   UNL     1     -10.551  15.321  69.022  1.00  0.00    -0.245 A  
HETATM    4  C   UNL     1     -11.125  14.112  69.329  1.00  0.00    -0.250 A  
HETATM    5  N   UNL     1     -10.157  13.144  69.157  1.00  0.00    -0.403 NA 
HETATM    6  H   UNL     1     -10.288  12.150  69.343  1.00  0.00     0.000 HD 
HETATM    7  C   UNL     1      -8.985  13.711  68.699  1.00  0.00    -0.025 A  
HETATM    8  C   UNL     1      -7.721  13.192  68.421  1.00  0.00    -0.138 A  
HETATM    9  C   UNL     1      -6.787  14.080  67.855  1.00  0.00    -0.172 A  
HETATM   10  C   UNL     1      -7.140  15.388  67.471  1.00  0.00    -0.221 A  
HETATM   11  C   UNL     1      -8.425  15.873  67.731  1.00  0.00    -0.165 A  
HETATM   12  C   UNL     1      -9.147  17.036  67.165  1.00  0.00    -0.232 C  
HETATM   13  C   UNL     1      -9.282  15.040  68.466  1.00  0.00    -0.192 A  
HETATM   14  C   UNL     1      -8.862  17.529  65.941  1.00  0.00     0.059 C  
HETATM   15  C   UNL     1     -10.017  18.177  65.172  1.00  0.00     1.546 C  
HETATM   16  C   UNL     1      -9.982  19.715  68.297  1.00  0.00    -0.436 C  
HETATM   17  C   UNL     1     -10.880  19.115  66.082  1.00  0.00    -0.225 C  
HETATM   18  N   UNL     1     -10.869  18.830  67.543  1.00  0.00    -0.404 NA 
ENDROOT
BRANCH  15  19
HETATM   19  C   UNL     1     -10.877  17.001  64.596  1.00  0.00     0.491 C  
HETATM   20  O   UNL     1     -12.004  17.153  64.118  1.00  0.00     0.181 OA 
HETATM   21  N   UNL     1     -10.296  15.755  64.719  1.00  0.00    -0.276 N  
HETATM   22  H   UNL     1      -9.288  15.712  64.866  1.00  0.00     0.000 HD 
BRANCH  21  23
HETATM   23  CA  UNL     1     -11.035  14.491  64.652  1.00  0.00    -0.336 C  
BRANCH  23  24
HETATM   24  C   UNL     1     -12.305  14.622  65.532  1.00  0.00    -0.168 C  
HETATM   25  H   UNL     1     -14.130  13.853  65.591  1.00  0.00     0.000 HD 
HETATM   26  O   UNL     1     -13.352  13.773  65.052  1.00  0.00    -0.586 OA 
ENDBRANCH  23  24
BRANCH  23  27
HETATM   27  C   UNL     1     -10.186  13.301  65.128  1.00  0.00    -0.301 C  
HETATM   28  C   UNL     1     -10.689  11.948  64.651  1.00  0.00    -0.356 C  
ENDBRANCH  23  27
ENDBRANCH  21  23
ENDBRANCH  15  19
TORSDOF 4
ENDMDL
MODEL      165
REMARK 921   NORMALIZED FREE ENERGY PREDICTED BY IDOCK:   -2.06 KCAL/MOL
REMARK 922        TOTAL FREE ENERGY PREDICTED BY IDOCK:   -3.63 KCAL/MOL
REMARK 923 INTER-LIGAND FREE ENERGY PREDICTED BY IDOCK:   -3.51 KCAL/MOL
REMARK 924 INTRA-LIGAND FREE ENERGY PREDICTED BY IDOCK:   -0.12 KCAL/MOL
REMARK 927      BINDING AFFINITY PREDICTED BY RF-SCORE:    0.00 PKD
ROOT
HETATM    1  C   UNL     1      -7.972   8.334  71.228  1.00  0.00    -0.111 C  
HETATM    2  C   UNL     1      -9.244   7.740  71.878  1.00  0.00    -0.182 C  
HETATM    3  C   UNL     1      -9.989   7.019  70.805  1.00  0.00    -0.197 A  
HETATM    4  C   UNL     1     -11.305   6.961  70.419  1.00  0.00    -0.328 A  
HETATM    5  N   UNL     1     -11.386   6.057  69.379  1.00  0.00    -0.348 NA 
HETATM    6  H   UNL     1     -12.250   5.786  68.910  1.00  0.00     0.000 HD 
HETATM    7  C   UNL     1     -10.134   5.573  69.063  1.00  0.00    -0.205 A  
HETATM    8  C   UNL     1      -9.683   4.623  68.147  1.00  0.00    -0.197 A  
HETATM    9  C   UNL     1      -8.288   4.469  68.034  1.00  0.00    -0.094 A  
HETATM   10  C   UNL     1      -7.388   5.313  68.713  1.00  0.00    -0.070 A  
HETATM   11  C   UNL     1      -7.868   6.280  69.603  1.00  0.00    -0.107 A  
HETATM   12  C   UNL     1      -7.203   7.474  70.174  1.00  0.00    -0.068 C  
HETATM   13  C   UNL     1      -9.250   6.291  69.845  1.00  0.00    -0.155 A  
HETATM   14  C   UNL     1      -6.184   8.097  69.544  1.00  0.00    -0.033 C  
HETATM   15  C   UNL     1      -6.049   9.604  69.776  1.00  0.00    -0.044 C  
HETATM   16  C   UNL     1      -6.215   8.173  72.947  1.00  0.00    -0.078 C  
HETATM   17  C   UNL     1      -6.234   9.990  71.282  1.00  0.00     0.132 C  
HETATM   18  N   UNL     1      -7.037   9.058  72.121  1.00  0.00    -0.326 NA 
ENDROOT
BRANCH  15  19
HETATM   19  C   UNL     1      -7.137  10.287  68.880  1.00  0.00    -0.075 C  
HETATM   20  O   UNL     1      -8.134  10.854  69.332  1.00  0.00    -0.103 OA 
HETATM   21  N   UNL     1      -6.924  10.155  67.522  1.00  0.00    -0.084 N  
HETATM   22  H   UNL     1      -5.981   9.925  67.208  1.00  0.00     0.000 HD 
BRANCH  21  23
HETATM   23  CA  UNL     1      -7.964  10.324  66.504  1.00  0.00    -0.118 C  
BRANCH  23  24
HETATM   24  C   UNL     1      -7.316  10.130  65.109  1.00  0.00    -0.141 C  
HETATM   25  H   UNL     1      -7.823   9.365  63.353  1.00  0.00     0.000 HD 
HETATM   26  O   UNL     1      -8.220   9.483  64.208  1.00  0.00    -0.136 OA 
ENDBRANCH  23  24
BRANCH  23  27
HETATM   27  C   UNL     1      -8.633  11.705  66.585  1.00  0.00    -0.179 C  
HETATM   28  C   UNL     1     -10.017  11.764  65.958  1.00  0.00    -0.258 C  
ENDBRANCH  23  27
ENDBRANCH  21  23
ENDBRANCH  15  19
TORSDOF 4
ENDMDL
MODEL      166
REMARK 921   NORMALIZED FREE ENERGY PREDICTED BY IDOCK:   -2.03 KCAL/MOL
REMARK 922        TOTAL FREE ENERGY PREDICTED BY IDOCK:   -3.60 KCAL/MOL
REMARK 923 INTER-LIGAND FREE ENERGY PREDICTED BY IDOCK:   -2.88 KCAL/MOL
REMARK 924 INTRA-LIGAND FREE ENERGY PREDICTED BY IDOCK:   -0.72 KCAL/MOL
REMARK 927      BINDING AFFINITY PREDICTED BY RF-SCORE:    0.00 PKD
ROOT
HETATM    1  C   UNL     1      -9.666   8.164  68.739  1.00  0.00    -0.153 C  
HETATM    2  C   UNL     1     -10.566   8.274  69.992  1.00  0.00    -0.235 C  
HETATM    3  C   UNL     1      -9.852   7.589  71.107  1.00  0.00    -0.180 A  
HETATM    4  C   UNL     1     -10.222   6.697  72.083  1.00  0.00    -0.190 A  
HETATM    5  N   UNL     1      -9.113   6.471  72.872  1.00  0.00    -0.130 NA 
HETATM    6  H   UNL     1      -9.099   5.873  73.699  1.00  0.00     0.000 HD 
HETATM    7  C   UNL     1      -8.027   7.168  72.387  1.00  0.00    -0.096 A  
HETATM    8  C   UNL     1      -6.715   7.320  72.834  1.00  0.00    -0.064 A  
HETATM    9  C   UNL     1      -5.843   8.040  71.996  1.00  0.00    -0.037 A  
HETATM   10  C   UNL     1      -6.233   8.478  70.715  1.00  0.00    -0.034 A  
HETATM   11  C   UNL     1      -7.546   8.284  70.277  1.00  0.00    -0.072 A  
HETATM   12  C   UNL     1      -8.123   8.337  68.913  1.00  0.00    -0.115 C  
HETATM   13  C   UNL     1      -8.449   7.735  71.200  1.00  0.00    -0.115 A  
HETATM   14  C   UNL     1      -7.380   8.096  67.812  1.00  0.00    -0.093 C  
HETATM   15  C   UNL     1      -8.106   7.481  66.612  1.00  0.00    -0.123 C  
HETATM   16  C   UNL     1      -9.974  10.280  67.515  1.00  0.00    -0.189 C  
HETATM   17  C   UNL     1      -9.489   8.165  66.344  1.00  0.00    -0.218 C  
HETATM   18  N   UNL     1     -10.147   8.827  67.504  1.00  0.00    -0.205 NA 
ENDROOT
BRANCH  15  19
HETATM   19  C   UNL     1      -8.283   5.959  66.935  1.00  0.00    -0.105 C  
HETATM   20  O   UNL     1      -9.222   5.278  66.517  1.00  0.00    -0.130 OA 
HETATM   21  N   UNL     1      -7.326   5.441  67.785  1.00  0.00    -0.072 N  
HETATM   22  H   UNL     1      -6.449   5.952  67.883  1.00  0.00     0.000 HD 
BRANCH  21  23
HETATM   23  CA  UNL     1      -7.489   4.205  68.556  1.00  0.00    -0.059 C  
BRANCH  23  24
HETATM   24  C   UNL     1      -8.567   4.448  69.644  1.00  0.00    -0.072 C  
HETATM   25  H   UNL     1     -10.053   3.442  70.482  1.00  0.00     0.000 HD 
HETATM   26  O   UNL     1      -9.393   3.293  69.816  1.00  0.00    -0.141 OA 
ENDBRANCH  23  24
BRANCH  23  27
HETATM   27  C   UNL     1      -6.174   3.755  69.211  1.00  0.00    -0.028 C  
HETATM   28  C   UNL     1      -6.286   3.470  70.701  1.00  0.00    -0.019 C  
ENDBRANCH  23  27
ENDBRANCH  21  23
ENDBRANCH  15  19
TORSDOF 4
ENDMDL
MODEL      167
REMARK 921   NORMALIZED FREE ENERGY PREDICTED BY IDOCK:   -1.83 KCAL/MOL
REMARK 922        TOTAL FREE ENERGY PREDICTED BY IDOCK:   -3.35 KCAL/MOL
REMARK 923 INTER-LIGAND FREE ENERGY PREDICTED BY IDOCK:   -3.60 KCAL/MOL
REMARK 924 INTRA-LIGAND FREE ENERGY PREDICTED BY IDOCK:    0.25 KCAL/MOL
REMARK 927      BINDING AFFINITY PREDICTED BY RF-SCORE:    0.00 PKD
ROOT
HETATM    1  C   UNL     1      -7.732   8.345  71.599  1.00  0.00    -0.113 C  
HETATM    2  C   UNL     1      -9.155   8.269  72.201  1.00  0.00    -0.279 C  
HETATM    3  C   UNL     1      -9.894   7.215  71.448  1.00  0.00    -0.178 A  
HETATM    4  C   UNL     1     -11.148   7.127  70.896  1.00  0.00    -0.263 A  
HETATM    5  N   UNL     1     -11.276   5.856  70.374  1.00  0.00    -0.297 NA 
HETATM    6  H   UNL     1     -12.118   5.492  69.927  1.00  0.00     0.000 HD 
HETATM    7  C   UNL     1     -10.105   5.146  70.542  1.00  0.00    -0.256 A  
HETATM    8  C   UNL     1      -9.736   3.834  70.246  1.00  0.00    -0.222 A  
HETATM    9  C   UNL     1      -8.388   3.494  70.471  1.00  0.00    -0.087 A  
HETATM   10  C   UNL     1      -7.431   4.454  70.853  1.00  0.00    -0.052 A  
HETATM   11  C   UNL     1      -7.822   5.771  71.112  1.00  0.00    -0.111 A  
HETATM   12  C   UNL     1      -7.020   7.013  71.200  1.00  0.00    -0.062 C  
HETATM   13  C   UNL     1      -9.198   6.046  71.067  1.00  0.00    -0.168 A  
HETATM   14  C   UNL     1      -5.841   7.150  70.557  1.00  0.00    -0.027 C  
HETATM   15  C   UNL     1      -5.461   8.565  70.110  1.00  0.00    -0.021 C  
HETATM   16  C   UNL     1      -6.235   8.819  73.497  1.00  0.00    -0.040 C  
HETATM   17  C   UNL     1      -5.739   9.631  71.223  1.00  0.00    -0.075 C  
HETATM   18  N   UNL     1      -6.785   9.296  72.228  1.00  0.00    -0.287 NA 
ENDROOT
BRANCH  15  19
HETATM   19  C   UNL     1      -6.301   8.862  68.822  1.00  0.00    -0.049 C  
HETATM   20  O   UNL     1      -5.800   9.178  67.740  1.00  0.00    -0.042 OA 
HETATM   21  N   UNL     1      -7.667   8.799  69.005  1.00  0.00    -0.089 N  
HETATM   22  H   UNL     1      -8.017   8.286  69.814  1.00  0.00     0.000 HD 
BRANCH  21  23
HETATM   23  CA  UNL     1      -8.648   9.421  68.111  1.00  0.00    -0.120 C  
BRANCH  23  24
HETATM   24  C   UNL     1      -9.495  10.422  68.939  1.00  0.00    -0.186 C  
HETATM   25  H   UNL     1     -10.392  12.166  68.655  1.00  0.00     0.000 HD 
HETATM   26  O   UNL     1      -9.873  11.552  68.148  1.00  0.00    -0.181 OA 
ENDBRANCH  23  24
BRANCH  23  27
HETATM   27  C   UNL     1      -9.565   8.382  67.447  1.00  0.00    -0.202 C  
HETATM   28  C   UNL     1      -9.141   7.987  66.040  1.00  0.00    -0.193 C  
ENDBRANCH  23  27
ENDBRANCH  21  23
ENDBRANCH  15  19
TORSDOF 4
ENDMDL
MODEL      168
REMARK 921   NORMALIZED FREE ENERGY PREDICTED BY IDOCK:   -1.74 KCAL/MOL
REMARK 922        TOTAL FREE ENERGY PREDICTED BY IDOCK:   -3.24 KCAL/MOL
REMARK 923 INTER-LIGAND FREE ENERGY PREDICTED BY IDOCK:   -3.13 KCAL/MOL
REMARK 924 INTRA-LIGAND FREE ENERGY PREDICTED BY IDOCK:   -0.11 KCAL/MOL
REMARK 927      BINDING AFFINITY PREDICTED BY RF-SCORE:    0.00 PKD
ROOT
HETATM    1  C   UNL     1      -9.804   8.611  69.652  1.00  0.00    -0.186 C  
HETATM    2  C   UNL     1     -10.484   7.705  70.706  1.00  0.00    -0.211 C  
HETATM    3  C   UNL     1      -9.407   6.906  71.359  1.00  0.00    -0.156 A  
HETATM    4  C   UNL     1      -9.260   5.585  71.701  1.00  0.00    -0.142 A  
HETATM    5  N   UNL     1      -8.047   5.462  72.345  1.00  0.00    -0.106 NA 
HETATM    6  H   UNL     1      -7.684   4.595  72.742  1.00  0.00     0.000 HD 
HETATM    7  C   UNL     1      -7.393   6.676  72.378  1.00  0.00    -0.089 A  
HETATM    8  C   UNL     1      -6.189   7.095  72.942  1.00  0.00    -0.056 A  
HETATM    9  C   UNL     1      -5.792   8.417  72.669  1.00  0.00    -0.067 A  
HETATM   10  C   UNL     1      -6.503   9.239  71.773  1.00  0.00     0.071 A  
HETATM   11  C   UNL     1      -7.691   8.782  71.194  1.00  0.00    -0.146 A  
HETATM   12  C   UNL     1      -8.437   9.275  70.013  1.00  0.00    -0.185 C  
HETATM   13  C   UNL     1      -8.170   7.536  71.625  1.00  0.00    -0.108 A  
HETATM   14  C   UNL     1      -7.829   9.942  69.009  1.00  0.00    -0.095 C  
HETATM   15  C   UNL     1      -8.432   9.782  67.611  1.00  0.00    -0.122 C  
HETATM   16  C   UNL     1     -11.074  10.722  69.678  1.00  0.00    -0.279 C  
HETATM   17  C   UNL     1      -9.995   9.885  67.626  1.00  0.00    -0.171 C  
HETATM   18  N   UNL     1     -10.678   9.545  68.904  1.00  0.00    -0.217 NA 
ENDROOT
BRANCH  15  19
HETATM   19  C   UNL     1      -7.964   8.382  67.086  1.00  0.00    -0.104 C  
HETATM   20  O   UNL     1      -6.841   7.917  67.296  1.00  0.00    -0.066 OA 
HETATM   21  N   UNL     1      -8.895   7.724  66.308  1.00  0.00    -0.153 N  
HETATM   22  H   UNL     1      -9.870   8.013  66.385  1.00  0.00     0.000 HD 
BRANCH  21  23
HETATM   23  CA  UNL     1      -8.573   6.637  65.379  1.00  0.00    -0.056 C  
BRANCH  23  24
HETATM   24  C   UNL     1      -7.931   5.480  66.188  1.00  0.00    -0.105 C  
HETATM   25  H   UNL     1      -8.478   4.202  67.600  1.00  0.00     0.000 HD 
HETATM   26  O   UNL     1      -8.871   4.911  67.104  1.00  0.00    -0.107 OA 
ENDBRANCH  23  24
BRANCH  23  27
HETATM   27  C   UNL     1      -7.617   7.093  64.266  1.00  0.00    -0.112 C  
HETATM   28  C   UNL     1      -7.976   8.436  63.649  1.00  0.00    -0.159 C  
ENDBRANCH  23  27
ENDBRANCH  21  23
ENDBRANCH  15  19
TORSDOF 4
ENDMDL
MODEL      169
REMARK 921   NORMALIZED FREE ENERGY PREDICTED BY IDOCK:   -1.66 KCAL/MOL
REMARK 922        TOTAL FREE ENERGY PREDICTED BY IDOCK:   -3.14 KCAL/MOL
REMARK 923 INTER-LIGAND FREE ENERGY PREDICTED BY IDOCK:   -3.72 KCAL/MOL
REMARK 924 INTRA-LIGAND FREE ENERGY PREDICTED BY IDOCK:    0.58 KCAL/MOL
REMARK 927      BINDING AFFINITY PREDICTED BY RF-SCORE:    0.00 PKD
ROOT
HETATM    1  C   UNL     1      -7.257  10.158  68.991  1.00  0.00    -0.076 C  
HETATM    2  C   UNL     1      -6.684   9.559  70.298  1.00  0.00    -0.084 C  
HETATM    3  C   UNL     1      -7.772   8.754  70.925  1.00  0.00    -0.121 A  
HETATM    4  C   UNL     1      -8.265   8.631  72.200  1.00  0.00    -0.062 A  
HETATM    5  N   UNL     1      -9.252   7.668  72.165  1.00  0.00    -0.135 NA 
HETATM    6  H   UNL     1      -9.777   7.341  72.977  1.00  0.00     0.000 HD 
HETATM    7  C   UNL     1      -9.431   7.208  70.877  1.00  0.00    -0.160 A  
HETATM    8  C   UNL     1     -10.247   6.223  70.321  1.00  0.00    -0.244 A  
HETATM    9  C   UNL     1     -10.230   6.109  68.918  1.00  0.00    -0.232 A  
HETATM   10  C   UNL     1      -9.528   7.019  68.105  1.00  0.00    -0.123 A  
HETATM   11  C   UNL     1      -8.742   8.019  68.687  1.00  0.00    -0.131 A  
HETATM   12  C   UNL     1      -8.188   9.265  68.109  1.00  0.00    -0.119 C  
HETATM   13  C   UNL     1      -8.620   7.998  70.085  1.00  0.00    -0.130 A  
HETATM   14  C   UNL     1      -8.764   9.884  67.056  1.00  0.00    -0.137 C  
HETATM   15  C   UNL     1      -8.612  11.406  66.984  1.00  0.00    -0.157 C  
HETATM   16  C   UNL     1      -5.387  10.153  67.387  1.00  0.00    -0.041 C  
HETATM   17  C   UNL     1      -7.153  11.871  67.312  1.00  0.00    -0.143 C  
HETATM   18  N   UNL     1      -6.332  10.961  68.158  1.00  0.00    -0.057 NA 
ENDROOT
BRANCH  15  19
HETATM   19  C   UNL     1      -9.637  12.001  68.008  1.00  0.00    -0.199 C  
HETATM   20  O   UNL     1     -10.695  11.446  68.313  1.00  0.00    -0.184 OA 
HETATM   21  N   UNL     1      -9.290  13.239  68.509  1.00  0.00    -0.362 N  
HETATM   22  H   UNL     1      -8.313  13.524  68.442  1.00  0.00     0.000 HD 
BRANCH  21  23
HETATM   23  CA  UNL     1     -10.234  14.171  69.132  1.00  0.00    -0.051 C  
BRANCH  23  24
HETATM   24  C   UNL     1     -11.522  13.388  69.497  1.00  0.00    -0.244 C  
HETATM   25  H   UNL     1     -12.933  13.459  70.886  1.00  0.00     0.000 HD 
HETATM   26  O   UNL     1     -12.145  13.939  70.661  1.00  0.00    -0.332 OA 
ENDBRANCH  23  24
BRANCH  23  27
HETATM   27  C   UNL     1     -10.580  15.347  68.205  1.00  0.00    -0.263 C  
HETATM   28  C   UNL     1     -11.981  15.285  67.616  1.00  0.00     0.063 C  
ENDBRANCH  23  27
ENDBRANCH  21  23
ENDBRANCH  15  19
TORSDOF 4
ENDMDL
MODEL      170
REMARK 921   NORMALIZED FREE ENERGY PREDICTED BY IDOCK:   -1.16 KCAL/MOL
REMARK 922        TOTAL FREE ENERGY PREDICTED BY IDOCK:   -2.52 KCAL/MOL
REMARK 923 INTER-LIGAND FREE ENERGY PREDICTED BY IDOCK:   -2.70 KCAL/MOL
REMARK 924 INTRA-LIGAND FREE ENERGY PREDICTED BY IDOCK:    0.17 KCAL/MOL
REMARK 927      BINDING AFFINITY PREDICTED BY RF-SCORE:    0.00 PKD
ROOT
HETATM    1  C   UNL     1      -6.255  11.994  67.421  1.00  0.00    -0.136 C  
HETATM    2  C   UNL     1      -5.229  13.042  66.928  1.00  0.00     0.767 C  
HETATM    3  C   UNL     1      -5.316  14.210  67.852  1.00  0.00    -0.071 A  
HETATM    4  C   UNL     1      -5.367  15.571  67.682  1.00  0.00    -0.054 A  
HETATM    5  N   UNL     1      -5.378  16.139  68.939  1.00  0.00    -0.110 NA 
HETATM    6  H   UNL     1      -5.381  17.143  69.124  1.00  0.00     0.000 HD 
HETATM    7  C   UNL     1      -5.382  15.160  69.911  1.00  0.00    -0.105 A  
HETATM    8  C   UNL     1      -5.342  15.201  71.304  1.00  0.00    -0.063 A  
HETATM    9  C   UNL     1      -5.474  13.969  71.974  1.00  0.00    -0.222 A  
HETATM   10  C   UNL     1      -5.759  12.774  71.286  1.00  0.00     0.137 A  
HETATM   11  C   UNL     1      -5.826  12.767  69.889  1.00  0.00    -0.134 A  
HETATM   12  C   UNL     1      -6.412  11.773  68.960  1.00  0.00    -0.084 C  
HETATM   13  C   UNL     1      -5.504  13.963  69.231  1.00  0.00    -0.082 A  
HETATM   14  C   UNL     1      -7.414  10.948  69.332  1.00  0.00    -0.105 C  
HETATM   15  C   UNL     1      -8.392  10.514  68.237  1.00  0.00    -0.122 C  
HETATM   16  C   UNL     1      -5.213   9.802  67.002  1.00  0.00    -0.041 C  
HETATM   17  C   UNL     1      -7.657  10.112  66.913  1.00  0.00    -0.100 C  
HETATM   18  N   UNL     1      -6.313  10.711  66.682  1.00  0.00    -0.082 NA 
ENDROOT
BRANCH  15  19
HETATM   19  C   UNL     1      -9.356  11.725  68.001  1.00  0.00    -0.184 C  
HETATM   20  O   UNL     1     -10.277  11.713  67.181  1.00  0.00    -0.207 OA 
HETATM   21  N   UNL     1      -9.058  12.846  68.750  1.00  0.00    -0.389 N  
HETATM   22  H   UNL     1      -8.480  12.724  69.581  1.00  0.00     0.000 HD 
BRANCH  21  23
HETATM   23  CA  UNL     1      -9.519  14.199  68.427  1.00  0.00    -0.214 C  
BRANCH  23  24
HETATM   24  C   UNL     1      -8.889  15.184  69.446  1.00  0.00    -0.172 C  
HETATM   25  H   UNL     1      -8.582  17.135  69.597  1.00  0.00     0.000 HD 
HETATM   26  O   UNL     1      -8.968  16.532  68.973  1.00  0.00    -0.257 OA 
ENDBRANCH  23  24
BRANCH  23  27
HETATM   27  C   UNL     1     -11.051  14.312  68.466  1.00  0.00    -0.276 C  
HETATM   28  C   UNL     1     -11.683  14.678  67.132  1.00  0.00    -0.392 C  
ENDBRANCH  23  27
ENDBRANCH  21  23
ENDBRANCH  15  19
TORSDOF 4
ENDMDL
MODEL      171
REMARK 921   NORMALIZED FREE ENERGY PREDICTED BY IDOCK:   -0.45 KCAL/MOL
REMARK 922        TOTAL FREE ENERGY PREDICTED BY IDOCK:   -1.65 KCAL/MOL
REMARK 923 INTER-LIGAND FREE ENERGY PREDICTED BY IDOCK:   -1.26 KCAL/MOL
REMARK 924 INTRA-LIGAND FREE ENERGY PREDICTED BY IDOCK:   -0.39 KCAL/MOL
REMARK 927      BINDING AFFINITY PREDICTED BY RF-SCORE:    0.00 PKD
ROOT
HETATM    1  C   UNL     1      -9.558  17.260  66.416  1.00  0.00    -0.274 C  
HETATM    2  C   UNL     1      -9.940  15.851  65.905  1.00  0.00    -0.377 C  
HETATM    3  C   UNL     1      -9.952  14.943  67.088  1.00  0.00    -0.231 A  
HETATM    4  C   UNL     1      -9.464  13.685  67.341  1.00  0.00    -0.225 A  
HETATM    5  N   UNL     1      -9.847  13.348  68.623  1.00  0.00    -0.392 NA 
HETATM    6  H   UNL     1      -9.652  12.454  69.073  1.00  0.00     0.000 HD 
HETATM    7  C   UNL     1     -10.531  14.392  69.211  1.00  0.00    -0.140 A  
HETATM    8  C   UNL     1     -11.160  14.542  70.446  1.00  0.00    -0.037 A  
HETATM    9  C   UNL     1     -11.673  15.820  70.740  1.00  0.00    -0.430 A  
HETATM   10  C   UNL     1     -11.454  16.924  69.892  1.00  0.00     0.660 A  
HETATM   11  C   UNL     1     -10.791  16.752  68.673  1.00  0.00    -0.336 A  
HETATM   12  C   UNL     1     -10.153  17.744  67.777  1.00  0.00    -0.345 C  
HETATM   13  C   UNL     1     -10.456  15.438  68.312  1.00  0.00    -0.241 A  
HETATM   14  C   UNL     1      -9.679  18.922  68.236  1.00  0.00    -0.412 C  
HETATM   15  C   UNL     1      -8.480  19.519  67.492  1.00  0.00    -0.339 C  
HETATM   16  C   UNL     1     -10.866  18.836  65.047  1.00  0.00     1.305 C  
HETATM   17  C   UNL     1      -8.645  19.429  65.937  1.00  0.00    -0.026 C  
HETATM   18  N   UNL     1      -9.535  18.354  65.417  1.00  0.00     0.422 NA 
ENDROOT
BRANCH  15  19
HETATM   19  C   UNL     1      -7.221  18.722  67.974  1.00  0.00    -0.243 C  
HETATM   20  O   UNL     1      -6.697  17.817  67.321  1.00  0.00    -0.159 OA 
HETATM   21  N   UNL     1      -6.768  19.075  69.229  1.00  0.00    -0.304 N  
HETATM   22  H   UNL     1      -7.053  19.980  69.602  1.00  0.00     0.000 HD 
BRANCH  21  23
HETATM   23  CA  UNL     1      -5.905  18.232  70.061  1.00  0.00    -0.211 C  
BRANCH  23  24
HETATM   24  C   UNL     1      -6.754  17.056  70.608  1.00  0.00     1.792 C  
HETATM   25  H   UNL     1      -7.058  15.145  70.178  1.00  0.00     0.000 HD 
HETATM   26  O   UNL     1      -6.538  15.866  69.843  1.00  0.00    -0.170 OA 
ENDBRANCH  23  24
BRANCH  23  27
HETATM   27  C   UNL     1      -5.282  19.016  71.226  1.00  0.00    -0.307 C  
HETATM   28  C   UNL     1      -6.103  20.212  71.681  1.00  0.00    -0.242 C  
ENDBRANCH  23  27
ENDBRANCH  21  23
ENDBRANCH  15  19
TORSDOF 4
ENDMDL
MODEL      172
REMARK 921   NORMALIZED FREE ENERGY PREDICTED BY IDOCK:   -0.32 KCAL/MOL
REMARK 922        TOTAL FREE ENERGY PREDICTED BY IDOCK:   -1.49 KCAL/MOL
REMARK 923 INTER-LIGAND FREE ENERGY PREDICTED BY IDOCK:   -2.99 KCAL/MOL
REMARK 924 INTRA-LIGAND FREE ENERGY PREDICTED BY IDOCK:    1.50 KCAL/MOL
REMARK 927      BINDING AFFINITY PREDICTED BY RF-SCORE:    0.00 PKD
ROOT
HETATM    1  C   UNL     1      -9.921  18.086  67.920  1.00  0.00    -0.331 C  
HETATM    2  C   UNL     1      -9.623  17.454  69.301  1.00  0.00     0.042 C  
HETATM    3  C   UNL     1      -8.547  16.441  69.097  1.00  0.00    -0.182 A  
HETATM    4  C   UNL     1      -8.348  15.150  69.518  1.00  0.00    -0.151 A  
HETATM    5  N   UNL     1      -7.115  14.752  69.044  1.00  0.00    -0.118 NA 
HETATM    6  H   UNL     1      -6.686  13.845  69.229  1.00  0.00     0.000 HD 
HETATM    7  C   UNL     1      -6.544  15.752  68.286  1.00  0.00    -0.120 A  
HETATM    8  C   UNL     1      -5.315  15.873  67.639  1.00  0.00    -0.135 A  
HETATM    9  C   UNL     1      -5.127  17.028  66.855  1.00  0.00    -0.183 A  
HETATM   10  C   UNL     1      -6.165  17.952  66.629  1.00  0.00    -0.203 A  
HETATM   11  C   UNL     1      -7.400  17.790  67.265  1.00  0.00    -0.206 A  
HETATM   12  C   UNL     1      -8.721  18.390  66.967  1.00  0.00    -0.270 C  
HETATM   13  C   UNL     1      -7.506  16.739  68.189  1.00  0.00    -0.172 A  
HETATM   14  C   UNL     1      -9.052  18.814  65.728  1.00  0.00     0.426 C  
HETATM   15  C   UNL     1     -10.533  18.735  65.346  1.00  0.00     0.264 C  
HETATM   16  C   UNL     1     -10.428  20.454  68.375  1.00  0.00     0.021 C  
HETATM   17  C   UNL     1     -11.468  19.244  66.495  1.00  0.00     0.837 C  
HETATM   18  N   UNL     1     -10.930  19.171  67.882  1.00  0.00    -0.221 NA 
ENDROOT
BRANCH  15  19
HETATM   19  C   UNL     1     -10.822  17.234  65.007  1.00  0.00     0.167 C  
HETATM   20  O   UNL     1     -11.435  16.868  64.002  1.00  0.00    -1.130 OA 
HETATM   21  N   UNL     1     -10.383  16.339  65.962  1.00  0.00    -0.335 N  
HETATM   22  H   UNL     1      -9.668  16.653  66.617  1.00  0.00     0.000 HD 
BRANCH  21  23
HETATM   23  CA  UNL     1     -10.879  14.966  66.095  1.00  0.00    -0.327 C  
BRANCH  23  24
HETATM   24  C   UNL     1      -9.753  13.996  65.652  1.00  0.00    -0.151 C  
HETATM   25  H   UNL     1      -7.904  13.548  66.209  1.00  0.00     0.000 HD 
HETATM   26  O   UNL     1      -8.595  14.142  66.480  1.00  0.00    -0.057 OA 
ENDBRANCH  23  24
BRANCH  23  27
HETATM   27  C   UNL     1     -12.141  14.724  65.253  1.00  0.00    -0.198 C  
HETATM   28  C   UNL     1     -13.027  13.600  65.768  1.00  0.00    -0.252 C  
ENDBRANCH  23  27
ENDBRANCH  21  23
ENDBRANCH  15  19
TORSDOF 4
ENDMDL
MODEL      173
REMARK 921   NORMALIZED FREE ENERGY PREDICTED BY IDOCK:   -0.07 KCAL/MOL
REMARK 922        TOTAL FREE ENERGY PREDICTED BY IDOCK:   -1.18 KCAL/MOL
REMARK 923 INTER-LIGAND FREE ENERGY PREDICTED BY IDOCK:   -2.34 KCAL/MOL
REMARK 924 INTRA-LIGAND FREE ENERGY PREDICTED BY IDOCK:    1.15 KCAL/MOL
REMARK 927      BINDING AFFINITY PREDICTED BY RF-SCORE:    0.00 PKD
ROOT
HETATM    1  C   UNL     1      -8.745  18.435  67.054  1.00  0.00    -0.270 C  
HETATM    2  C   UNL     1      -7.995  17.626  65.968  1.00  0.00    -0.175 C  
HETATM    3  C   UNL     1      -7.582  16.335  66.590  1.00  0.00    -0.268 A  
HETATM    4  C   UNL     1      -6.424  15.597  66.596  1.00  0.00     1.028 A  
HETATM    5  N   UNL     1      -6.679  14.444  67.311  1.00  0.00    -0.388 NA 
HETATM    6  H   UNL     1      -6.008  13.689  67.456  1.00  0.00     0.000 HD 
HETATM    7  C   UNL     1      -7.967  14.457  67.803  1.00  0.00    -0.158 A  
HETATM    8  C   UNL     1      -8.720  13.534  68.528  1.00  0.00    -0.082 A  
HETATM    9  C   UNL     1      -9.994  13.954  68.952  1.00  0.00    -0.077 A  
HETATM   10  C   UNL     1     -10.442  15.277  68.769  1.00  0.00    -0.237 A  
HETATM   11  C   UNL     1      -9.654  16.193  68.066  1.00  0.00    -0.220 A  
HETATM   12  C   UNL     1      -9.716  17.672  68.012  1.00  0.00    -0.301 C  
HETATM   13  C   UNL     1      -8.473  15.704  67.488  1.00  0.00    -0.182 A  
HETATM   14  C   UNL     1     -10.234  18.404  69.021  1.00  0.00    -0.199 C  
HETATM   15  C   UNL     1      -9.649  19.804  69.229  1.00  0.00    -0.186 C  
HETATM   16  C   UNL     1     -10.534  19.640  65.863  1.00  0.00    -0.493 C  
HETATM   17  C   UNL     1      -9.462  20.573  67.877  1.00  0.00    -0.162 C  
HETATM   18  N   UNL     1      -9.304  19.746  66.649  1.00  0.00    -0.364 NA 
ENDROOT
BRANCH  15  19
HETATM   19  C   UNL     1      -8.278  19.605  69.959  1.00  0.00     0.929 C  
HETATM   20  O   UNL     1      -7.946  20.230  70.969  1.00  0.00     0.906 OA 
HETATM   21  N   UNL     1      -7.430  18.705  69.345  1.00  0.00    -0.027 N  
HETATM   22  H   UNL     1      -7.837  18.035  68.693  1.00  0.00     0.000 HD 
BRANCH  21  23
HETATM   23  CA  UNL     1      -5.983  18.650  69.570  1.00  0.00    -0.256 C  
BRANCH  23  24
HETATM   24  C   UNL     1      -5.708  17.662  70.733  1.00  0.00     0.120 C  
HETATM   25  H   UNL     1      -5.101  17.753  72.617  1.00  0.00     0.000 HD 
HETATM   26  O   UNL     1      -5.269  18.358  71.904  1.00  0.00    -0.647 OA 
ENDBRANCH  23  24
BRANCH  23  27
HETATM   27  C   UNL     1      -5.398  20.031  69.904  1.00  0.00    -0.260 C  
HETATM   28  C   UNL     1      -5.290  20.967  68.710  1.00  0.00    -0.367 C  
ENDBRANCH  23  27
ENDBRANCH  21  23
ENDBRANCH  15  19
TORSDOF 4
ENDMDL
MODEL      174
REMARK 921   NORMALIZED FREE ENERGY PREDICTED BY IDOCK:    0.03 KCAL/MOL
REMARK 922        TOTAL FREE ENERGY PREDICTED BY IDOCK:   -1.06 KCAL/MOL
REMARK 923 INTER-LIGAND FREE ENERGY PREDICTED BY IDOCK:   -1.45 KCAL/MOL
REMARK 924 INTRA-LIGAND FREE ENERGY PREDICTED BY IDOCK:    0.40 KCAL/MOL
REMARK 927      BINDING AFFINITY PREDICTED BY RF-SCORE:    0.00 PKD
ROOT
HETATM    1  C   UNL     1      -7.153  12.459  68.318  1.00  0.00    -0.098 C  
HETATM    2  C   UNL     1      -6.157  13.553  68.773  1.00  0.00    -0.086 C  
HETATM    3  C   UNL     1      -5.980  13.399  70.246  1.00  0.00    -0.141 A  
HETATM    4  C   UNL     1      -5.956  14.267  71.309  1.00  0.00    -0.127 A  
HETATM    5  N   UNL     1      -5.690  13.523  72.439  1.00  0.00    -0.444 NA 
HETATM    6  H   UNL     1      -5.582  13.908  73.378  1.00  0.00     0.000 HD 
HETATM    7  C   UNL     1      -5.593  12.184  72.122  1.00  0.00     0.896 A  
HETATM    8  C   UNL     1      -5.294  11.047  72.872  1.00  0.00     0.703 A  
HETATM    9  C   UNL     1      -5.396   9.810  72.207  1.00  0.00     0.008 A  
HETATM   10  C   UNL     1      -5.894   9.708  70.894  1.00  0.00    -0.072 A  
HETATM   11  C   UNL     1      -6.218  10.863  70.175  1.00  0.00    -0.142 A  
HETATM   12  C   UNL     1      -7.040  11.038  68.955  1.00  0.00    -0.106 C  
HETATM   13  C   UNL     1      -5.930  12.093  70.785  1.00  0.00     0.147 A  
HETATM   14  C   UNL     1      -8.018  10.168  68.621  1.00  0.00    -0.103 C  
HETATM   15  C   UNL     1      -9.212  10.738  67.849  1.00  0.00    -0.151 C  
HETATM   16  C   UNL     1      -6.380  11.748  66.089  1.00  0.00     0.584 C  
HETATM   17  C   UNL     1      -8.767  11.710  66.705  1.00  0.00    -0.187 C  
HETATM   18  N   UNL     1      -7.446  12.379  66.867  1.00  0.00    -0.020 NA 
ENDROOT
BRANCH  15  19
HETATM   19  C   UNL     1     -10.106  11.476  68.902  1.00  0.00    -0.127 C  
HETATM   20  O   UNL     1     -10.675  10.903  69.834  1.00  0.00    -0.206 OA 
HETATM   21  N   UNL     1     -10.260  12.828  68.671  1.00  0.00    -0.368 N  
HETATM   22  H   UNL     1      -9.577  13.291  68.071  1.00  0.00     0.000 HD 
BRANCH  21  23
HETATM   23  CA  UNL     1     -11.342  13.643  69.232  1.00  0.00    -0.269 C  
BRANCH  23  24
HETATM   24  C   UNL     1     -10.714  14.899  69.889  1.00  0.00    -0.175 C  
HETATM   25  H   UNL     1     -10.165  16.721  69.335  1.00  0.00     0.000 HD 
HETATM   26  O   UNL     1     -10.550  15.951  68.933  1.00  0.00    -0.221 OA 
ENDBRANCH  23  24
BRANCH  23  27
HETATM   27  C   UNL     1     -12.170  12.867  70.268  1.00  0.00    -0.362 C  
HETATM   28  C   UNL     1     -12.579  13.689  71.481  1.00  0.00    -0.385 C  
ENDBRANCH  23  27
ENDBRANCH  21  23
ENDBRANCH  15  19
TORSDOF 4
ENDMDL
MODEL      175
REMARK 921   NORMALIZED FREE ENERGY PREDICTED BY IDOCK:    0.28 KCAL/MOL
REMARK 922        TOTAL FREE ENERGY PREDICTED BY IDOCK:   -0.75 KCAL/MOL
REMARK 923 INTER-LIGAND FREE ENERGY PREDICTED BY IDOCK:   -0.13 KCAL/MOL
REMARK 924 INTRA-LIGAND FREE ENERGY PREDICTED BY IDOCK:   -0.62 KCAL/MOL
REMARK 927      BINDING AFFINITY PREDICTED BY RF-SCORE:    0.00 PKD
ROOT
HETATM    1  C   UNL     1     -10.075   7.268  69.802  1.00  0.00    -0.194 C  
HETATM    2  C   UNL     1      -9.591   6.989  71.245  1.00  0.00    -0.164 C  
HETATM    3  C   UNL     1      -8.101   6.918  71.202  1.00  0.00    -0.110 A  
HETATM    4  C   UNL     1      -7.162   6.069  71.733  1.00  0.00    -0.088 A  
HETATM    5  N   UNL     1      -5.922   6.565  71.388  1.00  0.00    -0.035 NA 
HETATM    6  H   UNL     1      -5.032   6.157  71.673  1.00  0.00     0.000 HD 
HETATM    7  C   UNL     1      -6.055   7.692  70.603  1.00  0.00    -0.034 A  
HETATM    8  C   UNL     1      -5.134   8.579  70.047  1.00  0.00    -0.022 A  
HETATM    9  C   UNL     1      -5.653   9.573  69.196  1.00  0.00    -0.036 A  
HETATM   10  C   UNL     1      -7.010   9.599  68.821  1.00  0.00    -0.066 A  
HETATM   11  C   UNL     1      -7.908   8.677  69.369  1.00  0.00    -0.096 A  
HETATM   12  C   UNL     1      -9.262   8.273  68.925  1.00  0.00    -0.147 C  
HETATM   13  C   UNL     1      -7.409   7.816  70.358  1.00  0.00    -0.069 A  
HETATM   14  C   UNL     1      -9.652   8.371  67.636  1.00  0.00    -0.188 C  
HETATM   15  C   UNL     1     -10.679   7.346  67.147  1.00  0.00    -0.400 C  
HETATM   16  C   UNL     1     -12.037   8.739  70.037  1.00  0.00     0.649 C  
HETATM   17  C   UNL     1     -11.838   7.133  68.178  1.00  0.00     1.605 C  
HETATM   18  N   UNL     1     -11.534   7.435  69.604  1.00  0.00     0.038 NA 
ENDROOT
BRANCH  15  19
HETATM   19  C   UNL     1      -9.891   6.015  66.900  1.00  0.00    -0.158 C  
HETATM   20  O   UNL     1     -10.425   4.904  66.865  1.00  0.00    -0.221 OA 
HETATM   21  N   UNL     1      -8.525   6.175  66.780  1.00  0.00    -0.110 N  
HETATM   22  H   UNL     1      -8.172   7.104  66.551  1.00  0.00     0.000 HD 
BRANCH  21  23
HETATM   23  CA  UNL     1      -7.550   5.096  66.961  1.00  0.00    -0.088 C  
BRANCH  23  24
HETATM   24  C   UNL     1      -6.258   5.704  67.565  1.00  0.00    -0.030 C  
HETATM   25  H   UNL     1      -4.421   6.135  66.959  1.00  0.00     0.000 HD 
HETATM   26  O   UNL     1      -5.213   5.763  66.590  1.00  0.00    -0.005 OA 
ENDBRANCH  23  24
BRANCH  23  27
HETATM   27  C   UNL     1      -7.227   4.382  65.640  1.00  0.00    -0.072 C  
HETATM   28  C   UNL     1      -7.931   3.046  65.465  1.00  0.00    -0.086 C  
ENDBRANCH  23  27
ENDBRANCH  21  23
ENDBRANCH  15  19
TORSDOF 4
ENDMDL
MODEL      176
REMARK 921   NORMALIZED FREE ENERGY PREDICTED BY IDOCK:    0.96 KCAL/MOL
REMARK 922        TOTAL FREE ENERGY PREDICTED BY IDOCK:    0.09 KCAL/MOL
REMARK 923 INTER-LIGAND FREE ENERGY PREDICTED BY IDOCK:   -2.60 KCAL/MOL
REMARK 924 INTRA-LIGAND FREE ENERGY PREDICTED BY IDOCK:    2.69 KCAL/MOL
REMARK 927      BINDING AFFINITY PREDICTED BY RF-SCORE:    0.00 PKD
ROOT
HETATM    1  C   UNL     1      -6.634  11.763  67.336  1.00  0.00    -0.118 C  
HETATM    2  C   UNL     1      -5.773  13.043  67.212  1.00  0.00     0.113 C  
HETATM    3  C   UNL     1      -5.753  13.690  68.556  1.00  0.00    -0.090 A  
HETATM    4  C   UNL     1      -5.909  14.977  69.007  1.00  0.00    -0.096 A  
HETATM    5  N   UNL     1      -5.722  14.957  70.374  1.00  0.00    -0.139 NA 
HETATM    6  H   UNL     1      -5.746  15.779  70.977  1.00  0.00     0.000 HD 
HETATM    7  C   UNL     1      -5.497  13.668  70.810  1.00  0.00    -0.164 A  
HETATM    8  C   UNL     1      -5.207  13.122  72.060  1.00  0.00    -0.048 A  
HETATM    9  C   UNL     1      -5.148  11.717  72.135  1.00  0.00     0.213 A  
HETATM   10  C   UNL     1      -5.487  10.898  71.041  1.00  0.00    -0.081 A  
HETATM   11  C   UNL     1      -5.806  11.471  69.806  1.00  0.00    -0.104 A  
HETATM   12  C   UNL     1      -6.496  10.896  68.628  1.00  0.00    -0.055 C  
HETATM   13  C   UNL     1      -5.675  12.864  69.700  1.00  0.00    -0.104 A  
HETATM   14  C   UNL     1      -7.367   9.871  68.739  1.00  0.00    -0.078 C  
HETATM   15  C   UNL     1      -8.503   9.818  67.713  1.00  0.00    -0.121 C  
HETATM   16  C   UNL     1      -5.567  10.105  65.860  1.00  0.00    -0.068 C  
HETATM   17  C   UNL     1      -7.999  10.108  66.259  1.00  0.00    -0.118 C  
HETATM   18  N   UNL     1      -6.755  10.915  66.127  1.00  0.00    -0.125 NA 
ENDROOT
BRANCH  15  19
HETATM   19  C   UNL     1      -9.558  10.881  68.168  1.00  0.00    -0.164 C  
HETATM   20  O   UNL     1      -9.550  12.055  67.789  1.00  0.00    -0.183 OA 
HETATM   21  N   UNL     1     -10.479  10.415  69.084  1.00  0.00    -0.212 N  
HETATM   22  H   UNL     1     -10.611   9.406  69.158  1.00  0.00     0.000 HD 
BRANCH  21  23
HETATM   23  CA  UNL     1     -11.281  11.276  69.959  1.00  0.00    -0.132 C  
BRANCH  23  24
HETATM   24  C   UNL     1     -12.636  10.572  70.226  1.00  0.00    -0.235 C  
HETATM   25  H   UNL     1     -13.848  10.266  71.763  1.00  0.00     0.000 HD 
HETATM   26  O   UNL     1     -13.018  10.697  71.599  1.00  0.00    -0.420 OA 
ENDBRANCH  23  24
BRANCH  23  27
HETATM   27  C   UNL     1     -11.522  12.662  69.341  1.00  0.00    -0.330 C  
HETATM   28  C   UNL     1     -10.280  13.538  69.275  1.00  0.00     0.255 C  
ENDBRANCH  23  27
ENDBRANCH  21  23
ENDBRANCH  15  19
TORSDOF 4
ENDMDL
MODEL      177
REMARK 921   NORMALIZED FREE ENERGY PREDICTED BY IDOCK:    2.60 KCAL/MOL
REMARK 922        TOTAL FREE ENERGY PREDICTED BY IDOCK:    2.11 KCAL/MOL
REMARK 923 INTER-LIGAND FREE ENERGY PREDICTED BY IDOCK:    0.63 KCAL/MOL
REMARK 924 INTRA-LIGAND FREE ENERGY PREDICTED BY IDOCK:    1.48 KCAL/MOL
REMARK 927      BINDING AFFINITY PREDICTED BY RF-SCORE:    0.00 PKD
ROOT
HETATM    1  C   UNL     1     -10.339  15.247  69.581  1.00  0.00    -0.262 C  
HETATM    2  C   UNL     1      -9.262  16.293  69.954  1.00  0.00     0.571 C  
HETATM    3  C   UNL     1      -8.329  16.395  68.795  1.00  0.00    -0.242 A  
HETATM    4  C   UNL     1      -6.963  16.432  68.659  1.00  0.00    -0.159 A  
HETATM    5  N   UNL     1      -6.691  16.597  67.316  1.00  0.00    -0.160 NA 
HETATM    6  H   UNL     1      -5.756  16.691  66.919  1.00  0.00     0.000 HD 
HETATM    7  C   UNL     1      -7.861  16.618  66.587  1.00  0.00    -0.281 A  
HETATM    8  C   UNL     1      -8.136  16.807  65.233  1.00  0.00     2.470 A  
HETATM    9  C   UNL     1      -9.478  16.651  64.835  1.00  0.00     2.157 A  
HETATM   10  C   UNL     1     -10.472  16.205  65.727  1.00  0.00    -0.384 A  
HETATM   11  C   UNL     1     -10.163  15.991  67.073  1.00  0.00    -0.282 A  
HETATM   12  C   UNL     1     -10.891  15.236  68.119  1.00  0.00    -0.273 C  
HETATM   13  C   UNL     1      -8.867  16.334  67.490  1.00  0.00    -0.194 A  
HETATM   14  C   UNL     1     -11.725  14.218  67.818  1.00  0.00    -0.408 C  
HETATM   15  C   UNL     1     -11.851  13.099  68.856  1.00  0.00    -0.361 C  
HETATM   16  C   UNL     1     -12.433  16.067  70.586  1.00  0.00    -0.047 C  
HETATM   17  C   UNL     1     -11.984  13.658  70.314  1.00  0.00    -0.327 C  
HETATM   18  N   UNL     1     -11.419  15.012  70.568  1.00  0.00    -0.277 NA 
ENDROOT
BRANCH  15  19
HETATM   19  C   UNL     1     -10.569  12.212  68.707  1.00  0.00    -0.201 C  
HETATM   20  O   UNL     1     -10.591  10.979  68.693  1.00  0.00    -0.176 OA 
HETATM   21  N   UNL     1      -9.386  12.923  68.651  1.00  0.00    -0.408 N  
HETATM   22  H   UNL     1      -9.435  13.910  68.401  1.00  0.00     0.000 HD 
BRANCH  21  23
HETATM   23  CA  UNL     1      -8.066  12.349  68.929  1.00  0.00     0.182 C  
BRANCH  23  24
HETATM   24  C   UNL     1      -7.097  13.507  69.279  1.00  0.00     0.038 C  
HETATM   25  H   UNL     1      -5.659  13.865  70.595  1.00  0.00     0.000 HD 
HETATM   26  O   UNL     1      -6.254  13.156  70.380  1.00  0.00    -0.098 OA 
ENDBRANCH  23  24
BRANCH  23  27
HETATM   27  C   UNL     1      -7.521  11.551  67.734  1.00  0.00    -0.101 C  
HETATM   28  C   UNL     1      -6.266  12.142  67.111  1.00  0.00    -0.143 C  
ENDBRANCH  23  27
ENDBRANCH  21  23
ENDBRANCH  15  19
TORSDOF 4
ENDMDL
MODEL      178
REMARK 921   NORMALIZED FREE ENERGY PREDICTED BY IDOCK:    2.72 KCAL/MOL
REMARK 922        TOTAL FREE ENERGY PREDICTED BY IDOCK:    2.26 KCAL/MOL
REMARK 923 INTER-LIGAND FREE ENERGY PREDICTED BY IDOCK:    2.33 KCAL/MOL
REMARK 924 INTRA-LIGAND FREE ENERGY PREDICTED BY IDOCK:   -0.07 KCAL/MOL
REMARK 927      BINDING AFFINITY PREDICTED BY RF-SCORE:    0.00 PKD
ROOT
HETATM    1  C   UNL     1      -7.246   9.439  71.870  1.00  0.00     0.577 C  
HETATM    2  C   UNL     1      -8.559   9.466  72.688  1.00  0.00     1.988 C  
HETATM    3  C   UNL     1      -9.188   8.120  72.553  1.00  0.00    -0.319 A  
HETATM    4  C   UNL     1     -10.462   7.674  72.304  1.00  0.00    -0.237 A  
HETATM    5  N   UNL     1     -10.430   6.295  72.358  1.00  0.00    -0.192 NA 
HETATM    6  H   UNL     1     -11.242   5.689  72.243  1.00  0.00     0.000 HD 
HETATM    7  C   UNL     1      -9.144   5.852  72.590  1.00  0.00    -0.130 A  
HETATM    8  C   UNL     1      -8.592   4.586  72.779  1.00  0.00    -0.113 A  
HETATM    9  C   UNL     1      -7.190   4.519  72.885  1.00  0.00    -0.078 A  
HETATM   10  C   UNL     1      -6.373   5.649  72.686  1.00  0.00    -0.053 A  
HETATM   11  C   UNL     1      -6.952   6.903  72.466  1.00  0.00    -0.066 A  
HETATM   12  C   UNL     1      -6.367   8.148  71.916  1.00  0.00    -0.053 C  
HETATM   13  C   UNL     1      -8.350   6.982  72.552  1.00  0.00    -0.118 A  
HETATM   14  C   UNL     1      -5.308   8.133  71.079  1.00  0.00    -0.029 C  
HETATM   15  C   UNL     1      -5.226   9.266  70.051  1.00  0.00    -0.028 C  
HETATM   16  C   UNL     1      -5.650  10.822  73.139  1.00  0.00     1.061 C  
HETATM   17  C   UNL     1      -5.556  10.661  70.681  1.00  0.00    -0.105 C  
HETATM   18  N   UNL     1      -6.411  10.663  71.900  1.00  0.00     0.983 NA 
ENDROOT
BRANCH  15  19
HETATM   19  C   UNL     1      -6.242   8.905  68.915  1.00  0.00    -0.044 C  
HETATM   20  O   UNL     1      -6.951   7.896  68.930  1.00  0.00    -0.062 OA 
HETATM   21  N   UNL     1      -6.244   9.784  67.851  1.00  0.00    -0.051 N  
HETATM   22  H   UNL     1      -5.856  10.715  68.001  1.00  0.00     0.000 HD 
BRANCH  21  23
HETATM   23  CA  UNL     1      -6.769   9.466  66.520  1.00  0.00    -0.072 C  
BRANCH  23  24
HETATM   24  C   UNL     1      -6.277  10.554  65.530  1.00  0.00    -0.118 C  
HETATM   25  H   UNL     1      -5.871  10.697  63.596  1.00  0.00     0.000 HD 
HETATM   26  O   UNL     1      -6.172  10.031  64.203  1.00  0.00    -0.118 OA 
ENDBRANCH  23  24
BRANCH  23  27
HETATM   27  C   UNL     1      -8.304   9.398  66.506  1.00  0.00    -0.119 C  
HETATM   28  C   UNL     1      -8.875   8.447  65.465  1.00  0.00    -0.172 C  
ENDBRANCH  23  27
ENDBRANCH  21  23
ENDBRANCH  15  19
TORSDOF 4
ENDMDL
MODEL      179
REMARK 921   NORMALIZED FREE ENERGY PREDICTED BY IDOCK:    3.17 KCAL/MOL
REMARK 922        TOTAL FREE ENERGY PREDICTED BY IDOCK:    2.82 KCAL/MOL
REMARK 923 INTER-LIGAND FREE ENERGY PREDICTED BY IDOCK:    3.41 KCAL/MOL
REMARK 924 INTRA-LIGAND FREE ENERGY PREDICTED BY IDOCK:   -0.59 KCAL/MOL
REMARK 927      BINDING AFFINITY PREDICTED BY RF-SCORE:    0.00 PKD
ROOT
HETATM    1  C   UNL     1      -8.281  14.896  68.442  1.00  0.00    -0.151 C  
HETATM    2  C   UNL     1      -8.135  14.825  69.981  1.00  0.00     0.479 C  
HETATM    3  C   UNL     1      -9.506  14.656  70.544  1.00  0.00     1.572 A  
HETATM    4  C   UNL     1     -10.196  15.228  71.583  1.00  0.00     1.589 A  
HETATM    5  N   UNL     1     -11.426  14.606  71.649  1.00  0.00    -0.457 NA 
HETATM    6  H   UNL     1     -12.142  14.804  72.347  1.00  0.00     0.000 HD 
HETATM    7  C   UNL     1     -11.550  13.678  70.636  1.00  0.00     0.130 A  
HETATM    8  C   UNL     1     -12.549  12.767  70.296  1.00  0.00    -0.061 A  
HETATM    9  C   UNL     1     -12.362  12.042  69.104  1.00  0.00     0.069 A  
HETATM   10  C   UNL     1     -11.289  12.308  68.231  1.00  0.00    -0.339 A  
HETATM   11  C   UNL     1     -10.317  13.251  68.580  1.00  0.00    -0.206 A  
HETATM   12  C   UNL     1      -9.309  13.946  67.748  1.00  0.00    -0.204 C  
HETATM   13  C   UNL     1     -10.419  13.824  69.857  1.00  0.00     0.710 A  
HETATM   14  C   UNL     1      -9.489  14.148  66.425  1.00  0.00    -0.289 C  
HETATM   15  C   UNL     1      -8.843  15.400  65.824  1.00  0.00     0.298 C  
HETATM   16  C   UNL     1      -6.297  13.749  67.537  1.00  0.00    -0.045 C  
HETATM   17  C   UNL     1      -7.377  15.611  66.336  1.00  0.00     0.819 C  
HETATM   18  N   UNL     1      -7.032  15.009  67.653  1.00  0.00    -0.169 NA 
ENDROOT
BRANCH  15  19
HETATM   19  C   UNL     1      -9.759  16.605  66.224  1.00  0.00    -0.304 C  
HETATM   20  O   UNL     1     -10.926  16.729  65.845  1.00  0.00    -0.101 OA 
HETATM   21  N   UNL     1      -9.135  17.564  66.997  1.00  0.00    -0.242 N  
HETATM   22  H   UNL     1      -8.286  17.297  67.495  1.00  0.00     0.000 HD 
BRANCH  21  23
HETATM   23  CA  UNL     1      -9.615  18.941  67.149  1.00  0.00    -0.306 C  
BRANCH  23  24
HETATM   24  C   UNL     1      -8.521  19.759  67.881  1.00  0.00    -0.307 C  
HETATM   25  H   UNL     1      -6.556  19.685  68.128  1.00  0.00     0.000 HD 
HETATM   26  O   UNL     1      -7.227  19.184  67.679  1.00  0.00    -0.220 OA 
ENDBRANCH  23  24
BRANCH  23  27
HETATM   27  C   UNL     1     -10.935  19.009  67.933  1.00  0.00    -0.157 C  
HETATM   28  C   UNL     1     -10.927  18.224  69.235  1.00  0.00     1.303 C  
ENDBRANCH  23  27
ENDBRANCH  21  23
ENDBRANCH  15  19
TORSDOF 4
ENDMDL
MODEL      180
REMARK 921   NORMALIZED FREE ENERGY PREDICTED BY IDOCK:    9.07 KCAL/MOL
REMARK 922        TOTAL FREE ENERGY PREDICTED BY IDOCK:   10.10 KCAL/MOL
REMARK 923 INTER-LIGAND FREE ENERGY PREDICTED BY IDOCK:   10.24 KCAL/MOL
REMARK 924 INTRA-LIGAND FREE ENERGY PREDICTED BY IDOCK:   -0.14 KCAL/MOL
REMARK 927      BINDING AFFINITY PREDICTED BY RF-SCORE:    0.00 PKD
ROOT
HETATM    1  C   UNL     1      -8.680  14.007  68.421  1.00  0.00    -0.179 C  
HETATM    2  C   UNL     1      -8.782  13.739  69.942  1.00  0.00     1.929 C  
HETATM    3  C   UNL     1      -9.867  14.615  70.470  1.00  0.00     1.173 A  
HETATM    4  C   UNL     1      -9.997  15.434  71.564  1.00  0.00     2.047 A  
HETATM    5  N   UNL     1     -11.279  15.942  71.545  1.00  0.00    -0.268 NA 
HETATM    6  H   UNL     1     -11.671  16.559  72.256  1.00  0.00     0.000 HD 
HETATM    7  C   UNL     1     -11.956  15.499  70.428  1.00  0.00    -0.367 A  
HETATM    8  C   UNL     1     -13.263  15.675  69.974  1.00  0.00     0.513 A  
HETATM    9  C   UNL     1     -13.565  15.145  68.705  1.00  0.00     4.509 A  
HETATM   10  C   UNL     1     -12.575  14.579  67.879  1.00  0.00     0.552 A  
HETATM   11  C   UNL     1     -11.264  14.444  68.346  1.00  0.00    -0.294 A  
HETATM   12  C   UNL     1     -10.001  14.205  67.610  1.00  0.00    -0.233 C  
HETATM   13  C   UNL     1     -11.025  14.804  69.681  1.00  0.00    -0.285 A  
HETATM   14  C   UNL     1      -9.844  14.569  66.320  1.00  0.00    -0.322 C  
HETATM   15  C   UNL     1      -8.428  14.950  65.878  1.00  0.00     1.117 C  
HETATM   16  C   UNL     1      -8.136  11.831  67.402  1.00  0.00    -0.161 C  
HETATM   17  C   UNL     1      -7.350  13.952  66.423  1.00  0.00     2.386 C  
HETATM   18  N   UNL     1      -7.695  13.202  67.662  1.00  0.00    -0.153 NA 
ENDROOT
BRANCH  15  19
HETATM   19  C   UNL     1      -8.175  16.401  66.411  1.00  0.00    -0.331 C  
HETATM   20  O   UNL     1      -8.657  17.411  65.894  1.00  0.00    -0.525 OA 
HETATM   21  N   UNL     1      -7.310  16.471  67.485  1.00  0.00    -0.133 N  
HETATM   22  H   UNL     1      -7.157  15.623  68.030  1.00  0.00     0.000 HD 
BRANCH  21  23
HETATM   23  CA  UNL     1      -6.598  17.686  67.893  1.00  0.00    -0.187 C  
BRANCH  23  24
HETATM   24  C   UNL     1      -5.750  17.355  69.148  1.00  0.00    -0.189 C  
HETATM   25  H   UNL     1      -4.887  15.764  69.954  1.00  0.00     0.000 HD 
HETATM   26  O   UNL     1      -5.407  15.967  69.185  1.00  0.00    -0.107 OA 
ENDBRANCH  23  24
BRANCH  23  27
HETATM   27  C   UNL     1      -7.561  18.844  68.199  1.00  0.00    -0.305 C  
HETATM   28  C   UNL     1      -8.714  18.468  69.116  1.00  0.00     0.054 C  
ENDBRANCH  23  27
ENDBRANCH  21  23
ENDBRANCH  15  19
TORSDOF 4
ENDMDL
MODEL      181
REMARK 921   NORMALIZED FREE ENERGY PREDICTED BY IDOCK:   15.40 KCAL/MOL
REMARK 922        TOTAL FREE ENERGY PREDICTED BY IDOCK:   17.91 KCAL/MOL
REMARK 923 INTER-LIGAND FREE ENERGY PREDICTED BY IDOCK:   17.24 KCAL/MOL
REMARK 924 INTRA-LIGAND FREE ENERGY PREDICTED BY IDOCK:    0.67 KCAL/MOL
REMARK 927      BINDING AFFINITY PREDICTED BY RF-SCORE:    0.00 PKD
ROOT
HETATM    1  C   UNL     1      -7.362  16.945  68.631  1.00  0.00    -0.222 C  
HETATM    2  C   UNL     1      -7.393  16.048  67.370  1.00  0.00    -0.216 C  
HETATM    3  C   UNL     1      -7.501  16.954  66.190  1.00  0.00    -0.194 A  
HETATM    4  C   UNL     1      -8.262  16.961  65.048  1.00  0.00     3.767 A  
HETATM    5  N   UNL     1      -7.860  18.044  64.295  1.00  0.00     5.947 NA 
HETATM    6  H   UNL     1      -8.230  18.284  63.375  1.00  0.00     0.000 HD 
HETATM    7  C   UNL     1      -6.886  18.759  64.961  1.00  0.00     0.252 A  
HETATM    8  C   UNL     1      -6.129  19.881  64.624  1.00  0.00    -0.316 A  
HETATM    9  C   UNL     1      -5.289  20.399  65.628  1.00  0.00    -0.202 A  
HETATM   10  C   UNL     1      -5.302  19.894  66.943  1.00  0.00    -0.162 A  
HETATM   11  C   UNL     1      -6.095  18.788  67.263  1.00  0.00    -0.172 A  
HETATM   12  C   UNL     1      -6.544  18.275  68.578  1.00  0.00    -0.225 C  
HETATM   13  C   UNL     1      -6.779  18.170  66.206  1.00  0.00    -0.275 A  
HETATM   14  C   UNL     1      -6.665  19.078  69.657  1.00  0.00    -0.183 C  
HETATM   15  C   UNL     1      -7.739  18.699  70.681  1.00  0.00     3.084 C  
HETATM   16  C   UNL     1      -5.832  15.823  70.202  1.00  0.00    -0.149 C  
HETATM   17  C   UNL     1      -7.744  17.164  70.991  1.00  0.00     5.757 C  
HETATM   18  N   UNL     1      -7.202  16.263  69.937  1.00  0.00     0.169 NA 
ENDROOT
BRANCH  15  19
HETATM   19  C   UNL     1      -9.108  19.157  70.074  1.00  0.00     1.132 C  
HETATM   20  O   UNL     1      -9.952  19.797  70.705  1.00  0.00     0.785 OA 
HETATM   21  N   UNL     1      -9.328  18.735  68.779  1.00  0.00    -0.335 N  
HETATM   22  H   UNL     1      -8.519  18.453  68.225  1.00  0.00     0.000 HD 
BRANCH  21  23
HETATM   23  CA  UNL     1     -10.649  18.665  68.147  1.00  0.00    -0.240 C  
BRANCH  23  24
HETATM   24  C   UNL     1     -10.831  17.243  67.556  1.00  0.00    -0.206 C  
HETATM   25  H   UNL     1     -12.062  15.708  67.790  1.00  0.00     0.000 HD 
HETATM   26  O   UNL     1     -11.950  16.579  68.152  1.00  0.00     0.209 OA 
ENDBRANCH  23  24
BRANCH  23  27
HETATM   27  C   UNL     1     -10.817  19.719  67.042  1.00  0.00    -0.465 C  
HETATM   28  C   UNL     1     -10.576  19.190  65.636  1.00  0.00    -0.303 C  
ENDBRANCH  23  27
ENDBRANCH  21  23
ENDBRANCH  15  19
TORSDOF 4
ENDMDL
MODEL      182
REMARK 921   NORMALIZED FREE ENERGY PREDICTED BY IDOCK:   22.23 KCAL/MOL
REMARK 922        TOTAL FREE ENERGY PREDICTED BY IDOCK:   26.34 KCAL/MOL
REMARK 923 INTER-LIGAND FREE ENERGY PREDICTED BY IDOCK:   26.37 KCAL/MOL
REMARK 924 INTRA-LIGAND FREE ENERGY PREDICTED BY IDOCK:   -0.03 KCAL/MOL
REMARK 927      BINDING AFFINITY PREDICTED BY RF-SCORE:    0.00 PKD
ROOT
HETATM    1  C   UNL     1      -9.912  15.076  64.971  1.00  0.00    -0.153 C  
HETATM    2  C   UNL     1      -9.963  13.546  65.198  1.00  0.00    -0.201 C  
HETATM    3  C   UNL     1     -10.022  13.322  66.671  1.00  0.00    -0.272 A  
HETATM    4  C   UNL     1      -9.381  12.477  67.543  1.00  0.00    -0.187 A  
HETATM    5  N   UNL     1      -9.912  12.703  68.796  1.00  0.00    -0.424 NA 
HETATM    6  H   UNL     1      -9.650  12.194  69.640  1.00  0.00     0.000 HD 
HETATM    7  C   UNL     1     -10.849  13.714  68.747  1.00  0.00    -0.255 A  
HETATM    8  C   UNL     1     -11.692  14.279  69.703  1.00  0.00    -0.362 A  
HETATM    9  C   UNL     1     -12.452  15.392  69.294  1.00  0.00    -0.004 A  
HETATM   10  C   UNL     1     -12.280  15.987  68.029  1.00  0.00     0.806 A  
HETATM   11  C   UNL     1     -11.403  15.419  67.100  1.00  0.00    -0.203 A  
HETATM   12  C   UNL     1     -10.798  15.992  65.875  1.00  0.00    -0.210 C  
HETATM   13  C   UNL     1     -10.799  14.204  67.456  1.00  0.00    -0.280 A  
HETATM   14  C   UNL     1     -10.610  17.320  65.722  1.00  0.00    -0.198 C  
HETATM   15  C   UNL     1      -9.420  17.753  64.861  1.00  0.00     3.321 C  
HETATM   16  C   UNL     1     -11.215  15.484  62.921  1.00  0.00     5.604 C  
HETATM   17  C   UNL     1      -9.304  16.910  63.546  1.00  0.00    14.164 C  
HETATM   18  N   UNL     1      -9.904  15.547  63.566  1.00  0.00     5.788 NA 
ENDROOT
BRANCH  15  19
HETATM   19  C   UNL     1      -8.144  17.583  65.754  1.00  0.00     0.185 C  
HETATM   20  O   UNL     1      -7.593  16.499  65.955  1.00  0.00     0.055 OA 
HETATM   21  N   UNL     1      -7.710  18.747  66.356  1.00  0.00    -0.260 N  
HETATM   22  H   UNL     1      -8.021  19.634  65.959  1.00  0.00     0.000 HD 
BRANCH  21  23
HETATM   23  CA  UNL     1      -6.832  18.791  67.529  1.00  0.00    -0.201 C  
BRANCH  23  24
HETATM   24  C   UNL     1      -7.671  18.421  68.779  1.00  0.00    -0.267 C  
HETATM   25  H   UNL     1      -7.585  18.711  70.737  1.00  0.00     0.000 HD 
HETATM   26  O   UNL     1      -7.072  18.938  69.971  1.00  0.00     0.208 OA 
ENDBRANCH  23  24
BRANCH  23  27
HETATM   27  C   UNL     1      -6.190  20.175  67.718  1.00  0.00    -0.261 C  
HETATM   28  C   UNL     1      -7.173  21.333  67.642  1.00  0.00    -0.020 C  
ENDBRANCH  23  27
ENDBRANCH  21  23
ENDBRANCH  15  19
TORSDOF 4
ENDMDL
MODEL      183
REMARK 921   NORMALIZED FREE ENERGY PREDICTED BY IDOCK:   31.83 KCAL/MOL
REMARK 922        TOTAL FREE ENERGY PREDICTED BY IDOCK:   38.18 KCAL/MOL
REMARK 923 INTER-LIGAND FREE ENERGY PREDICTED BY IDOCK:   37.12 KCAL/MOL
REMARK 924 INTRA-LIGAND FREE ENERGY PREDICTED BY IDOCK:    1.06 KCAL/MOL
REMARK 927      BINDING AFFINITY PREDICTED BY RF-SCORE:    0.00 PKD
ROOT
HETATM    1  C   UNL     1      -8.715  16.470  69.146  1.00  0.00    -0.150 C  
HETATM    2  C   UNL     1      -7.875  15.333  69.775  1.00  0.00    -0.057 C  
HETATM    3  C   UNL     1      -7.642  14.318  68.708  1.00  0.00    -0.130 A  
HETATM    4  C   UNL     1      -7.717  12.948  68.649  1.00  0.00    -0.067 A  
HETATM    5  N   UNL     1      -7.321  12.571  67.382  1.00  0.00    -0.167 NA 
HETATM    6  H   UNL     1      -7.245  11.607  67.059  1.00  0.00     0.000 HD 
HETATM    7  C   UNL     1      -7.040  13.683  66.615  1.00  0.00     1.684 A  
HETATM    8  C   UNL     1      -6.564  13.847  65.315  1.00  0.00    12.524 A  
HETATM    9  C   UNL     1      -6.504  15.166  64.828  1.00  0.00    16.424 A  
HETATM   10  C   UNL     1      -7.014  16.255  65.561  1.00  0.00     3.570 A  
HETATM   11  C   UNL     1      -7.517  16.058  66.852  1.00  0.00    -0.253 A  
HETATM   12  C   UNL     1      -8.385  16.920  67.687  1.00  0.00    -0.192 C  
HETATM   13  C   UNL     1      -7.393  14.769  67.392  1.00  0.00    -0.214 A  
HETATM   14  C   UNL     1      -9.236  17.818  67.146  1.00  0.00    -0.253 C  
HETATM   15  C   UNL     1     -10.517  18.113  67.931  1.00  0.00    -0.408 C  
HETATM   16  C   UNL     1      -7.902  18.548  70.191  1.00  0.00     1.792 C  
HETATM   17  C   UNL     1     -10.243  18.295  69.462  1.00  0.00     0.324 C  
HETATM   18  N   UNL     1      -9.029  17.632  70.012  1.00  0.00     1.693 NA 
ENDROOT
BRANCH  15  19
HETATM   19  C   UNL     1     -11.482  16.907  67.670  1.00  0.00     0.387 C  
HETATM   20  O   UNL     1     -12.292  16.491  68.501  1.00  0.00     0.585 OA 
HETATM   21  N   UNL     1     -11.315  16.298  66.442  1.00  0.00     0.299 N  
HETATM   22  H   UNL     1     -10.842  16.826  65.709  1.00  0.00     0.000 HD 
BRANCH  21  23
HETATM   23  CA  UNL     1     -11.774  14.943  66.125  1.00  0.00    -0.178 C  
BRANCH  23  24
HETATM   24  C   UNL     1     -12.634  15.009  64.837  1.00  0.00     0.099 C  
HETATM   25  H   UNL     1     -12.354  14.870  62.881  1.00  0.00     0.000 HD 
HETATM   26  O   UNL     1     -11.827  14.830  63.670  1.00  0.00    -0.109 OA 
ENDBRANCH  23  24
BRANCH  23  27
HETATM   27  C   UNL     1     -12.590  14.327  67.272  1.00  0.00     0.306 C  
HETATM   28  C   UNL     1     -11.746  13.773  68.410  1.00  0.00    -0.393 C  
ENDBRANCH  23  27
ENDBRANCH  21  23
ENDBRANCH  15  19
TORSDOF 4
ENDMDL
MODEL      184
REMARK 921   NORMALIZED FREE ENERGY PREDICTED BY IDOCK:   39.82 KCAL/MOL
REMARK 922        TOTAL FREE ENERGY PREDICTED BY IDOCK:   48.04 KCAL/MOL
REMARK 923 INTER-LIGAND FREE ENERGY PREDICTED BY IDOCK:   44.51 KCAL/MOL
REMARK 924 INTRA-LIGAND FREE ENERGY PREDICTED BY IDOCK:    3.53 KCAL/MOL
REMARK 927      BINDING AFFINITY PREDICTED BY RF-SCORE:    0.00 PKD
ROOT
HETATM    1  C   UNL     1     -10.194  18.105  67.637  1.00  0.00    -0.374 C  
HETATM    2  C   UNL     1      -8.996  17.596  66.801  1.00  0.00    -0.272 C  
HETATM    3  C   UNL     1      -8.452  16.395  67.499  1.00  0.00    -0.182 A  
HETATM    4  C   UNL     1      -7.192  15.961  67.826  1.00  0.00    -0.147 A  
HETATM    5  N   UNL     1      -7.328  14.725  68.424  1.00  0.00    -0.109 NA 
HETATM    6  H   UNL     1      -6.553  14.145  68.745  1.00  0.00     0.000 HD 
HETATM    7  C   UNL     1      -8.661  14.385  68.528  1.00  0.00    -0.175 A  
HETATM    8  C   UNL     1      -9.320  13.249  68.996  1.00  0.00     0.399 A  
HETATM    9  C   UNL     1     -10.726  13.311  69.044  1.00  0.00    -0.156 A  
HETATM   10  C   UNL     1     -11.429  14.497  68.756  1.00  0.00    -0.322 A  
HETATM   11  C   UNL     1     -10.740  15.633  68.319  1.00  0.00    -0.283 A  
HETATM   12  C   UNL     1     -11.161  17.052  68.268  1.00  0.00    -0.038 C  
HETATM   13  C   UNL     1      -9.362  15.494  68.097  1.00  0.00    -0.197 A  
HETATM   14  C   UNL     1     -12.105  17.549  69.096  1.00  0.00     3.713 C  
HETATM   15  C   UNL     1     -11.977  19.026  69.480  1.00  0.00     7.956 C  
HETATM   16  C   UNL     1     -11.836  18.938  66.000  1.00  0.00     3.187 C  
HETATM   17  C   UNL     1     -11.631  19.929  68.247  1.00  0.00     2.076 C  
HETATM   18  N   UNL     1     -10.938  19.271  67.105  1.00  0.00    -0.438 NA 
ENDROOT
BRANCH  15  19
HETATM   19  C   UNL     1     -10.854  19.104  70.568  1.00  0.00     2.845 C  
HETATM   20  O   UNL     1     -10.845  19.933  71.481  1.00  0.00     3.002 OA 
HETATM   21  N   UNL     1      -9.827  18.197  70.395  1.00  0.00     1.609 N  
HETATM   22  H   UNL     1     -10.006  17.382  69.809  1.00  0.00     0.000 HD 
BRANCH  21  23
HETATM   23  CA  UNL     1      -8.498  18.331  70.997  1.00  0.00     6.619 C  
BRANCH  23  24
HETATM   24  C   UNL     1      -8.676  18.569  72.519  1.00  0.00    12.358 C  
HETATM   25  H   UNL     1      -9.214  20.053  73.716  1.00  0.00     0.000 HD 
HETATM   26  O   UNL     1      -9.105  19.908  72.783  1.00  0.00     2.336 OA 
ENDBRANCH  23  24
BRANCH  23  27
HETATM   27  C   UNL     1      -7.696  19.485  70.376  1.00  0.00     1.109 C  
HETATM   28  C   UNL     1      -8.202  19.932  69.013  1.00  0.00    -0.003 C  
ENDBRANCH  23  27
ENDBRANCH  21  23
ENDBRANCH  15  19
TORSDOF 4
ENDMDL
MODEL      185
REMARK 921   NORMALIZED FREE ENERGY PREDICTED BY IDOCK:   53.20 KCAL/MOL
REMARK 922        TOTAL FREE ENERGY PREDICTED BY IDOCK:   64.55 KCAL/MOL
REMARK 923 INTER-LIGAND FREE ENERGY PREDICTED BY IDOCK:   65.06 KCAL/MOL
REMARK 924 INTRA-LIGAND FREE ENERGY PREDICTED BY IDOCK:   -0.51 KCAL/MOL
REMARK 927      BINDING AFFINITY PREDICTED BY RF-SCORE:    0.00 PKD
ROOT
HETATM    1  C   UNL     1      -8.970  17.761  67.999  1.00  0.00    -0.263 C  
HETATM    2  C   UNL     1      -9.333  16.580  67.067  1.00  0.00    -0.242 C  
HETATM    3  C   UNL     1      -9.929  15.513  67.923  1.00  0.00    -0.218 A  
HETATM    4  C   UNL     1      -9.767  14.154  68.020  1.00  0.00    -0.226 A  
HETATM    5  N   UNL     1     -10.655  13.703  68.975  1.00  0.00    -0.397 NA 
HETATM    6  H   UNL     1     -10.781  12.725  69.237  1.00  0.00     0.000 HD 
HETATM    7  C   UNL     1     -11.348  14.761  69.525  1.00  0.00    -0.283 A  
HETATM    8  C   UNL     1     -12.370  14.841  70.470  1.00  0.00    -0.398 A  
HETATM    9  C   UNL     1     -12.760  16.134  70.868  1.00  0.00     0.373 A  
HETATM   10  C   UNL     1     -12.074  17.285  70.434  1.00  0.00     3.988 A  
HETATM   11  C   UNL     1     -11.030  17.174  69.511  1.00  0.00     0.214 A  
HETATM   12  C   UNL     1      -9.959  18.132  69.149  1.00  0.00    -0.204 C  
HETATM   13  C   UNL     1     -10.782  15.898  68.983  1.00  0.00    -0.251 A  
HETATM   14  C   UNL     1      -9.526  19.079  70.009  1.00  0.00     0.957 C  
HETATM   15  C   UNL     1      -8.061  19.506  69.883  1.00  0.00     0.665 C  
HETATM   16  C   UNL     1      -9.409  19.797  66.684  1.00  0.00    -0.387 C  
HETATM   17  C   UNL     1      -7.632  19.716  68.391  1.00  0.00    -0.327 C  
HETATM   18  N   UNL     1      -8.406  18.972  67.358  1.00  0.00    -0.274 NA 
ENDROOT
BRANCH  15  19
HETATM   19  C   UNL     1      -7.213  18.376  70.560  1.00  0.00     2.127 C  
HETATM   20  O   UNL     1      -6.458  17.625  69.937  1.00  0.00    -0.147 OA 
HETATM   21  N   UNL     1      -7.420  18.243  71.918  1.00  0.00     7.091 N  
HETATM   22  H   UNL     1      -7.830  19.032  72.417  1.00  0.00     0.000 HD 
BRANCH  21  23
HETATM   23  CA  UNL     1      -7.090  17.041  72.689  1.00  0.00     9.744 C  
BRANCH  23  24
HETATM   24  C   UNL     1      -8.102  16.918  73.857  1.00  0.00    17.720 C  
HETATM   25  H   UNL     1      -9.727  15.867  74.281  1.00  0.00     0.000 HD 
HETATM   26  O   UNL     1      -9.107  15.943  73.565  1.00  0.00    11.345 OA 
ENDBRANCH  23  24
BRANCH  23  27
HETATM   27  C   UNL     1      -5.656  17.084  73.238  1.00  0.00     4.354 C  
HETATM   28  C   UNL     1      -5.172  18.478  73.609  1.00  0.00    10.102 C  
ENDBRANCH  23  27
ENDBRANCH  21  23
ENDBRANCH  15  19
TORSDOF 4
ENDMDL
MODEL      186
REMARK 921   NORMALIZED FREE ENERGY PREDICTED BY IDOCK:   70.65 KCAL/MOL
REMARK 922        TOTAL FREE ENERGY PREDICTED BY IDOCK:   86.08 KCAL/MOL
REMARK 923 INTER-LIGAND FREE ENERGY PREDICTED BY IDOCK:   83.27 KCAL/MOL
REMARK 924 INTRA-LIGAND FREE ENERGY PREDICTED BY IDOCK:    2.82 KCAL/MOL
REMARK 927      BINDING AFFINITY PREDICTED BY RF-SCORE:    0.00 PKD
ROOT
HETATM    1  C   UNL     1      -8.270  16.702  68.059  1.00  0.00    -0.185 C  
HETATM    2  C   UNL     1      -7.430  15.565  68.688  1.00  0.00    -0.131 C  
HETATM    3  C   UNL     1      -7.198  14.550  67.621  1.00  0.00    -0.206 A  
HETATM    4  C   UNL     1      -7.272  13.180  67.562  1.00  0.00    -0.151 A  
HETATM    5  N   UNL     1      -6.876  12.803  66.295  1.00  0.00     0.741 NA 
HETATM    6  H   UNL     1      -6.801  11.839  65.972  1.00  0.00     0.000 HD 
HETATM    7  C   UNL     1      -6.595  13.914  65.528  1.00  0.00    10.153 A  
HETATM    8  C   UNL     1      -6.119  14.079  64.228  1.00  0.00    22.632 A  
HETATM    9  C   UNL     1      -6.059  15.398  63.741  1.00  0.00    22.063 A  
HETATM   10  C   UNL     1      -6.569  16.487  64.475  1.00  0.00     9.288 A  
HETATM   11  C   UNL     1      -7.072  16.290  65.765  1.00  0.00     2.146 A  
HETATM   12  C   UNL     1      -7.940  17.152  66.600  1.00  0.00    -0.300 C  
HETATM   13  C   UNL     1      -6.949  15.001  66.305  1.00  0.00     2.972 A  
HETATM   14  C   UNL     1      -8.791  18.050  66.059  1.00  0.00     0.001 C  
HETATM   15  C   UNL     1     -10.072  18.345  66.844  1.00  0.00    -0.385 C  
HETATM   16  C   UNL     1      -7.457  18.780  69.104  1.00  0.00    -0.172 C  
HETATM   17  C   UNL     1      -9.798  18.527  68.375  1.00  0.00    -0.372 C  
HETATM   18  N   UNL     1      -8.584  17.864  68.925  1.00  0.00    -0.182 NA 
ENDROOT
BRANCH  15  19
HETATM   19  C   UNL     1     -11.037  17.139  66.583  1.00  0.00     0.369 C  
HETATM   20  O   UNL     1     -11.215  16.638  65.471  1.00  0.00     0.010 OA 
HETATM   21  N   UNL     1     -11.729  16.710  67.698  1.00  0.00     0.434 N  
HETATM   22  H   UNL     1     -11.361  16.965  68.614  1.00  0.00     0.000 HD 
BRANCH  21  23
HETATM   23  CA  UNL     1     -12.958  15.913  67.650  1.00  0.00     3.295 C  
BRANCH  23  24
HETATM   24  C   UNL     1     -12.761  14.661  68.543  1.00  0.00     0.770 C  
HETATM   25  H   UNL     1     -13.059  14.151  70.434  1.00  0.00     0.000 HD 
HETATM   26  O   UNL     1     -13.179  14.918  69.887  1.00  0.00     0.121 OA 
ENDBRANCH  23  24
BRANCH  23  27
HETATM   27  C   UNL     1     -13.313  15.486  66.217  1.00  0.00     3.574 C  
HETATM   28  C   UNL     1     -13.403  16.638  65.228  1.00  0.00     6.784 C  
ENDBRANCH  23  27
ENDBRANCH  21  23
ENDBRANCH  15  19
TORSDOF 4
ENDMDL
