MODEL        1
REMARK 921   NORMALIZED FREE ENERGY PREDICTED BY IDOCK:   -6.75 KCAL/MOL
REMARK 922        TOTAL FREE ENERGY PREDICTED BY IDOCK:   -8.13 KCAL/MOL
REMARK 923 INTER-LIGAND FREE ENERGY PREDICTED BY IDOCK:   -7.93 KCAL/MOL
REMARK 924 INTRA-LIGAND FREE ENERGY PREDICTED BY IDOCK:   -0.20 KCAL/MOL
REMARK 927      BINDING AFFINITY PREDICTED BY RF-SCORE:    0.00 PKD
ROOT
HETATM    1  C   UNL     1     -12.648  16.159  74.025  1.00  0.00    -0.574 C  
HETATM    2  O   UNL     1     -13.510  15.930  72.915  1.00  0.00    -0.539 OA 
ENDROOT
BRANCH   2   3
HETATM    3  C   UNL     1     -13.169  14.866  72.124  1.00  0.00    -0.361 A  
HETATM    4  C   UNL     1     -12.664  15.187  70.853  1.00  0.00    -0.464 A  
HETATM    5  C   UNL     1     -12.244  14.210  69.918  1.00  0.00    -0.359 A  
HETATM    6  C   UNL     1     -12.395  12.870  70.333  1.00  0.00    -0.258 A  
HETATM    7  C   UNL     1     -12.931  12.549  71.593  1.00  0.00    -0.405 A  
HETATM    8  S   UNL     1     -11.927  11.464  69.371  1.00  0.00    -0.324 SA 
HETATM    9  C   UNL     1     -11.359  12.199  67.861  1.00  0.00    -0.300 A  
HETATM   10  C   UNL     1     -13.322  13.538  72.485  1.00  0.00    -0.617 A  
HETATM   11  C   UNL     1     -11.318  13.591  67.632  1.00  0.00    -0.296 A  
HETATM   12  C   UNL     1     -10.829  13.969  66.355  1.00  0.00    -0.299 A  
HETATM   13  N   UNL     1     -11.720  14.545  68.627  1.00  0.00    -0.317 NA 
HETATM   14  C   UNL     1     -10.932  11.267  66.885  1.00  0.00    -0.348 A  
HETATM   15  C   UNL     1     -10.407  13.035  65.390  1.00  0.00    -0.313 A  
HETATM   16  C   UNL     1     -10.455  11.680  65.662  1.00  0.00    -0.314 A  
BRANCH  13  17
HETATM   17  C   UNL     1     -11.519  15.990  68.343  1.00  0.00    -0.331 C  
HETATM   18  C   UNL     1      -8.986  15.846  68.715  1.00  0.00    -0.216 C  
HETATM   19  C   UNL     1     -10.287  16.616  69.061  1.00  0.00    -0.317 C  
HETATM   20  C   UNL     1     -10.226  18.105  68.681  1.00  0.00    -0.382 C  
BRANCH  18  21
HETATM   21  N   UNL     1      -7.731  16.131  69.452  1.00  0.00    -0.209 NA 
HETATM   22  C   UNL     1      -6.928  14.926  69.684  1.00  0.00    -0.184 C  
HETATM   23  C   UNL     1      -6.941  17.070  68.633  1.00  0.00    -0.202 C  
ENDBRANCH  18  21
ENDBRANCH  13  17
ENDBRANCH   2   3
TORSDOF 3
ENDMDL
MODEL        2
REMARK 921   NORMALIZED FREE ENERGY PREDICTED BY IDOCK:   -6.57 KCAL/MOL
REMARK 922        TOTAL FREE ENERGY PREDICTED BY IDOCK:   -7.92 KCAL/MOL
REMARK 923 INTER-LIGAND FREE ENERGY PREDICTED BY IDOCK:   -7.66 KCAL/MOL
REMARK 924 INTRA-LIGAND FREE ENERGY PREDICTED BY IDOCK:   -0.27 KCAL/MOL
REMARK 927      BINDING AFFINITY PREDICTED BY RF-SCORE:    0.00 PKD
ROOT
HETATM    1  C   UNL     1     -11.049  12.489  63.635  1.00  0.00    -0.467 C  
HETATM    2  O   UNL     1     -10.117  12.646  64.700  1.00  0.00    -0.291 OA 
ENDROOT
BRANCH   2   3
HETATM    3  C   UNL     1     -10.603  12.355  65.947  1.00  0.00    -0.258 A  
HETATM    4  C   UNL     1     -10.893  13.461  66.762  1.00  0.00    -0.286 A  
HETATM    5  C   UNL     1     -11.422  13.340  68.070  1.00  0.00    -0.309 A  
HETATM    6  C   UNL     1     -11.615  12.019  68.526  1.00  0.00    -0.309 A  
HETATM    7  C   UNL     1     -11.293  10.912  67.720  1.00  0.00    -0.366 A  
HETATM    8  S   UNL     1     -12.282  11.590  70.105  1.00  0.00    -0.283 SA 
HETATM    9  C   UNL     1     -12.517  13.173  70.869  1.00  0.00    -0.323 A  
HETATM   10  C   UNL     1     -10.785  11.074  66.439  1.00  0.00    -0.286 A  
HETATM   11  C   UNL     1     -12.226  14.401  70.237  1.00  0.00    -0.334 A  
HETATM   12  C   UNL     1     -12.487  15.551  71.025  1.00  0.00    -0.492 A  
HETATM   13  N   UNL     1     -11.726  14.473  68.893  1.00  0.00    -0.302 NA 
HETATM   14  C   UNL     1     -13.039  13.113  72.183  1.00  0.00    -0.481 A  
HETATM   15  C   UNL     1     -13.005  15.482  72.333  1.00  0.00    -0.511 A  
HETATM   16  C   UNL     1     -13.286  14.256  72.908  1.00  0.00    -0.593 A  
BRANCH  13  17
HETATM   17  C   UNL     1     -11.572  15.813  68.268  1.00  0.00    -0.298 C  
HETATM   18  C   UNL     1      -9.032  15.831  68.623  1.00  0.00    -0.204 C  
HETATM   19  C   UNL     1     -10.353  16.626  68.795  1.00  0.00    -0.301 C  
HETATM   20  C   UNL     1     -10.340  17.981  68.068  1.00  0.00    -0.397 C  
BRANCH  18  21
HETATM   21  N   UNL     1      -7.779  16.318  69.250  1.00  0.00    -0.225 NA 
HETATM   22  C   UNL     1      -6.961  15.230  69.793  1.00  0.00    -0.168 C  
HETATM   23  C   UNL     1      -7.002  17.011  68.204  1.00  0.00    -0.172 C  
ENDBRANCH  18  21
ENDBRANCH  13  17
ENDBRANCH   2   3
TORSDOF 3
ENDMDL
MODEL        3
REMARK 921   NORMALIZED FREE ENERGY PREDICTED BY IDOCK:   -6.52 KCAL/MOL
REMARK 922        TOTAL FREE ENERGY PREDICTED BY IDOCK:   -7.86 KCAL/MOL
REMARK 923 INTER-LIGAND FREE ENERGY PREDICTED BY IDOCK:   -7.92 KCAL/MOL
REMARK 924 INTRA-LIGAND FREE ENERGY PREDICTED BY IDOCK:    0.06 KCAL/MOL
REMARK 927      BINDING AFFINITY PREDICTED BY RF-SCORE:    0.00 PKD
ROOT
HETATM    1  C   UNL     1     -13.444  15.867  73.071  1.00  0.00    -0.568 C  
HETATM    2  O   UNL     1     -13.410  15.485  71.699  1.00  0.00    -0.454 OA 
ENDROOT
BRANCH   2   3
HETATM    3  C   UNL     1     -13.109  14.170  71.469  1.00  0.00    -0.353 A  
HETATM    4  C   UNL     1     -12.235  13.922  70.397  1.00  0.00    -0.438 A  
HETATM    5  C   UNL     1     -11.804  12.622  70.035  1.00  0.00    -0.285 A  
HETATM    6  C   UNL     1     -12.338  11.570  70.809  1.00  0.00    -0.375 A  
HETATM    7  C   UNL     1     -13.237  11.817  71.862  1.00  0.00    -0.468 A  
HETATM    8  S   UNL     1     -11.945   9.862  70.584  1.00  0.00    -0.262 SA 
HETATM    9  C   UNL     1     -10.863   9.894  69.180  1.00  0.00    -0.221 A  
HETATM   10  C   UNL     1     -13.627  13.108  72.190  1.00  0.00    -0.637 A  
HETATM   11  C   UNL     1     -10.471  11.077  68.518  1.00  0.00    -0.189 A  
HETATM   12  C   UNL     1      -9.599  10.880  67.417  1.00  0.00    -0.181 A  
HETATM   13  N   UNL     1     -10.905  12.377  68.947  1.00  0.00    -0.222 NA 
HETATM   14  C   UNL     1     -10.405   8.620  68.769  1.00  0.00    -0.228 A  
HETATM   15  C   UNL     1      -9.148   9.609  67.014  1.00  0.00    -0.154 A  
HETATM   16  C   UNL     1      -9.551   8.477  67.699  1.00  0.00    -0.187 A  
BRANCH  13  17
HETATM   17  C   UNL     1     -10.336  13.571  68.269  1.00  0.00    -0.252 C  
HETATM   18  C   UNL     1     -12.231  13.656  66.544  1.00  0.00    -0.404 C  
HETATM   19  C   UNL     1     -10.695  13.678  66.758  1.00  0.00    -0.272 C  
HETATM   20  C   UNL     1     -10.027  14.946  66.202  1.00  0.00    -0.323 C  
BRANCH  18  21
HETATM   21  N   UNL     1     -12.794  13.528  65.177  1.00  0.00    -0.728 NA 
HETATM   22  C   UNL     1     -12.510  14.696  64.338  1.00  0.00    -0.288 C  
HETATM   23  C   UNL     1     -12.174  12.343  64.554  1.00  0.00    -0.431 C  
ENDBRANCH  18  21
ENDBRANCH  13  17
ENDBRANCH   2   3
TORSDOF 3
ENDMDL
MODEL        4
REMARK 921   NORMALIZED FREE ENERGY PREDICTED BY IDOCK:   -6.48 KCAL/MOL
REMARK 922        TOTAL FREE ENERGY PREDICTED BY IDOCK:   -7.81 KCAL/MOL
REMARK 923 INTER-LIGAND FREE ENERGY PREDICTED BY IDOCK:   -7.54 KCAL/MOL
REMARK 924 INTRA-LIGAND FREE ENERGY PREDICTED BY IDOCK:   -0.27 KCAL/MOL
REMARK 927      BINDING AFFINITY PREDICTED BY RF-SCORE:    0.00 PKD
ROOT
HETATM    1  C   UNL     1     -11.898  16.192  71.982  1.00  0.00    -0.530 C  
HETATM    2  O   UNL     1     -12.849  15.716  71.034  1.00  0.00    -0.467 OA 
ENDROOT
BRANCH   2   3
HETATM    3  C   UNL     1     -12.481  14.581  70.361  1.00  0.00    -0.347 A  
HETATM    4  C   UNL     1     -12.122  14.759  69.015  1.00  0.00    -0.256 A  
HETATM    5  C   UNL     1     -11.697  13.697  68.181  1.00  0.00    -0.357 A  
HETATM    6  C   UNL     1     -11.685  12.421  68.784  1.00  0.00    -0.332 A  
HETATM    7  C   UNL     1     -12.076  12.239  70.123  1.00  0.00    -0.364 A  
HETATM    8  S   UNL     1     -11.175  10.935  67.975  1.00  0.00    -0.317 SA 
HETATM    9  C   UNL     1     -10.813  11.493  66.332  1.00  0.00    -0.285 A  
HETATM   10  C   UNL     1     -12.478  13.310  70.909  1.00  0.00    -0.424 A  
HETATM   11  C   UNL     1     -10.922  12.838  65.917  1.00  0.00    -0.274 A  
HETATM   12  C   UNL     1     -10.584  13.069  64.558  1.00  0.00    -0.413 A  
HETATM   13  N   UNL     1     -11.321  13.887  66.811  1.00  0.00    -0.322 NA 
HETATM   14  C   UNL     1     -10.389  10.470  65.450  1.00  0.00    -0.292 A  
HETATM   15  C   UNL     1     -10.164  12.046  63.688  1.00  0.00    -0.470 A  
HETATM   16  C   UNL     1     -10.062  10.743  64.141  1.00  0.00    -0.418 A  
BRANCH  13  17
HETATM   17  C   UNL     1     -11.282  15.289  66.319  1.00  0.00    -0.223 C  
HETATM   18  C   UNL     1      -8.767  15.513  66.764  1.00  0.00    -0.267 C  
HETATM   19  C   UNL     1     -10.163  16.160  66.962  1.00  0.00    -0.285 C  
HETATM   20  C   UNL     1     -10.263  17.573  66.366  1.00  0.00    -0.354 C  
BRANCH  18  21
HETATM   21  N   UNL     1      -7.584  16.054  67.478  1.00  0.00    -0.141 NA 
HETATM   22  C   UNL     1      -7.911  16.540  68.822  1.00  0.00    -0.235 C  
HETATM   23  C   UNL     1      -6.604  14.958  67.602  1.00  0.00    -0.165 C  
ENDBRANCH  18  21
ENDBRANCH  13  17
ENDBRANCH   2   3
TORSDOF 3
ENDMDL
MODEL        5
REMARK 921   NORMALIZED FREE ENERGY PREDICTED BY IDOCK:   -6.41 KCAL/MOL
REMARK 922        TOTAL FREE ENERGY PREDICTED BY IDOCK:   -7.73 KCAL/MOL
REMARK 923 INTER-LIGAND FREE ENERGY PREDICTED BY IDOCK:   -7.47 KCAL/MOL
REMARK 924 INTRA-LIGAND FREE ENERGY PREDICTED BY IDOCK:   -0.26 KCAL/MOL
REMARK 927      BINDING AFFINITY PREDICTED BY RF-SCORE:    0.00 PKD
ROOT
HETATM    1  C   UNL     1      -9.582  10.614  64.309  1.00  0.00    -0.296 C  
HETATM    2  O   UNL     1      -9.977  11.821  64.952  1.00  0.00    -0.245 OA 
ENDROOT
BRANCH   2   3
HETATM    3  C   UNL     1     -10.488  11.669  66.213  1.00  0.00    -0.246 A  
HETATM    4  C   UNL     1     -10.875  12.852  66.863  1.00  0.00    -0.278 A  
HETATM    5  C   UNL     1     -11.442  12.873  68.160  1.00  0.00    -0.315 A  
HETATM    6  C   UNL     1     -11.570  11.614  68.785  1.00  0.00    -0.313 A  
HETATM    7  C   UNL     1     -11.152  10.433  68.146  1.00  0.00    -0.344 A  
HETATM    8  S   UNL     1     -12.266  11.357  70.389  1.00  0.00    -0.349 SA 
HETATM    9  C   UNL     1     -12.624  13.009  70.924  1.00  0.00    -0.280 A  
HETATM   10  C   UNL     1     -10.610  10.456  66.869  1.00  0.00    -0.293 A  
HETATM   11  C   UNL     1     -12.386  14.158  70.140  1.00  0.00    -0.351 A  
HETATM   12  C   UNL     1     -12.745  15.384  70.758  1.00  0.00    -0.516 A  
HETATM   13  N   UNL     1     -11.844  14.083  68.813  1.00  0.00    -0.344 NA 
HETATM   14  C   UNL     1     -13.189  13.091  72.220  1.00  0.00    -0.539 A  
HETATM   15  C   UNL     1     -13.305  15.456  72.048  1.00  0.00    -0.545 A  
HETATM   16  C   UNL     1     -13.531  14.302  72.776  1.00  0.00    -0.590 A  
BRANCH  13  17
HETATM   17  C   UNL     1     -11.749  15.334  68.017  1.00  0.00    -0.251 C  
HETATM   18  C   UNL     1      -9.238  15.588  68.470  1.00  0.00    -0.197 C  
HETATM   19  C   UNL     1     -10.616  16.299  68.476  1.00  0.00    -0.294 C  
HETATM   20  C   UNL     1     -10.658  17.542  67.572  1.00  0.00    -0.333 C  
BRANCH  18  21
HETATM   21  N   UNL     1      -8.054  16.246  69.075  1.00  0.00    -0.235 NA 
HETATM   22  C   UNL     1      -7.162  15.295  69.745  1.00  0.00    -0.146 C  
HETATM   23  C   UNL     1      -7.307  16.900  67.984  1.00  0.00    -0.171 C  
ENDBRANCH  18  21
ENDBRANCH  13  17
ENDBRANCH   2   3
TORSDOF 3
ENDMDL
MODEL        6
REMARK 921   NORMALIZED FREE ENERGY PREDICTED BY IDOCK:   -6.21 KCAL/MOL
REMARK 922        TOTAL FREE ENERGY PREDICTED BY IDOCK:   -7.49 KCAL/MOL
REMARK 923 INTER-LIGAND FREE ENERGY PREDICTED BY IDOCK:   -7.10 KCAL/MOL
REMARK 924 INTRA-LIGAND FREE ENERGY PREDICTED BY IDOCK:   -0.40 KCAL/MOL
REMARK 927      BINDING AFFINITY PREDICTED BY RF-SCORE:    0.00 PKD
ROOT
HETATM    1  C   UNL     1     -10.286  11.556  63.464  1.00  0.00    -0.420 C  
HETATM    2  O   UNL     1      -9.799  10.551  64.347  1.00  0.00    -0.296 OA 
ENDROOT
BRANCH   2   3
HETATM    3  C   UNL     1     -10.226  10.658  65.643  1.00  0.00    -0.253 A  
HETATM    4  C   UNL     1     -10.597  11.947  66.060  1.00  0.00    -0.304 A  
HETATM    5  C   UNL     1     -11.082  12.230  67.360  1.00  0.00    -0.282 A  
HETATM    6  C   UNL     1     -11.142  11.127  68.238  1.00  0.00    -0.251 A  
HETATM    7  C   UNL     1     -10.739   9.842  67.829  1.00  0.00    -0.332 A  
HETATM    8  S   UNL     1     -11.729  11.201  69.903  1.00  0.00    -0.384 SA 
HETATM    9  C   UNL     1     -12.091  12.924  70.109  1.00  0.00    -0.302 A  
HETATM   10  C   UNL     1     -10.279   9.606  66.542  1.00  0.00    -0.294 A  
HETATM   11  C   UNL     1     -11.928  13.889  69.091  1.00  0.00    -0.363 A  
HETATM   12  C   UNL     1     -12.276  15.212  69.466  1.00  0.00    -0.268 A  
HETATM   13  N   UNL     1     -11.469  13.546  67.775  1.00  0.00    -0.296 NA 
HETATM   14  C   UNL     1     -12.573  13.268  71.395  1.00  0.00    -0.365 A  
HETATM   15  C   UNL     1     -12.754  15.545  70.748  1.00  0.00    -0.511 A  
HETATM   16  C   UNL     1     -12.907  14.565  71.711  1.00  0.00    -0.415 A  
BRANCH  13  17
HETATM   17  C   UNL     1     -11.453  14.605  66.733  1.00  0.00    -0.364 C  
HETATM   18  C   UNL     1      -8.931  14.993  66.979  1.00  0.00    -0.234 C  
HETATM   19  C   UNL     1     -10.327  15.665  66.918  1.00  0.00    -0.293 C  
HETATM   20  C   UNL     1     -10.453  16.692  65.781  1.00  0.00    -0.324 C  
BRANCH  18  21
HETATM   21  N   UNL     1      -7.736  15.783  67.367  1.00  0.00    -0.165 NA 
HETATM   22  C   UNL     1      -7.976  16.629  68.540  1.00  0.00    -0.224 C  
HETATM   23  C   UNL     1      -6.660  14.827  67.692  1.00  0.00    -0.158 C  
ENDBRANCH  18  21
ENDBRANCH  13  17
ENDBRANCH   2   3
TORSDOF 3
ENDMDL
MODEL        7
REMARK 921   NORMALIZED FREE ENERGY PREDICTED BY IDOCK:   -6.11 KCAL/MOL
REMARK 922        TOTAL FREE ENERGY PREDICTED BY IDOCK:   -7.38 KCAL/MOL
REMARK 923 INTER-LIGAND FREE ENERGY PREDICTED BY IDOCK:   -7.00 KCAL/MOL
REMARK 924 INTRA-LIGAND FREE ENERGY PREDICTED BY IDOCK:   -0.38 KCAL/MOL
REMARK 927      BINDING AFFINITY PREDICTED BY RF-SCORE:    0.00 PKD
ROOT
HETATM    1  C   UNL     1     -11.880  15.913  64.205  1.00  0.00    -0.071 C  
HETATM    2  O   UNL     1     -12.575  14.724  63.847  1.00  0.00    -0.834 OA 
ENDROOT
BRANCH   2   3
HETATM    3  C   UNL     1     -12.031  13.564  64.330  1.00  0.00    -0.432 A  
HETATM    4  C   UNL     1     -12.089  13.394  65.723  1.00  0.00    -0.481 A  
HETATM    5  C   UNL     1     -11.592  12.245  66.384  1.00  0.00    -0.383 A  
HETATM    6  C   UNL     1     -10.997  11.275  65.548  1.00  0.00    -0.131 A  
HETATM    7  C   UNL     1     -10.911  11.461  64.157  1.00  0.00    -0.431 A  
HETATM    8  S   UNL     1     -10.323   9.743  66.114  1.00  0.00    -0.073 SA 
HETATM    9  C   UNL     1     -10.535   9.851  67.870  1.00  0.00    -0.236 A  
HETATM   10  C   UNL     1     -11.419  12.599  63.547  1.00  0.00    -0.557 A  
HETATM   11  C   UNL     1     -11.141  10.946  68.523  1.00  0.00    -0.256 A  
HETATM   12  C   UNL     1     -11.211  10.831  69.935  1.00  0.00    -0.371 A  
HETATM   13  N   UNL     1     -11.665  12.073  67.804  1.00  0.00    -0.485 NA 
HETATM   14  C   UNL     1     -10.050   8.729  68.585  1.00  0.00    -0.207 A  
HETATM   15  C   UNL     1     -10.725   9.713  70.638  1.00  0.00    -0.388 A  
HETATM   16  C   UNL     1     -10.148   8.657  69.956  1.00  0.00    -0.195 A  
BRANCH  13  17
HETATM   17  C   UNL     1     -12.400  13.117  68.565  1.00  0.00     0.169 C  
HETATM   18  C   UNL     1     -10.390  14.709  68.580  1.00  0.00    -0.246 C  
HETATM   19  C   UNL     1     -11.490  14.030  69.438  1.00  0.00    -0.343 C  
HETATM   20  C   UNL     1     -12.392  15.038  70.168  1.00  0.00    -0.380 C  
BRANCH  18  21
HETATM   21  N   UNL     1      -9.282  15.448  69.233  1.00  0.00    -0.246 NA 
HETATM   22  C   UNL     1      -7.971  14.848  68.968  1.00  0.00    -0.170 C  
HETATM   23  C   UNL     1      -9.286  16.820  68.691  1.00  0.00    -0.252 C  
ENDBRANCH  18  21
ENDBRANCH  13  17
ENDBRANCH   2   3
TORSDOF 3
ENDMDL
MODEL        8
REMARK 921   NORMALIZED FREE ENERGY PREDICTED BY IDOCK:   -6.10 KCAL/MOL
REMARK 922        TOTAL FREE ENERGY PREDICTED BY IDOCK:   -7.37 KCAL/MOL
REMARK 923 INTER-LIGAND FREE ENERGY PREDICTED BY IDOCK:   -6.97 KCAL/MOL
REMARK 924 INTRA-LIGAND FREE ENERGY PREDICTED BY IDOCK:   -0.40 KCAL/MOL
REMARK 927      BINDING AFFINITY PREDICTED BY RF-SCORE:    0.00 PKD
ROOT
HETATM    1  C   UNL     1     -12.832   9.425  71.728  1.00  0.00    -0.399 C  
HETATM    2  O   UNL     1     -13.297  10.631  72.325  1.00  0.00    -0.386 OA 
ENDROOT
BRANCH   2   3
HETATM    3  C   UNL     1     -12.941  11.779  71.668  1.00  0.00    -0.362 A  
HETATM    4  C   UNL     1     -12.407  11.606  70.381  1.00  0.00    -0.373 A  
HETATM    5  C   UNL     1     -12.009  12.687  69.557  1.00  0.00    -0.270 A  
HETATM    6  C   UNL     1     -12.154  13.969  70.128  1.00  0.00    -0.351 A  
HETATM    7  C   UNL     1     -12.659  14.139  71.430  1.00  0.00    -0.445 A  
HETATM    8  S   UNL     1     -11.756  15.483  69.307  1.00  0.00    -0.368 SA 
HETATM    9  C   UNL     1     -11.110  14.923  67.754  1.00  0.00    -0.309 A  
HETATM   10  C   UNL     1     -13.047  13.053  72.201  1.00  0.00    -0.465 A  
HETATM   11  C   UNL     1     -11.022  13.564  67.384  1.00  0.00    -0.272 A  
HETATM   12  C   UNL     1     -10.475  13.333  66.095  1.00  0.00    -0.296 A  
HETATM   13  N   UNL     1     -11.475  12.504  68.240  1.00  0.00    -0.285 NA 
HETATM   14  C   UNL     1     -10.690  15.962  66.890  1.00  0.00    -0.289 A  
HETATM   15  C   UNL     1     -10.058  14.373  65.243  1.00  0.00    -0.387 A  
HETATM   16  C   UNL     1     -10.172  15.692  65.643  1.00  0.00    -0.402 A  
BRANCH  13  17
HETATM   17  C   UNL     1     -11.462  11.115  67.712  1.00  0.00    -0.272 C  
HETATM   18  C   UNL     1      -9.261  10.546  68.899  1.00  0.00    -0.183 C  
HETATM   19  C   UNL     1     -10.037  10.505  67.557  1.00  0.00    -0.225 C  
HETATM   20  C   UNL     1     -10.190   9.083  66.992  1.00  0.00    -0.336 C  
BRANCH  18  21
HETATM   21  N   UNL     1      -7.815  10.219  68.937  1.00  0.00    -0.097 NA 
HETATM   22  C   UNL     1      -6.983  11.382  69.261  1.00  0.00    -0.115 C  
HETATM   23  C   UNL     1      -7.619   9.198  69.984  1.00  0.00    -0.080 C  
ENDBRANCH  18  21
ENDBRANCH  13  17
ENDBRANCH   2   3
TORSDOF 3
ENDMDL
MODEL        9
REMARK 921   NORMALIZED FREE ENERGY PREDICTED BY IDOCK:   -6.00 KCAL/MOL
REMARK 922        TOTAL FREE ENERGY PREDICTED BY IDOCK:   -7.25 KCAL/MOL
REMARK 923 INTER-LIGAND FREE ENERGY PREDICTED BY IDOCK:   -6.96 KCAL/MOL
REMARK 924 INTRA-LIGAND FREE ENERGY PREDICTED BY IDOCK:   -0.29 KCAL/MOL
REMARK 927      BINDING AFFINITY PREDICTED BY RF-SCORE:    0.00 PKD
ROOT
HETATM    1  C   UNL     1     -13.411   9.498  71.993  1.00  0.00    -0.452 C  
HETATM    2  O   UNL     1     -12.049   9.882  71.835  1.00  0.00    -0.357 OA 
ENDROOT
BRANCH   2   3
HETATM    3  C   UNL     1     -11.532   9.693  70.581  1.00  0.00    -0.306 A  
HETATM    4  C   UNL     1     -11.738  10.744  69.672  1.00  0.00    -0.395 A  
HETATM    5  C   UNL     1     -11.252  10.722  68.342  1.00  0.00    -0.284 A  
HETATM    6  C   UNL     1     -10.563   9.548  67.968  1.00  0.00    -0.230 A  
HETATM    7  C   UNL     1     -10.387   8.483  68.870  1.00  0.00    -0.226 A  
HETATM    8  S   UNL     1      -9.837   9.274  66.380  1.00  0.00    -0.287 SA 
HETATM    9  C   UNL     1     -10.282  10.743  65.493  1.00  0.00    -0.266 A  
HETATM   10  C   UNL     1     -10.871   8.549  70.169  1.00  0.00    -0.238 A  
HETATM   11  C   UNL     1     -11.017  11.809  66.055  1.00  0.00    -0.306 A  
HETATM   12  C   UNL     1     -11.264  12.891  65.172  1.00  0.00    -0.319 A  
HETATM   13  N   UNL     1     -11.455  11.802  67.422  1.00  0.00    -0.430 NA 
HETATM   14  C   UNL     1      -9.827  10.773  64.153  1.00  0.00    -0.384 A  
HETATM   15  C   UNL     1     -10.809  12.912  63.840  1.00  0.00    -0.402 A  
HETATM   16  C   UNL     1     -10.083  11.849  63.334  1.00  0.00    -0.464 A  
BRANCH  13  17
HETATM   17  C   UNL     1     -12.109  13.022  67.961  1.00  0.00    -0.174 C  
HETATM   18  C   UNL     1      -9.878  14.256  68.235  1.00  0.00    -0.235 C  
HETATM   19  C   UNL     1     -11.210  13.857  68.921  1.00  0.00    -0.304 C  
HETATM   20  C   UNL     1     -12.027  15.067  69.401  1.00  0.00    -0.336 C  
BRANCH  18  21
HETATM   21  N   UNL     1      -8.781  14.864  69.028  1.00  0.00    -0.193 NA 
HETATM   22  C   UNL     1      -7.470  14.292  68.708  1.00  0.00    -0.129 C  
HETATM   23  C   UNL     1      -8.753  16.305  68.710  1.00  0.00    -0.244 C  
ENDBRANCH  18  21
ENDBRANCH  13  17
ENDBRANCH   2   3
TORSDOF 3
ENDMDL
MODEL       10
REMARK 921   NORMALIZED FREE ENERGY PREDICTED BY IDOCK:   -5.99 KCAL/MOL
REMARK 922        TOTAL FREE ENERGY PREDICTED BY IDOCK:   -7.25 KCAL/MOL
REMARK 923 INTER-LIGAND FREE ENERGY PREDICTED BY IDOCK:   -6.91 KCAL/MOL
REMARK 924 INTRA-LIGAND FREE ENERGY PREDICTED BY IDOCK:   -0.33 KCAL/MOL
REMARK 927      BINDING AFFINITY PREDICTED BY RF-SCORE:    0.00 PKD
ROOT
HETATM    1  C   UNL     1     -11.978   8.472  72.212  1.00  0.00    -0.385 C  
HETATM    2  O   UNL     1     -10.986   9.408  71.804  1.00  0.00    -0.363 OA 
ENDROOT
BRANCH   2   3
HETATM    3  C   UNL     1     -10.743   9.447  70.457  1.00  0.00    -0.276 A  
HETATM    4  C   UNL     1     -11.263  10.559  69.774  1.00  0.00    -0.361 A  
HETATM    5  C   UNL     1     -11.085  10.767  68.385  1.00  0.00    -0.266 A  
HETATM    6  C   UNL     1     -10.367   9.757  67.709  1.00  0.00    -0.225 A  
HETATM    7  C   UNL     1      -9.874   8.628  68.388  1.00  0.00    -0.189 A  
HETATM    8  S   UNL     1      -9.984   9.783  65.984  1.00  0.00    -0.251 SA 
HETATM    9  C   UNL     1     -10.779  11.269  65.433  1.00  0.00    -0.227 A  
HETATM   10  C   UNL     1     -10.063   8.468  69.753  1.00  0.00    -0.197 A  
HETATM   11  C   UNL     1     -11.488  12.143  66.285  1.00  0.00    -0.374 A  
HETATM   12  C   UNL     1     -12.048  13.276  65.641  1.00  0.00    -0.488 A  
HETATM   13  N   UNL     1     -11.609  11.909  67.696  1.00  0.00    -0.454 NA 
HETATM   14  C   UNL     1     -10.639  11.525  64.048  1.00  0.00    -0.437 A  
HETATM   15  C   UNL     1     -11.904  13.522  64.262  1.00  0.00    -0.471 A  
HETATM   16  C   UNL     1     -11.192  12.643  63.467  1.00  0.00    -0.489 A  
BRANCH  13  17
HETATM   17  C   UNL     1     -12.262  12.949  68.532  1.00  0.00     0.037 C  
HETATM   18  C   UNL     1     -10.186  14.455  68.513  1.00  0.00    -0.243 C  
HETATM   19  C   UNL     1     -11.274  13.788  69.395  1.00  0.00    -0.259 C  
HETATM   20  C   UNL     1     -12.097  14.802  70.206  1.00  0.00    -0.380 C  
BRANCH  18  21
HETATM   21  N   UNL     1      -9.018  15.120  69.140  1.00  0.00    -0.220 NA 
HETATM   22  C   UNL     1      -7.741  14.569  68.678  1.00  0.00    -0.137 C  
HETATM   23  C   UNL     1      -9.072  16.548  68.772  1.00  0.00    -0.256 C  
ENDBRANCH  18  21
ENDBRANCH  13  17
ENDBRANCH   2   3
TORSDOF 3
ENDMDL
MODEL       11
REMARK 921   NORMALIZED FREE ENERGY PREDICTED BY IDOCK:   -5.98 KCAL/MOL
REMARK 922        TOTAL FREE ENERGY PREDICTED BY IDOCK:   -7.22 KCAL/MOL
REMARK 923 INTER-LIGAND FREE ENERGY PREDICTED BY IDOCK:   -7.62 KCAL/MOL
REMARK 924 INTRA-LIGAND FREE ENERGY PREDICTED BY IDOCK:    0.40 KCAL/MOL
REMARK 927      BINDING AFFINITY PREDICTED BY RF-SCORE:    0.00 PKD
ROOT
HETATM    1  C   UNL     1      -9.479  10.031  65.143  1.00  0.00    -0.270 C  
HETATM    2  O   UNL     1      -8.861  10.136  66.422  1.00  0.00    -0.141 OA 
ENDROOT
BRANCH   2   3
HETATM    3  C   UNL     1      -9.722  10.318  67.471  1.00  0.00    -0.169 A  
HETATM    4  C   UNL     1      -9.994  11.653  67.812  1.00  0.00    -0.191 A  
HETATM    5  C   UNL     1     -10.877  12.020  68.857  1.00  0.00    -0.211 A  
HETATM    6  C   UNL     1     -11.456  10.946  69.566  1.00  0.00    -0.301 A  
HETATM    7  C   UNL     1     -11.157   9.610  69.244  1.00  0.00    -0.149 A  
HETATM    8  S   UNL     1     -12.607  11.126  70.894  1.00  0.00    -0.367 SA 
HETATM    9  C   UNL     1     -12.715  12.886  71.077  1.00  0.00    -0.251 A  
HETATM   10  C   UNL     1     -10.292   9.293  68.206  1.00  0.00    -0.257 A  
HETATM   11  C   UNL     1     -12.015  13.805  70.266  1.00  0.00    -0.326 A  
HETATM   12  C   UNL     1     -12.243  15.169  70.581  1.00  0.00    -0.401 A  
HETATM   13  N   UNL     1     -11.159  13.384  69.193  1.00  0.00    -0.240 NA 
HETATM   14  C   UNL     1     -13.582  13.311  72.113  1.00  0.00    -0.655 A  
HETATM   15  C   UNL     1     -13.106  15.583  71.613  1.00  0.00    -0.561 A  
HETATM   16  C   UNL     1     -13.780  14.647  72.376  1.00  0.00    -0.575 A  
BRANCH  13  17
HETATM   17  C   UNL     1     -10.566  14.424  68.312  1.00  0.00    -0.243 C  
HETATM   18  C   UNL     1     -12.387  14.139  66.530  1.00  0.00    -0.372 C  
HETATM   19  C   UNL     1     -10.861  14.221  66.797  1.00  0.00    -0.298 C  
HETATM   20  C   UNL     1     -10.174  15.359  66.025  1.00  0.00    -0.343 C  
BRANCH  18  21
HETATM   21  N   UNL     1     -12.892  13.733  65.196  1.00  0.00    -0.748 NA 
HETATM   22  C   UNL     1     -12.500  14.667  64.136  1.00  0.00    -0.147 C  
HETATM   23  C   UNL     1     -12.315  12.409  64.890  1.00  0.00    -0.402 C  
ENDBRANCH  18  21
ENDBRANCH  13  17
ENDBRANCH   2   3
TORSDOF 3
ENDMDL
MODEL       12
REMARK 921   NORMALIZED FREE ENERGY PREDICTED BY IDOCK:   -5.97 KCAL/MOL
REMARK 922        TOTAL FREE ENERGY PREDICTED BY IDOCK:   -7.22 KCAL/MOL
REMARK 923 INTER-LIGAND FREE ENERGY PREDICTED BY IDOCK:   -6.94 KCAL/MOL
REMARK 924 INTRA-LIGAND FREE ENERGY PREDICTED BY IDOCK:   -0.28 KCAL/MOL
REMARK 927      BINDING AFFINITY PREDICTED BY RF-SCORE:    0.00 PKD
ROOT
HETATM    1  C   UNL     1     -13.854  13.568  72.312  1.00  0.00    -0.581 C  
HETATM    2  O   UNL     1     -12.548  14.097  72.104  1.00  0.00    -0.310 OA 
ENDROOT
BRANCH   2   3
HETATM    3  C   UNL     1     -12.213  14.320  70.796  1.00  0.00    -0.353 A  
HETATM    4  C   UNL     1     -11.930  13.175  70.033  1.00  0.00    -0.391 A  
HETATM    5  C   UNL     1     -11.586  13.224  68.660  1.00  0.00    -0.327 A  
HETATM    6  C   UNL     1     -11.515  14.518  68.100  1.00  0.00    -0.312 A  
HETATM    7  C   UNL     1     -11.767  15.666  68.873  1.00  0.00    -0.396 A  
HETATM    8  S   UNL     1     -11.133  14.858  66.409  1.00  0.00    -0.331 SA 
HETATM    9  C   UNL     1     -10.821  13.242  65.750  1.00  0.00    -0.274 A  
HETATM   10  C   UNL     1     -12.109  15.572  70.214  1.00  0.00    -0.415 A  
HETATM   11  C   UNL     1     -10.921  12.053  66.504  1.00  0.00    -0.295 A  
HETATM   12  C   UNL     1     -10.629  10.867  65.783  1.00  0.00    -0.230 A  
HETATM   13  N   UNL     1     -11.310  12.051  67.886  1.00  0.00    -0.282 NA 
HETATM   14  C   UNL     1     -10.467  13.231  64.379  1.00  0.00    -0.424 A  
HETATM   15  C   UNL     1     -10.277  10.865  64.420  1.00  0.00    -0.423 A  
HETATM   16  C   UNL     1     -10.202  12.054  63.718  1.00  0.00    -0.447 A  
BRANCH  13  17
HETATM   17  C   UNL     1     -11.512  10.743  68.561  1.00  0.00    -0.292 C  
HETATM   18  C   UNL     1      -9.059  10.592  69.292  1.00  0.00    -0.145 C  
HETATM   19  C   UNL     1     -10.239   9.848  68.613  1.00  0.00    -0.197 C  
HETATM   20  C   UNL     1     -10.612   8.536  69.322  1.00  0.00    -0.193 C  
BRANCH  18  21
HETATM   21  N   UNL     1      -7.693  10.016  69.257  1.00  0.00    -0.104 NA 
HETATM   22  C   UNL     1      -7.314   9.543  67.922  1.00  0.00    -0.083 C  
HETATM   23  C   UNL     1      -6.754  11.081  69.660  1.00  0.00    -0.137 C  
ENDBRANCH  18  21
ENDBRANCH  13  17
ENDBRANCH   2   3
TORSDOF 3
ENDMDL
MODEL       13
REMARK 921   NORMALIZED FREE ENERGY PREDICTED BY IDOCK:   -5.94 KCAL/MOL
REMARK 922        TOTAL FREE ENERGY PREDICTED BY IDOCK:   -7.19 KCAL/MOL
REMARK 923 INTER-LIGAND FREE ENERGY PREDICTED BY IDOCK:   -7.02 KCAL/MOL
REMARK 924 INTRA-LIGAND FREE ENERGY PREDICTED BY IDOCK:   -0.17 KCAL/MOL
REMARK 927      BINDING AFFINITY PREDICTED BY RF-SCORE:    0.00 PKD
ROOT
HETATM    1  C   UNL     1     -11.274  11.982  63.609  1.00  0.00    -0.450 C  
HETATM    2  O   UNL     1     -10.323  13.004  63.889  1.00  0.00    -0.382 OA 
ENDROOT
BRANCH   2   3
HETATM    3  C   UNL     1     -10.581  13.749  65.008  1.00  0.00    -0.389 A  
HETATM    4  C   UNL     1     -11.049  13.034  66.123  1.00  0.00    -0.311 A  
HETATM    5  C   UNL     1     -11.344  13.645  67.366  1.00  0.00    -0.315 A  
HETATM    6  C   UNL     1     -11.167  15.045  67.410  1.00  0.00    -0.335 A  
HETATM    7  C   UNL     1     -10.729  15.764  66.282  1.00  0.00    -0.282 A  
HETATM    8  S   UNL     1     -11.440  16.045  68.840  1.00  0.00    -0.334 SA 
HETATM    9  C   UNL     1     -12.024  14.869  70.030  1.00  0.00    -0.329 A  
HETATM   10  C   UNL     1     -10.441  15.124  65.085  1.00  0.00    -0.437 A  
HETATM   11  C   UNL     1     -12.160  13.488  69.769  1.00  0.00    -0.318 A  
HETATM   12  C   UNL     1     -12.645  12.722  70.860  1.00  0.00    -0.342 A  
HETATM   13  N   UNL     1     -11.811  12.909  68.502  1.00  0.00    -0.323 NA 
HETATM   14  C   UNL     1     -12.341  15.426  71.292  1.00  0.00    -0.446 A  
HETATM   15  C   UNL     1     -12.959  13.284  72.112  1.00  0.00    -0.395 A  
HETATM   16  C   UNL     1     -12.800  14.641  72.326  1.00  0.00    -0.420 A  
BRANCH  13  17
HETATM   17  C   UNL     1     -11.865  11.430  68.363  1.00  0.00    -0.274 C  
HETATM   18  C   UNL     1      -9.416  11.142  69.064  1.00  0.00    -0.058 C  
HETATM   19  C   UNL     1     -10.497  10.771  68.016  1.00  0.00    -0.225 C  
HETATM   20  C   UNL     1     -10.721   9.255  67.891  1.00  0.00    -0.248 C  
BRANCH  18  21
HETATM   21  N   UNL     1      -7.992  10.807  68.820  1.00  0.00    -0.128 NA 
HETATM   22  C   UNL     1      -7.127  11.990  68.813  1.00  0.00    -0.111 C  
HETATM   23  C   UNL     1      -7.555   9.914  69.911  1.00  0.00    -0.163 C  
ENDBRANCH  18  21
ENDBRANCH  13  17
ENDBRANCH   2   3
TORSDOF 3
ENDMDL
MODEL       14
REMARK 921   NORMALIZED FREE ENERGY PREDICTED BY IDOCK:   -5.84 KCAL/MOL
REMARK 922        TOTAL FREE ENERGY PREDICTED BY IDOCK:   -7.06 KCAL/MOL
REMARK 923 INTER-LIGAND FREE ENERGY PREDICTED BY IDOCK:   -6.73 KCAL/MOL
REMARK 924 INTRA-LIGAND FREE ENERGY PREDICTED BY IDOCK:   -0.33 KCAL/MOL
REMARK 927      BINDING AFFINITY PREDICTED BY RF-SCORE:    0.00 PKD
ROOT
HETATM    1  C   UNL     1      -7.403  18.658  65.983  1.00  0.00    -0.241 C  
HETATM    2  O   UNL     1      -8.032  17.408  65.719  1.00  0.00    -0.538 OA 
ENDROOT
BRANCH   2   3
HETATM    3  C   UNL     1      -8.969  17.022  66.640  1.00  0.00    -0.254 A  
HETATM    4  C   UNL     1      -9.016  15.648  66.925  1.00  0.00    -0.267 A  
HETATM    5  C   UNL     1      -9.909  15.082  67.867  1.00  0.00    -0.217 A  
HETATM    6  C   UNL     1     -10.787  15.994  68.492  1.00  0.00    -0.304 A  
HETATM    7  C   UNL     1     -10.761  17.366  68.182  1.00  0.00    -0.343 A  
HETATM    8  S   UNL     1     -11.980  15.556  69.719  1.00  0.00    -0.343 SA 
HETATM    9  C   UNL     1     -11.795  13.796  69.829  1.00  0.00    -0.331 A  
HETATM   10  C   UNL     1      -9.862  17.881  67.258  1.00  0.00    -0.309 A  
HETATM   11  C   UNL     1     -10.856  13.057  69.077  1.00  0.00    -0.155 A  
HETATM   12  C   UNL     1     -10.873  11.658  69.316  1.00  0.00    -0.203 A  
HETATM   13  N   UNL     1      -9.944  13.681  68.160  1.00  0.00    -0.240 NA 
HETATM   14  C   UNL     1     -12.669  13.175  70.753  1.00  0.00    -0.260 A  
HETATM   15  C   UNL     1     -11.747  11.049  70.236  1.00  0.00    -0.445 A  
HETATM   16  C   UNL     1     -12.643  11.815  70.960  1.00  0.00    -0.409 A  
BRANCH  13  17
HETATM   17  C   UNL     1      -8.907  12.837  67.511  1.00  0.00    -0.187 C  
HETATM   18  C   UNL     1     -10.291  12.552  65.372  1.00  0.00    -0.282 C  
HETATM   19  C   UNL     1      -9.468  11.826  66.468  1.00  0.00    -0.225 C  
HETATM   20  C   UNL     1      -8.284  11.025  65.902  1.00  0.00    -0.100 C  
BRANCH  18  21
HETATM   21  N   UNL     1     -11.097  11.770  64.402  1.00  0.00    -0.330 NA 
HETATM   22  C   UNL     1     -12.434  12.334  64.196  1.00  0.00    -0.434 C  
HETATM   23  C   UNL     1     -10.377  11.790  63.113  1.00  0.00    -0.317 C  
ENDBRANCH  18  21
ENDBRANCH  13  17
ENDBRANCH   2   3
TORSDOF 3
ENDMDL
MODEL       15
REMARK 921   NORMALIZED FREE ENERGY PREDICTED BY IDOCK:   -5.77 KCAL/MOL
REMARK 922        TOTAL FREE ENERGY PREDICTED BY IDOCK:   -6.98 KCAL/MOL
REMARK 923 INTER-LIGAND FREE ENERGY PREDICTED BY IDOCK:   -7.31 KCAL/MOL
REMARK 924 INTRA-LIGAND FREE ENERGY PREDICTED BY IDOCK:    0.33 KCAL/MOL
REMARK 927      BINDING AFFINITY PREDICTED BY RF-SCORE:    0.00 PKD
ROOT
HETATM    1  C   UNL     1     -13.910   9.037  72.148  1.00  0.00    -0.466 C  
HETATM    2  O   UNL     1     -12.854   9.468  71.296  1.00  0.00    -0.328 OA 
ENDROOT
BRANCH   2   3
HETATM    3  C   UNL     1     -12.725  10.825  71.171  1.00  0.00    -0.431 A  
HETATM    4  C   UNL     1     -11.820  11.265  70.190  1.00  0.00    -0.449 A  
HETATM    5  C   UNL     1     -11.581  12.633  69.915  1.00  0.00    -0.177 A  
HETATM    6  C   UNL     1     -12.297  13.546  70.719  1.00  0.00    -0.363 A  
HETATM    7  C   UNL     1     -13.178  13.105  71.723  1.00  0.00    -0.494 A  
HETATM    8  S   UNL     1     -12.202  15.304  70.566  1.00  0.00    -0.402 SA 
HETATM    9  C   UNL     1     -10.993  15.517  69.287  1.00  0.00    -0.268 A  
HETATM   10  C   UNL     1     -13.390  11.753  71.954  1.00  0.00    -0.401 A  
HETATM   11  C   UNL     1     -10.361  14.448  68.617  1.00  0.00    -0.245 A  
HETATM   12  C   UNL     1      -9.425  14.838  67.625  1.00  0.00    -0.204 A  
HETATM   13  N   UNL     1     -10.665  13.075  68.906  1.00  0.00    -0.208 NA 
HETATM   14  C   UNL     1     -10.710  16.868  68.974  1.00  0.00    -0.308 A  
HETATM   15  C   UNL     1      -9.149  16.184  67.320  1.00  0.00    -0.215 A  
HETATM   16  C   UNL     1      -9.800  17.200  67.996  1.00  0.00    -0.283 A  
BRANCH  13  17
HETATM   17  C   UNL     1     -10.046  12.021  68.060  1.00  0.00    -0.198 C  
HETATM   18  C   UNL     1     -11.262  12.816  65.948  1.00  0.00    -0.300 C  
HETATM   19  C   UNL     1     -10.910  11.595  66.836  1.00  0.00    -0.322 C  
HETATM   20  C   UNL     1     -10.147  10.498  66.077  1.00  0.00    -0.317 C  
BRANCH  18  21
HETATM   21  N   UNL     1     -12.254  12.683  64.852  1.00  0.00    -0.449 NA 
HETATM   22  C   UNL     1     -12.783  13.976  64.410  1.00  0.00    -0.006 C  
HETATM   23  C   UNL     1     -11.569  12.043  63.712  1.00  0.00    -0.476 C  
ENDBRANCH  18  21
ENDBRANCH  13  17
ENDBRANCH   2   3
TORSDOF 3
ENDMDL
MODEL       16
REMARK 921   NORMALIZED FREE ENERGY PREDICTED BY IDOCK:   -5.66 KCAL/MOL
REMARK 922        TOTAL FREE ENERGY PREDICTED BY IDOCK:   -6.85 KCAL/MOL
REMARK 923 INTER-LIGAND FREE ENERGY PREDICTED BY IDOCK:   -6.58 KCAL/MOL
REMARK 924 INTRA-LIGAND FREE ENERGY PREDICTED BY IDOCK:   -0.28 KCAL/MOL
REMARK 927      BINDING AFFINITY PREDICTED BY RF-SCORE:    0.00 PKD
ROOT
HETATM    1  C   UNL     1     -11.202   8.682  71.994  1.00  0.00    -0.364 C  
HETATM    2  O   UNL     1      -9.894   9.009  71.536  1.00  0.00    -0.296 OA 
ENDROOT
BRANCH   2   3
HETATM    3  C   UNL     1      -9.773   9.164  70.181  1.00  0.00    -0.204 A  
HETATM    4  C   UNL     1     -10.571  10.168  69.608  1.00  0.00    -0.286 A  
HETATM    5  C   UNL     1     -10.554  10.476  68.226  1.00  0.00    -0.206 A  
HETATM    6  C   UNL     1      -9.694   9.679  67.439  1.00  0.00    -0.156 A  
HETATM    7  C   UNL     1      -8.920   8.653  68.009  1.00  0.00    -0.141 A  
HETATM    8  S   UNL     1      -9.467   9.870  65.697  1.00  0.00    -0.255 SA 
HETATM    9  C   UNL     1     -10.601  11.173  65.298  1.00  0.00    -0.238 A  
HETATM   10  C   UNL     1      -8.960   8.390  69.371  1.00  0.00    -0.153 A  
HETATM   11  C   UNL     1     -11.409  11.830  66.251  1.00  0.00    -0.287 A  
HETATM   12  C   UNL     1     -12.247  12.845  65.720  1.00  0.00    -0.498 A  
HETATM   13  N   UNL     1     -11.363  11.508  67.649  1.00  0.00    -0.329 NA 
HETATM   14  C   UNL     1     -10.630  11.518  63.926  1.00  0.00    -0.448 A  
HETATM   15  C   UNL     1     -12.270  13.182  64.354  1.00  0.00    -0.462 A  
HETATM   16  C   UNL     1     -11.454  12.517  63.457  1.00  0.00    -0.570 A  
BRANCH  13  17
HETATM   17  C   UNL     1     -12.153  12.341  68.593  1.00  0.00    -0.088 C  
HETATM   18  C   UNL     1     -10.496  14.294  68.463  1.00  0.00    -0.253 C  
HETATM   19  C   UNL     1     -11.305  13.364  69.405  1.00  0.00    -0.286 C  
HETATM   20  C   UNL     1     -12.256  14.132  70.338  1.00  0.00    -0.427 C  
BRANCH  18  21
HETATM   21  N   UNL     1      -9.458  15.197  69.015  1.00  0.00    -0.212 NA 
HETATM   22  C   UNL     1      -8.220  15.181  68.229  1.00  0.00    -0.144 C  
HETATM   23  C   UNL     1     -10.007  16.567  68.994  1.00  0.00    -0.275 C  
ENDBRANCH  18  21
ENDBRANCH  13  17
ENDBRANCH   2   3
TORSDOF 3
ENDMDL
MODEL       17
REMARK 921   NORMALIZED FREE ENERGY PREDICTED BY IDOCK:   -5.63 KCAL/MOL
REMARK 922        TOTAL FREE ENERGY PREDICTED BY IDOCK:   -6.81 KCAL/MOL
REMARK 923 INTER-LIGAND FREE ENERGY PREDICTED BY IDOCK:   -6.43 KCAL/MOL
REMARK 924 INTRA-LIGAND FREE ENERGY PREDICTED BY IDOCK:   -0.38 KCAL/MOL
REMARK 927      BINDING AFFINITY PREDICTED BY RF-SCORE:    0.00 PKD
ROOT
HETATM    1  C   UNL     1     -14.072   8.817  71.724  1.00  0.00    -0.401 C  
HETATM    2  O   UNL     1     -12.836   9.208  71.136  1.00  0.00    -0.289 OA 
ENDROOT
BRANCH   2   3
HETATM    3  C   UNL     1     -12.662  10.558  70.990  1.00  0.00    -0.408 A  
HETATM    4  C   UNL     1     -12.012  10.967  69.814  1.00  0.00    -0.428 A  
HETATM    5  C   UNL     1     -11.771  12.326  69.496  1.00  0.00    -0.332 A  
HETATM    6  C   UNL     1     -12.202  13.260  70.462  1.00  0.00    -0.340 A  
HETATM    7  C   UNL     1     -12.823  12.847  71.655  1.00  0.00    -0.368 A  
HETATM    8  S   UNL     1     -12.045  15.013  70.301  1.00  0.00    -0.355 SA 
HETATM    9  C   UNL     1     -11.192  15.185  68.757  1.00  0.00    -0.284 A  
HETATM   10  C   UNL     1     -13.049  11.505  71.924  1.00  0.00    -0.492 A  
HETATM   11  C   UNL     1     -10.816  14.097  67.941  1.00  0.00    -0.245 A  
HETATM   12  C   UNL     1     -10.143  14.455  66.745  1.00  0.00    -0.266 A  
HETATM   13  N   UNL     1     -11.118  12.737  68.289  1.00  0.00    -0.242 NA 
HETATM   14  C   UNL     1     -10.918  16.525  68.390  1.00  0.00    -0.348 A  
HETATM   15  C   UNL     1      -9.873  15.790  66.388  1.00  0.00    -0.296 A  
HETATM   16  C   UNL     1     -10.269  16.826  67.214  1.00  0.00    -0.292 A  
BRANCH  13  17
HETATM   17  C   UNL     1     -10.798  11.668  67.306  1.00  0.00    -0.256 C  
HETATM   18  C   UNL     1      -8.550  11.136  68.418  1.00  0.00    -0.152 C  
HETATM   19  C   UNL     1      -9.274  11.443  67.081  1.00  0.00    -0.170 C  
HETATM   20  C   UNL     1      -9.109  10.328  66.036  1.00  0.00    -0.189 C  
BRANCH  18  21
HETATM   21  N   UNL     1      -7.068  11.102  68.476  1.00  0.00    -0.074 NA 
HETATM   22  C   UNL     1      -6.452  12.259  67.821  1.00  0.00    -0.106 C  
HETATM   23  C   UNL     1      -6.682  11.109  69.900  1.00  0.00    -0.097 C  
ENDBRANCH  18  21
ENDBRANCH  13  17
ENDBRANCH   2   3
TORSDOF 3
ENDMDL
MODEL       18
REMARK 921   NORMALIZED FREE ENERGY PREDICTED BY IDOCK:   -5.58 KCAL/MOL
REMARK 922        TOTAL FREE ENERGY PREDICTED BY IDOCK:   -6.76 KCAL/MOL
REMARK 923 INTER-LIGAND FREE ENERGY PREDICTED BY IDOCK:   -6.42 KCAL/MOL
REMARK 924 INTRA-LIGAND FREE ENERGY PREDICTED BY IDOCK:   -0.34 KCAL/MOL
REMARK 927      BINDING AFFINITY PREDICTED BY RF-SCORE:    0.00 PKD
ROOT
HETATM    1  C   UNL     1      -8.826  10.707  62.605  1.00  0.00    -0.270 C  
HETATM    2  O   UNL     1     -10.076  10.504  63.255  1.00  0.00    -0.256 OA 
ENDROOT
BRANCH   2   3
HETATM    3  C   UNL     1     -10.432  11.477  64.150  1.00  0.00    -0.353 A  
HETATM    4  C   UNL     1     -10.745  11.032  65.445  1.00  0.00    -0.222 A  
HETATM    5  C   UNL     1     -11.112  11.907  66.496  1.00  0.00    -0.306 A  
HETATM    6  C   UNL     1     -11.174  13.274  66.152  1.00  0.00    -0.296 A  
HETATM    7  C   UNL     1     -10.891  13.715  64.847  1.00  0.00    -0.382 A  
HETATM    8  S   UNL     1     -11.580  14.573  67.279  1.00  0.00    -0.391 SA 
HETATM    9  C   UNL     1     -11.928  13.692  68.777  1.00  0.00    -0.359 A  
HETATM   10  C   UNL     1     -10.526  12.825  63.847  1.00  0.00    -0.402 A  
HETATM   11  C   UNL     1     -11.834  12.290  68.904  1.00  0.00    -0.303 A  
HETATM   12  C   UNL     1     -12.156  11.786  70.191  1.00  0.00    -0.398 A  
HETATM   13  N   UNL     1     -11.420  11.447  67.818  1.00  0.00    -0.434 NA 
HETATM   14  C   UNL     1     -12.307  14.518  69.863  1.00  0.00    -0.347 A  
HETATM   15  C   UNL     1     -12.532  12.614  71.265  1.00  0.00    -0.276 A  
HETATM   16  C   UNL     1     -12.602  13.985  71.098  1.00  0.00    -0.445 A  
BRANCH  13  17
HETATM   17  C   UNL     1     -11.225   9.998  68.082  1.00  0.00    -0.127 C  
HETATM   18  C   UNL     1      -8.929  10.369  69.162  1.00  0.00    -0.179 C  
HETATM   19  C   UNL     1      -9.734   9.551  68.118  1.00  0.00    -0.166 C  
HETATM   20  C   UNL     1      -9.701   8.037  68.384  1.00  0.00    -0.168 C  
BRANCH  18  21
HETATM   21  N   UNL     1      -7.451  10.265  69.214  1.00  0.00    -0.099 NA 
HETATM   22  C   UNL     1      -6.791  11.573  69.163  1.00  0.00    -0.112 C  
HETATM   23  C   UNL     1      -7.099   9.614  70.491  1.00  0.00    -0.132 C  
ENDBRANCH  18  21
ENDBRANCH  13  17
ENDBRANCH   2   3
TORSDOF 3
ENDMDL
MODEL       19
REMARK 921   NORMALIZED FREE ENERGY PREDICTED BY IDOCK:   -5.53 KCAL/MOL
REMARK 922        TOTAL FREE ENERGY PREDICTED BY IDOCK:   -6.70 KCAL/MOL
REMARK 923 INTER-LIGAND FREE ENERGY PREDICTED BY IDOCK:   -6.44 KCAL/MOL
REMARK 924 INTRA-LIGAND FREE ENERGY PREDICTED BY IDOCK:   -0.25 KCAL/MOL
REMARK 927      BINDING AFFINITY PREDICTED BY RF-SCORE:    0.00 PKD
ROOT
HETATM    1  C   UNL     1     -12.886  10.475  71.550  1.00  0.00    -0.463 C  
HETATM    2  O   UNL     1     -12.508  10.931  70.255  1.00  0.00    -0.312 OA 
ENDROOT
BRANCH   2   3
HETATM    3  C   UNL     1     -12.093  12.234  70.196  1.00  0.00    -0.287 A  
HETATM    4  C   UNL     1     -11.059  12.505  69.284  1.00  0.00    -0.203 A  
HETATM    5  C   UNL     1     -10.527  13.802  69.081  1.00  0.00    -0.021 A  
HETATM    6  C   UNL     1     -11.085  14.818  69.885  1.00  0.00    -0.233 A  
HETATM    7  C   UNL     1     -12.097  14.539  70.821  1.00  0.00    -0.398 A  
HETATM    8  S   UNL     1     -10.619  16.521  69.814  1.00  0.00    -0.204 SA 
HETATM    9  C   UNL     1      -9.318  16.517  68.610  1.00  0.00    -0.241 A  
HETATM   10  C   UNL     1     -12.598  13.255  70.982  1.00  0.00    -0.408 A  
HETATM   11  C   UNL     1      -8.882  15.361  67.928  1.00  0.00    -0.168 A  
HETATM   12  C   UNL     1      -7.827  15.578  67.005  1.00  0.00    -0.260 A  
HETATM   13  N   UNL     1      -9.480  14.073  68.141  1.00  0.00    -0.209 NA 
HETATM   14  C   UNL     1      -8.743  17.788  68.371  1.00  0.00    -0.292 A  
HETATM   15  C   UNL     1      -7.260  16.845  66.774  1.00  0.00    -0.278 A  
HETATM   16  C   UNL     1      -7.726  17.953  67.457  1.00  0.00    -0.217 A  
BRANCH  13  17
HETATM   17  C   UNL     1      -9.042  12.940  67.284  1.00  0.00    -0.208 C  
HETATM   18  C   UNL     1     -10.485  13.706  65.308  1.00  0.00    -0.351 C  
HETATM   19  C   UNL     1     -10.087  12.511  66.212  1.00  0.00    -0.264 C  
HETATM   20  C   UNL     1      -9.497  11.329  65.425  1.00  0.00    -0.251 C  
BRANCH  18  21
HETATM   21  N   UNL     1     -11.621  13.583  64.362  1.00  0.00    -0.381 NA 
HETATM   22  C   UNL     1     -12.652  12.655  64.837  1.00  0.00    -0.450 C  
HETATM   23  C   UNL     1     -12.226  14.922  64.221  1.00  0.00    -0.344 C  
ENDBRANCH  18  21
ENDBRANCH  13  17
ENDBRANCH   2   3
TORSDOF 3
ENDMDL
MODEL       20
REMARK 921   NORMALIZED FREE ENERGY PREDICTED BY IDOCK:   -5.51 KCAL/MOL
REMARK 922        TOTAL FREE ENERGY PREDICTED BY IDOCK:   -6.68 KCAL/MOL
REMARK 923 INTER-LIGAND FREE ENERGY PREDICTED BY IDOCK:   -6.36 KCAL/MOL
REMARK 924 INTRA-LIGAND FREE ENERGY PREDICTED BY IDOCK:   -0.33 KCAL/MOL
REMARK 927      BINDING AFFINITY PREDICTED BY RF-SCORE:    0.00 PKD
ROOT
HETATM    1  C   UNL     1     -13.259  10.016  71.484  1.00  0.00    -0.401 C  
HETATM    2  O   UNL     1     -12.219  10.838  70.964  1.00  0.00    -0.342 OA 
ENDROOT
BRANCH   2   3
HETATM    3  C   UNL     1     -11.483  10.276  69.956  1.00  0.00    -0.296 A  
HETATM    4  C   UNL     1     -11.550  10.927  68.713  1.00  0.00    -0.378 A  
HETATM    5  C   UNL     1     -10.834  10.491  67.571  1.00  0.00    -0.301 A  
HETATM    6  C   UNL     1     -10.059   9.325  67.751  1.00  0.00    -0.204 A  
HETATM    7  C   UNL     1     -10.019   8.656  68.987  1.00  0.00    -0.197 A  
HETATM    8  S   UNL     1      -9.055   8.587  66.499  1.00  0.00    -0.189 SA 
HETATM    9  C   UNL     1      -9.372   9.617  65.091  1.00  0.00    -0.259 A  
HETATM   10  C   UNL     1     -10.728   9.122  70.084  1.00  0.00    -0.263 A  
HETATM   11  C   UNL     1     -10.224  10.742  65.116  1.00  0.00    -0.298 A  
HETATM   12  C   UNL     1     -10.338  11.428  63.880  1.00  0.00    -0.434 A  
HETATM   13  N   UNL     1     -10.899  11.167  66.310  1.00  0.00    -0.242 NA 
HETATM   14  C   UNL     1      -8.686   9.224  63.916  1.00  0.00    -0.193 A  
HETATM   15  C   UNL     1      -9.653  11.030  62.716  1.00  0.00    -0.337 A  
HETATM   16  C   UNL     1      -8.821   9.926  62.740  1.00  0.00    -0.242 A  
BRANCH  13  17
HETATM   17  C   UNL     1     -11.670  12.437  66.272  1.00  0.00    -0.395 C  
HETATM   18  C   UNL     1      -9.578  13.872  66.646  1.00  0.00    -0.289 C  
HETATM   19  C   UNL     1     -11.036  13.594  67.099  1.00  0.00    -0.299 C  
HETATM   20  C   UNL     1     -11.951  14.823  66.972  1.00  0.00    -0.225 C  
BRANCH  18  21
HETATM   21  N   UNL     1      -8.711  14.780  67.435  1.00  0.00    -0.186 NA 
HETATM   22  C   UNL     1      -7.565  14.087  68.032  1.00  0.00    -0.143 C  
HETATM   23  C   UNL     1      -8.203  15.816  66.515  1.00  0.00    -0.243 C  
ENDBRANCH  18  21
ENDBRANCH  13  17
ENDBRANCH   2   3
TORSDOF 3
ENDMDL
MODEL       21
REMARK 921   NORMALIZED FREE ENERGY PREDICTED BY IDOCK:   -5.50 KCAL/MOL
REMARK 922        TOTAL FREE ENERGY PREDICTED BY IDOCK:   -6.67 KCAL/MOL
REMARK 923 INTER-LIGAND FREE ENERGY PREDICTED BY IDOCK:   -6.37 KCAL/MOL
REMARK 924 INTRA-LIGAND FREE ENERGY PREDICTED BY IDOCK:   -0.30 KCAL/MOL
REMARK 927      BINDING AFFINITY PREDICTED BY RF-SCORE:    0.00 PKD
ROOT
HETATM    1  C   UNL     1      -8.332  11.395  66.539  1.00  0.00    -0.164 C  
HETATM    2  O   UNL     1      -7.307  11.750  67.462  1.00  0.00    -0.109 OA 
ENDROOT
BRANCH   2   3
HETATM    3  C   UNL     1      -7.180  13.092  67.702  1.00  0.00    -0.159 A  
HETATM    4  C   UNL     1      -8.186  13.908  67.159  1.00  0.00    -0.128 A  
HETATM    5  C   UNL     1      -8.219  15.314  67.330  1.00  0.00    -0.184 A  
HETATM    6  C   UNL     1      -7.145  15.859  68.066  1.00  0.00    -0.130 A  
HETATM    7  C   UNL     1      -6.121  15.044  68.581  1.00  0.00    -0.087 A  
HETATM    8  S   UNL     1      -6.959  17.575  68.444  1.00  0.00    -0.220 SA 
HETATM    9  C   UNL     1      -8.347  18.307  67.621  1.00  0.00    -0.247 A  
HETATM   10  C   UNL     1      -6.131  13.669  68.398  1.00  0.00    -0.096 A  
HETATM   11  C   UNL     1      -9.309  17.569  66.897  1.00  0.00    -0.269 A  
HETATM   12  C   UNL     1     -10.341  18.350  66.315  1.00  0.00    -0.440 A  
HETATM   13  N   UNL     1      -9.254  16.139  66.783  1.00  0.00    -0.217 NA 
HETATM   14  C   UNL     1      -8.428  19.714  67.753  1.00  0.00    -0.358 A  
HETATM   15  C   UNL     1     -10.413  19.749  66.450  1.00  0.00    -0.618 A  
HETATM   16  C   UNL     1      -9.453  20.429  67.178  1.00  0.00    -0.567 A  
BRANCH  13  17
HETATM   17  C   UNL     1     -10.380  15.439  66.112  1.00  0.00    -0.313 C  
HETATM   18  C   UNL     1     -11.766  15.325  68.267  1.00  0.00    -0.301 C  
HETATM   19  C   UNL     1     -11.217  14.526  67.056  1.00  0.00    -0.342 C  
HETATM   20  C   UNL     1     -12.324  13.867  66.217  1.00  0.00    -0.489 C  
BRANCH  18  21
HETATM   21  N   UNL     1     -12.405  14.616  69.402  1.00  0.00    -0.221 NA 
HETATM   22  C   UNL     1     -11.664  13.418  69.808  1.00  0.00    -0.286 C  
HETATM   23  C   UNL     1     -12.441  15.552  70.543  1.00  0.00    -0.427 C  
ENDBRANCH  18  21
ENDBRANCH  13  17
ENDBRANCH   2   3
TORSDOF 3
ENDMDL
MODEL       22
REMARK 921   NORMALIZED FREE ENERGY PREDICTED BY IDOCK:   -5.48 KCAL/MOL
REMARK 922        TOTAL FREE ENERGY PREDICTED BY IDOCK:   -6.64 KCAL/MOL
REMARK 923 INTER-LIGAND FREE ENERGY PREDICTED BY IDOCK:   -6.51 KCAL/MOL
REMARK 924 INTRA-LIGAND FREE ENERGY PREDICTED BY IDOCK:   -0.14 KCAL/MOL
REMARK 927      BINDING AFFINITY PREDICTED BY RF-SCORE:    0.00 PKD
ROOT
HETATM    1  C   UNL     1     -13.126  13.626  71.529  1.00  0.00    -0.350 C  
HETATM    2  O   UNL     1     -13.508  12.409  72.162  1.00  0.00    -0.525 OA 
ENDROOT
BRANCH   2   3
HETATM    3  C   UNL     1     -12.938  11.278  71.641  1.00  0.00    -0.432 A  
HETATM    4  C   UNL     1     -11.976  11.485  70.639  1.00  0.00    -0.391 A  
HETATM    5  C   UNL     1     -11.274  10.428  70.010  1.00  0.00    -0.316 A  
HETATM    6  C   UNL     1     -11.627   9.129  70.436  1.00  0.00    -0.146 A  
HETATM    7  C   UNL     1     -12.613   8.922  71.417  1.00  0.00    -0.351 A  
HETATM    8  S   UNL     1     -10.888   7.642  69.832  1.00  0.00    -0.202 SA 
HETATM    9  C   UNL     1      -9.761   8.240  68.602  1.00  0.00    -0.156 A  
HETATM   10  C   UNL     1     -13.271   9.987  72.015  1.00  0.00    -0.545 A  
HETATM   11  C   UNL     1      -9.578   9.608  68.302  1.00  0.00    -0.140 A  
HETATM   12  C   UNL     1      -8.627   9.870  67.283  1.00  0.00    -0.125 A  
HETATM   13  N   UNL     1     -10.287  10.646  68.995  1.00  0.00    -0.207 NA 
HETATM   14  C   UNL     1      -9.035   7.225  67.934  1.00  0.00    -0.130 A  
HETATM   15  C   UNL     1      -7.910   8.854  66.624  1.00  0.00    -0.100 A  
HETATM   16  C   UNL     1      -8.114   7.528  66.957  1.00  0.00    -0.117 A  
BRANCH  13  17
HETATM   17  C   UNL     1      -9.934  12.060  68.701  1.00  0.00    -0.142 C  
HETATM   18  C   UNL     1     -11.832  12.317  66.996  1.00  0.00    -0.259 C  
HETATM   19  C   UNL     1     -10.320  12.529  67.267  1.00  0.00    -0.228 C  
HETATM   20  C   UNL     1      -9.879  13.994  67.114  1.00  0.00    -0.240 C  
BRANCH  18  21
HETATM   21  N   UNL     1     -12.378  12.489  65.628  1.00  0.00    -0.638 NA 
HETATM   22  C   UNL     1     -12.682  13.889  65.314  1.00  0.00    -0.449 C  
HETATM   23  C   UNL     1     -11.354  12.010  64.680  1.00  0.00    -0.318 C  
ENDBRANCH  18  21
ENDBRANCH  13  17
ENDBRANCH   2   3
TORSDOF 3
ENDMDL
MODEL       23
REMARK 921   NORMALIZED FREE ENERGY PREDICTED BY IDOCK:   -5.48 KCAL/MOL
REMARK 922        TOTAL FREE ENERGY PREDICTED BY IDOCK:   -6.64 KCAL/MOL
REMARK 923 INTER-LIGAND FREE ENERGY PREDICTED BY IDOCK:   -6.29 KCAL/MOL
REMARK 924 INTRA-LIGAND FREE ENERGY PREDICTED BY IDOCK:   -0.35 KCAL/MOL
REMARK 927      BINDING AFFINITY PREDICTED BY RF-SCORE:    0.00 PKD
ROOT
HETATM    1  C   UNL     1     -11.179  16.043  64.358  1.00  0.00    -0.205 C  
HETATM    2  O   UNL     1     -10.202  16.130  65.390  1.00  0.00    -0.479 OA 
ENDROOT
BRANCH   2   3
HETATM    3  C   UNL     1     -10.650  15.812  66.644  1.00  0.00    -0.307 A  
HETATM    4  C   UNL     1     -10.935  14.454  66.864  1.00  0.00    -0.308 A  
HETATM    5  C   UNL     1     -11.386  13.950  68.108  1.00  0.00    -0.295 A  
HETATM    6  C   UNL     1     -11.565  14.914  69.123  1.00  0.00    -0.307 A  
HETATM    7  C   UNL     1     -11.310  16.278  68.891  1.00  0.00    -0.317 A  
HETATM    8  S   UNL     1     -12.094  14.550  70.769  1.00  0.00    -0.349 SA 
HETATM    9  C   UNL     1     -12.377  12.801  70.707  1.00  0.00    -0.287 A  
HETATM   10  C   UNL     1     -10.860  16.729  67.659  1.00  0.00    -0.252 A  
HETATM   11  C   UNL     1     -12.160  12.010  69.558  1.00  0.00    -0.212 A  
HETATM   12  C   UNL     1     -12.449  10.631  69.723  1.00  0.00    -0.187 A  
HETATM   13  N   UNL     1     -11.665  12.562  68.329  1.00  0.00    -0.327 NA 
HETATM   14  C   UNL     1     -12.836  12.242  71.924  1.00  0.00    -0.318 A  
HETATM   15  C   UNL     1     -12.906  10.084  70.937  1.00  0.00    -0.408 A  
HETATM   16  C   UNL     1     -13.094  10.895  72.041  1.00  0.00    -0.462 A  
BRANCH  13  17
HETATM   17  C   UNL     1     -11.346  11.632  67.214  1.00  0.00    -0.305 C  
HETATM   18  C   UNL     1      -9.111  10.936  68.260  1.00  0.00    -0.158 C  
HETATM   19  C   UNL     1      -9.822  11.426  66.972  1.00  0.00    -0.214 C  
HETATM   20  C   UNL     1      -9.658  10.459  65.788  1.00  0.00    -0.269 C  
BRANCH  18  21
HETATM   21  N   UNL     1      -7.630  10.882  68.322  1.00  0.00    -0.095 NA 
HETATM   22  C   UNL     1      -7.010  12.202  68.167  1.00  0.00    -0.082 C  
HETATM   23  C   UNL     1      -7.263  10.346  69.648  1.00  0.00    -0.148 C  
ENDBRANCH  18  21
ENDBRANCH  13  17
ENDBRANCH   2   3
TORSDOF 3
ENDMDL
MODEL       24
REMARK 921   NORMALIZED FREE ENERGY PREDICTED BY IDOCK:   -5.47 KCAL/MOL
REMARK 922        TOTAL FREE ENERGY PREDICTED BY IDOCK:   -6.63 KCAL/MOL
REMARK 923 INTER-LIGAND FREE ENERGY PREDICTED BY IDOCK:   -6.26 KCAL/MOL
REMARK 924 INTRA-LIGAND FREE ENERGY PREDICTED BY IDOCK:   -0.37 KCAL/MOL
REMARK 927      BINDING AFFINITY PREDICTED BY RF-SCORE:    0.00 PKD
ROOT
HETATM    1  C   UNL     1      -6.551  11.613  69.419  1.00  0.00    -0.115 C  
HETATM    2  O   UNL     1      -6.195  12.832  70.065  1.00  0.00    -0.130 OA 
ENDROOT
BRANCH   2   3
HETATM    3  C   UNL     1      -6.279  13.951  69.281  1.00  0.00    -0.107 A  
HETATM    4  C   UNL     1      -7.514  14.620  69.301  1.00  0.00    -0.132 A  
HETATM    5  C   UNL     1      -7.765  15.804  68.567  1.00  0.00    -0.137 A  
HETATM    6  C   UNL     1      -6.691  16.265  67.776  1.00  0.00    -0.142 A  
HETATM    7  C   UNL     1      -5.465  15.576  67.732  1.00  0.00    -0.130 A  
HETATM    8  S   UNL     1      -6.731  17.728  66.786  1.00  0.00    -0.209 SA 
HETATM    9  C   UNL     1      -8.391  18.306  67.016  1.00  0.00    -0.248 A  
HETATM   10  C   UNL     1      -5.258  14.423  68.475  1.00  0.00    -0.100 A  
HETATM   11  C   UNL     1      -9.338  17.667  67.845  1.00  0.00    -0.268 A  
HETATM   12  C   UNL     1     -10.609  18.295  67.888  1.00  0.00    -0.392 A  
HETATM   13  N   UNL     1      -9.024  16.487  68.600  1.00  0.00    -0.228 NA 
HETATM   14  C   UNL     1      -8.701  19.487  66.299  1.00  0.00    -0.383 A  
HETATM   15  C   UNL     1     -10.909  19.469  67.171  1.00  0.00    -0.555 A  
HETATM   16  C   UNL     1      -9.946  20.067  66.379  1.00  0.00    -0.601 A  
BRANCH  13  17
HETATM   17  C   UNL     1     -10.044  15.961  69.545  1.00  0.00    -0.277 C  
HETATM   18  C   UNL     1     -10.940  14.269  67.839  1.00  0.00    -0.267 C  
HETATM   19  C   UNL     1     -11.313  15.381  68.854  1.00  0.00    -0.322 C  
HETATM   20  C   UNL     1     -12.270  14.895  69.955  1.00  0.00    -0.381 C  
BRANCH  18  21
HETATM   21  N   UNL     1     -11.964  13.729  66.911  1.00  0.00    -0.411 NA 
HETATM   22  C   UNL     1     -11.959  14.405  65.611  1.00  0.00    -0.354 C  
HETATM   23  C   UNL     1     -11.657  12.301  66.698  1.00  0.00    -0.375 C  
ENDBRANCH  18  21
ENDBRANCH  13  17
ENDBRANCH   2   3
TORSDOF 3
ENDMDL
MODEL       25
REMARK 921   NORMALIZED FREE ENERGY PREDICTED BY IDOCK:   -5.45 KCAL/MOL
REMARK 922        TOTAL FREE ENERGY PREDICTED BY IDOCK:   -6.60 KCAL/MOL
REMARK 923 INTER-LIGAND FREE ENERGY PREDICTED BY IDOCK:   -6.27 KCAL/MOL
REMARK 924 INTRA-LIGAND FREE ENERGY PREDICTED BY IDOCK:   -0.33 KCAL/MOL
REMARK 927      BINDING AFFINITY PREDICTED BY RF-SCORE:    0.00 PKD
ROOT
HETATM    1  C   UNL     1      -5.474  13.252  71.127  1.00  0.00    -0.197 C  
HETATM    2  O   UNL     1      -6.038  14.045  70.087  1.00  0.00    -0.137 OA 
ENDROOT
BRANCH   2   3
HETATM    3  C   UNL     1      -6.751  13.351  69.147  1.00  0.00    -0.099 A  
HETATM    4  C   UNL     1      -7.728  14.087  68.456  1.00  0.00    -0.139 A  
HETATM    5  C   UNL     1      -8.539  13.529  67.438  1.00  0.00    -0.208 A  
HETATM    6  C   UNL     1      -8.326  12.159  67.175  1.00  0.00    -0.183 A  
HETATM    7  C   UNL     1      -7.369  11.416  67.890  1.00  0.00    -0.093 A  
HETATM    8  S   UNL     1      -9.184  11.230  65.941  1.00  0.00    -0.210 SA 
HETATM    9  C   UNL     1     -10.325  12.417  65.285  1.00  0.00    -0.282 A  
HETATM   10  C   UNL     1      -6.588  12.004  68.875  1.00  0.00    -0.089 A  
HETATM   11  C   UNL     1     -10.398  13.759  65.718  1.00  0.00    -0.307 A  
HETATM   12  C   UNL     1     -11.382  14.542  65.061  1.00  0.00    -0.377 A  
HETATM   13  N   UNL     1      -9.527  14.288  66.729  1.00  0.00    -0.264 NA 
HETATM   14  C   UNL     1     -11.167  11.913  64.266  1.00  0.00    -0.424 A  
HETATM   15  C   UNL     1     -12.217  14.032  64.049  1.00  0.00    -0.395 A  
HETATM   16  C   UNL     1     -12.102  12.713  63.649  1.00  0.00    -0.632 A  
BRANCH  13  17
HETATM   17  C   UNL     1      -9.591  15.742  67.027  1.00  0.00    -0.226 C  
HETATM   18  C   UNL     1     -10.842  15.369  69.233  1.00  0.00    -0.253 C  
HETATM   19  C   UNL     1     -10.810  16.161  67.901  1.00  0.00    -0.332 C  
HETATM   20  C   UNL     1     -10.744  17.684  68.106  1.00  0.00    -0.312 C  
BRANCH  18  21
HETATM   21  N   UNL     1     -12.029  15.446  70.121  1.00  0.00    -0.324 NA 
HETATM   22  C   UNL     1     -12.592  14.127  70.425  1.00  0.00    -0.332 C  
HETATM   23  C   UNL     1     -11.595  16.072  71.385  1.00  0.00    -0.455 C  
ENDBRANCH  18  21
ENDBRANCH  13  17
ENDBRANCH   2   3
TORSDOF 3
ENDMDL
MODEL       26
REMARK 921   NORMALIZED FREE ENERGY PREDICTED BY IDOCK:   -5.45 KCAL/MOL
REMARK 922        TOTAL FREE ENERGY PREDICTED BY IDOCK:   -6.60 KCAL/MOL
REMARK 923 INTER-LIGAND FREE ENERGY PREDICTED BY IDOCK:   -6.52 KCAL/MOL
REMARK 924 INTRA-LIGAND FREE ENERGY PREDICTED BY IDOCK:   -0.08 KCAL/MOL
REMARK 927      BINDING AFFINITY PREDICTED BY RF-SCORE:    0.00 PKD
ROOT
HETATM    1  C   UNL     1     -13.069  14.889  73.204  1.00  0.00    -0.507 C  
HETATM    2  O   UNL     1     -13.397  13.703  72.486  1.00  0.00    -0.508 OA 
ENDROOT
BRANCH   2   3
HETATM    3  C   UNL     1     -12.721  13.531  71.308  1.00  0.00    -0.348 A  
HETATM    4  C   UNL     1     -12.471  12.200  70.936  1.00  0.00    -0.374 A  
HETATM    5  C   UNL     1     -11.805  11.843  69.739  1.00  0.00    -0.340 A  
HETATM    6  C   UNL     1     -11.371  12.924  68.941  1.00  0.00    -0.288 A  
HETATM    7  C   UNL     1     -11.594  14.257  69.331  1.00  0.00    -0.354 A  
HETATM    8  S   UNL     1     -10.539  12.756  67.392  1.00  0.00    -0.230 SA 
HETATM    9  C   UNL     1     -10.370  10.999  67.231  1.00  0.00    -0.211 A  
HETATM   10  C   UNL     1     -12.260  14.563  70.509  1.00  0.00    -0.399 A  
HETATM   11  C   UNL     1     -10.858  10.073  68.178  1.00  0.00    -0.255 A  
HETATM   12  C   UNL     1     -10.618   8.712  67.856  1.00  0.00    -0.223 A  
HETATM   13  N   UNL     1     -11.563  10.483  69.360  1.00  0.00    -0.259 NA 
HETATM   14  C   UNL     1      -9.704  10.584  66.053  1.00  0.00    -0.257 A  
HETATM   15  C   UNL     1      -9.953   8.308  66.683  1.00  0.00    -0.348 A  
HETATM   16  C   UNL     1      -9.501   9.251  65.778  1.00  0.00    -0.329 A  
BRANCH  13  17
HETATM   17  C   UNL     1     -12.151   9.433  70.231  1.00  0.00     0.136 C  
HETATM   18  C   UNL     1     -10.063   9.306  71.713  1.00  0.00    -0.059 C  
HETATM   19  C   UNL     1     -11.102   8.494  70.898  1.00  0.00    -0.295 C  
HETATM   20  C   UNL     1     -11.863   7.463  71.747  1.00  0.00    -0.327 C  
BRANCH  18  21
HETATM   21  N   UNL     1      -8.851   8.642  72.252  1.00  0.00    -0.364 NA 
HETATM   22  C   UNL     1      -9.076   8.039  73.569  1.00  0.00    -0.259 C  
HETATM   23  C   UNL     1      -8.476   7.573  71.306  1.00  0.00    -0.116 C  
ENDBRANCH  18  21
ENDBRANCH  13  17
ENDBRANCH   2   3
TORSDOF 3
ENDMDL
MODEL       27
REMARK 921   NORMALIZED FREE ENERGY PREDICTED BY IDOCK:   -5.42 KCAL/MOL
REMARK 922        TOTAL FREE ENERGY PREDICTED BY IDOCK:   -6.57 KCAL/MOL
REMARK 923 INTER-LIGAND FREE ENERGY PREDICTED BY IDOCK:   -6.44 KCAL/MOL
REMARK 924 INTRA-LIGAND FREE ENERGY PREDICTED BY IDOCK:   -0.13 KCAL/MOL
REMARK 927      BINDING AFFINITY PREDICTED BY RF-SCORE:    0.00 PKD
ROOT
HETATM    1  C   UNL     1     -12.717  12.037  63.405  1.00  0.00    -0.398 C  
HETATM    2  O   UNL     1     -12.738  13.442  63.635  1.00  0.00    -0.698 OA 
ENDROOT
BRANCH   2   3
HETATM    3  C   UNL     1     -11.748  13.913  64.454  1.00  0.00    -0.404 A  
HETATM    4  C   UNL     1     -11.061  12.942  65.203  1.00  0.00    -0.321 A  
HETATM    5  C   UNL     1      -9.996  13.254  66.082  1.00  0.00    -0.293 A  
HETATM    6  C   UNL     1      -9.679  14.625  66.187  1.00  0.00    -0.319 A  
HETATM    7  C   UNL     1     -10.388  15.599  65.461  1.00  0.00    -0.421 A  
HETATM    8  S   UNL     1      -8.380  15.280  67.191  1.00  0.00    -0.231 SA 
HETATM    9  C   UNL     1      -7.744  13.833  67.993  1.00  0.00    -0.152 A  
HETATM   10  C   UNL     1     -11.420  15.250  64.602  1.00  0.00    -0.356 A  
HETATM   11  C   UNL     1      -8.235  12.529  67.766  1.00  0.00    -0.166 A  
HETATM   12  C   UNL     1      -7.584  11.511  68.511  1.00  0.00    -0.130 A  
HETATM   13  N   UNL     1      -9.293  12.258  66.835  1.00  0.00    -0.204 NA 
HETATM   14  C   UNL     1      -6.679  14.086  68.891  1.00  0.00    -0.105 A  
HETATM   15  C   UNL     1      -6.526  11.772  69.402  1.00  0.00    -0.120 A  
HETATM   16  C   UNL     1      -6.071  13.065  69.586  1.00  0.00    -0.122 A  
BRANCH  13  17
HETATM   17  C   UNL     1      -9.654  10.842  66.567  1.00  0.00    -0.183 C  
HETATM   18  C   UNL     1     -11.311  10.756  68.521  1.00  0.00    -0.295 C  
HETATM   19  C   UNL     1     -10.117  10.052  67.826  1.00  0.00    -0.222 C  
HETATM   20  C   UNL     1     -10.437   8.612  67.391  1.00  0.00    -0.351 C  
BRANCH  18  21
HETATM   21  N   UNL     1     -11.774  10.302  69.855  1.00  0.00    -0.245 NA 
HETATM   22  C   UNL     1     -10.699   9.703  70.651  1.00  0.00    -0.322 C  
HETATM   23  C   UNL     1     -12.284  11.486  70.572  1.00  0.00    -0.377 C  
ENDBRANCH  18  21
ENDBRANCH  13  17
ENDBRANCH   2   3
TORSDOF 3
ENDMDL
MODEL       28
REMARK 921   NORMALIZED FREE ENERGY PREDICTED BY IDOCK:   -5.41 KCAL/MOL
REMARK 922        TOTAL FREE ENERGY PREDICTED BY IDOCK:   -6.56 KCAL/MOL
REMARK 923 INTER-LIGAND FREE ENERGY PREDICTED BY IDOCK:   -6.17 KCAL/MOL
REMARK 924 INTRA-LIGAND FREE ENERGY PREDICTED BY IDOCK:   -0.39 KCAL/MOL
REMARK 927      BINDING AFFINITY PREDICTED BY RF-SCORE:    0.00 PKD
ROOT
HETATM    1  C   UNL     1      -9.535  11.021  62.801  1.00  0.00    -0.334 C  
HETATM    2  O   UNL     1      -8.771   9.898  63.226  1.00  0.00    -0.183 OA 
ENDROOT
BRANCH   2   3
HETATM    3  C   UNL     1      -9.015   9.479  64.506  1.00  0.00    -0.212 A  
HETATM    4  C   UNL     1      -9.830  10.321  65.280  1.00  0.00    -0.372 A  
HETATM    5  C   UNL     1     -10.199  10.028  66.615  1.00  0.00    -0.223 A  
HETATM    6  C   UNL     1      -9.664   8.833  67.143  1.00  0.00    -0.191 A  
HETATM    7  C   UNL     1      -8.822   8.007  66.378  1.00  0.00    -0.183 A  
HETATM    8  S   UNL     1      -9.986   8.224  68.770  1.00  0.00    -0.187 SA 
HETATM    9  C   UNL     1     -11.005   9.497  69.466  1.00  0.00    -0.195 A  
HETATM   10  C   UNL     1      -8.492   8.326  65.068  1.00  0.00    -0.141 A  
HETATM   11  C   UNL     1     -11.409  10.652  68.763  1.00  0.00    -0.277 A  
HETATM   12  C   UNL     1     -12.224  11.545  69.505  1.00  0.00    -0.287 A  
HETATM   13  N   UNL     1     -11.040  10.887  67.395  1.00  0.00    -0.310 NA 
HETATM   14  C   UNL     1     -11.400   9.260  70.804  1.00  0.00    -0.349 A  
HETATM   15  C   UNL     1     -12.611  11.302  70.837  1.00  0.00    -0.467 A  
HETATM   16  C   UNL     1     -12.199  10.151  71.483  1.00  0.00    -0.473 A  
BRANCH  13  17
HETATM   17  C   UNL     1     -11.619  12.065  66.699  1.00  0.00    -0.319 C  
HETATM   18  C   UNL     1      -9.504  13.473  67.044  1.00  0.00    -0.251 C  
HETATM   19  C   UNL     1     -11.049  13.433  67.178  1.00  0.00    -0.303 C  
HETATM   20  C   UNL     1     -11.752  14.544  66.381  1.00  0.00    -0.372 C  
BRANCH  18  21
HETATM   21  N   UNL     1      -8.731  14.590  67.641  1.00  0.00    -0.173 NA 
HETATM   22  C   UNL     1      -9.235  14.983  68.960  1.00  0.00    -0.205 C  
HETATM   23  C   UNL     1      -7.337  14.131  67.791  1.00  0.00    -0.167 C  
ENDBRANCH  18  21
ENDBRANCH  13  17
ENDBRANCH   2   3
TORSDOF 3
ENDMDL
MODEL       29
REMARK 921   NORMALIZED FREE ENERGY PREDICTED BY IDOCK:   -5.40 KCAL/MOL
REMARK 922        TOTAL FREE ENERGY PREDICTED BY IDOCK:   -6.55 KCAL/MOL
REMARK 923 INTER-LIGAND FREE ENERGY PREDICTED BY IDOCK:   -6.19 KCAL/MOL
REMARK 924 INTRA-LIGAND FREE ENERGY PREDICTED BY IDOCK:   -0.36 KCAL/MOL
REMARK 927      BINDING AFFINITY PREDICTED BY RF-SCORE:    0.00 PKD
ROOT
HETATM    1  C   UNL     1     -11.837  12.519  63.533  1.00  0.00    -0.534 C  
HETATM    2  O   UNL     1     -11.390  13.506  64.457  1.00  0.00    -0.339 OA 
ENDROOT
BRANCH   2   3
HETATM    3  C   UNL     1     -11.541  13.178  65.778  1.00  0.00    -0.347 A  
HETATM    4  C   UNL     1     -11.195  11.862  66.124  1.00  0.00    -0.387 A  
HETATM    5  C   UNL     1     -11.270  11.364  67.448  1.00  0.00    -0.305 A  
HETATM    6  C   UNL     1     -11.752  12.277  68.411  1.00  0.00    -0.337 A  
HETATM    7  C   UNL     1     -12.129  13.585  68.057  1.00  0.00    -0.298 A  
HETATM    8  S   UNL     1     -11.920  11.920  70.133  1.00  0.00    -0.279 SA 
HETATM    9  C   UNL     1     -11.430  10.219  70.226  1.00  0.00    -0.317 A  
HETATM   10  C   UNL     1     -12.030  14.036  66.748  1.00  0.00    -0.473 A  
HETATM   11  C   UNL     1     -11.002   9.463  69.114  1.00  0.00    -0.090 A  
HETATM   12  C   UNL     1     -10.654   8.119  69.407  1.00  0.00    -0.206 A  
HETATM   13  N   UNL     1     -10.905  10.023  67.796  1.00  0.00    -0.282 NA 
HETATM   14  C   UNL     1     -11.492   9.666  71.528  1.00  0.00    -0.439 A  
HETATM   15  C   UNL     1     -10.720   7.577  70.705  1.00  0.00    -0.239 A  
HETATM   16  C   UNL     1     -11.136   8.358  71.767  1.00  0.00    -0.358 A  
BRANCH  13  17
HETATM   17  C   UNL     1     -10.322   9.189  66.713  1.00  0.00    -0.238 C  
HETATM   18  C   UNL     1      -7.920   9.601  67.511  1.00  0.00    -0.106 C  
HETATM   19  C   UNL     1      -8.881   9.604  66.293  1.00  0.00    -0.172 C  
HETATM   20  C   UNL     1      -8.428   8.664  65.165  1.00  0.00    -0.197 C  
BRANCH  18  21
HETATM   21  N   UNL     1      -6.556  10.171  67.388  1.00  0.00    -0.068 NA 
HETATM   22  C   UNL     1      -6.567  11.575  66.966  1.00  0.00    -0.138 C  
HETATM   23  C   UNL     1      -5.921  10.087  68.718  1.00  0.00    -0.037 C  
ENDBRANCH  18  21
ENDBRANCH  13  17
ENDBRANCH   2   3
TORSDOF 3
ENDMDL
MODEL       30
REMARK 921   NORMALIZED FREE ENERGY PREDICTED BY IDOCK:   -5.32 KCAL/MOL
REMARK 922        TOTAL FREE ENERGY PREDICTED BY IDOCK:   -6.45 KCAL/MOL
REMARK 923 INTER-LIGAND FREE ENERGY PREDICTED BY IDOCK:   -6.07 KCAL/MOL
REMARK 924 INTRA-LIGAND FREE ENERGY PREDICTED BY IDOCK:   -0.38 KCAL/MOL
REMARK 927      BINDING AFFINITY PREDICTED BY RF-SCORE:    0.00 PKD
ROOT
HETATM    1  C   UNL     1     -10.710  19.552  65.926  1.00  0.00    -0.420 C  
HETATM    2  O   UNL     1      -9.980  20.081  67.027  1.00  0.00    -0.389 OA 
ENDROOT
BRANCH   2   3
HETATM    3  C   UNL     1      -9.106  19.209  67.619  1.00  0.00    -0.297 A  
HETATM    4  C   UNL     1      -9.385  17.845  67.434  1.00  0.00    -0.257 A  
HETATM    5  C   UNL     1      -8.571  16.811  67.959  1.00  0.00    -0.210 A  
HETATM    6  C   UNL     1      -7.461  17.240  68.718  1.00  0.00    -0.260 A  
HETATM    7  C   UNL     1      -7.201  18.607  68.928  1.00  0.00    -0.311 A  
HETATM    8  S   UNL     1      -6.277  16.159  69.460  1.00  0.00    -0.188 SA 
HETATM    9  C   UNL     1      -6.915  14.554  69.063  1.00  0.00    -0.121 A  
HETATM   10  C   UNL     1      -8.019  19.589  68.388  1.00  0.00    -0.374 A  
HETATM   11  C   UNL     1      -8.084  14.339  68.301  1.00  0.00    -0.143 A  
HETATM   12  C   UNL     1      -8.419  12.976  68.099  1.00  0.00    -0.176 A  
HETATM   13  N   UNL     1      -8.855  15.422  67.758  1.00  0.00    -0.167 NA 
HETATM   14  C   UNL     1      -6.143  13.480  69.568  1.00  0.00    -0.112 A  
HETATM   15  C   UNL     1      -7.646  11.914  68.606  1.00  0.00    -0.119 A  
HETATM   16  C   UNL     1      -6.502  12.171  69.338  1.00  0.00    -0.110 A  
BRANCH  13  17
HETATM   17  C   UNL     1      -9.995  15.096  66.862  1.00  0.00    -0.239 C  
HETATM   18  C   UNL     1     -11.690  15.139  68.786  1.00  0.00    -0.342 C  
HETATM   19  C   UNL     1     -11.163  14.343  67.564  1.00  0.00    -0.329 C  
HETATM   20  C   UNL     1     -12.249  14.067  66.510  1.00  0.00    -0.485 C  
BRANCH  18  21
HETATM   21  N   UNL     1     -12.650  14.514  69.728  1.00  0.00    -0.209 NA 
HETATM   22  C   UNL     1     -12.147  13.260  70.296  1.00  0.00    -0.335 C  
HETATM   23  C   UNL     1     -12.873  15.471  70.830  1.00  0.00    -0.477 C  
ENDBRANCH  18  21
ENDBRANCH  13  17
ENDBRANCH   2   3
TORSDOF 3
ENDMDL
MODEL       31
REMARK 921   NORMALIZED FREE ENERGY PREDICTED BY IDOCK:   -5.31 KCAL/MOL
REMARK 922        TOTAL FREE ENERGY PREDICTED BY IDOCK:   -6.44 KCAL/MOL
REMARK 923 INTER-LIGAND FREE ENERGY PREDICTED BY IDOCK:   -6.04 KCAL/MOL
REMARK 924 INTRA-LIGAND FREE ENERGY PREDICTED BY IDOCK:   -0.40 KCAL/MOL
REMARK 927      BINDING AFFINITY PREDICTED BY RF-SCORE:    0.00 PKD
ROOT
HETATM    1  C   UNL     1     -10.881   8.424  71.682  1.00  0.00    -0.268 C  
HETATM    2  O   UNL     1     -11.786   9.518  71.789  1.00  0.00    -0.377 OA 
ENDROOT
BRANCH   2   3
HETATM    3  C   UNL     1     -11.778  10.386  70.730  1.00  0.00    -0.368 A  
HETATM    4  C   UNL     1     -11.261   9.878  69.528  1.00  0.00    -0.220 A  
HETATM    5  C   UNL     1     -11.199  10.633  68.331  1.00  0.00    -0.288 A  
HETATM    6  C   UNL     1     -11.668  11.961  68.428  1.00  0.00    -0.326 A  
HETATM    7  C   UNL     1     -12.156  12.478  69.642  1.00  0.00    -0.272 A  
HETATM    8  S   UNL     1     -11.725  13.105  67.083  1.00  0.00    -0.378 SA 
HETATM    9  C   UNL     1     -11.003  12.177  65.756  1.00  0.00    -0.297 A  
HETATM   10  C   UNL     1     -12.208  11.701  70.790  1.00  0.00    -0.443 A  
HETATM   11  C   UNL     1     -10.561  10.843  65.879  1.00  0.00    -0.178 A  
HETATM   12  C   UNL     1     -10.014  10.286  64.694  1.00  0.00    -0.377 A  
HETATM   13  N   UNL     1     -10.680  10.105  67.105  1.00  0.00    -0.243 NA 
HETATM   14  C   UNL     1     -10.910  12.886  64.534  1.00  0.00    -0.385 A  
HETATM   15  C   UNL     1      -9.924  10.999  63.483  1.00  0.00    -0.421 A  
HETATM   16  C   UNL     1     -10.380  12.302  63.406  1.00  0.00    -0.395 A  
BRANCH  13  17
HETATM   17  C   UNL     1     -10.307   8.666  67.103  1.00  0.00    -0.299 C  
HETATM   18  C   UNL     1      -8.019   9.124  68.168  1.00  0.00    -0.100 C  
HETATM   19  C   UNL     1      -8.773   8.405  67.019  1.00  0.00    -0.132 C  
HETATM   20  C   UNL     1      -8.553   6.884  67.012  1.00  0.00    -0.121 C  
BRANCH  18  21
HETATM   21  N   UNL     1      -6.537   9.193  68.161  1.00  0.00    -0.059 NA 
HETATM   22  C   UNL     1      -6.012   9.916  66.999  1.00  0.00    -0.051 C  
HETATM   23  C   UNL     1      -6.123   9.909  69.383  1.00  0.00    -0.040 C  
ENDBRANCH  18  21
ENDBRANCH  13  17
ENDBRANCH   2   3
TORSDOF 3
ENDMDL
MODEL       32
REMARK 921   NORMALIZED FREE ENERGY PREDICTED BY IDOCK:   -5.28 KCAL/MOL
REMARK 922        TOTAL FREE ENERGY PREDICTED BY IDOCK:   -6.40 KCAL/MOL
REMARK 923 INTER-LIGAND FREE ENERGY PREDICTED BY IDOCK:   -6.12 KCAL/MOL
REMARK 924 INTRA-LIGAND FREE ENERGY PREDICTED BY IDOCK:   -0.28 KCAL/MOL
REMARK 927      BINDING AFFINITY PREDICTED BY RF-SCORE:    0.00 PKD
ROOT
HETATM    1  C   UNL     1      -7.341  18.980  68.879  1.00  0.00    -0.325 C  
HETATM    2  O   UNL     1      -7.400  17.593  68.563  1.00  0.00    -0.235 OA 
ENDROOT
BRANCH   2   3
HETATM    3  C   UNL     1      -8.364  17.244  67.655  1.00  0.00    -0.205 A  
HETATM    4  C   UNL     1      -8.433  15.879  67.332  1.00  0.00    -0.194 A  
HETATM    5  C   UNL     1      -9.384  15.345  66.428  1.00  0.00    -0.299 A  
HETATM    6  C   UNL     1     -10.254  16.286  65.838  1.00  0.00    -0.364 A  
HETATM    7  C   UNL     1     -10.162  17.657  66.138  1.00  0.00    -0.345 A  
HETATM    8  S   UNL     1     -11.543  15.883  64.699  1.00  0.00    -0.085 SA 
HETATM    9  C   UNL     1     -11.350  14.132  64.499  1.00  0.00    -0.348 A  
HETATM   10  C   UNL     1      -9.221  18.139  67.037  1.00  0.00    -0.270 A  
HETATM   11  C   UNL     1     -10.374  13.367  65.175  1.00  0.00    -0.336 A  
HETATM   12  C   UNL     1     -10.391  11.981  64.871  1.00  0.00    -0.316 A  
HETATM   13  N   UNL     1      -9.456  13.949  66.112  1.00  0.00    -0.221 NA 
HETATM   14  C   UNL     1     -12.271  13.544  63.600  1.00  0.00    -0.438 A  
HETATM   15  C   UNL     1     -11.311  11.404  63.975  1.00  0.00    -0.291 A  
HETATM   16  C   UNL     1     -12.257  12.191  63.344  1.00  0.00    -0.635 A  
BRANCH  13  17
HETATM   17  C   UNL     1      -8.552  13.046  66.870  1.00  0.00    -0.119 C  
HETATM   18  C   UNL     1     -10.456  12.158  68.340  1.00  0.00    -0.231 C  
HETATM   19  C   UNL     1      -9.021  12.747  68.324  1.00  0.00    -0.175 C  
HETATM   20  C   UNL     1      -7.982  11.819  68.975  1.00  0.00     0.100 C  
BRANCH  18  21
HETATM   21  N   UNL     1     -11.186  12.002  69.621  1.00  0.00    -0.158 NA 
HETATM   22  C   UNL     1     -11.977  13.187  69.968  1.00  0.00    -0.321 C  
HETATM   23  C   UNL     1     -12.103  10.856  69.470  1.00  0.00    -0.309 C  
ENDBRANCH  18  21
ENDBRANCH  13  17
ENDBRANCH   2   3
TORSDOF 3
ENDMDL
MODEL       33
REMARK 921   NORMALIZED FREE ENERGY PREDICTED BY IDOCK:   -5.26 KCAL/MOL
REMARK 922        TOTAL FREE ENERGY PREDICTED BY IDOCK:   -6.38 KCAL/MOL
REMARK 923 INTER-LIGAND FREE ENERGY PREDICTED BY IDOCK:   -6.50 KCAL/MOL
REMARK 924 INTRA-LIGAND FREE ENERGY PREDICTED BY IDOCK:    0.12 KCAL/MOL
REMARK 927      BINDING AFFINITY PREDICTED BY RF-SCORE:    0.00 PKD
ROOT
HETATM    1  C   UNL     1     -10.964   6.869  67.369  1.00  0.00    -0.304 C  
HETATM    2  O   UNL     1     -10.269   7.838  66.590  1.00  0.00    -0.269 OA 
ENDROOT
BRANCH   2   3
HETATM    3  C   UNL     1     -10.414   9.134  67.010  1.00  0.00    -0.240 A  
HETATM    4  C   UNL     1     -11.140   9.313  68.198  1.00  0.00     0.050 A  
HETATM    5  C   UNL     1     -11.365  10.584  68.783  1.00  0.00    -0.249 A  
HETATM    6  C   UNL     1     -10.832  11.680  68.072  1.00  0.00    -0.215 A  
HETATM    7  C   UNL     1     -10.133  11.501  66.865  1.00  0.00    -0.241 A  
HETATM    8  S   UNL     1     -10.949  13.365  68.594  1.00  0.00    -0.267 SA 
HETATM    9  C   UNL     1     -11.915  13.245  70.076  1.00  0.00    -0.329 A  
HETATM   10  C   UNL     1      -9.926  10.238  66.331  1.00  0.00    -0.287 A  
HETATM   11  C   UNL     1     -12.385  12.027  70.611  1.00  0.00    -0.304 A  
HETATM   12  C   UNL     1     -13.140  12.155  71.805  1.00  0.00    -0.457 A  
HETATM   13  N   UNL     1     -12.098  10.759  70.001  1.00  0.00    -0.325 NA 
HETATM   14  C   UNL     1     -12.176  14.488  70.701  1.00  0.00    -0.401 A  
HETATM   15  C   UNL     1     -13.396  13.395  72.420  1.00  0.00    -0.629 A  
HETATM   16  C   UNL     1     -12.906  14.563  71.866  1.00  0.00    -0.410 A  
BRANCH  13  17
HETATM   17  C   UNL     1     -12.525   9.523  70.707  1.00  0.00    -0.124 C  
HETATM   18  C   UNL     1     -10.178   9.089  71.643  1.00  0.00    -0.348 C  
HETATM   19  C   UNL     1     -11.391   8.473  70.898  1.00  0.00    -0.304 C  
HETATM   20  C   UNL     1     -11.990   7.257  71.623  1.00  0.00    -0.341 C  
BRANCH  18  21
HETATM   21  N   UNL     1      -8.902   8.339  71.743  1.00  0.00    -0.155 NA 
HETATM   22  C   UNL     1      -7.796   9.015  71.060  1.00  0.00    -0.142 C  
HETATM   23  C   UNL     1      -8.568   8.226  73.176  1.00  0.00    -0.209 C  
ENDBRANCH  18  21
ENDBRANCH  13  17
ENDBRANCH   2   3
TORSDOF 3
ENDMDL
MODEL       34
REMARK 921   NORMALIZED FREE ENERGY PREDICTED BY IDOCK:   -5.25 KCAL/MOL
REMARK 922        TOTAL FREE ENERGY PREDICTED BY IDOCK:   -6.36 KCAL/MOL
REMARK 923 INTER-LIGAND FREE ENERGY PREDICTED BY IDOCK:   -6.32 KCAL/MOL
REMARK 924 INTRA-LIGAND FREE ENERGY PREDICTED BY IDOCK:   -0.05 KCAL/MOL
REMARK 927      BINDING AFFINITY PREDICTED BY RF-SCORE:    0.00 PKD
ROOT
HETATM    1  C   UNL     1     -12.228  16.122  71.794  1.00  0.00    -0.404 C  
HETATM    2  O   UNL     1     -13.258  15.294  71.265  1.00  0.00    -0.416 OA 
ENDROOT
BRANCH   2   3
HETATM    3  C   UNL     1     -12.882  14.009  70.978  1.00  0.00    -0.340 A  
HETATM    4  C   UNL     1     -12.253  13.819  69.737  1.00  0.00    -0.368 A  
HETATM    5  C   UNL     1     -11.783  12.559  69.293  1.00  0.00    -0.321 A  
HETATM    6  C   UNL     1     -12.014  11.481  70.174  1.00  0.00    -0.369 A  
HETATM    7  C   UNL     1     -12.674  11.667  71.402  1.00  0.00    -0.445 A  
HETATM    8  S   UNL     1     -11.508   9.815  69.874  1.00  0.00    -0.080 SA 
HETATM    9  C   UNL     1     -10.781   9.915  68.260  1.00  0.00    -0.234 A  
HETATM   10  C   UNL     1     -13.111  12.921  71.804  1.00  0.00    -0.458 A  
HETATM   11  C   UNL     1     -10.673  11.113  67.520  1.00  0.00    -0.236 A  
HETATM   12  C   UNL     1     -10.057  10.972  66.250  1.00  0.00    -0.282 A  
HETATM   13  N   UNL     1     -11.132  12.374  68.030  1.00  0.00    -0.230 NA 
HETATM   14  C   UNL     1     -10.298   8.682  67.762  1.00  0.00    -0.303 A  
HETATM   15  C   UNL     1      -9.580   9.741  65.762  1.00  0.00    -0.318 A  
HETATM   16  C   UNL     1      -9.698   8.595  66.526  1.00  0.00    -0.325 A  
BRANCH  13  17
HETATM   17  C   UNL     1     -10.859  13.599  67.235  1.00  0.00    -0.284 C  
HETATM   18  C   UNL     1      -8.465  13.805  68.129  1.00  0.00    -0.173 C  
HETATM   19  C   UNL     1      -9.800  14.549  67.869  1.00  0.00    -0.222 C  
HETATM   20  C   UNL     1      -9.642  15.766  66.943  1.00  0.00    -0.243 C  
BRANCH  18  21
HETATM   21  N   UNL     1      -7.391  14.452  68.923  1.00  0.00    -0.124 NA 
HETATM   22  C   UNL     1      -6.384  15.106  68.083  1.00  0.00    -0.131 C  
HETATM   23  C   UNL     1      -8.027  15.476  69.774  1.00  0.00    -0.011 C  
ENDBRANCH  18  21
ENDBRANCH  13  17
ENDBRANCH   2   3
TORSDOF 3
ENDMDL
MODEL       35
REMARK 921   NORMALIZED FREE ENERGY PREDICTED BY IDOCK:   -5.22 KCAL/MOL
REMARK 922        TOTAL FREE ENERGY PREDICTED BY IDOCK:   -6.33 KCAL/MOL
REMARK 923 INTER-LIGAND FREE ENERGY PREDICTED BY IDOCK:   -6.18 KCAL/MOL
REMARK 924 INTRA-LIGAND FREE ENERGY PREDICTED BY IDOCK:   -0.16 KCAL/MOL
REMARK 927      BINDING AFFINITY PREDICTED BY RF-SCORE:    0.00 PKD
ROOT
HETATM    1  C   UNL     1     -10.458  18.719  66.599  1.00  0.00    -0.426 C  
HETATM    2  O   UNL     1      -9.349  18.262  65.831  1.00  0.00    -0.506 OA 
ENDROOT
BRANCH   2   3
HETATM    3  C   UNL     1      -8.678  17.192  66.358  1.00  0.00    -0.256 A  
HETATM    4  C   UNL     1      -9.472  16.091  66.720  1.00  0.00    -0.250 A  
HETATM    5  C   UNL     1      -8.938  14.895  67.259  1.00  0.00    -0.199 A  
HETATM    6  C   UNL     1      -7.538  14.887  67.444  1.00  0.00    -0.204 A  
HETATM    7  C   UNL     1      -6.749  16.002  67.111  1.00  0.00    -0.205 A  
HETATM    8  S   UNL     1      -6.619  13.516  68.074  1.00  0.00    -0.155 SA 
HETATM    9  C   UNL     1      -7.889  12.333  68.438  1.00  0.00    -0.151 A  
HETATM   10  C   UNL     1      -7.312  17.152  66.576  1.00  0.00    -0.311 A  
HETATM   11  C   UNL     1      -9.262  12.556  68.201  1.00  0.00    -0.209 A  
HETATM   12  C   UNL     1     -10.110  11.478  68.564  1.00  0.00    -0.211 A  
HETATM   13  N   UNL     1      -9.752  13.772  67.616  1.00  0.00    -0.221 NA 
HETATM   14  C   UNL     1      -7.412  11.118  68.987  1.00  0.00    -0.124 A  
HETATM   15  C   UNL     1      -9.628  10.274  69.110  1.00  0.00    -0.229 A  
HETATM   16  C   UNL     1      -8.272  10.095  69.316  1.00  0.00    -0.156 A  
BRANCH  13  17
HETATM   17  C   UNL     1     -11.198  13.864  67.285  1.00  0.00    -0.312 C  
HETATM   18  C   UNL     1     -10.916  12.557  65.098  1.00  0.00    -0.297 C  
HETATM   19  C   UNL     1     -11.507  13.829  65.759  1.00  0.00    -0.324 C  
HETATM   20  C   UNL     1     -13.029  13.948  65.582  1.00  0.00    -0.361 C  
BRANCH  18  21
HETATM   21  N   UNL     1     -10.900  12.420  63.621  1.00  0.00    -0.444 NA 
HETATM   22  C   UNL     1      -9.774  11.613  63.141  1.00  0.00    -0.360 C  
HETATM   23  C   UNL     1     -12.155  11.753  63.226  1.00  0.00    -0.264 C  
ENDBRANCH  18  21
ENDBRANCH  13  17
ENDBRANCH   2   3
TORSDOF 3
ENDMDL
MODEL       36
REMARK 921   NORMALIZED FREE ENERGY PREDICTED BY IDOCK:   -5.19 KCAL/MOL
REMARK 922        TOTAL FREE ENERGY PREDICTED BY IDOCK:   -6.30 KCAL/MOL
REMARK 923 INTER-LIGAND FREE ENERGY PREDICTED BY IDOCK:   -5.92 KCAL/MOL
REMARK 924 INTRA-LIGAND FREE ENERGY PREDICTED BY IDOCK:   -0.38 KCAL/MOL
REMARK 927      BINDING AFFINITY PREDICTED BY RF-SCORE:    0.00 PKD
ROOT
HETATM    1  C   UNL     1      -9.390   3.288  69.308  1.00  0.00    -0.163 C  
HETATM    2  O   UNL     1      -9.347   3.963  68.055  1.00  0.00    -0.150 OA 
ENDROOT
BRANCH   2   3
HETATM    3  C   UNL     1      -9.581   5.310  68.112  1.00  0.00    -0.129 A  
HETATM    4  C   UNL     1     -10.383   5.747  69.179  1.00  0.00    -0.316 A  
HETATM    5  C   UNL     1     -10.705   7.108  69.398  1.00  0.00    -0.231 A  
HETATM    6  C   UNL     1     -10.188   8.014  68.447  1.00  0.00    -0.207 A  
HETATM    7  C   UNL     1      -9.412   7.572  67.361  1.00  0.00    -0.173 A  
HETATM    8  S   UNL     1     -10.420   9.765  68.501  1.00  0.00    -0.218 SA 
HETATM    9  C   UNL     1     -11.462   9.974  69.920  1.00  0.00    -0.215 A  
HETATM   10  C   UNL     1      -9.111   6.228  67.188  1.00  0.00    -0.119 A  
HETATM   11  C   UNL     1     -11.901   8.910  70.737  1.00  0.00    -0.194 A  
HETATM   12  C   UNL     1     -12.728   9.296  71.822  1.00  0.00    -0.462 A  
HETATM   13  N   UNL     1     -11.515   7.548  70.495  1.00  0.00    -0.267 NA 
HETATM   14  C   UNL     1     -11.822  11.318  70.184  1.00  0.00    -0.449 A  
HETATM   15  C   UNL     1     -13.082  10.635  72.077  1.00  0.00    -0.501 A  
HETATM   16  C   UNL     1     -12.621  11.647  71.256  1.00  0.00    -0.425 A  
BRANCH  13  17
HETATM   17  C   UNL     1     -11.920   6.514  71.483  1.00  0.00    -0.329 C  
HETATM   18  C   UNL     1     -10.035   7.138  73.105  1.00  0.00    -0.228 C  
HETATM   19  C   UNL     1     -10.751   5.980  72.362  1.00  0.00    -0.267 C  
HETATM   20  C   UNL     1     -11.322   4.916  73.313  1.00  0.00    -0.408 C  
BRANCH  18  21
HETATM   21  N   UNL     1      -8.762   6.890  73.826  1.00  0.00    -0.139 NA 
HETATM   22  C   UNL     1      -7.728   6.314  72.962  1.00  0.00    -0.100 C  
HETATM   23  C   UNL     1      -8.280   8.191  74.330  1.00  0.00    -0.231 C  
ENDBRANCH  18  21
ENDBRANCH  13  17
ENDBRANCH   2   3
TORSDOF 3
ENDMDL
MODEL       37
REMARK 921   NORMALIZED FREE ENERGY PREDICTED BY IDOCK:   -5.18 KCAL/MOL
REMARK 922        TOTAL FREE ENERGY PREDICTED BY IDOCK:   -6.29 KCAL/MOL
REMARK 923 INTER-LIGAND FREE ENERGY PREDICTED BY IDOCK:   -5.92 KCAL/MOL
REMARK 924 INTRA-LIGAND FREE ENERGY PREDICTED BY IDOCK:   -0.37 KCAL/MOL
REMARK 927      BINDING AFFINITY PREDICTED BY RF-SCORE:    0.00 PKD
ROOT
HETATM    1  C   UNL     1     -12.264  15.186  64.081  1.00  0.00    -0.161 C  
HETATM    2  O   UNL     1     -12.287  13.772  63.914  1.00  0.00    -0.652 OA 
ENDROOT
BRANCH   2   3
HETATM    3  C   UNL     1     -11.414  13.078  64.708  1.00  0.00    -0.327 A  
HETATM    4  C   UNL     1     -10.614  13.856  65.561  1.00  0.00    -0.318 A  
HETATM    5  C   UNL     1      -9.674  13.298  66.462  1.00  0.00    -0.273 A  
HETATM    6  C   UNL     1      -9.565  11.891  66.429  1.00  0.00    -0.225 A  
HETATM    7  C   UNL     1     -10.343  11.117  65.550  1.00  0.00    -0.326 A  
HETATM    8  S   UNL     1      -8.489  10.945  67.464  1.00  0.00    -0.124 SA 
HETATM    9  C   UNL     1      -7.634  12.198  68.382  1.00  0.00    -0.128 A  
HETATM   10  C   UNL     1     -11.260  11.703  64.690  1.00  0.00    -0.320 A  
HETATM   11  C   UNL     1      -7.877  13.581  68.239  1.00  0.00    -0.145 A  
HETATM   12  C   UNL     1      -7.083  14.413  69.069  1.00  0.00    -0.120 A  
HETATM   13  N   UNL     1      -8.869  14.097  67.338  1.00  0.00    -0.195 NA 
HETATM   14  C   UNL     1      -6.676  11.697  69.295  1.00  0.00    -0.115 A  
HETATM   15  C   UNL     1      -6.131  13.906  69.975  1.00  0.00    -0.146 A  
HETATM   16  C   UNL     1      -5.934  12.543  70.089  1.00  0.00    -0.142 A  
BRANCH  13  17
HETATM   17  C   UNL     1      -9.144  15.557  67.350  1.00  0.00    -0.199 C  
HETATM   18  C   UNL     1     -10.622  15.394  69.440  1.00  0.00    -0.251 C  
HETATM   19  C   UNL     1     -10.509  15.944  67.994  1.00  0.00    -0.274 C  
HETATM   20  C   UNL     1     -10.651  17.473  67.917  1.00  0.00    -0.390 C  
BRANCH  18  21
HETATM   21  N   UNL     1     -11.915  15.455  70.163  1.00  0.00    -0.324 NA 
HETATM   22  C   UNL     1     -12.558  14.143  70.279  1.00  0.00    -0.306 C  
HETATM   23  C   UNL     1     -11.638  15.962  71.521  1.00  0.00    -0.465 C  
ENDBRANCH  18  21
ENDBRANCH  13  17
ENDBRANCH   2   3
TORSDOF 3
ENDMDL
MODEL       38
REMARK 921   NORMALIZED FREE ENERGY PREDICTED BY IDOCK:   -5.14 KCAL/MOL
REMARK 922        TOTAL FREE ENERGY PREDICTED BY IDOCK:   -6.23 KCAL/MOL
REMARK 923 INTER-LIGAND FREE ENERGY PREDICTED BY IDOCK:   -6.84 KCAL/MOL
REMARK 924 INTRA-LIGAND FREE ENERGY PREDICTED BY IDOCK:    0.60 KCAL/MOL
REMARK 927      BINDING AFFINITY PREDICTED BY RF-SCORE:    0.00 PKD
ROOT
HETATM    1  C   UNL     1     -10.490   9.489  68.024  1.00  0.00    -0.230 C  
HETATM    2  O   UNL     1     -10.864  10.693  68.687  1.00  0.00    -0.196 OA 
ENDROOT
BRANCH   2   3
HETATM    3  C   UNL     1     -10.842  11.818  67.908  1.00  0.00    -0.211 A  
HETATM    4  C   UNL     1     -10.683  13.033  68.593  1.00  0.00    -0.273 A  
HETATM    5  C   UNL     1     -10.618  14.288  67.939  1.00  0.00    -0.240 A  
HETATM    6  C   UNL     1     -10.757  14.247  66.535  1.00  0.00    -0.297 A  
HETATM    7  C   UNL     1     -10.948  13.032  65.853  1.00  0.00    -0.292 A  
HETATM    8  S   UNL     1     -10.688  15.662  65.480  1.00  0.00    -0.389 SA 
HETATM    9  C   UNL     1     -10.502  16.996  66.632  1.00  0.00    -0.253 A  
HETATM   10  C   UNL     1     -10.996  11.823  66.532  1.00  0.00    -0.342 A  
HETATM   11  C   UNL     1     -10.413  16.821  68.030  1.00  0.00    -0.333 A  
HETATM   12  C   UNL     1     -10.266  18.021  68.771  1.00  0.00    -0.362 A  
HETATM   13  N   UNL     1     -10.445  15.523  68.644  1.00  0.00    -0.231 NA 
HETATM   14  C   UNL     1     -10.438  18.278  66.034  1.00  0.00    -0.380 A  
HETATM   15  C   UNL     1     -10.204  19.292  68.168  1.00  0.00    -0.515 A  
HETATM   16  C   UNL     1     -10.285  19.415  66.793  1.00  0.00    -0.521 A  
BRANCH  13  17
HETATM   17  C   UNL     1     -10.214  15.429  70.109  1.00  0.00    -0.196 C  
HETATM   18  C   UNL     1     -12.496  14.337  70.531  1.00  0.00    -0.361 C  
HETATM   19  C   UNL     1     -11.516  15.459  70.963  1.00  0.00    -0.407 C  
HETATM   20  C   UNL     1     -11.112  15.369  72.444  1.00  0.00     0.025 C  
BRANCH  18  21
HETATM   21  N   UNL     1     -13.883  14.312  71.057  1.00  0.00    -0.147 NA 
HETATM   22  C   UNL     1     -14.028  13.434  72.222  1.00  0.00    -0.507 C  
HETATM   23  C   UNL     1     -14.226  15.689  71.462  1.00  0.00    -0.176 C  
ENDBRANCH  18  21
ENDBRANCH  13  17
ENDBRANCH   2   3
TORSDOF 3
ENDMDL
MODEL       39
REMARK 921   NORMALIZED FREE ENERGY PREDICTED BY IDOCK:   -5.11 KCAL/MOL
REMARK 922        TOTAL FREE ENERGY PREDICTED BY IDOCK:   -6.21 KCAL/MOL
REMARK 923 INTER-LIGAND FREE ENERGY PREDICTED BY IDOCK:   -5.86 KCAL/MOL
REMARK 924 INTRA-LIGAND FREE ENERGY PREDICTED BY IDOCK:   -0.34 KCAL/MOL
REMARK 927      BINDING AFFINITY PREDICTED BY RF-SCORE:    0.00 PKD
ROOT
HETATM    1  C   UNL     1     -12.305  11.842  63.631  1.00  0.00    -0.481 C  
HETATM    2  O   UNL     1     -12.725  13.197  63.508  1.00  0.00    -0.711 OA 
ENDROOT
BRANCH   2   3
HETATM    3  C   UNL     1     -11.974  14.104  64.206  1.00  0.00    -0.435 A  
HETATM    4  C   UNL     1     -11.098  13.565  65.162  1.00  0.00    -0.326 A  
HETATM    5  C   UNL     1     -10.235  14.359  65.956  1.00  0.00    -0.315 A  
HETATM    6  C   UNL     1     -10.331  15.752  65.748  1.00  0.00    -0.369 A  
HETATM    7  C   UNL     1     -11.232  16.292  64.813  1.00  0.00    -0.267 A  
HETATM    8  S   UNL     1      -9.353  16.961  66.587  1.00  0.00    -0.271 SA 
HETATM    9  C   UNL     1      -8.392  15.974  67.703  1.00  0.00    -0.151 A  
HETATM   10  C   UNL     1     -12.054  15.477  64.048  1.00  0.00     0.058 A  
HETATM   11  C   UNL     1      -8.471  14.567  67.776  1.00  0.00    -0.174 A  
HETATM   12  C   UNL     1      -7.615  13.973  68.738  1.00  0.00    -0.113 A  
HETATM   13  N   UNL     1      -9.335  13.802  66.922  1.00  0.00    -0.253 NA 
HETATM   14  C   UNL     1      -7.514  16.718  68.528  1.00  0.00    -0.213 A  
HETATM   15  C   UNL     1      -6.745  14.719  69.555  1.00  0.00    -0.160 A  
HETATM   16  C   UNL     1      -6.694  16.097  69.443  1.00  0.00    -0.205 A  
BRANCH  13  17
HETATM   17  C   UNL     1      -9.255  12.319  66.981  1.00  0.00    -0.205 C  
HETATM   18  C   UNL     1     -11.166  12.152  68.682  1.00  0.00    -0.269 C  
HETATM   19  C   UNL     1      -9.721  11.708  68.336  1.00  0.00    -0.199 C  
HETATM   20  C   UNL     1      -9.565  10.182  68.245  1.00  0.00    -0.150 C  
BRANCH  18  21
HETATM   21  N   UNL     1     -11.734  11.870  70.023  1.00  0.00    -0.312 NA 
HETATM   22  C   UNL     1     -12.364  13.047  70.628  1.00  0.00    -0.310 C  
HETATM   23  C   UNL     1     -12.761  10.824  69.856  1.00  0.00    -0.032 C  
ENDBRANCH  18  21
ENDBRANCH  13  17
ENDBRANCH   2   3
TORSDOF 3
ENDMDL
MODEL       40
REMARK 921   NORMALIZED FREE ENERGY PREDICTED BY IDOCK:   -5.07 KCAL/MOL
REMARK 922        TOTAL FREE ENERGY PREDICTED BY IDOCK:   -6.16 KCAL/MOL
REMARK 923 INTER-LIGAND FREE ENERGY PREDICTED BY IDOCK:   -5.88 KCAL/MOL
REMARK 924 INTRA-LIGAND FREE ENERGY PREDICTED BY IDOCK:   -0.27 KCAL/MOL
REMARK 927      BINDING AFFINITY PREDICTED BY RF-SCORE:    0.00 PKD
ROOT
HETATM    1  C   UNL     1     -12.327  13.053  65.180  1.00  0.00    -0.484 C  
HETATM    2  O   UNL     1     -11.330  13.342  66.154  1.00  0.00    -0.297 OA 
ENDROOT
BRANCH   2   3
HETATM    3  C   UNL     1     -11.393  12.585  67.294  1.00  0.00    -0.315 A  
HETATM    4  C   UNL     1     -11.072  11.226  67.143  1.00  0.00    -0.364 A  
HETATM    5  C   UNL     1     -11.066  10.308  68.222  1.00  0.00    -0.254 A  
HETATM    6  C   UNL     1     -11.438  10.843  69.474  1.00  0.00    -0.301 A  
HETATM    7  C   UNL     1     -11.791  12.197  69.617  1.00  0.00    -0.391 A  
HETATM    8  S   UNL     1     -11.489   9.922  70.981  1.00  0.00    -0.392 SA 
HETATM    9  C   UNL     1     -11.059   8.287  70.451  1.00  0.00    -0.235 A  
HETATM   10  C   UNL     1     -11.775  13.066  68.535  1.00  0.00    -0.377 A  
HETATM   11  C   UNL     1     -10.744   7.950  69.117  1.00  0.00    -0.117 A  
HETATM   12  C   UNL     1     -10.427   6.584  68.908  1.00  0.00    -0.249 A  
HETATM   13  N   UNL     1     -10.727   8.926  68.063  1.00  0.00    -0.162 NA 
HETATM   14  C   UNL     1     -11.043   7.324  71.489  1.00  0.00    -0.264 A  
HETATM   15  C   UNL     1     -10.415   5.632  69.945  1.00  0.00    -0.378 A  
HETATM   16  C   UNL     1     -10.719   6.009  71.241  1.00  0.00    -0.320 A  
BRANCH  13  17
HETATM   17  C   UNL     1     -10.259   8.504  66.717  1.00  0.00    -0.300 C  
HETATM   18  C   UNL     1      -7.797   8.922  67.298  1.00  0.00    -0.096 C  
HETATM   19  C   UNL     1      -8.927   9.173  66.266  1.00  0.00    -0.194 C  
HETATM   20  C   UNL     1      -8.587   8.650  64.861  1.00  0.00    -0.163 C  
BRANCH  18  21
HETATM   21  N   UNL     1      -6.506   9.644  67.184  1.00  0.00    -0.069 NA 
HETATM   22  C   UNL     1      -6.682  11.073  66.906  1.00  0.00    -0.120 C  
HETATM   23  C   UNL     1      -5.804   9.501  68.474  1.00  0.00    -0.040 C  
ENDBRANCH  18  21
ENDBRANCH  13  17
ENDBRANCH   2   3
TORSDOF 3
ENDMDL
MODEL       41
REMARK 921   NORMALIZED FREE ENERGY PREDICTED BY IDOCK:   -5.06 KCAL/MOL
REMARK 922        TOTAL FREE ENERGY PREDICTED BY IDOCK:   -6.15 KCAL/MOL
REMARK 923 INTER-LIGAND FREE ENERGY PREDICTED BY IDOCK:   -5.76 KCAL/MOL
REMARK 924 INTRA-LIGAND FREE ENERGY PREDICTED BY IDOCK:   -0.39 KCAL/MOL
REMARK 927      BINDING AFFINITY PREDICTED BY RF-SCORE:    0.00 PKD
ROOT
HETATM    1  C   UNL     1     -11.691  14.970  71.504  1.00  0.00    -0.370 C  
HETATM    2  O   UNL     1     -11.024  15.967  70.737  1.00  0.00    -0.314 OA 
ENDROOT
BRANCH   2   3
HETATM    3  C   UNL     1     -10.958  15.720  69.392  1.00  0.00    -0.296 A  
HETATM    4  C   UNL     1     -10.738  14.381  69.027  1.00  0.00    -0.261 A  
HETATM    5  C   UNL     1     -10.665  13.948  67.681  1.00  0.00    -0.249 A  
HETATM    6  C   UNL     1     -10.798  14.964  66.710  1.00  0.00    -0.320 A  
HETATM    7  C   UNL     1     -10.986  16.309  67.077  1.00  0.00    -0.086 A  
HETATM    8  S   UNL     1     -10.769  14.692  64.964  1.00  0.00    -0.435 SA 
HETATM    9  C   UNL     1     -10.466  12.949  64.849  1.00  0.00    -0.331 A  
HETATM   10  C   UNL     1     -11.061  16.690  68.409  1.00  0.00    -0.305 A  
HETATM   11  C   UNL     1     -10.331  12.099  65.968  1.00  0.00    -0.237 A  
HETATM   12  C   UNL     1     -10.092  10.737  65.654  1.00  0.00    -0.327 A  
HETATM   13  N   UNL     1     -10.452  12.580  67.316  1.00  0.00    -0.219 NA 
HETATM   14  C   UNL     1     -10.376  12.460  63.523  1.00  0.00    -0.397 A  
HETATM   15  C   UNL     1     -10.004  10.259  64.332  1.00  0.00    -0.331 A  
HETATM   16  C   UNL     1     -10.152  11.127  63.266  1.00  0.00    -0.426 A  
BRANCH  13  17
HETATM   17  C   UNL     1     -10.424  11.590  68.424  1.00  0.00    -0.207 C  
HETATM   18  C   UNL     1      -7.908  11.897  68.811  1.00  0.00    -0.052 C  
HETATM   19  C   UNL     1      -9.054  10.872  68.605  1.00  0.00    -0.175 C  
HETATM   20  C   UNL     1      -9.191   9.878  69.769  1.00  0.00    -0.252 C  
BRANCH  18  21
HETATM   21  N   UNL     1      -6.493  11.452  68.787  1.00  0.00    -0.052 NA 
HETATM   22  C   UNL     1      -6.152  10.723  67.562  1.00  0.00    -0.052 C  
HETATM   23  C   UNL     1      -5.649  12.660  68.864  1.00  0.00    -0.063 C  
ENDBRANCH  18  21
ENDBRANCH  13  17
ENDBRANCH   2   3
TORSDOF 3
ENDMDL
MODEL       42
REMARK 921   NORMALIZED FREE ENERGY PREDICTED BY IDOCK:   -5.02 KCAL/MOL
REMARK 922        TOTAL FREE ENERGY PREDICTED BY IDOCK:   -6.10 KCAL/MOL
REMARK 923 INTER-LIGAND FREE ENERGY PREDICTED BY IDOCK:   -6.94 KCAL/MOL
REMARK 924 INTRA-LIGAND FREE ENERGY PREDICTED BY IDOCK:    0.84 KCAL/MOL
REMARK 927      BINDING AFFINITY PREDICTED BY RF-SCORE:    0.00 PKD
ROOT
HETATM    1  C   UNL     1      -9.891  16.003  67.819  1.00  0.00    -0.231 C  
HETATM    2  O   UNL     1     -11.020  16.381  68.600  1.00  0.00    -0.313 OA 
ENDROOT
BRANCH   2   3
HETATM    3  C   UNL     1     -11.561  15.381  69.362  1.00  0.00    -0.340 A  
HETATM    4  C   UNL     1     -11.103  14.083  69.082  1.00  0.00    -0.294 A  
HETATM    5  C   UNL     1     -11.543  12.938  69.790  1.00  0.00    -0.218 A  
HETATM    6  C   UNL     1     -12.509  13.178  70.791  1.00  0.00    -0.308 A  
HETATM    7  C   UNL     1     -12.990  14.475  71.048  1.00  0.00    -0.423 A  
HETATM    8  S   UNL     1     -13.203  11.932  71.833  1.00  0.00    -0.207 SA 
HETATM    9  C   UNL     1     -12.446  10.450  71.222  1.00  0.00    -0.415 A  
HETATM   10  C   UNL     1     -12.526  15.572  70.337  1.00  0.00    -0.443 A  
HETATM   11  C   UNL     1     -11.507  10.424  70.168  1.00  0.00    -0.319 A  
HETATM   12  C   UNL     1     -11.024   9.132  69.835  1.00  0.00    -0.218 A  
HETATM   13  N   UNL     1     -11.064  11.618  69.506  1.00  0.00    -0.207 NA 
HETATM   14  C   UNL     1     -12.854   9.270  71.890  1.00  0.00    -0.485 A  
HETATM   15  C   UNL     1     -11.436   7.964  70.504  1.00  0.00    -0.204 A  
HETATM   16  C   UNL     1     -12.351   8.038  71.539  1.00  0.00    -0.335 A  
BRANCH  13  17
HETATM   17  C   UNL     1      -9.978  11.505  68.497  1.00  0.00    -0.204 C  
HETATM   18  C   UNL     1     -11.454  12.427  66.614  1.00  0.00    -0.370 C  
HETATM   19  C   UNL     1     -10.482  11.295  67.039  1.00  0.00    -0.272 C  
HETATM   20  C   UNL     1      -9.251  11.183  66.125  1.00  0.00    -0.216 C  
BRANCH  18  21
HETATM   21  N   UNL     1     -12.222  12.317  65.350  1.00  0.00    -0.558 NA 
HETATM   22  C   UNL     1     -13.130  13.450  65.142  1.00  0.00    -0.013 C  
HETATM   23  C   UNL     1     -11.248  12.289  64.242  1.00  0.00    -0.350 C  
ENDBRANCH  18  21
ENDBRANCH  13  17
ENDBRANCH   2   3
TORSDOF 3
ENDMDL
MODEL       43
REMARK 921   NORMALIZED FREE ENERGY PREDICTED BY IDOCK:   -4.99 KCAL/MOL
REMARK 922        TOTAL FREE ENERGY PREDICTED BY IDOCK:   -6.07 KCAL/MOL
REMARK 923 INTER-LIGAND FREE ENERGY PREDICTED BY IDOCK:   -5.66 KCAL/MOL
REMARK 924 INTRA-LIGAND FREE ENERGY PREDICTED BY IDOCK:   -0.40 KCAL/MOL
REMARK 927      BINDING AFFINITY PREDICTED BY RF-SCORE:    0.00 PKD
ROOT
HETATM    1  C   UNL     1      -9.818   5.605  70.277  1.00  0.00    -0.194 C  
HETATM    2  O   UNL     1     -10.510   6.212  71.364  1.00  0.00    -0.211 OA 
ENDROOT
BRANCH   2   3
HETATM    3  C   UNL     1     -10.878   7.515  71.164  1.00  0.00    -0.238 A  
HETATM    4  C   UNL     1     -10.687   8.012  69.864  1.00  0.00    -0.242 A  
HETATM    5  C   UNL     1     -11.033   9.331  69.481  1.00  0.00    -0.151 A  
HETATM    6  C   UNL     1     -11.562  10.141  70.509  1.00  0.00    -0.329 A  
HETATM    7  C   UNL     1     -11.722   9.652  71.818  1.00  0.00    -0.356 A  
HETATM    8  S   UNL     1     -12.096  11.811  70.293  1.00  0.00    -0.298 SA 
HETATM    9  C   UNL     1     -11.712  12.124  68.591  1.00  0.00    -0.330 A  
HETATM   10  C   UNL     1     -11.379   8.349  72.149  1.00  0.00    -0.437 A  
HETATM   11  C   UNL     1     -11.145  11.165  67.725  1.00  0.00    -0.285 A  
HETATM   12  C   UNL     1     -10.917  11.622  66.401  1.00  0.00    -0.345 A  
HETATM   13  N   UNL     1     -10.846   9.827  68.150  1.00  0.00    -0.237 NA 
HETATM   14  C   UNL     1     -12.031  13.432  68.154  1.00  0.00    -0.356 A  
HETATM   15  C   UNL     1     -11.237  12.925  65.974  1.00  0.00    -0.325 A  
HETATM   16  C   UNL     1     -11.801  13.829  66.856  1.00  0.00    -0.447 A  
BRANCH  13  17
HETATM   17  C   UNL     1     -10.372   8.851  67.135  1.00  0.00    -0.281 C  
HETATM   18  C   UNL     1      -7.911   9.180  67.775  1.00  0.00    -0.101 C  
HETATM   19  C   UNL     1      -8.932   9.126  66.609  1.00  0.00    -0.164 C  
HETATM   20  C   UNL     1      -8.597   8.050  65.564  1.00  0.00    -0.158 C  
BRANCH  18  21
HETATM   21  N   UNL     1      -6.523   9.643  67.533  1.00  0.00    -0.068 NA 
HETATM   22  C   UNL     1      -6.430  11.099  67.390  1.00  0.00    -0.071 C  
HETATM   23  C   UNL     1      -5.712   9.234  68.696  1.00  0.00    -0.041 C  
ENDBRANCH  18  21
ENDBRANCH  13  17
ENDBRANCH   2   3
TORSDOF 3
ENDMDL
MODEL       44
REMARK 921   NORMALIZED FREE ENERGY PREDICTED BY IDOCK:   -4.95 KCAL/MOL
REMARK 922        TOTAL FREE ENERGY PREDICTED BY IDOCK:   -6.02 KCAL/MOL
REMARK 923 INTER-LIGAND FREE ENERGY PREDICTED BY IDOCK:   -5.92 KCAL/MOL
REMARK 924 INTRA-LIGAND FREE ENERGY PREDICTED BY IDOCK:   -0.10 KCAL/MOL
REMARK 927      BINDING AFFINITY PREDICTED BY RF-SCORE:    0.00 PKD
ROOT
HETATM    1  C   UNL     1     -13.545   9.065  72.319  1.00  0.00    -0.484 C  
HETATM    2  O   UNL     1     -12.134   9.037  72.135  1.00  0.00    -0.363 OA 
ENDROOT
BRANCH   2   3
HETATM    3  C   UNL     1     -11.700   8.282  71.078  1.00  0.00    -0.270 A  
HETATM    4  C   UNL     1     -10.889   8.947  70.144  1.00  0.00    -0.251 A  
HETATM    5  C   UNL     1     -10.339   8.310  69.005  1.00  0.00    -0.221 A  
HETATM    6  C   UNL     1     -10.684   6.951  68.845  1.00  0.00    -0.222 A  
HETATM    7  C   UNL     1     -11.523   6.295  69.764  1.00  0.00    -0.449 A  
HETATM    8  S   UNL     1     -10.113   5.921  67.528  1.00  0.00    -0.187 SA 
HETATM    9  C   UNL     1      -9.154   7.043  66.546  1.00  0.00    -0.156 A  
HETATM   10  C   UNL     1     -12.034   6.954  70.873  1.00  0.00    -0.430 A  
HETATM   11  C   UNL     1      -8.955   8.401  66.874  1.00  0.00    -0.145 A  
HETATM   12  C   UNL     1      -8.153   9.123  65.953  1.00  0.00    -0.111 A  
HETATM   13  N   UNL     1      -9.503   8.992  68.062  1.00  0.00    -0.141 NA 
HETATM   14  C   UNL     1      -8.584   6.461  65.388  1.00  0.00    -0.088 A  
HETATM   15  C   UNL     1      -7.590   8.537  64.803  1.00  0.00    -0.100 A  
HETATM   16  C   UNL     1      -7.804   7.199  64.526  1.00  0.00    -0.121 A  
BRANCH  13  17
HETATM   17  C   UNL     1      -9.132  10.393  68.390  1.00  0.00    -0.147 C  
HETATM   18  C   UNL     1     -11.246  11.348  67.297  1.00  0.00    -0.304 C  
HETATM   19  C   UNL     1      -9.702  11.453  67.401  1.00  0.00    -0.196 C  
HETATM   20  C   UNL     1      -9.221  12.838  67.864  1.00  0.00    -0.205 C  
BRANCH  18  21
HETATM   21  N   UNL     1     -11.978  12.109  66.255  1.00  0.00    -0.613 NA 
HETATM   22  C   UNL     1     -12.117  13.530  66.588  1.00  0.00    -0.396 C  
HETATM   23  C   UNL     1     -11.208  11.996  65.002  1.00  0.00    -0.320 C  
ENDBRANCH  18  21
ENDBRANCH  13  17
ENDBRANCH   2   3
TORSDOF 3
ENDMDL
MODEL       45
REMARK 921   NORMALIZED FREE ENERGY PREDICTED BY IDOCK:   -4.93 KCAL/MOL
REMARK 922        TOTAL FREE ENERGY PREDICTED BY IDOCK:   -5.99 KCAL/MOL
REMARK 923 INTER-LIGAND FREE ENERGY PREDICTED BY IDOCK:   -5.78 KCAL/MOL
REMARK 924 INTRA-LIGAND FREE ENERGY PREDICTED BY IDOCK:   -0.21 KCAL/MOL
REMARK 927      BINDING AFFINITY PREDICTED BY RF-SCORE:    0.00 PKD
ROOT
HETATM    1  C   UNL     1      -6.504   9.430  65.491  1.00  0.00    -0.070 C  
HETATM    2  O   UNL     1      -6.814  10.795  65.750  1.00  0.00    -0.124 OA 
ENDROOT
BRANCH   2   3
HETATM    3  C   UNL     1      -7.962  11.006  66.466  1.00  0.00    -0.158 A  
HETATM    4  C   UNL     1      -8.077  12.265  67.079  1.00  0.00    -0.141 A  
HETATM    5  C   UNL     1      -9.208  12.655  67.838  1.00  0.00    -0.201 A  
HETATM    6  C   UNL     1     -10.216  11.676  67.970  1.00  0.00    -0.190 A  
HETATM    7  C   UNL     1     -10.084  10.405  67.382  1.00  0.00    -0.237 A  
HETATM    8  S   UNL     1     -11.735  11.913  68.841  1.00  0.00    -0.326 SA 
HETATM    9  C   UNL     1     -11.557  13.553  69.490  1.00  0.00    -0.294 A  
HETATM   10  C   UNL     1      -8.963  10.066  66.638  1.00  0.00    -0.156 A  
HETATM   11  C   UNL     1     -10.430  14.371  69.260  1.00  0.00    -0.140 A  
HETATM   12  C   UNL     1     -10.490  15.650  69.872  1.00  0.00    -0.327 A  
HETATM   13  N   UNL     1      -9.324  13.944  68.451  1.00  0.00    -0.208 NA 
HETATM   14  C   UNL     1     -12.657  13.995  70.264  1.00  0.00    -0.354 A  
HETATM   15  C   UNL     1     -11.588  16.081  70.641  1.00  0.00    -0.409 A  
HETATM   16  C   UNL     1     -12.676  15.249  70.831  1.00  0.00    -0.496 A  
BRANCH  13  17
HETATM   17  C   UNL     1      -8.243  14.921  68.160  1.00  0.00    -0.139 C  
HETATM   18  C   UNL     1      -9.754  16.344  66.654  1.00  0.00    -0.257 C  
HETATM   19  C   UNL     1      -8.381  15.634  66.782  1.00  0.00    -0.313 C  
HETATM   20  C   UNL     1      -7.189  16.593  66.624  1.00  0.00    -0.276 C  
BRANCH  18  21
HETATM   21  N   UNL     1     -10.189  16.900  65.349  1.00  0.00    -0.623 NA 
HETATM   22  C   UNL     1     -11.311  16.159  64.766  1.00  0.00    -0.249 C  
HETATM   23  C   UNL     1     -10.619  18.292  65.584  1.00  0.00    -0.090 C  
ENDBRANCH  18  21
ENDBRANCH  13  17
ENDBRANCH   2   3
TORSDOF 3
ENDMDL
MODEL       46
REMARK 921   NORMALIZED FREE ENERGY PREDICTED BY IDOCK:   -4.93 KCAL/MOL
REMARK 922        TOTAL FREE ENERGY PREDICTED BY IDOCK:   -5.99 KCAL/MOL
REMARK 923 INTER-LIGAND FREE ENERGY PREDICTED BY IDOCK:   -5.90 KCAL/MOL
REMARK 924 INTRA-LIGAND FREE ENERGY PREDICTED BY IDOCK:   -0.09 KCAL/MOL
REMARK 927      BINDING AFFINITY PREDICTED BY RF-SCORE:    0.00 PKD
ROOT
HETATM    1  C   UNL     1     -11.005   9.648  70.457  1.00  0.00    -0.313 C  
HETATM    2  O   UNL     1     -10.133   9.414  69.356  1.00  0.00    -0.182 OA 
ENDROOT
BRANCH   2   3
HETATM    3  C   UNL     1      -9.225  10.410  69.112  1.00  0.00    -0.191 A  
HETATM    4  C   UNL     1      -9.735  11.564  68.496  1.00  0.00    -0.191 A  
HETATM    5  C   UNL     1      -8.939  12.695  68.192  1.00  0.00    -0.199 A  
HETATM    6  C   UNL     1      -7.571  12.579  68.523  1.00  0.00    -0.119 A  
HETATM    7  C   UNL     1      -7.056  11.410  69.110  1.00  0.00    -0.115 A  
HETATM    8  S   UNL     1      -6.369  13.850  68.273  1.00  0.00    -0.125 SA 
HETATM    9  C   UNL     1      -7.312  15.127  67.486  1.00  0.00    -0.196 A  
HETATM   10  C   UNL     1      -7.874  10.327  69.400  1.00  0.00    -0.157 A  
HETATM   11  C   UNL     1      -8.694  15.029  67.212  1.00  0.00    -0.203 A  
HETATM   12  C   UNL     1      -9.256  16.165  66.576  1.00  0.00    -0.303 A  
HETATM   13  N   UNL     1      -9.467  13.875  67.574  1.00  0.00    -0.209 NA 
HETATM   14  C   UNL     1      -6.565  16.282  67.153  1.00  0.00    -0.230 A  
HETATM   15  C   UNL     1      -8.504  17.309  66.247  1.00  0.00    -0.278 A  
HETATM   16  C   UNL     1      -7.155  17.366  66.544  1.00  0.00    -0.300 A  
BRANCH  13  17
HETATM   17  C   UNL     1     -10.938  13.915  67.363  1.00  0.00    -0.288 C  
HETATM   18  C   UNL     1     -10.793  12.583  65.178  1.00  0.00    -0.288 C  
HETATM   19  C   UNL     1     -11.370  13.845  65.869  1.00  0.00    -0.314 C  
HETATM   20  C   UNL     1     -12.905  13.913  65.817  1.00  0.00    -0.437 C  
BRANCH  18  21
HETATM   21  N   UNL     1     -10.895  12.423  63.706  1.00  0.00    -0.419 NA 
HETATM   22  C   UNL     1      -9.883  11.510  63.167  1.00  0.00    -0.390 C  
HETATM   23  C   UNL     1     -12.230  11.868  63.413  1.00  0.00    -0.450 C  
ENDBRANCH  18  21
ENDBRANCH  13  17
ENDBRANCH   2   3
TORSDOF 3
ENDMDL
MODEL       47
REMARK 921   NORMALIZED FREE ENERGY PREDICTED BY IDOCK:   -4.92 KCAL/MOL
REMARK 922        TOTAL FREE ENERGY PREDICTED BY IDOCK:   -5.98 KCAL/MOL
REMARK 923 INTER-LIGAND FREE ENERGY PREDICTED BY IDOCK:   -5.83 KCAL/MOL
REMARK 924 INTRA-LIGAND FREE ENERGY PREDICTED BY IDOCK:   -0.15 KCAL/MOL
REMARK 927      BINDING AFFINITY PREDICTED BY RF-SCORE:    0.00 PKD
ROOT
HETATM    1  C   UNL     1     -10.076  18.031  66.508  1.00  0.00    -0.379 C  
HETATM    2  O   UNL     1     -10.770  17.643  65.326  1.00  0.00    -0.649 OA 
ENDROOT
BRANCH   2   3
HETATM    3  C   UNL     1     -10.926  16.293  65.161  1.00  0.00    -0.274 A  
HETATM    4  C   UNL     1     -10.077  15.481  65.930  1.00  0.00    -0.374 A  
HETATM    5  C   UNL     1     -10.121  14.065  65.897  1.00  0.00    -0.321 A  
HETATM    6  C   UNL     1     -11.065  13.510  65.006  1.00  0.00    -0.328 A  
HETATM    7  C   UNL     1     -11.892  14.325  64.213  1.00  0.00    -0.401 A  
HETATM    8  S   UNL     1     -11.340  11.777  64.791  1.00  0.00    -0.202 SA 
HETATM    9  C   UNL     1     -10.127  11.056  65.864  1.00  0.00    -0.249 A  
HETATM   10  C   UNL     1     -11.823  15.709  64.283  1.00  0.00    -0.151 A  
HETATM   11  C   UNL     1      -9.240  11.807  66.664  1.00  0.00    -0.198 A  
HETATM   12  C   UNL     1      -8.348  11.033  67.451  1.00  0.00    -0.126 A  
HETATM   13  N   UNL     1      -9.259  13.243  66.692  1.00  0.00    -0.242 NA 
HETATM   14  C   UNL     1     -10.121   9.641  65.866  1.00  0.00    -0.304 A  
HETATM   15  C   UNL     1      -8.348   9.625  67.446  1.00  0.00    -0.114 A  
HETATM   16  C   UNL     1      -9.243   8.930  66.654  1.00  0.00    -0.215 A  
BRANCH  13  17
HETATM   17  C   UNL     1      -8.376  13.943  67.661  1.00  0.00    -0.181 C  
HETATM   18  C   UNL     1     -10.235  14.132  69.418  1.00  0.00     0.141 C  
HETATM   19  C   UNL     1      -9.129  14.892  68.640  1.00  0.00    -0.185 C  
HETATM   20  C   UNL     1      -8.086  15.547  69.560  1.00  0.00    -0.202 C  
BRANCH  18  21
HETATM   21  N   UNL     1     -11.218  14.879  70.241  1.00  0.00    -0.250 NA 
HETATM   22  C   UNL     1     -11.956  15.881  69.467  1.00  0.00    -0.262 C  
HETATM   23  C   UNL     1     -12.181  13.898  70.777  1.00  0.00    -0.369 C  
ENDBRANCH  18  21
ENDBRANCH  13  17
ENDBRANCH   2   3
TORSDOF 3
ENDMDL
MODEL       48
REMARK 921   NORMALIZED FREE ENERGY PREDICTED BY IDOCK:   -4.91 KCAL/MOL
REMARK 922        TOTAL FREE ENERGY PREDICTED BY IDOCK:   -5.98 KCAL/MOL
REMARK 923 INTER-LIGAND FREE ENERGY PREDICTED BY IDOCK:   -5.63 KCAL/MOL
REMARK 924 INTRA-LIGAND FREE ENERGY PREDICTED BY IDOCK:   -0.34 KCAL/MOL
REMARK 927      BINDING AFFINITY PREDICTED BY RF-SCORE:    0.00 PKD
ROOT
HETATM    1  C   UNL     1     -10.653  15.319  65.097  1.00  0.00    -0.430 C  
HETATM    2  O   UNL     1     -10.024  14.171  65.657  1.00  0.00    -0.322 OA 
ENDROOT
BRANCH   2   3
HETATM    3  C   UNL     1     -10.577  13.716  66.824  1.00  0.00    -0.273 A  
HETATM    4  C   UNL     1     -10.346  12.363  67.122  1.00  0.00    -0.232 A  
HETATM    5  C   UNL     1     -10.828  11.736  68.298  1.00  0.00    -0.220 A  
HETATM    6  C   UNL     1     -11.592  12.559  69.153  1.00  0.00    -0.320 A  
HETATM    7  C   UNL     1     -11.850  13.905  68.836  1.00  0.00    -0.393 A  
HETATM    8  S   UNL     1     -12.287  12.034  70.690  1.00  0.00    -0.215 SA 
HETATM    9  C   UNL     1     -11.837  10.321  70.754  1.00  0.00    -0.365 A  
HETATM   10  C   UNL     1     -11.351  14.483  67.678  1.00  0.00    -0.354 A  
HETATM   11  C   UNL     1     -11.078   9.670  69.758  1.00  0.00    -0.217 A  
HETATM   12  C   UNL     1     -10.829   8.295  70.005  1.00  0.00    -0.232 A  
HETATM   13  N   UNL     1     -10.579  10.358  68.601  1.00  0.00    -0.196 NA 
HETATM   14  C   UNL     1     -12.298   9.641  71.907  1.00  0.00    -0.437 A  
HETATM   15  C   UNL     1     -11.292   7.627  71.154  1.00  0.00    -0.286 A  
HETATM   16  C   UNL     1     -12.024   8.307  72.109  1.00  0.00    -0.429 A  
BRANCH  13  17
HETATM   17  C   UNL     1      -9.681   9.623  67.674  1.00  0.00    -0.149 C  
HETATM   18  C   UNL     1      -7.630   9.974  69.172  1.00  0.00    -0.096 C  
HETATM   19  C   UNL     1      -8.193  10.079  67.731  1.00  0.00    -0.113 C  
HETATM   20  C   UNL     1      -7.402   9.241  66.712  1.00  0.00    -0.086 C  
BRANCH  18  21
HETATM   21  N   UNL     1      -6.307  10.557  69.503  1.00  0.00    -0.055 NA 
HETATM   22  C   UNL     1      -6.344  12.020  69.601  1.00  0.00    -0.120 C  
HETATM   23  C   UNL     1      -5.897  10.011  70.811  1.00  0.00    -0.091 C  
ENDBRANCH  18  21
ENDBRANCH  13  17
ENDBRANCH   2   3
TORSDOF 3
ENDMDL
MODEL       49
REMARK 921   NORMALIZED FREE ENERGY PREDICTED BY IDOCK:   -4.91 KCAL/MOL
REMARK 922        TOTAL FREE ENERGY PREDICTED BY IDOCK:   -5.96 KCAL/MOL
REMARK 923 INTER-LIGAND FREE ENERGY PREDICTED BY IDOCK:   -6.33 KCAL/MOL
REMARK 924 INTRA-LIGAND FREE ENERGY PREDICTED BY IDOCK:    0.37 KCAL/MOL
REMARK 927      BINDING AFFINITY PREDICTED BY RF-SCORE:    0.00 PKD
ROOT
HETATM    1  C   UNL     1      -9.650   6.184  69.612  1.00  0.00    -0.148 C  
HETATM    2  O   UNL     1      -9.653   7.509  69.091  1.00  0.00    -0.157 OA 
ENDROOT
BRANCH   2   3
HETATM    3  C   UNL     1     -10.482   8.387  69.737  1.00  0.00    -0.220 A  
HETATM    4  C   UNL     1     -10.317   9.741  69.404  1.00  0.00    -0.232 A  
HETATM    5  C   UNL     1     -11.105  10.777  69.962  1.00  0.00    -0.255 A  
HETATM    6  C   UNL     1     -12.063  10.364  70.912  1.00  0.00    -0.374 A  
HETATM    7  C   UNL     1     -12.205   9.011  71.269  1.00  0.00    -0.373 A  
HETATM    8  S   UNL     1     -13.188  11.448  71.738  1.00  0.00    -0.233 SA 
HETATM    9  C   UNL     1     -12.714  13.041  71.121  1.00  0.00    -0.283 A  
HETATM   10  C   UNL     1     -11.418   8.025  70.691  1.00  0.00    -0.237 A  
HETATM   11  C   UNL     1     -11.686  13.243  70.175  1.00  0.00    -0.184 A  
HETATM   12  C   UNL     1     -11.468  14.598  69.816  1.00  0.00    -0.325 A  
HETATM   13  N   UNL     1     -10.939  12.156  69.609  1.00  0.00     0.019 NA 
HETATM   14  C   UNL     1     -13.466  14.117  71.650  1.00  0.00    -0.448 A  
HETATM   15  C   UNL     1     -12.220  15.663  70.348  1.00  0.00    -0.429 A  
HETATM   16  C   UNL     1     -13.226  15.416  71.264  1.00  0.00    -0.585 A  
BRANCH  13  17
HETATM   17  C   UNL     1      -9.965  12.455  68.527  1.00  0.00    -0.170 C  
HETATM   18  C   UNL     1     -11.805  13.167  66.889  1.00  0.00    -0.386 C  
HETATM   19  C   UNL     1     -10.540  12.292  67.089  1.00  0.00    -0.250 C  
HETATM   20  C   UNL     1      -9.417  12.619  66.091  1.00  0.00    -0.177 C  
BRANCH  18  21
HETATM   21  N   UNL     1     -12.641  13.007  65.674  1.00  0.00    -0.532 NA 
HETATM   22  C   UNL     1     -12.632  14.200  64.822  1.00  0.00    -0.302 C  
HETATM   23  C   UNL     1     -12.088  11.877  64.903  1.00  0.00    -0.053 C  
ENDBRANCH  18  21
ENDBRANCH  13  17
ENDBRANCH   2   3
TORSDOF 3
ENDMDL
MODEL       50
REMARK 921   NORMALIZED FREE ENERGY PREDICTED BY IDOCK:   -4.90 KCAL/MOL
REMARK 922        TOTAL FREE ENERGY PREDICTED BY IDOCK:   -5.96 KCAL/MOL
REMARK 923 INTER-LIGAND FREE ENERGY PREDICTED BY IDOCK:   -5.74 KCAL/MOL
REMARK 924 INTRA-LIGAND FREE ENERGY PREDICTED BY IDOCK:   -0.22 KCAL/MOL
REMARK 927      BINDING AFFINITY PREDICTED BY RF-SCORE:    0.00 PKD
ROOT
HETATM    1  C   UNL     1      -6.287  10.603  70.177  1.00  0.00    -0.139 C  
HETATM    2  O   UNL     1      -5.714  11.881  69.917  1.00  0.00    -0.095 OA 
ENDROOT
BRANCH   2   3
HETATM    3  C   UNL     1      -6.474  12.712  69.139  1.00  0.00    -0.106 A  
HETATM    4  C   UNL     1      -7.577  12.116  68.505  1.00  0.00    -0.124 A  
HETATM    5  C   UNL     1      -8.478  12.834  67.682  1.00  0.00    -0.178 A  
HETATM    6  C   UNL     1      -8.180  14.203  67.508  1.00  0.00    -0.186 A  
HETATM    7  C   UNL     1      -7.056  14.791  68.118  1.00  0.00    -0.126 A  
HETATM    8  S   UNL     1      -9.153  15.328  66.554  1.00  0.00    -0.311 SA 
HETATM    9  C   UNL     1     -10.422  14.280  65.896  1.00  0.00    -0.307 A  
HETATM   10  C   UNL     1      -6.203  14.052  68.925  1.00  0.00    -0.089 A  
HETATM   11  C   UNL     1     -10.525  12.900  66.175  1.00  0.00    -0.269 A  
HETATM   12  C   UNL     1     -11.616  12.246  65.546  1.00  0.00    -0.422 A  
HETATM   13  N   UNL     1      -9.607  12.223  67.047  1.00  0.00    -0.203 NA 
HETATM   14  C   UNL     1     -11.349  14.945  65.059  1.00  0.00    -0.398 A  
HETATM   15  C   UNL     1     -12.533  12.915  64.714  1.00  0.00    -0.517 A  
HETATM   16  C   UNL     1     -12.399  14.271  64.476  1.00  0.00    -0.432 A  
BRANCH  13  17
HETATM   17  C   UNL     1      -9.872  10.800  67.384  1.00  0.00    -0.177 C  
HETATM   18  C   UNL     1     -11.571  11.409  69.205  1.00  0.00    -0.317 C  
HETATM   19  C   UNL     1     -10.317  10.564  68.858  1.00  0.00    -0.226 C  
HETATM   20  C   UNL     1     -10.535   9.055  69.051  1.00  0.00    -0.235 C  
BRANCH  18  21
HETATM   21  N   UNL     1     -12.039  11.510  70.609  1.00  0.00    -0.373 NA 
HETATM   22  C   UNL     1     -12.623  12.819  70.917  1.00  0.00    -0.255 C  
HETATM   23  C   UNL     1     -13.076  10.478  70.804  1.00  0.00    -0.257 C  
ENDBRANCH  18  21
ENDBRANCH  13  17
ENDBRANCH   2   3
TORSDOF 3
ENDMDL
MODEL       51
REMARK 921   NORMALIZED FREE ENERGY PREDICTED BY IDOCK:   -4.89 KCAL/MOL
REMARK 922        TOTAL FREE ENERGY PREDICTED BY IDOCK:   -5.95 KCAL/MOL
REMARK 923 INTER-LIGAND FREE ENERGY PREDICTED BY IDOCK:   -5.85 KCAL/MOL
REMARK 924 INTRA-LIGAND FREE ENERGY PREDICTED BY IDOCK:   -0.10 KCAL/MOL
REMARK 927      BINDING AFFINITY PREDICTED BY RF-SCORE:    0.00 PKD
ROOT
HETATM    1  C   UNL     1      -5.986  13.122  70.045  1.00  0.00    -0.135 C  
HETATM    2  O   UNL     1      -6.498  14.450  70.087  1.00  0.00    -0.159 OA 
ENDROOT
BRANCH   2   3
HETATM    3  C   UNL     1      -7.475  14.726  69.168  1.00  0.00    -0.153 A  
HETATM    4  C   UNL     1      -7.824  13.669  68.312  1.00  0.00    -0.141 A  
HETATM    5  C   UNL     1      -8.829  13.777  67.319  1.00  0.00    -0.220 A  
HETATM    6  C   UNL     1      -9.449  15.041  67.220  1.00  0.00    -0.208 A  
HETATM    7  C   UNL     1      -9.075  16.108  68.057  1.00  0.00    -0.190 A  
HETATM    8  S   UNL     1     -10.745  15.435  66.086  1.00  0.00    -0.308 SA 
HETATM    9  C   UNL     1     -10.928  13.929  65.168  1.00  0.00    -0.350 A  
HETATM   10  C   UNL     1      -8.091  15.957  69.023  1.00  0.00    -0.229 A  
HETATM   11  C   UNL     1     -10.170  12.763  65.412  1.00  0.00    -0.283 A  
HETATM   12  C   UNL     1     -10.475  11.669  64.562  1.00  0.00    -0.359 A  
HETATM   13  N   UNL     1      -9.188  12.691  66.456  1.00  0.00    -0.226 NA 
HETATM   14  C   UNL     1     -11.916  13.981  64.156  1.00  0.00    -0.439 A  
HETATM   15  C   UNL     1     -11.459  11.729  63.558  1.00  0.00    -0.489 A  
HETATM   16  C   UNL     1     -12.184  12.890  63.361  1.00  0.00    -0.574 A  
BRANCH  13  17
HETATM   17  C   UNL     1      -8.534  11.383  66.722  1.00  0.00    -0.165 C  
HETATM   18  C   UNL     1     -10.260  10.733  68.504  1.00  0.00    -0.178 C  
HETATM   19  C   UNL     1      -8.750  10.844  68.167  1.00  0.00    -0.133 C  
HETATM   20  C   UNL     1      -8.006   9.504  68.287  1.00  0.00    -0.094 C  
BRANCH  18  21
HETATM   21  N   UNL     1     -10.697  10.450  69.893  1.00  0.00    -0.281 NA 
HETATM   22  C   UNL     1     -11.856  11.254  70.294  1.00  0.00    -0.357 C  
HETATM   23  C   UNL     1     -11.073   9.024  69.955  1.00  0.00    -0.182 C  
ENDBRANCH  18  21
ENDBRANCH  13  17
ENDBRANCH   2   3
TORSDOF 3
ENDMDL
MODEL       52
REMARK 921   NORMALIZED FREE ENERGY PREDICTED BY IDOCK:   -4.89 KCAL/MOL
REMARK 922        TOTAL FREE ENERGY PREDICTED BY IDOCK:   -5.94 KCAL/MOL
REMARK 923 INTER-LIGAND FREE ENERGY PREDICTED BY IDOCK:   -5.79 KCAL/MOL
REMARK 924 INTRA-LIGAND FREE ENERGY PREDICTED BY IDOCK:   -0.15 KCAL/MOL
REMARK 927      BINDING AFFINITY PREDICTED BY RF-SCORE:    0.00 PKD
ROOT
HETATM    1  C   UNL     1     -10.475  18.130  66.207  1.00  0.00    -0.361 C  
HETATM    2  O   UNL     1      -9.825  17.172  65.378  1.00  0.00    -0.490 OA 
ENDROOT
BRANCH   2   3
HETATM    3  C   UNL     1      -9.198  16.155  66.047  1.00  0.00    -0.328 A  
HETATM    4  C   UNL     1      -9.840  14.907  66.001  1.00  0.00    -0.345 A  
HETATM    5  C   UNL     1      -9.318  13.745  66.619  1.00  0.00    -0.264 A  
HETATM    6  C   UNL     1      -8.108  13.925  67.323  1.00  0.00    -0.145 A  
HETATM    7  C   UNL     1      -7.483  15.183  67.396  1.00  0.00    -0.239 A  
HETATM    8  S   UNL     1      -7.235  12.638  68.161  1.00  0.00    -0.123 SA 
HETATM    9  C   UNL     1      -8.295  11.236  67.930  1.00  0.00    -0.131 A  
HETATM   10  C   UNL     1      -8.024  16.295  66.767  1.00  0.00    -0.306 A  
HETATM   11  C   UNL     1      -9.504  11.277  67.201  1.00  0.00    -0.170 A  
HETATM   12  C   UNL     1     -10.200  10.043  67.137  1.00  0.00    -0.284 A  
HETATM   13  N   UNL     1      -9.973  12.472  66.559  1.00  0.00    -0.238 NA 
HETATM   14  C   UNL     1      -7.825  10.045  68.533  1.00  0.00    -0.093 A  
HETATM   15  C   UNL     1      -9.726   8.863  67.742  1.00  0.00    -0.196 A  
HETATM   16  C   UNL     1      -8.531   8.867  68.437  1.00  0.00    -0.129 A  
BRANCH  13  17
HETATM   17  C   UNL     1     -11.188  12.386  65.708  1.00  0.00    -0.333 C  
HETATM   18  C   UNL     1     -10.014  10.937  63.949  1.00  0.00    -0.343 C  
HETATM   19  C   UNL     1     -10.892  12.192  64.191  1.00  0.00    -0.410 C  
HETATM   20  C   UNL     1     -12.238  12.138  63.450  1.00  0.00    -0.635 C  
BRANCH  18  21
HETATM   21  N   UNL     1      -9.430  10.680  62.609  1.00  0.00    -0.305 NA 
HETATM   22  C   UNL     1      -8.122  11.317  62.433  1.00  0.00    -0.003 C  
HETATM   23  C   UNL     1      -9.262   9.220  62.473  1.00  0.00     0.079 C  
ENDBRANCH  18  21
ENDBRANCH  13  17
ENDBRANCH   2   3
TORSDOF 3
ENDMDL
MODEL       53
REMARK 921   NORMALIZED FREE ENERGY PREDICTED BY IDOCK:   -4.88 KCAL/MOL
REMARK 922        TOTAL FREE ENERGY PREDICTED BY IDOCK:   -5.94 KCAL/MOL
REMARK 923 INTER-LIGAND FREE ENERGY PREDICTED BY IDOCK:   -6.14 KCAL/MOL
REMARK 924 INTRA-LIGAND FREE ENERGY PREDICTED BY IDOCK:    0.20 KCAL/MOL
REMARK 927      BINDING AFFINITY PREDICTED BY RF-SCORE:    0.00 PKD
ROOT
HETATM    1  C   UNL     1      -5.468  12.660  70.430  1.00  0.00    -0.154 C  
HETATM    2  O   UNL     1      -6.344  11.539  70.358  1.00  0.00    -0.253 OA 
ENDROOT
BRANCH   2   3
HETATM    3  C   UNL     1      -6.918  11.327  69.133  1.00  0.00    -0.114 A  
HETATM    4  C   UNL     1      -8.115  12.020  68.891  1.00  0.00     0.101 A  
HETATM    5  C   UNL     1      -8.827  11.932  67.670  1.00  0.00    -0.169 A  
HETATM    6  C   UNL     1      -8.269  11.068  66.704  1.00  0.00    -0.154 A  
HETATM    7  C   UNL     1      -7.086  10.350  66.960  1.00  0.00    -0.092 A  
HETATM    8  S   UNL     1      -8.942  10.796  65.093  1.00  0.00    -0.182 SA 
HETATM    9  C   UNL     1     -10.418  11.778  65.119  1.00  0.00    -0.283 A  
HETATM   10  C   UNL     1      -6.414  10.472  68.167  1.00  0.00    -0.062 A  
HETATM   11  C   UNL     1     -10.820  12.563  66.222  1.00  0.00    -0.268 A  
HETATM   12  C   UNL     1     -12.034  13.272  66.034  1.00  0.00    -0.473 A  
HETATM   13  N   UNL     1     -10.043  12.650  67.426  1.00  0.00    -0.216 NA 
HETATM   14  C   UNL     1     -11.175  11.723  63.925  1.00  0.00    -0.493 A  
HETATM   15  C   UNL     1     -12.781  13.211  64.843  1.00  0.00    -0.421 A  
HETATM   16  C   UNL     1     -12.343  12.437  63.784  1.00  0.00    -0.625 A  
BRANCH  13  17
HETATM   17  C   UNL     1     -10.479  13.601  68.481  1.00  0.00    -0.244 C  
HETATM   18  C   UNL     1     -11.442  11.734  69.951  1.00  0.00    -0.206 C  
HETATM   19  C   UNL     1     -11.709  13.119  69.306  1.00  0.00    -0.376 C  
HETATM   20  C   UNL     1     -12.043  14.210  70.337  1.00  0.00    -0.417 C  
BRANCH  18  21
HETATM   21  N   UNL     1     -12.547  10.986  70.599  1.00  0.00    -0.344 NA 
HETATM   22  C   UNL     1     -12.148   9.638  71.013  1.00  0.00    -0.337 C  
HETATM   23  C   UNL     1     -12.950  11.744  71.800  1.00  0.00    -0.361 C  
ENDBRANCH  18  21
ENDBRANCH  13  17
ENDBRANCH   2   3
TORSDOF 3
ENDMDL
MODEL       54
REMARK 921   NORMALIZED FREE ENERGY PREDICTED BY IDOCK:   -4.87 KCAL/MOL
REMARK 922        TOTAL FREE ENERGY PREDICTED BY IDOCK:   -5.92 KCAL/MOL
REMARK 923 INTER-LIGAND FREE ENERGY PREDICTED BY IDOCK:   -5.87 KCAL/MOL
REMARK 924 INTRA-LIGAND FREE ENERGY PREDICTED BY IDOCK:   -0.06 KCAL/MOL
REMARK 927      BINDING AFFINITY PREDICTED BY RF-SCORE:    0.00 PKD
ROOT
HETATM    1  C   UNL     1     -12.355  14.425  70.100  1.00  0.00    -0.348 C  
HETATM    2  O   UNL     1     -12.163  13.089  70.553  1.00  0.00    -0.357 OA 
ENDROOT
BRANCH   2   3
HETATM    3  C   UNL     1     -11.689  12.217  69.610  1.00  0.00    -0.325 A  
HETATM    4  C   UNL     1     -11.545  10.884  70.028  1.00  0.00    -0.424 A  
HETATM    5  C   UNL     1     -11.089   9.850  69.175  1.00  0.00    -0.159 A  
HETATM    6  C   UNL     1     -10.753  10.251  67.864  1.00  0.00    -0.264 A  
HETATM    7  C   UNL     1     -10.867  11.592  67.456  1.00  0.00    -0.287 A  
HETATM    8  S   UNL     1     -10.183   9.159  66.597  1.00  0.00    -0.228 SA 
HETATM    9  C   UNL     1     -10.099   7.600  67.437  1.00  0.00    -0.222 A  
HETATM   10  C   UNL     1     -11.327  12.573  68.322  1.00  0.00    -0.331 A  
HETATM   11  C   UNL     1     -10.460   7.416  68.789  1.00  0.00    -0.199 A  
HETATM   12  C   UNL     1     -10.318   6.088  69.267  1.00  0.00    -0.294 A  
HETATM   13  N   UNL     1     -10.954   8.490  69.605  1.00  0.00    -0.150 NA 
HETATM   14  C   UNL     1      -9.642   6.529  66.632  1.00  0.00    -0.201 A  
HETATM   15  C   UNL     1      -9.862   5.029  68.459  1.00  0.00    -0.216 A  
HETATM   16  C   UNL     1      -9.529   5.253  67.136  1.00  0.00    -0.132 A  
BRANCH  13  17
HETATM   17  C   UNL     1     -11.431   8.174  70.976  1.00  0.00    -0.279 C  
HETATM   18  C   UNL     1      -9.158   8.714  72.032  1.00  0.00    -0.241 C  
HETATM   19  C   UNL     1     -10.313   7.683  71.943  1.00  0.00    -0.240 C  
HETATM   20  C   UNL     1     -10.962   7.385  73.304  1.00  0.00    -0.367 C  
BRANCH  18  21
HETATM   21  N   UNL     1      -7.892   8.361  72.721  1.00  0.00    -0.297 NA 
HETATM   22  C   UNL     1      -8.035   8.326  74.180  1.00  0.00    -0.222 C  
HETATM   23  C   UNL     1      -7.497   7.017  72.257  1.00  0.00    -0.086 C  
ENDBRANCH  18  21
ENDBRANCH  13  17
ENDBRANCH   2   3
TORSDOF 3
ENDMDL
MODEL       55
REMARK 921   NORMALIZED FREE ENERGY PREDICTED BY IDOCK:   -4.85 KCAL/MOL
REMARK 922        TOTAL FREE ENERGY PREDICTED BY IDOCK:   -5.90 KCAL/MOL
REMARK 923 INTER-LIGAND FREE ENERGY PREDICTED BY IDOCK:   -5.51 KCAL/MOL
REMARK 924 INTRA-LIGAND FREE ENERGY PREDICTED BY IDOCK:   -0.39 KCAL/MOL
REMARK 927      BINDING AFFINITY PREDICTED BY RF-SCORE:    0.00 PKD
ROOT
HETATM    1  C   UNL     1     -11.760  14.867  70.198  1.00  0.00    -0.294 C  
HETATM    2  O   UNL     1     -12.249  13.648  69.648  1.00  0.00    -0.314 OA 
ENDROOT
BRANCH   2   3
HETATM    3  C   UNL     1     -11.934  13.437  68.332  1.00  0.00    -0.324 A  
HETATM    4  C   UNL     1     -11.177  12.284  68.063  1.00  0.00    -0.321 A  
HETATM    5  C   UNL     1     -10.784  11.905  66.756  1.00  0.00    -0.246 A  
HETATM    6  C   UNL     1     -11.178  12.784  65.725  1.00  0.00    -0.307 A  
HETATM    7  C   UNL     1     -11.908  13.955  66.000  1.00  0.00    -0.412 A  
HETATM    8  S   UNL     1     -10.840  12.533  64.010  1.00  0.00    -0.440 SA 
HETATM    9  C   UNL     1      -9.882  11.042  64.018  1.00  0.00    -0.313 A  
HETATM   10  C   UNL     1     -12.282  14.285  67.295  1.00  0.00    -0.287 A  
HETATM   11  C   UNL     1      -9.566  10.317  65.188  1.00  0.00    -0.277 A  
HETATM   12  C   UNL     1      -8.789   9.150  64.972  1.00  0.00    -0.230 A  
HETATM   13  N   UNL     1     -10.021  10.722  66.488  1.00  0.00    -0.206 NA 
HETATM   14  C   UNL     1      -9.455  10.617  62.737  1.00  0.00    -0.355 A  
HETATM   15  C   UNL     1      -8.368   8.735  63.694  1.00  0.00    -0.146 A  
HETATM   16  C   UNL     1      -8.709   9.472  62.574  1.00  0.00    -0.233 A  
BRANCH  13  17
HETATM   17  C   UNL     1      -9.749   9.827  67.642  1.00  0.00    -0.156 C  
HETATM   18  C   UNL     1      -7.725  11.205  68.403  1.00  0.00    -0.125 C  
HETATM   19  C   UNL     1      -8.255   9.784  68.078  1.00  0.00    -0.109 C  
HETATM   20  C   UNL     1      -8.136   8.811  69.263  1.00  0.00    -0.110 C  
BRANCH  18  21
HETATM   21  N   UNL     1      -6.276  11.429  68.628  1.00  0.00    -0.047 NA 
HETATM   22  C   UNL     1      -5.685  12.334  67.638  1.00  0.00    -0.113 C  
HETATM   23  C   UNL     1      -6.126  12.035  69.965  1.00  0.00    -0.146 C  
ENDBRANCH  18  21
ENDBRANCH  13  17
ENDBRANCH   2   3
TORSDOF 3
ENDMDL
MODEL       56
REMARK 921   NORMALIZED FREE ENERGY PREDICTED BY IDOCK:   -4.81 KCAL/MOL
REMARK 922        TOTAL FREE ENERGY PREDICTED BY IDOCK:   -5.85 KCAL/MOL
REMARK 923 INTER-LIGAND FREE ENERGY PREDICTED BY IDOCK:   -5.88 KCAL/MOL
REMARK 924 INTRA-LIGAND FREE ENERGY PREDICTED BY IDOCK:    0.03 KCAL/MOL
REMARK 927      BINDING AFFINITY PREDICTED BY RF-SCORE:    0.00 PKD
ROOT
HETATM    1  C   UNL     1     -13.741   9.109  72.432  1.00  0.00    -0.480 C  
HETATM    2  O   UNL     1     -12.597   9.792  71.930  1.00  0.00    -0.385 OA 
ENDROOT
BRANCH   2   3
HETATM    3  C   UNL     1     -11.881   9.109  70.983  1.00  0.00    -0.292 A  
HETATM    4  C   UNL     1     -11.151   9.900  70.081  1.00  0.00    -0.353 A  
HETATM    5  C   UNL     1     -10.340   9.356  69.055  1.00  0.00    -0.210 A  
HETATM    6  C   UNL     1     -10.334   7.947  68.971  1.00  0.00    -0.214 A  
HETATM    7  C   UNL     1     -11.091   7.157  69.855  1.00  0.00    -0.264 A  
HETATM    8  S   UNL     1      -9.391   7.018  67.801  1.00  0.00    -0.125 SA 
HETATM    9  C   UNL     1      -8.621   8.285  66.829  1.00  0.00    -0.127 A  
HETATM   10  C   UNL     1     -11.865   7.731  70.853  1.00  0.00    -0.257 A  
HETATM   11  C   UNL     1      -8.787   9.666  67.066  1.00  0.00    -0.131 A  
HETATM   12  C   UNL     1      -8.081  10.511  66.171  1.00  0.00    -0.145 A  
HETATM   13  N   UNL     1      -9.589  10.169  68.145  1.00  0.00    -0.138 NA 
HETATM   14  C   UNL     1      -7.802   7.798  65.782  1.00  0.00    -0.104 A  
HETATM   15  C   UNL     1      -7.269  10.019  65.132  1.00  0.00    -0.139 A  
HETATM   16  C   UNL     1      -7.128   8.656  64.943  1.00  0.00    -0.080 A  
BRANCH  13  17
HETATM   17  C   UNL     1      -9.600  11.634  68.395  1.00  0.00    -0.195 C  
HETATM   18  C   UNL     1     -11.638  12.010  66.885  1.00  0.00    -0.318 C  
HETATM   19  C   UNL     1     -10.199  12.476  67.229  1.00  0.00    -0.222 C  
HETATM   20  C   UNL     1     -10.126  13.958  67.630  1.00  0.00    -0.241 C  
BRANCH  18  21
HETATM   21  N   UNL     1     -12.319  12.521  65.670  1.00  0.00    -0.638 NA 
HETATM   22  C   UNL     1     -12.645  13.947  65.764  1.00  0.00    -0.494 C  
HETATM   23  C   UNL     1     -11.398  12.326  64.533  1.00  0.00    -0.329 C  
ENDBRANCH  18  21
ENDBRANCH  13  17
ENDBRANCH   2   3
TORSDOF 3
ENDMDL
MODEL       57
REMARK 921   NORMALIZED FREE ENERGY PREDICTED BY IDOCK:   -4.80 KCAL/MOL
REMARK 922        TOTAL FREE ENERGY PREDICTED BY IDOCK:   -5.84 KCAL/MOL
REMARK 923 INTER-LIGAND FREE ENERGY PREDICTED BY IDOCK:   -5.60 KCAL/MOL
REMARK 924 INTRA-LIGAND FREE ENERGY PREDICTED BY IDOCK:   -0.25 KCAL/MOL
REMARK 927      BINDING AFFINITY PREDICTED BY RF-SCORE:    0.00 PKD
ROOT
HETATM    1  C   UNL     1      -9.511   5.665  66.756  1.00  0.00    -0.141 C  
HETATM    2  O   UNL     1      -9.481   7.086  66.837  1.00  0.00    -0.147 OA 
ENDROOT
BRANCH   2   3
HETATM    3  C   UNL     1     -10.113   7.620  67.928  1.00  0.00    -0.185 A  
HETATM    4  C   UNL     1     -10.357   9.002  67.876  1.00  0.00    -0.290 A  
HETATM    5  C   UNL     1     -11.019   9.710  68.909  1.00  0.00    -0.121 A  
HETATM    6  C   UNL     1     -11.397   8.937  70.028  1.00  0.00    -0.040 A  
HETATM    7  C   UNL     1     -11.123   7.559  70.092  1.00  0.00    -0.246 A  
HETATM    8  S   UNL     1     -12.255   9.567  71.438  1.00  0.00    -0.395 SA 
HETATM    9  C   UNL     1     -12.388  11.296  71.070  1.00  0.00    -0.366 A  
HETATM   10  C   UNL     1     -10.480   6.901  69.053  1.00  0.00    -0.223 A  
HETATM   11  C   UNL     1     -11.905  11.886  69.882  1.00  0.00    -0.343 A  
HETATM   12  C   UNL     1     -12.114  13.286  69.787  1.00  0.00    -0.355 A  
HETATM   13  N   UNL     1     -11.275  11.119  68.845  1.00  0.00    -0.231 NA 
HETATM   14  C   UNL     1     -13.037  12.056  72.073  1.00  0.00    -0.456 A  
HETATM   15  C   UNL     1     -12.759  14.034  70.789  1.00  0.00    -0.396 A  
HETATM   16  C   UNL     1     -13.226  13.412  71.933  1.00  0.00    -0.522 A  
BRANCH  13  17
HETATM   17  C   UNL     1     -10.916  11.805  67.577  1.00  0.00    -0.256 C  
HETATM   18  C   UNL     1      -8.422  11.875  68.166  1.00  0.00    -0.163 C  
HETATM   19  C   UNL     1      -9.642  12.695  67.671  1.00  0.00    -0.188 C  
HETATM   20  C   UNL     1      -9.414  13.342  66.295  1.00  0.00    -0.196 C  
BRANCH  18  21
HETATM   21  N   UNL     1      -7.160  12.562  68.537  1.00  0.00    -0.101 NA 
HETATM   22  C   UNL     1      -6.518  11.966  69.712  1.00  0.00    -0.077 C  
HETATM   23  C   UNL     1      -6.239  12.443  67.390  1.00  0.00    -0.158 C  
ENDBRANCH  18  21
ENDBRANCH  13  17
ENDBRANCH   2   3
TORSDOF 3
ENDMDL
MODEL       58
REMARK 921   NORMALIZED FREE ENERGY PREDICTED BY IDOCK:   -4.79 KCAL/MOL
REMARK 922        TOTAL FREE ENERGY PREDICTED BY IDOCK:   -5.83 KCAL/MOL
REMARK 923 INTER-LIGAND FREE ENERGY PREDICTED BY IDOCK:   -5.49 KCAL/MOL
REMARK 924 INTRA-LIGAND FREE ENERGY PREDICTED BY IDOCK:   -0.34 KCAL/MOL
REMARK 927      BINDING AFFINITY PREDICTED BY RF-SCORE:    0.00 PKD
ROOT
HETATM    1  C   UNL     1     -10.918   8.948  71.845  1.00  0.00    -0.369 C  
HETATM    2  O   UNL     1      -9.600   9.438  71.624  1.00  0.00    -0.260 OA 
ENDROOT
BRANCH   2   3
HETATM    3  C   UNL     1      -9.180   9.411  70.321  1.00  0.00    -0.245 A  
HETATM    4  C   UNL     1      -9.936  10.180  69.420  1.00  0.00    -0.247 A  
HETATM    5  C   UNL     1      -9.628  10.281  68.041  1.00  0.00    -0.145 A  
HETATM    6  C   UNL     1      -8.515   9.526  67.612  1.00  0.00    -0.122 A  
HETATM    7  C   UNL     1      -7.779   8.731  68.510  1.00  0.00    -0.099 A  
HETATM    8  S   UNL     1      -7.904   9.494  65.955  1.00  0.00    -0.102 SA 
HETATM    9  C   UNL     1      -9.061  10.525  65.095  1.00  0.00    -0.197 A  
HETATM   10  C   UNL     1      -8.109   8.667  69.856  1.00  0.00    -0.111 A  
HETATM   11  C   UNL     1     -10.147  11.178  65.719  1.00  0.00    -0.249 A  
HETATM   12  C   UNL     1     -10.952  11.956  64.849  1.00  0.00    -0.367 A  
HETATM   13  N   UNL     1     -10.396  11.075  67.129  1.00  0.00    -0.210 NA 
HETATM   14  C   UNL     1      -8.806  10.658  63.710  1.00  0.00    -0.178 A  
HETATM   15  C   UNL     1     -10.691  12.082  63.471  1.00  0.00    -0.513 A  
HETATM   16  C   UNL     1      -9.609  11.432  62.904  1.00  0.00    -0.366 A  
BRANCH  13  17
HETATM   17  C   UNL     1     -11.484  11.900  67.717  1.00  0.00    -0.319 C  
HETATM   18  C   UNL     1     -10.063  14.034  67.682  1.00  0.00    -0.241 C  
HETATM   19  C   UNL     1     -10.983  13.125  68.538  1.00  0.00    -0.289 C  
HETATM   20  C   UNL     1     -12.216  13.861  69.087  1.00  0.00    -0.305 C  
BRANCH  18  21
HETATM   21  N   UNL     1      -9.301  15.136  68.317  1.00  0.00    -0.189 NA 
HETATM   22  C   UNL     1      -7.866  15.073  68.023  1.00  0.00    -0.125 C  
HETATM   23  C   UNL     1      -9.832  16.406  67.784  1.00  0.00    -0.239 C  
ENDBRANCH  18  21
ENDBRANCH  13  17
ENDBRANCH   2   3
TORSDOF 3
ENDMDL
MODEL       59
REMARK 921   NORMALIZED FREE ENERGY PREDICTED BY IDOCK:   -4.79 KCAL/MOL
REMARK 922        TOTAL FREE ENERGY PREDICTED BY IDOCK:   -5.83 KCAL/MOL
REMARK 923 INTER-LIGAND FREE ENERGY PREDICTED BY IDOCK:   -6.01 KCAL/MOL
REMARK 924 INTRA-LIGAND FREE ENERGY PREDICTED BY IDOCK:    0.19 KCAL/MOL
REMARK 927      BINDING AFFINITY PREDICTED BY RF-SCORE:    0.00 PKD
ROOT
HETATM    1  C   UNL     1     -10.763   9.531  69.252  1.00  0.00    -0.222 C  
HETATM    2  O   UNL     1     -11.252  10.719  68.639  1.00  0.00    -0.235 OA 
ENDROOT
BRANCH   2   3
HETATM    3  C   UNL     1     -10.352  11.748  68.563  1.00  0.00    -0.217 A  
HETATM    4  C   UNL     1     -10.891  13.041  68.673  1.00  0.00    -0.287 A  
HETATM    5  C   UNL     1     -10.100  14.215  68.637  1.00  0.00    -0.229 A  
HETATM    6  C   UNL     1      -8.716  14.007  68.451  1.00  0.00    -0.179 A  
HETATM    7  C   UNL     1      -8.182  12.714  68.309  1.00  0.00    -0.164 A  
HETATM    8  S   UNL     1      -7.508  15.296  68.394  1.00  0.00    -0.117 SA 
HETATM    9  C   UNL     1      -8.497  16.760  68.541  1.00  0.00    -0.244 A  
HETATM   10  C   UNL     1      -8.992  11.589  68.359  1.00  0.00    -0.173 A  
HETATM   11  C   UNL     1      -9.900  16.749  68.691  1.00  0.00    -0.261 A  
HETATM   12  C   UNL     1     -10.497  18.032  68.791  1.00  0.00    -0.182 A  
HETATM   13  N   UNL     1     -10.655  15.530  68.760  1.00  0.00    -0.234 NA 
HETATM   14  C   UNL     1      -7.758  17.967  68.505  1.00  0.00    -0.299 A  
HETATM   15  C   UNL     1      -9.755  19.228  68.754  1.00  0.00    -0.510 A  
HETATM   16  C   UNL     1      -8.379  19.190  68.615  1.00  0.00    -0.403 A  
BRANCH  13  17
HETATM   17  C   UNL     1     -12.110  15.615  69.049  1.00  0.00    -0.205 C  
HETATM   18  C   UNL     1     -11.728  15.891  71.569  1.00  0.00    -0.475 C  
HETATM   19  C   UNL     1     -12.508  15.122  70.472  1.00  0.00    -0.429 C  
HETATM   20  C   UNL     1     -14.034  15.258  70.610  1.00  0.00     0.090 C  
BRANCH  18  21
HETATM   21  N   UNL     1     -11.785  15.441  72.982  1.00  0.00    -0.431 NA 
HETATM   22  C   UNL     1     -12.398  16.436  73.866  1.00  0.00    -0.483 C  
HETATM   23  C   UNL     1     -12.602  14.213  73.021  1.00  0.00    -0.123 C  
ENDBRANCH  18  21
ENDBRANCH  13  17
ENDBRANCH   2   3
TORSDOF 3
ENDMDL
MODEL       60
REMARK 921   NORMALIZED FREE ENERGY PREDICTED BY IDOCK:   -4.79 KCAL/MOL
REMARK 922        TOTAL FREE ENERGY PREDICTED BY IDOCK:   -5.82 KCAL/MOL
REMARK 923 INTER-LIGAND FREE ENERGY PREDICTED BY IDOCK:   -5.73 KCAL/MOL
REMARK 924 INTRA-LIGAND FREE ENERGY PREDICTED BY IDOCK:   -0.09 KCAL/MOL
REMARK 927      BINDING AFFINITY PREDICTED BY RF-SCORE:    0.00 PKD
ROOT
HETATM    1  C   UNL     1     -10.641   7.197  73.417  1.00  0.00    -0.382 C  
HETATM    2  O   UNL     1     -11.872   7.407  72.733  1.00  0.00    -0.199 OA 
ENDROOT
BRANCH   2   3
HETATM    3  C   UNL     1     -11.934   8.552  71.984  1.00  0.00    -0.361 A  
HETATM    4  C   UNL     1     -10.803   8.829  71.199  1.00  0.00    -0.335 A  
HETATM    5  C   UNL     1     -10.709   9.959  70.350  1.00  0.00    -0.318 A  
HETATM    6  C   UNL     1     -11.826  10.822  70.364  1.00  0.00    -0.358 A  
HETATM    7  C   UNL     1     -12.944  10.559  71.176  1.00  0.00    -0.506 A  
HETATM    8  S   UNL     1     -11.976  12.283  69.382  1.00  0.00    -0.214 SA 
HETATM    9  C   UNL     1     -10.415  12.349  68.545  1.00  0.00    -0.228 A  
HETATM   10  C   UNL     1     -13.000   9.435  71.987  1.00  0.00    -0.508 A  
HETATM   11  C   UNL     1      -9.400  11.380  68.698  1.00  0.00    -0.150 A  
HETATM   12  C   UNL     1      -8.228  11.623  67.935  1.00  0.00    -0.141 A  
HETATM   13  N   UNL     1      -9.557  10.230  69.542  1.00  0.00    -0.223 NA 
HETATM   14  C   UNL     1     -10.262  13.464  67.685  1.00  0.00    -0.228 A  
HETATM   15  C   UNL     1      -8.084  12.734  67.084  1.00  0.00    -0.131 A  
HETATM   16  C   UNL     1      -9.110  13.653  66.957  1.00  0.00    -0.254 A  
BRANCH  13  17
HETATM   17  C   UNL     1      -8.487   9.199  69.540  1.00  0.00    -0.128 C  
HETATM   18  C   UNL     1      -9.355   8.115  67.385  1.00  0.00    -0.141 C  
HETATM   19  C   UNL     1      -8.887   7.866  68.842  1.00  0.00    -0.142 C  
HETATM   20  C   UNL     1      -7.690   6.906  68.935  1.00  0.00    -0.110 C  
BRANCH  18  21
HETATM   21  N   UNL     1      -9.986   7.022  66.605  1.00  0.00    -0.181 NA 
HETATM   22  C   UNL     1      -9.002   6.122  65.996  1.00  0.00    -0.145 C  
HETATM   23  C   UNL     1     -10.822   6.240  67.537  1.00  0.00    -0.349 C  
ENDBRANCH  18  21
ENDBRANCH  13  17
ENDBRANCH   2   3
TORSDOF 3
ENDMDL
MODEL       61
REMARK 921   NORMALIZED FREE ENERGY PREDICTED BY IDOCK:   -4.77 KCAL/MOL
REMARK 922        TOTAL FREE ENERGY PREDICTED BY IDOCK:   -5.80 KCAL/MOL
REMARK 923 INTER-LIGAND FREE ENERGY PREDICTED BY IDOCK:   -5.53 KCAL/MOL
REMARK 924 INTRA-LIGAND FREE ENERGY PREDICTED BY IDOCK:   -0.28 KCAL/MOL
REMARK 927      BINDING AFFINITY PREDICTED BY RF-SCORE:    0.00 PKD
ROOT
HETATM    1  C   UNL     1     -11.381  15.677  70.912  1.00  0.00    -0.380 C  
HETATM    2  O   UNL     1     -10.254  15.340  70.110  1.00  0.00    -0.253 OA 
ENDROOT
BRANCH   2   3
HETATM    3  C   UNL     1     -10.550  14.800  68.887  1.00  0.00    -0.250 A  
HETATM    4  C   UNL     1      -9.664  13.812  68.425  1.00  0.00    -0.219 A  
HETATM    5  C   UNL     1      -9.834  13.136  67.192  1.00  0.00    -0.235 A  
HETATM    6  C   UNL     1     -10.949  13.543  66.427  1.00  0.00    -0.293 A  
HETATM    7  C   UNL     1     -11.816  14.555  66.877  1.00  0.00    -0.399 A  
HETATM    8  S   UNL     1     -11.401  12.846  64.868  1.00  0.00    -0.322 SA 
HETATM    9  C   UNL     1     -10.104  11.674  64.576  1.00  0.00    -0.278 A  
HETATM   10  C   UNL     1     -11.619  15.186  68.096  1.00  0.00    -0.358 A  
HETATM   11  C   UNL     1      -9.042  11.437  65.475  1.00  0.00    -0.137 A  
HETATM   12  C   UNL     1      -8.109  10.457  65.048  1.00  0.00    -0.136 A  
HETATM   13  N   UNL     1      -8.933  12.122  66.732  1.00  0.00    -0.200 NA 
HETATM   14  C   UNL     1     -10.219  10.972  63.352  1.00  0.00    -0.404 A  
HETATM   15  C   UNL     1      -8.230   9.764  63.829  1.00  0.00    -0.162 A  
HETATM   16  C   UNL     1      -9.294  10.021  62.983  1.00  0.00    -0.297 A  
BRANCH  13  17
HETATM   17  C   UNL     1      -7.854  11.713  67.669  1.00  0.00    -0.135 C  
HETATM   18  C   UNL     1      -9.271   9.837  68.691  1.00  0.00    -0.137 C  
HETATM   19  C   UNL     1      -8.366  11.061  68.987  1.00  0.00    -0.089 C  
HETATM   20  C   UNL     1      -7.142  10.711  69.848  1.00  0.00    -0.133 C  
BRANCH  18  21
HETATM   21  N   UNL     1     -10.042   9.195  69.783  1.00  0.00    -0.191 NA 
HETATM   22  C   UNL     1     -11.197   9.994  70.203  1.00  0.00    -0.304 C  
HETATM   23  C   UNL     1     -10.531   7.898  69.276  1.00  0.00    -0.216 C  
ENDBRANCH  18  21
ENDBRANCH  13  17
ENDBRANCH   2   3
TORSDOF 3
ENDMDL
MODEL       62
REMARK 921   NORMALIZED FREE ENERGY PREDICTED BY IDOCK:   -4.76 KCAL/MOL
REMARK 922        TOTAL FREE ENERGY PREDICTED BY IDOCK:   -5.80 KCAL/MOL
REMARK 923 INTER-LIGAND FREE ENERGY PREDICTED BY IDOCK:   -5.56 KCAL/MOL
REMARK 924 INTRA-LIGAND FREE ENERGY PREDICTED BY IDOCK:   -0.24 KCAL/MOL
REMARK 927      BINDING AFFINITY PREDICTED BY RF-SCORE:    0.00 PKD
ROOT
HETATM    1  C   UNL     1     -12.390  13.064  63.980  1.00  0.00    -0.363 C  
HETATM    2  O   UNL     1     -11.363  12.615  63.102  1.00  0.00    -0.397 OA 
ENDROOT
BRANCH   2   3
HETATM    3  C   UNL     1     -10.574  11.611  63.596  1.00  0.00    -0.433 A  
HETATM    4  C   UNL     1     -10.722  11.334  64.965  1.00  0.00    -0.322 A  
HETATM    5  C   UNL     1      -9.999  10.315  65.631  1.00  0.00    -0.280 A  
HETATM    6  C   UNL     1      -9.083   9.600  64.829  1.00  0.00    -0.231 A  
HETATM    7  C   UNL     1      -8.912   9.901  63.466  1.00  0.00    -0.277 A  
HETATM    8  S   UNL     1      -8.077   8.266  65.405  1.00  0.00    -0.142 SA 
HETATM    9  C   UNL     1      -8.483   8.189  67.128  1.00  0.00    -0.124 A  
HETATM   10  C   UNL     1      -9.648  10.903  62.850  1.00  0.00    -0.371 A  
HETATM   11  C   UNL     1      -9.427   9.035  67.752  1.00  0.00    -0.141 A  
HETATM   12  C   UNL     1      -9.603   8.806  69.140  1.00  0.00    -0.162 A  
HETATM   13  N   UNL     1     -10.163  10.030  67.025  1.00  0.00    -0.225 NA 
HETATM   14  C   UNL     1      -7.785   7.190  67.847  1.00  0.00    -0.113 A  
HETATM   15  C   UNL     1      -8.903   7.810  69.848  1.00  0.00    -0.142 A  
HETATM   16  C   UNL     1      -7.995   6.997  69.194  1.00  0.00    -0.119 A  
BRANCH  13  17
HETATM   17  C   UNL     1     -11.227  10.783  67.739  1.00  0.00    -0.316 C  
HETATM   18  C   UNL     1      -9.854  12.949  67.772  1.00  0.00    -0.221 C  
HETATM   19  C   UNL     1     -10.698  11.958  68.615  1.00  0.00    -0.266 C  
HETATM   20  C   UNL     1     -11.907  12.623  69.294  1.00  0.00    -0.358 C  
BRANCH  18  21
HETATM   21  N   UNL     1      -9.074  14.021  68.437  1.00  0.00    -0.194 NA 
HETATM   22  C   UNL     1      -7.684  14.076  67.976  1.00  0.00    -0.149 C  
HETATM   23  C   UNL     1      -9.725  15.305  68.116  1.00  0.00    -0.212 C  
ENDBRANCH  18  21
ENDBRANCH  13  17
ENDBRANCH   2   3
TORSDOF 3
ENDMDL
MODEL       63
REMARK 921   NORMALIZED FREE ENERGY PREDICTED BY IDOCK:   -4.75 KCAL/MOL
REMARK 922        TOTAL FREE ENERGY PREDICTED BY IDOCK:   -5.78 KCAL/MOL
REMARK 923 INTER-LIGAND FREE ENERGY PREDICTED BY IDOCK:   -5.70 KCAL/MOL
REMARK 924 INTRA-LIGAND FREE ENERGY PREDICTED BY IDOCK:   -0.08 KCAL/MOL
REMARK 927      BINDING AFFINITY PREDICTED BY RF-SCORE:    0.00 PKD
ROOT
HETATM    1  C   UNL     1     -11.995  13.225  69.953  1.00  0.00    -0.330 C  
HETATM    2  O   UNL     1     -12.504  12.635  71.145  1.00  0.00    -0.348 OA 
ENDROOT
BRANCH   2   3
HETATM    3  C   UNL     1     -12.435  11.268  71.193  1.00  0.00    -0.373 A  
HETATM    4  C   UNL     1     -11.298  10.693  70.602  1.00  0.00    -0.288 A  
HETATM    5  C   UNL     1     -11.059   9.297  70.582  1.00  0.00    -0.276 A  
HETATM    6  C   UNL     1     -12.064   8.502  71.174  1.00  0.00    -0.252 A  
HETATM    7  C   UNL     1     -13.217   9.078  71.737  1.00  0.00    -0.445 A  
HETATM    8  S   UNL     1     -12.001   6.741  71.304  1.00  0.00    -0.368 SA 
HETATM    9  C   UNL     1     -10.489   6.344  70.469  1.00  0.00    -0.220 A  
HETATM   10  C   UNL     1     -13.408  10.452  71.744  1.00  0.00    -0.456 A  
HETATM   11  C   UNL     1      -9.625   7.309  69.908  1.00  0.00    -0.163 A  
HETATM   12  C   UNL     1      -8.466   6.777  69.284  1.00  0.00    -0.129 A  
HETATM   13  N   UNL     1      -9.892   8.717  69.987  1.00  0.00    -0.177 NA 
HETATM   14  C   UNL     1     -10.202   4.959  70.413  1.00  0.00    -0.292 A  
HETATM   15  C   UNL     1      -8.189   5.398  69.232  1.00  0.00    -0.093 A  
HETATM   16  C   UNL     1      -9.060   4.489  69.805  1.00  0.00    -0.166 A  
BRANCH  13  17
HETATM   17  C   UNL     1      -8.861   9.661  69.482  1.00  0.00    -0.190 C  
HETATM   18  C   UNL     1     -10.021   9.918  67.210  1.00  0.00    -0.196 C  
HETATM   19  C   UNL     1      -8.679   9.639  67.936  1.00  0.00    -0.119 C  
HETATM   20  C   UNL     1      -7.577  10.650  67.576  1.00  0.00    -0.093 C  
BRANCH  18  21
HETATM   21  N   UNL     1     -10.129   9.731  65.742  1.00  0.00    -0.278 NA 
HETATM   22  C   UNL     1     -10.017  10.993  65.004  1.00  0.00    -0.285 C  
HETATM   23  C   UNL     1      -9.024   8.846  65.326  1.00  0.00    -0.162 C  
ENDBRANCH  18  21
ENDBRANCH  13  17
ENDBRANCH   2   3
TORSDOF 3
ENDMDL
MODEL       64
REMARK 921   NORMALIZED FREE ENERGY PREDICTED BY IDOCK:   -4.73 KCAL/MOL
REMARK 922        TOTAL FREE ENERGY PREDICTED BY IDOCK:   -5.76 KCAL/MOL
REMARK 923 INTER-LIGAND FREE ENERGY PREDICTED BY IDOCK:   -5.37 KCAL/MOL
REMARK 924 INTRA-LIGAND FREE ENERGY PREDICTED BY IDOCK:   -0.40 KCAL/MOL
REMARK 927      BINDING AFFINITY PREDICTED BY RF-SCORE:    0.00 PKD
ROOT
HETATM    1  C   UNL     1      -5.139  12.308  71.192  1.00  0.00    -0.143 C  
HETATM    2  O   UNL     1      -5.752  11.732  70.043  1.00  0.00    -0.103 OA 
ENDROOT
BRANCH   2   3
HETATM    3  C   UNL     1      -6.451  12.607  69.255  1.00  0.00    -0.106 A  
HETATM    4  C   UNL     1      -7.558  12.070  68.579  1.00  0.00    -0.126 A  
HETATM    5  C   UNL     1      -8.401  12.840  67.741  1.00  0.00    -0.177 A  
HETATM    6  C   UNL     1      -8.039  14.196  67.599  1.00  0.00    -0.180 A  
HETATM    7  C   UNL     1      -6.910  14.725  68.251  1.00  0.00    -0.115 A  
HETATM    8  S   UNL     1      -8.932  15.377  66.635  1.00  0.00    -0.306 SA 
HETATM    9  C   UNL     1     -10.225  14.396  65.921  1.00  0.00    -0.325 A  
HETATM   10  C   UNL     1      -6.115  13.937  69.071  1.00  0.00    -0.089 A  
HETATM   11  C   UNL     1     -10.396  13.017  66.174  1.00  0.00    -0.278 A  
HETATM   12  C   UNL     1     -11.494  12.422  65.502  1.00  0.00    -0.404 A  
HETATM   13  N   UNL     1      -9.536  12.288  67.063  1.00  0.00    -0.203 NA 
HETATM   14  C   UNL     1     -11.096  15.113  65.067  1.00  0.00    -0.428 A  
HETATM   15  C   UNL     1     -12.356  13.143  64.654  1.00  0.00    -0.463 A  
HETATM   16  C   UNL     1     -12.156  14.495  64.443  1.00  0.00    -0.492 A  
BRANCH  13  17
HETATM   17  C   UNL     1      -9.872  10.873  67.368  1.00  0.00    -0.173 C  
HETATM   18  C   UNL     1      -8.223   9.968  65.625  1.00  0.00    -0.143 C  
HETATM   19  C   UNL     1      -9.674   9.897  66.170  1.00  0.00    -0.297 C  
HETATM   20  C   UNL     1     -10.075   8.488  66.636  1.00  0.00    -0.364 C  
BRANCH  18  21
HETATM   21  N   UNL     1      -7.868   9.290  64.354  1.00  0.00    -0.117 NA 
HETATM   22  C   UNL     1      -8.818   9.578  63.276  1.00  0.00    -0.215 C  
HETATM   23  C   UNL     1      -6.537   9.781  63.949  1.00  0.00    -0.120 C  
ENDBRANCH  18  21
ENDBRANCH  13  17
ENDBRANCH   2   3
TORSDOF 3
ENDMDL
MODEL       65
REMARK 921   NORMALIZED FREE ENERGY PREDICTED BY IDOCK:   -4.73 KCAL/MOL
REMARK 922        TOTAL FREE ENERGY PREDICTED BY IDOCK:   -5.76 KCAL/MOL
REMARK 923 INTER-LIGAND FREE ENERGY PREDICTED BY IDOCK:   -5.55 KCAL/MOL
REMARK 924 INTRA-LIGAND FREE ENERGY PREDICTED BY IDOCK:   -0.21 KCAL/MOL
REMARK 927      BINDING AFFINITY PREDICTED BY RF-SCORE:    0.00 PKD
ROOT
HETATM    1  C   UNL     1     -12.085  13.653  69.875  1.00  0.00    -0.341 C  
HETATM    2  O   UNL     1     -11.706  14.505  68.799  1.00  0.00    -0.296 OA 
ENDROOT
BRANCH   2   3
HETATM    3  C   UNL     1     -11.622  13.895  67.576  1.00  0.00    -0.360 A  
HETATM    4  C   UNL     1     -10.499  13.075  67.378  1.00  0.00    -0.235 A  
HETATM    5  C   UNL     1     -10.268  12.355  66.181  1.00  0.00    -0.242 A  
HETATM    6  C   UNL     1     -11.235  12.536  65.169  1.00  0.00    -0.304 A  
HETATM    7  C   UNL     1     -12.341  13.384  65.356  1.00  0.00    -0.522 A  
HETATM    8  S   UNL     1     -11.198  11.737  63.593  1.00  0.00    -0.415 SA 
HETATM    9  C   UNL     1      -9.686  10.814  63.662  1.00  0.00    -0.327 A  
HETATM   10  C   UNL     1     -12.535  14.065  66.549  1.00  0.00    -0.351 A  
HETATM   11  C   UNL     1      -8.829  10.792  64.783  1.00  0.00    -0.149 A  
HETATM   12  C   UNL     1      -7.670   9.989  64.630  1.00  0.00    -0.146 A  
HETATM   13  N   UNL     1      -9.126  11.511  65.990  1.00  0.00    -0.210 NA 
HETATM   14  C   UNL     1      -9.400  10.078  62.487  1.00  0.00    -0.297 A  
HETATM   15  C   UNL     1      -7.393   9.260  63.457  1.00  0.00    -0.097 A  
HETATM   16  C   UNL     1      -8.266   9.303  62.386  1.00  0.00    -0.158 A  
BRANCH  13  17
HETATM   17  C   UNL     1      -8.231  11.324  67.162  1.00  0.00    -0.149 C  
HETATM   18  C   UNL     1      -9.183   9.001  67.684  1.00  0.00    -0.136 C  
HETATM   19  C   UNL     1      -8.812  10.390  68.265  1.00  0.00    -0.135 C  
HETATM   20  C   UNL     1      -7.784  10.311  69.406  1.00  0.00    -0.146 C  
BRANCH  18  21
HETATM   21  N   UNL     1      -9.950   8.029  68.501  1.00  0.00    -0.186 NA 
HETATM   22  C   UNL     1     -10.812   8.681  69.492  1.00  0.00    -0.129 C  
HETATM   23  C   UNL     1     -10.802   7.252  67.579  1.00  0.00    -0.214 C  
ENDBRANCH  18  21
ENDBRANCH  13  17
ENDBRANCH   2   3
TORSDOF 3
ENDMDL
MODEL       66
REMARK 921   NORMALIZED FREE ENERGY PREDICTED BY IDOCK:   -4.66 KCAL/MOL
REMARK 922        TOTAL FREE ENERGY PREDICTED BY IDOCK:   -5.68 KCAL/MOL
REMARK 923 INTER-LIGAND FREE ENERGY PREDICTED BY IDOCK:   -5.66 KCAL/MOL
REMARK 924 INTRA-LIGAND FREE ENERGY PREDICTED BY IDOCK:   -0.02 KCAL/MOL
REMARK 927      BINDING AFFINITY PREDICTED BY RF-SCORE:    0.00 PKD
ROOT
HETATM    1  C   UNL     1      -5.899  12.064  70.579  1.00  0.00    -0.122 C  
HETATM    2  O   UNL     1      -6.700  10.908  70.353  1.00  0.00    -0.278 OA 
ENDROOT
BRANCH   2   3
HETATM    3  C   UNL     1      -7.193  10.781  69.082  1.00  0.00    -0.107 A  
HETATM    4  C   UNL     1      -8.391  11.466  68.821  1.00  0.00    -0.096 A  
HETATM    5  C   UNL     1      -9.026  11.459  67.555  1.00  0.00    -0.150 A  
HETATM    6  C   UNL     1      -8.389  10.684  66.562  1.00  0.00    -0.143 A  
HETATM    7  C   UNL     1      -7.207   9.972  66.835  1.00  0.00    -0.091 A  
HETATM    8  S   UNL     1      -8.957  10.525  64.897  1.00  0.00    -0.208 SA 
HETATM    9  C   UNL     1     -10.456  11.471  64.906  1.00  0.00    -0.291 A  
HETATM   10  C   UNL     1      -6.612  10.013  68.088  1.00  0.00    -0.055 A  
HETATM   11  C   UNL     1     -10.943  12.160  66.038  1.00  0.00    -0.293 A  
HETATM   12  C   UNL     1     -12.160  12.858  65.831  1.00  0.00    -0.503 A  
HETATM   13  N   UNL     1     -10.242  12.169  67.291  1.00  0.00    -0.201 NA 
HETATM   14  C   UNL     1     -11.137  11.494  63.666  1.00  0.00    -0.469 A  
HETATM   15  C   UNL     1     -12.833  12.874  64.594  1.00  0.00    -0.323 A  
HETATM   16  C   UNL     1     -12.313  12.193  63.508  1.00  0.00    -0.682 A  
BRANCH  13  17
HETATM   17  C   UNL     1     -10.764  13.027  68.387  1.00  0.00    -0.256 C  
HETATM   18  C   UNL     1     -10.035  15.189  67.218  1.00  0.00    -0.230 C  
HETATM   19  C   UNL     1     -10.019  14.385  68.544  1.00  0.00    -0.237 C  
HETATM   20  C   UNL     1     -10.660  15.143  69.718  1.00  0.00    -0.267 C  
BRANCH  18  21
HETATM   21  N   UNL     1      -9.203  16.409  67.074  1.00  0.00    -0.215 NA 
HETATM   22  C   UNL     1      -9.899  17.622  67.513  1.00  0.00    -0.299 C  
HETATM   23  C   UNL     1      -8.003  16.228  67.914  1.00  0.00    -0.145 C  
ENDBRANCH  18  21
ENDBRANCH  13  17
ENDBRANCH   2   3
TORSDOF 3
ENDMDL
MODEL       67
REMARK 921   NORMALIZED FREE ENERGY PREDICTED BY IDOCK:   -4.63 KCAL/MOL
REMARK 922        TOTAL FREE ENERGY PREDICTED BY IDOCK:   -5.64 KCAL/MOL
REMARK 923 INTER-LIGAND FREE ENERGY PREDICTED BY IDOCK:   -5.53 KCAL/MOL
REMARK 924 INTRA-LIGAND FREE ENERGY PREDICTED BY IDOCK:   -0.11 KCAL/MOL
REMARK 927      BINDING AFFINITY PREDICTED BY RF-SCORE:    0.00 PKD
ROOT
HETATM    1  C   UNL     1     -10.350  13.860  65.195  1.00  0.00    -0.383 C  
HETATM    2  O   UNL     1      -9.770  13.962  66.491  1.00  0.00    -0.277 OA 
ENDROOT
BRANCH   2   3
HETATM    3  C   UNL     1     -10.441  13.298  67.483  1.00  0.00    -0.235 A  
HETATM    4  C   UNL     1      -9.796  12.164  68.003  1.00  0.00    -0.202 A  
HETATM    5  C   UNL     1     -10.339  11.375  69.046  1.00  0.00    -0.142 A  
HETATM    6  C   UNL     1     -11.604  11.784  69.519  1.00  0.00    -0.332 A  
HETATM    7  C   UNL     1     -12.263  12.901  68.975  1.00  0.00    -0.055 A  
HETATM    8  S   UNL     1     -12.489  10.992  70.827  1.00  0.00    -0.400 SA 
HETATM    9  C   UNL     1     -11.435   9.627  71.237  1.00  0.00    -0.392 A  
HETATM   10  C   UNL     1     -11.691  13.653  67.959  1.00  0.00    -0.387 A  
HETATM   11  C   UNL     1     -10.197   9.373  70.607  1.00  0.00    -0.288 A  
HETATM   12  C   UNL     1      -9.511   8.228  71.087  1.00  0.00    -0.206 A  
HETATM   13  N   UNL     1      -9.670  10.225  69.579  1.00  0.00    -0.228 NA 
HETATM   14  C   UNL     1     -11.931   8.798  72.272  1.00  0.00    -0.415 A  
HETATM   15  C   UNL     1     -10.012   7.408  72.115  1.00  0.00    -0.203 A  
HETATM   16  C   UNL     1     -11.225   7.701  72.712  1.00  0.00    -0.431 A  
BRANCH  13  17
HETATM   17  C   UNL     1      -8.302   9.952  69.067  1.00  0.00    -0.130 C  
HETATM   18  C   UNL     1      -9.138   8.197  67.394  1.00  0.00    -0.134 C  
HETATM   19  C   UNL     1      -8.106   8.511  68.509  1.00  0.00    -0.122 C  
HETATM   20  C   UNL     1      -6.649   8.381  68.036  1.00  0.00    -0.058 C  
BRANCH  18  21
HETATM   21  N   UNL     1      -9.278   6.816  66.873  1.00  0.00    -0.138 NA 
HETATM   22  C   UNL     1     -10.671   6.357  66.859  1.00  0.00    -0.338 C  
HETATM   23  C   UNL     1      -8.772   6.813  65.486  1.00  0.00    -0.032 C  
ENDBRANCH  18  21
ENDBRANCH  13  17
ENDBRANCH   2   3
TORSDOF 3
ENDMDL
MODEL       68
REMARK 921   NORMALIZED FREE ENERGY PREDICTED BY IDOCK:   -4.62 KCAL/MOL
REMARK 922        TOTAL FREE ENERGY PREDICTED BY IDOCK:   -5.63 KCAL/MOL
REMARK 923 INTER-LIGAND FREE ENERGY PREDICTED BY IDOCK:   -5.50 KCAL/MOL
REMARK 924 INTRA-LIGAND FREE ENERGY PREDICTED BY IDOCK:   -0.14 KCAL/MOL
REMARK 927      BINDING AFFINITY PREDICTED BY RF-SCORE:    0.00 PKD
ROOT
HETATM    1  C   UNL     1     -12.277  15.904  64.573  1.00  0.00     0.240 C  
HETATM    2  O   UNL     1     -12.751  14.707  63.965  1.00  0.00    -0.772 OA 
ENDROOT
BRANCH   2   3
HETATM    3  C   UNL     1     -12.012  13.586  64.235  1.00  0.00    -0.432 A  
HETATM    4  C   UNL     1     -11.348  13.575  65.472  1.00  0.00    -0.310 A  
HETATM    5  C   UNL     1     -10.559  12.486  65.917  1.00  0.00    -0.265 A  
HETATM    6  C   UNL     1     -10.453  11.406  65.015  1.00  0.00    -0.303 A  
HETATM    7  C   UNL     1     -11.093  11.433  63.763  1.00  0.00    -0.417 A  
HETATM    8  S   UNL     1      -9.553   9.919  65.333  1.00  0.00    -0.299 SA 
HETATM    9  C   UNL     1      -8.841  10.231  66.926  1.00  0.00    -0.132 A  
HETATM   10  C   UNL     1     -11.865  12.516  63.369  1.00  0.00    -0.587 A  
HETATM   11  C   UNL     1      -9.052  11.416  67.663  1.00  0.00    -0.155 A  
HETATM   12  C   UNL     1      -8.390  11.462  68.917  1.00  0.00    -0.042 A  
HETATM   13  N   UNL     1      -9.893  12.477  67.186  1.00  0.00    -0.207 NA 
HETATM   14  C   UNL     1      -8.036   9.176  67.420  1.00  0.00    -0.103 A  
HETATM   15  C   UNL     1      -7.589  10.409  69.400  1.00  0.00    -0.140 A  
HETATM   16  C   UNL     1      -7.419   9.261  68.647  1.00  0.00    -0.080 A  
BRANCH  13  17
HETATM   17  C   UNL     1     -10.159  13.628  68.087  1.00  0.00    -0.245 C  
HETATM   18  C   UNL     1      -8.415  15.108  66.927  1.00  0.00    -0.244 C  
HETATM   19  C   UNL     1      -8.940  14.577  68.287  1.00  0.00    -0.184 C  
HETATM   20  C   UNL     1      -9.366  15.699  69.248  1.00  0.00    -0.267 C  
BRANCH  18  21
HETATM   21  N   UNL     1      -7.133  15.851  66.859  1.00  0.00    -0.212 NA 
HETATM   22  C   UNL     1      -7.304  17.292  67.071  1.00  0.00    -0.185 C  
HETATM   23  C   UNL     1      -6.259  15.322  67.924  1.00  0.00    -0.153 C  
ENDBRANCH  18  21
ENDBRANCH  13  17
ENDBRANCH   2   3
TORSDOF 3
ENDMDL
MODEL       69
REMARK 921   NORMALIZED FREE ENERGY PREDICTED BY IDOCK:   -4.62 KCAL/MOL
REMARK 922        TOTAL FREE ENERGY PREDICTED BY IDOCK:   -5.63 KCAL/MOL
REMARK 923 INTER-LIGAND FREE ENERGY PREDICTED BY IDOCK:   -5.58 KCAL/MOL
REMARK 924 INTRA-LIGAND FREE ENERGY PREDICTED BY IDOCK:   -0.05 KCAL/MOL
REMARK 927      BINDING AFFINITY PREDICTED BY RF-SCORE:    0.00 PKD
ROOT
HETATM    1  C   UNL     1      -6.330   7.874  63.980  1.00  0.00    -0.061 C  
HETATM    2  O   UNL     1      -6.983   8.732  64.910  1.00  0.00    -0.072 OA 
ENDROOT
BRANCH   2   3
HETATM    3  C   UNL     1      -7.872   8.114  65.748  1.00  0.00    -0.096 A  
HETATM    4  C   UNL     1      -8.280   8.862  66.865  1.00  0.00    -0.112 A  
HETATM    5  C   UNL     1      -9.209   8.382  67.819  1.00  0.00    -0.131 A  
HETATM    6  C   UNL     1      -9.687   7.073  67.594  1.00  0.00    -0.136 A  
HETATM    7  C   UNL     1      -9.253   6.313  66.493  1.00  0.00    -0.169 A  
HETATM    8  S   UNL     1     -10.869   6.248  68.617  1.00  0.00    -0.345 SA 
HETATM    9  C   UNL     1     -11.154   7.428  69.909  1.00  0.00    -0.190 A  
HETATM   10  C   UNL     1      -8.347   6.825  65.575  1.00  0.00    -0.143 A  
HETATM   11  C   UNL     1     -10.537   8.697  69.964  1.00  0.00    -0.227 A  
HETATM   12  C   UNL     1     -10.905   9.487  71.084  1.00  0.00    -0.425 A  
HETATM   13  N   UNL     1      -9.629   9.154  68.951  1.00  0.00    -0.150 NA 
HETATM   14  C   UNL     1     -12.072   6.999  70.897  1.00  0.00    -0.403 A  
HETATM   15  C   UNL     1     -11.818   9.052  72.063  1.00  0.00    -0.426 A  
HETATM   16  C   UNL     1     -12.406   7.804  71.962  1.00  0.00    -0.328 A  
BRANCH  13  17
HETATM   17  C   UNL     1      -9.131  10.552  69.026  1.00  0.00    -0.181 C  
HETATM   18  C   UNL     1     -11.203  11.493  67.843  1.00  0.00    -0.279 C  
HETATM   19  C   UNL     1      -9.652  11.477  67.887  1.00  0.00    -0.178 C  
HETATM   20  C   UNL     1      -9.041  12.873  68.094  1.00  0.00    -0.207 C  
BRANCH  18  21
HETATM   21  N   UNL     1     -11.912  12.131  66.708  1.00  0.00    -0.615 NA 
HETATM   22  C   UNL     1     -12.034  13.583  66.863  1.00  0.00    -0.399 C  
HETATM   23  C   UNL     1     -11.130  11.855  65.487  1.00  0.00    -0.304 C  
ENDBRANCH  18  21
ENDBRANCH  13  17
ENDBRANCH   2   3
TORSDOF 3
ENDMDL
MODEL       70
REMARK 921   NORMALIZED FREE ENERGY PREDICTED BY IDOCK:   -4.59 KCAL/MOL
REMARK 922        TOTAL FREE ENERGY PREDICTED BY IDOCK:   -5.60 KCAL/MOL
REMARK 923 INTER-LIGAND FREE ENERGY PREDICTED BY IDOCK:   -5.56 KCAL/MOL
REMARK 924 INTRA-LIGAND FREE ENERGY PREDICTED BY IDOCK:   -0.04 KCAL/MOL
REMARK 927      BINDING AFFINITY PREDICTED BY RF-SCORE:    0.00 PKD
ROOT
HETATM    1  C   UNL     1     -10.304  20.177  67.166  1.00  0.00    -0.361 C  
HETATM    2  O   UNL     1     -10.680  18.808  67.277  1.00  0.00    -0.437 OA 
ENDROOT
BRANCH   2   3
HETATM    3  C   UNL     1      -9.654  17.944  67.551  1.00  0.00    -0.269 A  
HETATM    4  C   UNL     1      -9.825  16.628  67.092  1.00  0.00    -0.257 A  
HETATM    5  C   UNL     1      -8.854  15.613  67.272  1.00  0.00    -0.198 A  
HETATM    6  C   UNL     1      -7.696  16.002  67.980  1.00  0.00    -0.133 A  
HETATM    7  C   UNL     1      -7.541  17.312  68.468  1.00  0.00    -0.251 A  
HETATM    8  S   UNL     1      -6.325  14.940  68.318  1.00  0.00    -0.133 SA 
HETATM    9  C   UNL     1      -6.856  13.392  67.638  1.00  0.00    -0.165 A  
HETATM   10  C   UNL     1      -8.514  18.279  68.261  1.00  0.00    -0.309 A  
HETATM   11  C   UNL     1      -8.092  13.204  66.982  1.00  0.00    -0.019 A  
HETATM   12  C   UNL     1      -8.321  11.886  66.511  1.00  0.00    -0.062 A  
HETATM   13  N   UNL     1      -9.029  14.275  66.791  1.00  0.00    -0.248 NA 
HETATM   14  C   UNL     1      -5.925  12.337  67.794  1.00  0.00    -0.098 A  
HETATM   15  C   UNL     1      -7.390  10.842  66.672  1.00  0.00    -0.139 A  
HETATM   16  C   UNL     1      -6.186  11.074  67.312  1.00  0.00    -0.068 A  
BRANCH  13  17
HETATM   17  C   UNL     1     -10.245  14.013  65.977  1.00  0.00    -0.304 C  
HETATM   18  C   UNL     1     -11.483  12.919  67.938  1.00  0.00    -0.318 C  
HETATM   19  C   UNL     1     -11.075  12.783  66.448  1.00  0.00    -0.320 C  
HETATM   20  C   UNL     1     -12.280  12.636  65.504  1.00  0.00    -0.501 C  
BRANCH  18  21
HETATM   21  N   UNL     1     -12.089  11.771  68.656  1.00  0.00    -0.421 NA 
HETATM   22  C   UNL     1     -11.316  10.536  68.498  1.00  0.00    -0.257 C  
HETATM   23  C   UNL     1     -12.128  12.118  70.090  1.00  0.00    -0.290 C  
ENDBRANCH  18  21
ENDBRANCH  13  17
ENDBRANCH   2   3
TORSDOF 3
ENDMDL
MODEL       71
REMARK 921   NORMALIZED FREE ENERGY PREDICTED BY IDOCK:   -4.58 KCAL/MOL
REMARK 922        TOTAL FREE ENERGY PREDICTED BY IDOCK:   -5.58 KCAL/MOL
REMARK 923 INTER-LIGAND FREE ENERGY PREDICTED BY IDOCK:   -5.96 KCAL/MOL
REMARK 924 INTRA-LIGAND FREE ENERGY PREDICTED BY IDOCK:    0.37 KCAL/MOL
REMARK 927      BINDING AFFINITY PREDICTED BY RF-SCORE:    0.00 PKD
ROOT
HETATM    1  C   UNL     1      -7.637   9.747  63.913  1.00  0.00    -0.133 C  
HETATM    2  O   UNL     1      -7.194  10.314  65.141  1.00  0.00    -0.139 OA 
ENDROOT
BRANCH   2   3
HETATM    3  C   UNL     1      -8.025  10.112  66.210  1.00  0.00    -0.118 A  
HETATM    4  C   UNL     1      -8.725  11.242  66.663  1.00  0.00    -0.174 A  
HETATM    5  C   UNL     1      -9.641  11.204  67.742  1.00  0.00    -0.172 A  
HETATM    6  C   UNL     1      -9.790   9.947  68.367  1.00  0.00    -0.151 A  
HETATM    7  C   UNL     1      -9.064   8.823  67.933  1.00  0.00    -0.145 A  
HETATM    8  S   UNL     1     -10.883   9.622  69.716  1.00  0.00    -0.255 SA 
HETATM    9  C   UNL     1     -11.580  11.218  70.044  1.00  0.00    -0.321 A  
HETATM   10  C   UNL     1      -8.182   8.902  66.864  1.00  0.00    -0.112 A  
HETATM   11  C   UNL     1     -11.268  12.379  69.304  1.00  0.00    -0.201 A  
HETATM   12  C   UNL     1     -11.938  13.554  69.731  1.00  0.00    -0.405 A  
HETATM   13  N   UNL     1     -10.360  12.359  68.192  1.00  0.00    -0.220 NA 
HETATM   14  C   UNL     1     -12.501  11.242  71.119  1.00  0.00    -0.479 A  
HETATM   15  C   UNL     1     -12.851  13.569  70.802  1.00  0.00    -0.243 A  
HETATM   16  C   UNL     1     -13.135  12.405  71.493  1.00  0.00    -0.362 A  
BRANCH  13  17
HETATM   17  C   UNL     1     -10.193  13.602  67.393  1.00  0.00    -0.241 C  
HETATM   18  C   UNL     1     -11.784  12.791  65.554  1.00  0.00    -0.395 C  
HETATM   19  C   UNL     1     -10.395  13.408  65.862  1.00  0.00    -0.290 C  
HETATM   20  C   UNL     1     -10.176  14.768  65.180  1.00  0.00    -0.410 C  
BRANCH  18  21
HETATM   21  N   UNL     1     -12.107  12.319  64.185  1.00  0.00    -0.420 NA 
HETATM   22  C   UNL     1     -12.381  13.422  63.259  1.00  0.00    -0.169 C  
HETATM   23  C   UNL     1     -10.935  11.571  63.688  1.00  0.00    -0.404 C  
ENDBRANCH  18  21
ENDBRANCH  13  17
ENDBRANCH   2   3
TORSDOF 3
ENDMDL
MODEL       72
REMARK 921   NORMALIZED FREE ENERGY PREDICTED BY IDOCK:   -4.56 KCAL/MOL
REMARK 922        TOTAL FREE ENERGY PREDICTED BY IDOCK:   -5.56 KCAL/MOL
REMARK 923 INTER-LIGAND FREE ENERGY PREDICTED BY IDOCK:   -5.25 KCAL/MOL
REMARK 924 INTRA-LIGAND FREE ENERGY PREDICTED BY IDOCK:   -0.31 KCAL/MOL
REMARK 927      BINDING AFFINITY PREDICTED BY RF-SCORE:    0.00 PKD
ROOT
HETATM    1  C   UNL     1     -10.486   9.808  67.231  1.00  0.00    -0.261 C  
HETATM    2  O   UNL     1      -9.114   9.588  67.544  1.00  0.00    -0.130 OA 
ENDROOT
BRANCH   2   3
HETATM    3  C   UNL     1      -8.384  10.720  67.787  1.00  0.00    -0.113 A  
HETATM    4  C   UNL     1      -8.874  11.900  67.204  1.00  0.00    -0.180 A  
HETATM    5  C   UNL     1      -8.253  13.162  67.372  1.00  0.00    -0.187 A  
HETATM    6  C   UNL     1      -7.075  13.159  68.149  1.00  0.00    -0.109 A  
HETATM    7  C   UNL     1      -6.567  11.971  68.705  1.00  0.00    -0.082 A  
HETATM    8  S   UNL     1      -6.123  14.597  68.531  1.00  0.00    -0.099 SA 
HETATM    9  C   UNL     1      -6.981  15.875  67.652  1.00  0.00    -0.162 A  
HETATM   10  C   UNL     1      -7.212  10.756  68.524  1.00  0.00    -0.088 A  
HETATM   11  C   UNL     1      -8.150  15.657  66.892  1.00  0.00    -0.255 A  
HETATM   12  C   UNL     1      -8.678  16.816  66.268  1.00  0.00    -0.342 A  
HETATM   13  N   UNL     1      -8.764  14.364  66.783  1.00  0.00    -0.200 NA 
HETATM   14  C   UNL     1      -6.400  17.160  67.779  1.00  0.00    -0.158 A  
HETATM   15  C   UNL     1      -8.093  18.090  66.399  1.00  0.00    -0.292 A  
HETATM   16  C   UNL     1      -6.953  18.259  67.163  1.00  0.00    -0.210 A  
BRANCH  13  17
HETATM   17  C   UNL     1     -10.063  14.256  66.068  1.00  0.00    -0.318 C  
HETATM   18  C   UNL     1     -11.416  14.824  68.171  1.00  0.00    -0.323 C  
HETATM   19  C   UNL     1     -11.259  13.846  66.977  1.00  0.00    -0.327 C  
HETATM   20  C   UNL     1     -12.516  13.764  66.096  1.00  0.00    -0.466 C  
BRANCH  18  21
HETATM   21  N   UNL     1     -12.349  14.506  69.280  1.00  0.00    -0.215 NA 
HETATM   22  C   UNL     1     -12.033  13.233  69.935  1.00  0.00    -0.330 C  
HETATM   23  C   UNL     1     -12.233  15.587  70.278  1.00  0.00    -0.400 C  
ENDBRANCH  18  21
ENDBRANCH  13  17
ENDBRANCH   2   3
TORSDOF 3
ENDMDL
MODEL       73
REMARK 921   NORMALIZED FREE ENERGY PREDICTED BY IDOCK:   -4.55 KCAL/MOL
REMARK 922        TOTAL FREE ENERGY PREDICTED BY IDOCK:   -5.55 KCAL/MOL
REMARK 923 INTER-LIGAND FREE ENERGY PREDICTED BY IDOCK:   -5.17 KCAL/MOL
REMARK 924 INTRA-LIGAND FREE ENERGY PREDICTED BY IDOCK:   -0.38 KCAL/MOL
REMARK 927      BINDING AFFINITY PREDICTED BY RF-SCORE:    0.00 PKD
ROOT
HETATM    1  C   UNL     1      -9.911  16.542  65.759  1.00  0.00    -0.274 C  
HETATM    2  O   UNL     1     -10.244  15.253  65.252  1.00  0.00    -0.360 OA 
ENDROOT
BRANCH   2   3
HETATM    3  C   UNL     1     -10.667  14.350  66.191  1.00  0.00    -0.304 A  
HETATM    4  C   UNL     1      -9.675  13.506  66.717  1.00  0.00    -0.271 A  
HETATM    5  C   UNL     1      -9.936  12.531  67.711  1.00  0.00    -0.210 A  
HETATM    6  C   UNL     1     -11.281  12.436  68.127  1.00  0.00    -0.265 A  
HETATM    7  C   UNL     1     -12.279  13.260  67.576  1.00  0.00    -0.213 A  
HETATM    8  S   UNL     1     -11.870  11.323  69.367  1.00  0.00    -0.369 SA 
HETATM    9  C   UNL     1     -10.409  10.416  69.799  1.00  0.00    -0.208 A  
HETATM   10  C   UNL     1     -11.979  14.210  66.610  1.00  0.00    -0.470 A  
HETATM   11  C   UNL     1      -9.139  10.654  69.229  1.00  0.00    -0.100 A  
HETATM   12  C   UNL     1      -8.104   9.815  69.716  1.00  0.00    -0.174 A  
HETATM   13  N   UNL     1      -8.917  11.681  68.251  1.00  0.00    -0.181 NA 
HETATM   14  C   UNL     1     -10.612   9.422  70.785  1.00  0.00    -0.371 A  
HETATM   15  C   UNL     1      -8.314   8.828  70.696  1.00  0.00    -0.173 A  
HETATM   16  C   UNL     1      -9.574   8.637  71.235  1.00  0.00    -0.292 A  
BRANCH  13  17
HETATM   17  C   UNL     1      -7.524  11.942  67.804  1.00  0.00    -0.121 C  
HETATM   18  C   UNL     1      -7.818  10.579  65.653  1.00  0.00    -0.150 C  
HETATM   19  C   UNL     1      -6.925  10.827  66.896  1.00  0.00    -0.109 C  
HETATM   20  C   UNL     1      -5.487  11.234  66.535  1.00  0.00    -0.135 C  
BRANCH  18  21
HETATM   21  N   UNL     1      -7.559   9.418  64.766  1.00  0.00    -0.107 NA 
HETATM   22  C   UNL     1      -7.839   8.136  65.420  1.00  0.00    -0.115 C  
HETATM   23  C   UNL     1      -8.447   9.549  63.595  1.00  0.00    -0.196 C  
ENDBRANCH  18  21
ENDBRANCH  13  17
ENDBRANCH   2   3
TORSDOF 3
ENDMDL
MODEL       74
REMARK 921   NORMALIZED FREE ENERGY PREDICTED BY IDOCK:   -4.55 KCAL/MOL
REMARK 922        TOTAL FREE ENERGY PREDICTED BY IDOCK:   -5.54 KCAL/MOL
REMARK 923 INTER-LIGAND FREE ENERGY PREDICTED BY IDOCK:   -5.27 KCAL/MOL
REMARK 924 INTRA-LIGAND FREE ENERGY PREDICTED BY IDOCK:   -0.27 KCAL/MOL
REMARK 927      BINDING AFFINITY PREDICTED BY RF-SCORE:    0.00 PKD
ROOT
HETATM    1  C   UNL     1     -11.065   6.341  68.825  1.00  0.00    -0.346 C  
HETATM    2  O   UNL     1     -10.975   7.298  67.774  1.00  0.00    -0.165 OA 
ENDROOT
BRANCH   2   3
HETATM    3  C   UNL     1     -10.163   8.370  68.031  1.00  0.00    -0.212 A  
HETATM    4  C   UNL     1     -10.457   9.544  67.318  1.00  0.00    -0.328 A  
HETATM    5  C   UNL     1      -9.731  10.749  67.479  1.00  0.00    -0.166 A  
HETATM    6  C   UNL     1      -8.656  10.691  68.392  1.00  0.00    -0.134 A  
HETATM    7  C   UNL     1      -8.343   9.506  69.081  1.00  0.00    -0.125 A  
HETATM    8  S   UNL     1      -7.609  12.056  68.794  1.00  0.00    -0.021 SA 
HETATM    9  C   UNL     1      -8.222  13.340  67.737  1.00  0.00    -0.168 A  
HETATM   10  C   UNL     1      -9.086   8.348  68.901  1.00  0.00    -0.147 A  
HETATM   11  C   UNL     1      -9.313  13.178  66.856  1.00  0.00    -0.246 A  
HETATM   12  C   UNL     1      -9.642  14.333  66.100  1.00  0.00    -0.300 A  
HETATM   13  N   UNL     1     -10.043  11.946  66.756  1.00  0.00    -0.200 NA 
HETATM   14  C   UNL     1      -7.528  14.569  67.851  1.00  0.00    -0.159 A  
HETATM   15  C   UNL     1      -8.946  15.551  66.218  1.00  0.00    -0.362 A  
HETATM   16  C   UNL     1      -7.889  15.667  67.103  1.00  0.00    -0.253 A  
BRANCH  13  17
HETATM   17  C   UNL     1     -11.255  11.910  65.898  1.00  0.00    -0.322 C  
HETATM   18  C   UNL     1     -10.100  10.495  64.099  1.00  0.00    -0.281 C  
HETATM   19  C   UNL     1     -10.956  11.758  64.377  1.00  0.00    -0.397 C  
HETATM   20  C   UNL     1     -12.299  11.753  63.629  1.00  0.00    -0.488 C  
BRANCH  18  21
HETATM   21  N   UNL     1      -9.515  10.270  62.754  1.00  0.00    -0.306 NA 
HETATM   22  C   UNL     1      -8.521  11.285  62.394  1.00  0.00    -0.126 C  
HETATM   23  C   UNL     1      -8.850   8.952  62.777  1.00  0.00    -0.021 C  
ENDBRANCH  18  21
ENDBRANCH  13  17
ENDBRANCH   2   3
TORSDOF 3
ENDMDL
MODEL       75
REMARK 921   NORMALIZED FREE ENERGY PREDICTED BY IDOCK:   -4.53 KCAL/MOL
REMARK 922        TOTAL FREE ENERGY PREDICTED BY IDOCK:   -5.53 KCAL/MOL
REMARK 923 INTER-LIGAND FREE ENERGY PREDICTED BY IDOCK:   -5.16 KCAL/MOL
REMARK 924 INTRA-LIGAND FREE ENERGY PREDICTED BY IDOCK:   -0.37 KCAL/MOL
REMARK 927      BINDING AFFINITY PREDICTED BY RF-SCORE:    0.00 PKD
ROOT
HETATM    1  C   UNL     1     -11.954  11.022  70.180  1.00  0.00    -0.360 C  
HETATM    2  O   UNL     1     -12.143  10.350  71.420  1.00  0.00    -0.363 OA 
ENDROOT
BRANCH   2   3
HETATM    3  C   UNL     1     -11.670   9.066  71.465  1.00  0.00    -0.345 A  
HETATM    4  C   UNL     1     -11.387   8.476  70.222  1.00  0.00    -0.135 A  
HETATM    5  C   UNL     1     -10.871   7.164  70.088  1.00  0.00    -0.257 A  
HETATM    6  C   UNL     1     -10.683   6.460  71.297  1.00  0.00    -0.241 A  
HETATM    7  C   UNL     1     -10.997   7.041  72.539  1.00  0.00    -0.298 A  
HETATM    8  S   UNL     1     -10.031   4.822  71.413  1.00  0.00    -0.193 SA 
HETATM    9  C   UNL     1      -9.803   4.375  69.713  1.00  0.00    -0.214 A  
HETATM   10  C   UNL     1     -11.493   8.334  72.627  1.00  0.00    -0.423 A  
HETATM   11  C   UNL     1     -10.088   5.234  68.629  1.00  0.00    -0.168 A  
HETATM   12  C   UNL     1      -9.834   4.679  67.348  1.00  0.00    -0.207 A  
HETATM   13  N   UNL     1     -10.575   6.572  68.818  1.00  0.00    -0.218 NA 
HETATM   14  C   UNL     1      -9.294   3.069  69.518  1.00  0.00    -0.213 A  
HETATM   15  C   UNL     1      -9.328   3.378  67.164  1.00  0.00    -0.224 A  
HETATM   16  C   UNL     1      -9.054   2.575  68.255  1.00  0.00    -0.229 A  
BRANCH  13  17
HETATM   17  C   UNL     1     -10.723   7.444  67.624  1.00  0.00    -0.207 C  
HETATM   18  C   UNL     1      -8.226   8.028  67.579  1.00  0.00    -0.123 C  
HETATM   19  C   UNL     1      -9.671   8.590  67.537  1.00  0.00    -0.209 C  
HETATM   20  C   UNL     1      -9.964   9.406  66.267  1.00  0.00    -0.353 C  
BRANCH  18  21
HETATM   21  N   UNL     1      -7.070   8.946  67.727  1.00  0.00    -0.079 NA 
HETATM   22  C   UNL     1      -6.473   8.888  69.065  1.00  0.00    -0.047 C  
HETATM   23  C   UNL     1      -6.052   8.537  66.741  1.00  0.00    -0.054 C  
ENDBRANCH  18  21
ENDBRANCH  13  17
ENDBRANCH   2   3
TORSDOF 3
ENDMDL
MODEL       76
REMARK 921   NORMALIZED FREE ENERGY PREDICTED BY IDOCK:   -4.50 KCAL/MOL
REMARK 922        TOTAL FREE ENERGY PREDICTED BY IDOCK:   -5.49 KCAL/MOL
REMARK 923 INTER-LIGAND FREE ENERGY PREDICTED BY IDOCK:   -5.41 KCAL/MOL
REMARK 924 INTRA-LIGAND FREE ENERGY PREDICTED BY IDOCK:   -0.08 KCAL/MOL
REMARK 927      BINDING AFFINITY PREDICTED BY RF-SCORE:    0.00 PKD
ROOT
HETATM    1  C   UNL     1      -9.480  10.297  62.570  1.00  0.00    -0.248 C  
HETATM    2  O   UNL     1      -9.330  11.505  63.309  1.00  0.00    -0.274 OA 
ENDROOT
BRANCH   2   3
HETATM    3  C   UNL     1      -9.950  11.522  64.530  1.00  0.00    -0.263 A  
HETATM    4  C   UNL     1      -9.439  10.629  65.486  1.00  0.00    -0.261 A  
HETATM    5  C   UNL     1      -9.949  10.533  66.804  1.00  0.00    -0.204 A  
HETATM    6  C   UNL     1     -11.039  11.380  67.095  1.00  0.00    -0.305 A  
HETATM    7  C   UNL     1     -11.570  12.250  66.126  1.00  0.00    -0.450 A  
HETATM    8  S   UNL     1     -11.843  11.475  68.666  1.00  0.00    -0.267 SA 
HETATM    9  C   UNL     1     -10.990  10.242  69.613  1.00  0.00    -0.270 A  
HETATM   10  C   UNL     1     -11.035  12.321  64.848  1.00  0.00    -0.344 A  
HETATM   11  C   UNL     1      -9.923   9.466  69.112  1.00  0.00    -0.182 A  
HETATM   12  C   UNL     1      -9.380   8.536  70.036  1.00  0.00    -0.164 A  
HETATM   13  N   UNL     1      -9.416   9.627  67.778  1.00  0.00    -0.127 NA 
HETATM   14  C   UNL     1     -11.463  10.097  70.939  1.00  0.00    -0.444 A  
HETATM   15  C   UNL     1      -9.857   8.397  71.353  1.00  0.00    -0.259 A  
HETATM   16  C   UNL     1     -10.899   9.187  71.804  1.00  0.00    -0.416 A  
BRANCH  13  17
HETATM   17  C   UNL     1      -8.208   8.857  67.384  1.00  0.00    -0.108 C  
HETATM   18  C   UNL     1      -9.591   6.899  66.476  1.00  0.00    -0.143 C  
HETATM   19  C   UNL     1      -8.406   7.313  67.387  1.00  0.00    -0.119 C  
HETATM   20  C   UNL     1      -7.074   6.664  66.975  1.00  0.00    -0.076 C  
BRANCH  18  21
HETATM   21  N   UNL     1     -10.098   5.505  66.496  1.00  0.00    -0.189 NA 
HETATM   22  C   UNL     1      -9.346   4.618  65.603  1.00  0.00    -0.160 C  
HETATM   23  C   UNL     1      -9.959   5.004  67.877  1.00  0.00    -0.138 C  
ENDBRANCH  18  21
ENDBRANCH  13  17
ENDBRANCH   2   3
TORSDOF 3
ENDMDL
MODEL       77
REMARK 921   NORMALIZED FREE ENERGY PREDICTED BY IDOCK:   -4.49 KCAL/MOL
REMARK 922        TOTAL FREE ENERGY PREDICTED BY IDOCK:   -5.48 KCAL/MOL
REMARK 923 INTER-LIGAND FREE ENERGY PREDICTED BY IDOCK:   -5.19 KCAL/MOL
REMARK 924 INTRA-LIGAND FREE ENERGY PREDICTED BY IDOCK:   -0.29 KCAL/MOL
REMARK 927      BINDING AFFINITY PREDICTED BY RF-SCORE:    0.00 PKD
ROOT
HETATM    1  C   UNL     1     -12.898  14.144  65.265  1.00  0.00    -0.344 C  
HETATM    2  O   UNL     1     -12.647  12.850  65.803  1.00  0.00    -0.538 OA 
ENDROOT
BRANCH   2   3
HETATM    3  C   UNL     1     -11.623  12.162  65.210  1.00  0.00    -0.322 A  
HETATM    4  C   UNL     1     -10.672  11.609  66.083  1.00  0.00    -0.325 A  
HETATM    5  C   UNL     1      -9.562  10.851  65.639  1.00  0.00    -0.224 A  
HETATM    6  C   UNL     1      -9.449  10.705  64.239  1.00  0.00    -0.274 A  
HETATM    7  C   UNL     1     -10.385  11.287  63.365  1.00  0.00    -0.449 A  
HETATM    8  S   UNL     1      -8.175   9.789  63.426  1.00  0.00    -0.173 SA 
HETATM    9  C   UNL     1      -7.161   9.253  64.778  1.00  0.00    -0.095 A  
HETATM   10  C   UNL     1     -11.464  12.016  63.843  1.00  0.00    -0.518 A  
HETATM   11  C   UNL     1      -7.441   9.538  66.132  1.00  0.00    -0.100 A  
HETATM   12  C   UNL     1      -6.500   9.014  67.055  1.00  0.00    -0.061 A  
HETATM   13  N   UNL     1      -8.601  10.281  66.536  1.00  0.00    -0.130 NA 
HETATM   14  C   UNL     1      -6.031   8.494  64.391  1.00  0.00    -0.065 A  
HETATM   15  C   UNL     1      -5.378   8.261  66.662  1.00  0.00    -0.032 A  
HETATM   16  C   UNL     1      -5.149   7.997  65.324  1.00  0.00    -0.028 A  
BRANCH  13  17
HETATM   17  C   UNL     1      -8.880  10.419  67.989  1.00  0.00    -0.130 C  
HETATM   18  C   UNL     1      -9.634   7.979  68.211  1.00  0.00    -0.146 C  
HETATM   19  C   UNL     1      -9.983   9.458  68.521  1.00  0.00    -0.190 C  
HETATM   20  C   UNL     1     -10.165   9.732  70.023  1.00  0.00    -0.308 C  
BRANCH  18  21
HETATM   21  N   UNL     1     -10.640   6.911  68.432  1.00  0.00    -0.203 NA 
HETATM   22  C   UNL     1     -11.006   6.216  67.194  1.00  0.00    -0.331 C  
HETATM   23  C   UNL     1     -10.045   5.930  69.360  1.00  0.00    -0.202 C  
ENDBRANCH  18  21
ENDBRANCH  13  17
ENDBRANCH   2   3
TORSDOF 3
ENDMDL
MODEL       78
REMARK 921   NORMALIZED FREE ENERGY PREDICTED BY IDOCK:   -4.49 KCAL/MOL
REMARK 922        TOTAL FREE ENERGY PREDICTED BY IDOCK:   -5.48 KCAL/MOL
REMARK 923 INTER-LIGAND FREE ENERGY PREDICTED BY IDOCK:   -5.15 KCAL/MOL
REMARK 924 INTRA-LIGAND FREE ENERGY PREDICTED BY IDOCK:   -0.32 KCAL/MOL
REMARK 927      BINDING AFFINITY PREDICTED BY RF-SCORE:    0.00 PKD
ROOT
HETATM    1  C   UNL     1     -12.311   8.616  71.555  1.00  0.00    -0.324 C  
HETATM    2  O   UNL     1     -11.795   8.973  70.277  1.00  0.00    -0.087 OA 
ENDROOT
BRANCH   2   3
HETATM    3  C   UNL     1     -11.803  10.314  70.000  1.00  0.00    -0.228 A  
HETATM    4  C   UNL     1     -11.335  10.677  68.727  1.00  0.00    -0.339 A  
HETATM    5  C   UNL     1     -11.295  12.017  68.271  1.00  0.00    -0.286 A  
HETATM    6  C   UNL     1     -11.733  12.986  69.199  1.00  0.00    -0.326 A  
HETATM    7  C   UNL     1     -12.171  12.623  70.485  1.00  0.00    -0.383 A  
HETATM    8  S   UNL     1     -11.808  14.722  68.875  1.00  0.00    -0.274 SA 
HETATM    9  C   UNL     1     -11.148  14.839  67.234  1.00  0.00    -0.332 A  
HETATM   10  C   UNL     1     -12.203  11.297  70.889  1.00  0.00    -0.460 A  
HETATM   11  C   UNL     1     -10.731  13.725  66.474  1.00  0.00    -0.284 A  
HETATM   12  C   UNL     1     -10.234  14.040  65.183  1.00  0.00    -0.396 A  
HETATM   13  N   UNL     1     -10.826  12.380  66.966  1.00  0.00    -0.239 NA 
HETATM   14  C   UNL     1     -11.079  16.159  66.727  1.00  0.00     0.027 A  
HETATM   15  C   UNL     1     -10.168  15.356  64.687  1.00  0.00     0.278 A  
HETATM   16  C   UNL     1     -10.598  16.416  65.464  1.00  0.00    -0.346 A  
BRANCH  13  17
HETATM   17  C   UNL     1     -10.483  11.265  66.046  1.00  0.00    -0.257 C  
HETATM   18  C   UNL     1      -8.035  11.217  66.805  1.00  0.00    -0.159 C  
HETATM   19  C   UNL     1      -8.995  11.250  65.588  1.00  0.00    -0.173 C  
HETATM   20  C   UNL     1      -8.805  10.057  64.637  1.00  0.00    -0.227 C  
BRANCH  18  21
HETATM   21  N   UNL     1      -6.577  11.417  66.613  1.00  0.00    -0.134 NA 
HETATM   22  C   UNL     1      -6.065  12.575  67.351  1.00  0.00    -0.155 C  
HETATM   23  C   UNL     1      -5.896  10.206  67.111  1.00  0.00    -0.050 C  
ENDBRANCH  18  21
ENDBRANCH  13  17
ENDBRANCH   2   3
TORSDOF 3
ENDMDL
MODEL       79
REMARK 921   NORMALIZED FREE ENERGY PREDICTED BY IDOCK:   -4.45 KCAL/MOL
REMARK 922        TOTAL FREE ENERGY PREDICTED BY IDOCK:   -5.43 KCAL/MOL
REMARK 923 INTER-LIGAND FREE ENERGY PREDICTED BY IDOCK:   -5.05 KCAL/MOL
REMARK 924 INTRA-LIGAND FREE ENERGY PREDICTED BY IDOCK:   -0.38 KCAL/MOL
REMARK 927      BINDING AFFINITY PREDICTED BY RF-SCORE:    0.00 PKD
ROOT
HETATM    1  C   UNL     1     -13.391  10.071  72.282  1.00  0.00    -0.289 C  
HETATM    2  O   UNL     1     -13.052  11.446  72.136  1.00  0.00    -0.462 OA 
ENDROOT
BRANCH   2   3
HETATM    3  C   UNL     1     -12.421  11.769  70.965  1.00  0.00    -0.309 A  
HETATM    4  C   UNL     1     -11.907  10.688  70.229  1.00  0.00    -0.430 A  
HETATM    5  C   UNL     1     -11.245  10.843  68.987  1.00  0.00    -0.266 A  
HETATM    6  C   UNL     1     -11.101  12.173  68.539  1.00  0.00    -0.252 A  
HETATM    7  C   UNL     1     -11.587  13.257  69.292  1.00  0.00    -0.370 A  
HETATM    8  S   UNL     1     -10.338  12.640  67.015  1.00  0.00    -0.233 SA 
HETATM    9  C   UNL     1      -9.799  11.084  66.359  1.00  0.00    -0.212 A  
HETATM   10  C   UNL     1     -12.239  13.061  70.501  1.00  0.00    -0.392 A  
HETATM   11  C   UNL     1     -10.022   9.844  66.995  1.00  0.00    -0.200 A  
HETATM   12  C   UNL     1      -9.509   8.719  66.299  1.00  0.00    -0.300 A  
HETATM   13  N   UNL     1     -10.733   9.735  68.237  1.00  0.00    -0.238 NA 
HETATM   14  C   UNL     1      -9.124  11.178  65.118  1.00  0.00    -0.161 A  
HETATM   15  C   UNL     1      -8.837   8.822  65.066  1.00  0.00    -0.151 A  
HETATM   16  C   UNL     1      -8.651  10.057  64.474  1.00  0.00    -0.197 A  
BRANCH  13  17
HETATM   17  C   UNL     1     -11.031   8.377  68.764  1.00  0.00     0.177 C  
HETATM   18  C   UNL     1      -8.967   8.372  70.285  1.00  0.00    -0.147 C  
HETATM   19  C   UNL     1      -9.774   7.581  69.223  1.00  0.00    -0.163 C  
HETATM   20  C   UNL     1     -10.243   6.205  69.723  1.00  0.00    -0.249 C  
BRANCH  18  21
HETATM   21  N   UNL     1      -7.622   7.905  70.703  1.00  0.00    -0.075 NA 
HETATM   22  C   UNL     1      -6.822   7.413  69.578  1.00  0.00    -0.049 C  
HETATM   23  C   UNL     1      -6.923   9.056  71.307  1.00  0.00    -0.081 C  
ENDBRANCH  18  21
ENDBRANCH  13  17
ENDBRANCH   2   3
TORSDOF 3
ENDMDL
MODEL       80
REMARK 921   NORMALIZED FREE ENERGY PREDICTED BY IDOCK:   -4.43 KCAL/MOL
REMARK 922        TOTAL FREE ENERGY PREDICTED BY IDOCK:   -5.41 KCAL/MOL
REMARK 923 INTER-LIGAND FREE ENERGY PREDICTED BY IDOCK:   -6.19 KCAL/MOL
REMARK 924 INTRA-LIGAND FREE ENERGY PREDICTED BY IDOCK:    0.78 KCAL/MOL
REMARK 927      BINDING AFFINITY PREDICTED BY RF-SCORE:    0.00 PKD
ROOT
HETATM    1  C   UNL     1      -8.293  10.448  67.292  1.00  0.00    -0.122 C  
HETATM    2  O   UNL     1      -7.915  11.232  68.419  1.00  0.00    -0.124 OA 
ENDROOT
BRANCH   2   3
HETATM    3  C   UNL     1      -7.589  12.533  68.139  1.00  0.00    -0.127 A  
HETATM    4  C   UNL     1      -8.655  13.359  67.748  1.00  0.00    -0.194 A  
HETATM    5  C   UNL     1      -8.497  14.733  67.444  1.00  0.00    -0.201 A  
HETATM    6  C   UNL     1      -7.177  15.225  67.529  1.00  0.00    -0.197 A  
HETATM    7  C   UNL     1      -6.106  14.388  67.890  1.00  0.00    -0.161 A  
HETATM    8  S   UNL     1      -6.711  16.902  67.227  1.00  0.00    -0.188 SA 
HETATM    9  C   UNL     1      -8.246  17.651  66.752  1.00  0.00    -0.243 A  
HETATM   10  C   UNL     1      -6.305  13.048  68.189  1.00  0.00    -0.101 A  
HETATM   11  C   UNL     1      -9.475  16.960  66.701  1.00  0.00    -0.265 A  
HETATM   12  C   UNL     1     -10.583  17.747  66.296  1.00  0.00    -0.220 A  
HETATM   13  N   UNL     1      -9.591  15.573  67.056  1.00  0.00    -0.220 NA 
HETATM   14  C   UNL     1      -8.147  19.026  66.430  1.00  0.00    -0.308 A  
HETATM   15  C   UNL     1     -10.476  19.114  65.976  1.00  0.00    -0.546 A  
HETATM   16  C   UNL     1      -9.252  19.754  66.050  1.00  0.00    -0.338 A  
BRANCH  13  17
HETATM   17  C   UNL     1     -10.947  14.965  67.096  1.00  0.00    -0.323 C  
HETATM   18  C   UNL     1     -10.454  13.416  65.114  1.00  0.00    -0.347 C  
HETATM   19  C   UNL     1     -11.450  14.437  65.721  1.00  0.00    -0.335 C  
HETATM   20  C   UNL     1     -12.860  13.858  65.924  1.00  0.00    -0.387 C  
BRANCH  18  21
HETATM   21  N   UNL     1     -10.620  12.948  63.716  1.00  0.00    -0.340 NA 
HETATM   22  C   UNL     1     -10.244  11.542  63.543  1.00  0.00    -0.420 C  
HETATM   23  C   UNL     1     -12.047  13.097  63.367  1.00  0.00    -0.486 C  
ENDBRANCH  18  21
ENDBRANCH  13  17
ENDBRANCH   2   3
TORSDOF 3
ENDMDL
MODEL       81
REMARK 921   NORMALIZED FREE ENERGY PREDICTED BY IDOCK:   -4.43 KCAL/MOL
REMARK 922        TOTAL FREE ENERGY PREDICTED BY IDOCK:   -5.40 KCAL/MOL
REMARK 923 INTER-LIGAND FREE ENERGY PREDICTED BY IDOCK:   -5.05 KCAL/MOL
REMARK 924 INTRA-LIGAND FREE ENERGY PREDICTED BY IDOCK:   -0.35 KCAL/MOL
REMARK 927      BINDING AFFINITY PREDICTED BY RF-SCORE:    0.00 PKD
ROOT
HETATM    1  C   UNL     1     -12.527  12.901  63.722  1.00  0.00    -0.347 C  
HETATM    2  O   UNL     1     -12.460  12.297  65.010  1.00  0.00    -0.535 OA 
ENDROOT
BRANCH   2   3
HETATM    3  C   UNL     1     -11.351  12.617  65.746  1.00  0.00    -0.333 A  
HETATM    4  C   UNL     1     -10.724  11.546  66.404  1.00  0.00    -0.320 A  
HETATM    5  C   UNL     1      -9.555  11.697  67.189  1.00  0.00    -0.175 A  
HETATM    6  C   UNL     1      -9.066  13.017  67.298  1.00  0.00    -0.209 A  
HETATM    7  C   UNL     1      -9.713  14.093  66.665  1.00  0.00    -0.297 A  
HETATM    8  S   UNL     1      -7.614  13.476  68.195  1.00  0.00    -0.154 SA 
HETATM    9  C   UNL     1      -7.090  11.936  68.899  1.00  0.00    -0.110 A  
HETATM   10  C   UNL     1     -10.852  13.900  65.897  1.00  0.00    -0.287 A  
HETATM   11  C   UNL     1      -7.753  10.708  68.685  1.00  0.00    -0.110 A  
HETATM   12  C   UNL     1      -7.168   9.595  69.342  1.00  0.00    -0.071 A  
HETATM   13  N   UNL     1      -8.915  10.599  67.849  1.00  0.00    -0.136 NA 
HETATM   14  C   UNL     1      -5.927  12.028  69.701  1.00  0.00    -0.120 A  
HETATM   15  C   UNL     1      -6.012   9.696  70.138  1.00  0.00    -0.050 A  
HETATM   16  C   UNL     1      -5.389  10.918  70.311  1.00  0.00    -0.070 A  
BRANCH  13  17
HETATM   17  C   UNL     1      -9.467   9.245  67.580  1.00  0.00    -0.132 C  
HETATM   18  C   UNL     1     -11.128   9.392  69.528  1.00  0.00    -0.112 C  
HETATM   19  C   UNL     1     -10.040   8.528  68.838  1.00  0.00    -0.213 C  
HETATM   20  C   UNL     1     -10.554   7.147  68.401  1.00  0.00    -0.223 C  
BRANCH  18  21
HETATM   21  N   UNL     1     -11.654   9.007  70.860  1.00  0.00    -0.285 NA 
HETATM   22  C   UNL     1     -10.591   8.799  71.848  1.00  0.00    -0.354 C  
HETATM   23  C   UNL     1     -12.519  10.108  71.328  1.00  0.00    -0.406 C  
ENDBRANCH  18  21
ENDBRANCH  13  17
ENDBRANCH   2   3
TORSDOF 3
ENDMDL
MODEL       82
REMARK 921   NORMALIZED FREE ENERGY PREDICTED BY IDOCK:   -4.42 KCAL/MOL
REMARK 922        TOTAL FREE ENERGY PREDICTED BY IDOCK:   -5.40 KCAL/MOL
REMARK 923 INTER-LIGAND FREE ENERGY PREDICTED BY IDOCK:   -5.42 KCAL/MOL
REMARK 924 INTRA-LIGAND FREE ENERGY PREDICTED BY IDOCK:    0.02 KCAL/MOL
REMARK 927      BINDING AFFINITY PREDICTED BY RF-SCORE:    0.00 PKD
ROOT
HETATM    1  C   UNL     1     -11.769   9.151  71.838  1.00  0.00    -0.366 C  
HETATM    2  O   UNL     1     -10.608   9.720  71.244  1.00  0.00    -0.273 OA 
ENDROOT
BRANCH   2   3
HETATM    3  C   UNL     1     -10.796  10.264  70.002  1.00  0.00    -0.307 A  
HETATM    4  C   UNL     1      -9.905   9.834  69.005  1.00  0.00    -0.183 A  
HETATM    5  C   UNL     1      -9.973  10.279  67.662  1.00  0.00    -0.179 A  
HETATM    6  C   UNL     1     -10.987  11.221  67.387  1.00  0.00    -0.282 A  
HETATM    7  C   UNL     1     -11.857  11.676  68.394  1.00  0.00    -0.346 A  
HETATM    8  S   UNL     1     -11.303  11.917  65.794  1.00  0.00    -0.252 SA 
HETATM    9  C   UNL     1     -10.026  11.197  64.796  1.00  0.00    -0.287 A  
HETATM   10  C   UNL     1     -11.763  11.206  69.696  1.00  0.00    -0.410 A  
HETATM   11  C   UNL     1      -9.072  10.279  65.285  1.00  0.00    -0.191 A  
HETATM   12  C   UNL     1      -8.137   9.824  64.319  1.00  0.00    -0.152 A  
HETATM   13  N   UNL     1      -9.068   9.828  66.647  1.00  0.00    -0.145 NA 
HETATM   14  C   UNL     1     -10.041  11.612  63.443  1.00  0.00    -0.468 A  
HETATM   15  C   UNL     1      -8.159  10.243  62.975  1.00  0.00    -0.157 A  
HETATM   16  C   UNL     1      -9.119  11.137  62.538  1.00  0.00    -0.347 A  
BRANCH  13  17
HETATM   17  C   UNL     1      -8.106   8.763  67.037  1.00  0.00    -0.099 C  
HETATM   18  C   UNL     1      -9.717   6.882  66.372  1.00  0.00    -0.064 C  
HETATM   19  C   UNL     1      -8.776   7.428  67.478  1.00  0.00    -0.124 C  
HETATM   20  C   UNL     1      -7.660   6.443  67.860  1.00  0.00    -0.102 C  
BRANCH  18  21
HETATM   21  N   UNL     1     -10.623   5.743  66.657  1.00  0.00    -0.287 NA 
HETATM   22  C   UNL     1     -10.033   4.450  66.296  1.00  0.00    -0.235 C  
HETATM   23  C   UNL     1     -10.893   5.745  68.108  1.00  0.00    -0.162 C  
ENDBRANCH  18  21
ENDBRANCH  13  17
ENDBRANCH   2   3
TORSDOF 3
ENDMDL
MODEL       83
REMARK 921   NORMALIZED FREE ENERGY PREDICTED BY IDOCK:   -4.42 KCAL/MOL
REMARK 922        TOTAL FREE ENERGY PREDICTED BY IDOCK:   -5.39 KCAL/MOL
REMARK 923 INTER-LIGAND FREE ENERGY PREDICTED BY IDOCK:   -5.03 KCAL/MOL
REMARK 924 INTRA-LIGAND FREE ENERGY PREDICTED BY IDOCK:   -0.36 KCAL/MOL
REMARK 927      BINDING AFFINITY PREDICTED BY RF-SCORE:    0.00 PKD
ROOT
HETATM    1  C   UNL     1     -11.920  13.477  68.622  1.00  0.00    -0.343 C  
HETATM    2  O   UNL     1     -12.278  13.078  69.941  1.00  0.00    -0.277 OA 
ENDROOT
BRANCH   2   3
HETATM    3  C   UNL     1     -12.088  11.751  70.220  1.00  0.00    -0.342 A  
HETATM    4  C   UNL     1     -11.508  10.988  69.193  1.00  0.00    -0.370 A  
HETATM    5  C   UNL     1     -11.223   9.607  69.322  1.00  0.00    -0.047 A  
HETATM    6  C   UNL     1     -11.590   9.026  70.555  1.00  0.00    -0.175 A  
HETATM    7  C   UNL     1     -12.200   9.784  71.570  1.00  0.00    -0.493 A  
HETATM    8  S   UNL     1     -11.323   7.332  70.983  1.00  0.00    -0.284 SA 
HETATM    9  C   UNL     1     -10.611   6.666  69.502  1.00  0.00    -0.241 A  
HETATM   10  C   UNL     1     -12.454  11.138  71.406  1.00  0.00    -0.414 A  
HETATM   11  C   UNL     1     -10.349   7.429  68.344  1.00  0.00    -0.194 A  
HETATM   12  C   UNL     1      -9.776   6.700  67.270  1.00  0.00    -0.166 A  
HETATM   13  N   UNL     1     -10.621   8.837  68.275  1.00  0.00    -0.184 NA 
HETATM   14  C   UNL     1     -10.310   5.284  69.572  1.00  0.00    -0.333 A  
HETATM   15  C   UNL     1      -9.481   5.326  67.348  1.00  0.00    -0.137 A  
HETATM   16  C   UNL     1      -9.746   4.620  68.507  1.00  0.00    -0.208 A  
BRANCH  13  17
HETATM   17  C   UNL     1     -10.192   9.581  67.062  1.00  0.00    -0.255 C  
HETATM   18  C   UNL     1      -7.776   9.800  67.891  1.00  0.00    -0.087 C  
HETATM   19  C   UNL     1      -8.996  10.550  67.298  1.00  0.00    -0.145 C  
HETATM   20  C   UNL     1      -8.685  11.250  65.965  1.00  0.00    -0.165 C  
BRANCH  18  21
HETATM   21  N   UNL     1      -6.605  10.558  68.397  1.00  0.00    -0.055 NA 
HETATM   22  C   UNL     1      -6.294  10.248  69.795  1.00  0.00    -0.071 C  
HETATM   23  C   UNL     1      -5.444  10.184  67.565  1.00  0.00    -0.041 C  
ENDBRANCH  18  21
ENDBRANCH  13  17
ENDBRANCH   2   3
TORSDOF 3
ENDMDL
MODEL       84
REMARK 921   NORMALIZED FREE ENERGY PREDICTED BY IDOCK:   -4.41 KCAL/MOL
REMARK 922        TOTAL FREE ENERGY PREDICTED BY IDOCK:   -5.38 KCAL/MOL
REMARK 923 INTER-LIGAND FREE ENERGY PREDICTED BY IDOCK:   -5.15 KCAL/MOL
REMARK 924 INTRA-LIGAND FREE ENERGY PREDICTED BY IDOCK:   -0.24 KCAL/MOL
REMARK 927      BINDING AFFINITY PREDICTED BY RF-SCORE:    0.00 PKD
ROOT
HETATM    1  C   UNL     1      -9.848  16.456  65.843  1.00  0.00    -0.315 C  
HETATM    2  O   UNL     1      -9.958  15.058  65.595  1.00  0.00    -0.316 OA 
ENDROOT
BRANCH   2   3
HETATM    3  C   UNL     1     -10.484  14.325  66.624  1.00  0.00    -0.278 A  
HETATM    4  C   UNL     1      -9.737  13.202  67.017  1.00  0.00    -0.241 A  
HETATM    5  C   UNL     1     -10.125  12.347  68.078  1.00  0.00    -0.214 A  
HETATM    6  C   UNL     1     -11.344  12.679  68.708  1.00  0.00    -0.289 A  
HETATM    7  C   UNL     1     -12.106  13.785  68.292  1.00  0.00    -0.314 A  
HETATM    8  S   UNL     1     -12.041  11.794  70.070  1.00  0.00    -0.281 SA 
HETATM    9  C   UNL     1     -10.891  10.464  70.297  1.00  0.00    -0.242 A  
HETATM   10  C   UNL     1     -11.685  14.603  67.254  1.00  0.00    -0.406 A  
HETATM   11  C   UNL     1      -9.724  10.293  69.522  1.00  0.00    -0.211 A  
HETATM   12  C   UNL     1      -8.941   9.162  69.869  1.00  0.00    -0.183 A  
HETATM   13  N   UNL     1      -9.353  11.209  68.481  1.00  0.00    -0.185 NA 
HETATM   14  C   UNL     1     -11.232   9.572  71.342  1.00  0.00    -0.452 A  
HETATM   15  C   UNL     1      -9.288   8.280  70.909  1.00  0.00    -0.187 A  
HETATM   16  C   UNL     1     -10.436   8.492  71.650  1.00  0.00    -0.345 A  
BRANCH  13  17
HETATM   17  C   UNL     1      -8.042  11.020  67.806  1.00  0.00    -0.116 C  
HETATM   18  C   UNL     1      -6.797  12.440  69.540  1.00  0.00     0.082 C  
HETATM   19  C   UNL     1      -7.036  12.187  68.029  1.00  0.00    -0.090 C  
HETATM   20  C   UNL     1      -5.746  11.852  67.262  1.00  0.00    -0.128 C  
BRANCH  18  21
HETATM   21  N   UNL     1      -6.047  13.639  69.989  1.00  0.00    -0.142 NA 
HETATM   22  C   UNL     1      -6.802  14.881  69.795  1.00  0.00    -0.182 C  
HETATM   23  C   UNL     1      -5.776  13.476  71.430  1.00  0.00    -0.112 C  
ENDBRANCH  18  21
ENDBRANCH  13  17
ENDBRANCH   2   3
TORSDOF 3
ENDMDL
MODEL       85
REMARK 921   NORMALIZED FREE ENERGY PREDICTED BY IDOCK:   -4.41 KCAL/MOL
REMARK 922        TOTAL FREE ENERGY PREDICTED BY IDOCK:   -5.38 KCAL/MOL
REMARK 923 INTER-LIGAND FREE ENERGY PREDICTED BY IDOCK:   -5.04 KCAL/MOL
REMARK 924 INTRA-LIGAND FREE ENERGY PREDICTED BY IDOCK:   -0.34 KCAL/MOL
REMARK 927      BINDING AFFINITY PREDICTED BY RF-SCORE:    0.00 PKD
ROOT
HETATM    1  C   UNL     1     -10.883   6.679  67.241  1.00  0.00    -0.385 C  
HETATM    2  O   UNL     1     -10.883   8.062  66.900  1.00  0.00    -0.267 OA 
ENDROOT
BRANCH   2   3
HETATM    3  C   UNL     1      -9.868   8.797  67.452  1.00  0.00    -0.194 A  
HETATM    4  C   UNL     1      -9.814  10.147  67.070  1.00  0.00    -0.238 A  
HETATM    5  C   UNL     1      -8.843  11.053  67.562  1.00  0.00    -0.131 A  
HETATM    6  C   UNL     1      -7.897  10.501  68.453  1.00  0.00    -0.110 A  
HETATM    7  C   UNL     1      -7.933   9.141  68.809  1.00  0.00    -0.100 A  
HETATM    8  S   UNL     1      -6.599  11.416  69.228  1.00  0.00    -0.117 SA 
HETATM    9  C   UNL     1      -6.798  13.035  68.536  1.00  0.00    -0.095 A  
HETATM   10  C   UNL     1      -8.908   8.289  68.311  1.00  0.00    -0.140 A  
HETATM   11  C   UNL     1      -7.814  13.377  67.617  1.00  0.00    -0.173 A  
HETATM   12  C   UNL     1      -7.795  14.729  67.187  1.00  0.00    -0.180 A  
HETATM   13  N   UNL     1      -8.801  12.432  67.176  1.00  0.00    -0.190 NA 
HETATM   14  C   UNL     1      -5.849  13.982  68.988  1.00  0.00    -0.089 A  
HETATM   15  C   UNL     1      -6.846  15.664  67.641  1.00  0.00    -0.201 A  
HETATM   16  C   UNL     1      -5.875  15.287  68.550  1.00  0.00    -0.097 A  
BRANCH  13  17
HETATM   17  C   UNL     1      -9.907  12.917  66.310  1.00  0.00    -0.273 C  
HETATM   18  C   UNL     1     -11.163  13.973  68.280  1.00  0.00    -0.268 C  
HETATM   19  C   UNL     1     -11.277  13.050  67.039  1.00  0.00    -0.325 C  
HETATM   20  C   UNL     1     -12.311  13.543  66.014  1.00  0.00    -0.486 C  
BRANCH  18  21
HETATM   21  N   UNL     1     -12.285  14.070  69.245  1.00  0.00    -0.330 NA 
HETATM   22  C   UNL     1     -12.269  12.994  70.240  1.00  0.00    -0.296 C  
HETATM   23  C   UNL     1     -12.152  15.360  69.949  1.00  0.00    -0.355 C  
ENDBRANCH  18  21
ENDBRANCH  13  17
ENDBRANCH   2   3
TORSDOF 3
ENDMDL
MODEL       86
REMARK 921   NORMALIZED FREE ENERGY PREDICTED BY IDOCK:   -4.35 KCAL/MOL
REMARK 922        TOTAL FREE ENERGY PREDICTED BY IDOCK:   -5.32 KCAL/MOL
REMARK 923 INTER-LIGAND FREE ENERGY PREDICTED BY IDOCK:   -4.95 KCAL/MOL
REMARK 924 INTRA-LIGAND FREE ENERGY PREDICTED BY IDOCK:   -0.36 KCAL/MOL
REMARK 927      BINDING AFFINITY PREDICTED BY RF-SCORE:    0.00 PKD
ROOT
HETATM    1  C   UNL     1     -12.734  14.117  65.406  1.00  0.00    -0.431 C  
HETATM    2  O   UNL     1     -12.532  12.766  65.810  1.00  0.00    -0.579 OA 
ENDROOT
BRANCH   2   3
HETATM    3  C   UNL     1     -11.552  12.095  65.128  1.00  0.00    -0.317 A  
HETATM    4  C   UNL     1     -11.010  10.976  65.781  1.00  0.00    -0.102 A  
HETATM    5  C   UNL     1     -10.005  10.158  65.209  1.00  0.00    -0.311 A  
HETATM    6  C   UNL     1      -9.551  10.559  63.935  1.00  0.00    -0.309 A  
HETATM    7  C   UNL     1     -10.072  11.698  63.296  1.00  0.00    -0.454 A  
HETATM    8  S   UNL     1      -8.326   9.702  62.993  1.00  0.00    -0.185 SA 
HETATM    9  C   UNL     1      -7.850   8.386  64.081  1.00  0.00    -0.145 A  
HETATM   10  C   UNL     1     -11.063  12.468  63.887  1.00  0.00    -0.476 A  
HETATM   11  C   UNL     1      -8.420   8.176  65.356  1.00  0.00    -0.147 A  
HETATM   12  C   UNL     1      -7.895   7.065  66.065  1.00  0.00    -0.104 A  
HETATM   13  N   UNL     1      -9.465   9.012  65.877  1.00  0.00    -0.248 NA 
HETATM   14  C   UNL     1      -6.842   7.538  63.564  1.00  0.00    -0.058 A  
HETATM   15  C   UNL     1      -6.892   6.227  65.543  1.00  0.00    -0.052 A  
HETATM   16  C   UNL     1      -6.369   6.465  64.284  1.00  0.00    -0.030 A  
BRANCH  13  17
HETATM   17  C   UNL     1     -10.091   8.635  67.171  1.00  0.00    -0.261 C  
HETATM   18  C   UNL     1      -8.634  10.271  68.503  1.00  0.00    -0.126 C  
HETATM   19  C   UNL     1      -9.161   8.816  68.407  1.00  0.00    -0.137 C  
HETATM   20  C   UNL     1      -9.942   8.374  69.655  1.00  0.00    -0.193 C  
BRANCH  18  21
HETATM   21  N   UNL     1      -7.564  10.616  69.471  1.00  0.00    -0.145 NA 
HETATM   22  C   UNL     1      -6.547   9.566  69.586  1.00  0.00    -0.046 C  
HETATM   23  C   UNL     1      -6.912  11.848  68.988  1.00  0.00    -0.098 C  
ENDBRANCH  18  21
ENDBRANCH  13  17
ENDBRANCH   2   3
TORSDOF 3
ENDMDL
MODEL       87
REMARK 921   NORMALIZED FREE ENERGY PREDICTED BY IDOCK:   -4.35 KCAL/MOL
REMARK 922        TOTAL FREE ENERGY PREDICTED BY IDOCK:   -5.31 KCAL/MOL
REMARK 923 INTER-LIGAND FREE ENERGY PREDICTED BY IDOCK:   -5.09 KCAL/MOL
REMARK 924 INTRA-LIGAND FREE ENERGY PREDICTED BY IDOCK:   -0.22 KCAL/MOL
REMARK 927      BINDING AFFINITY PREDICTED BY RF-SCORE:    0.00 PKD
ROOT
HETATM    1  C   UNL     1      -8.052   8.412  64.277  1.00  0.00    -0.151 C  
HETATM    2  O   UNL     1      -9.031   9.413  64.020  1.00  0.00    -0.213 OA 
ENDROOT
BRANCH   2   3
HETATM    3  C   UNL     1      -9.683   9.887  65.127  1.00  0.00    -0.306 A  
HETATM    4  C   UNL     1      -9.705   9.028  66.238  1.00  0.00    -0.345 A  
HETATM    5  C   UNL     1     -10.316   9.369  67.468  1.00  0.00    -0.255 A  
HETATM    6  C   UNL     1     -10.940  10.635  67.504  1.00  0.00    -0.310 A  
HETATM    7  C   UNL     1     -10.946  11.481  66.380  1.00  0.00    -0.336 A  
HETATM    8  S   UNL     1     -11.752  11.312  68.920  1.00  0.00    -0.350 SA 
HETATM    9  C   UNL     1     -11.618  10.003  70.107  1.00  0.00    -0.252 A  
HETATM   10  C   UNL     1     -10.326  11.111  65.195  1.00  0.00    -0.354 A  
HETATM   11  C   UNL     1     -10.965   8.777  69.855  1.00  0.00    -0.179 A  
HETATM   12  C   UNL     1     -10.972   7.866  70.942  1.00  0.00    -0.256 A  
HETATM   13  N   UNL     1     -10.326   8.492  68.601  1.00  0.00    -0.205 NA 
HETATM   14  C   UNL     1     -12.219  10.287  71.357  1.00  0.00    -0.481 A  
HETATM   15  C   UNL     1     -11.573   8.156  72.181  1.00  0.00    -0.417 A  
HETATM   16  C   UNL     1     -12.193   9.375  72.387  1.00  0.00    -0.120 A  
BRANCH  13  17
HETATM   17  C   UNL     1      -9.553   7.229  68.473  1.00  0.00    -0.140 C  
HETATM   18  C   UNL     1      -7.361   8.342  69.201  1.00  0.00    -0.079 C  
HETATM   19  C   UNL     1      -8.044   7.434  68.145  1.00  0.00    -0.124 C  
HETATM   20  C   UNL     1      -7.392   6.047  68.031  1.00  0.00    -0.084 C  
BRANCH  18  21
HETATM   21  N   UNL     1      -5.985   8.848  68.973  1.00  0.00    -0.043 NA 
HETATM   22  C   UNL     1      -5.796   9.380  67.620  1.00  0.00    -0.045 C  
HETATM   23  C   UNL     1      -5.750   9.938  69.940  1.00  0.00    -0.042 C  
ENDBRANCH  18  21
ENDBRANCH  13  17
ENDBRANCH   2   3
TORSDOF 3
ENDMDL
MODEL       88
REMARK 921   NORMALIZED FREE ENERGY PREDICTED BY IDOCK:   -4.33 KCAL/MOL
REMARK 922        TOTAL FREE ENERGY PREDICTED BY IDOCK:   -5.29 KCAL/MOL
REMARK 923 INTER-LIGAND FREE ENERGY PREDICTED BY IDOCK:   -5.04 KCAL/MOL
REMARK 924 INTRA-LIGAND FREE ENERGY PREDICTED BY IDOCK:   -0.25 KCAL/MOL
REMARK 927      BINDING AFFINITY PREDICTED BY RF-SCORE:    0.00 PKD
ROOT
HETATM    1  C   UNL     1      -9.860   3.637  72.015  1.00  0.00    -0.174 C  
HETATM    2  O   UNL     1      -9.742   2.972  70.762  1.00  0.00    -0.162 OA 
ENDROOT
BRANCH   2   3
HETATM    3  C   UNL     1      -9.539   3.792  69.685  1.00  0.00    -0.172 A  
HETATM    4  C   UNL     1     -10.040   5.099  69.809  1.00  0.00    -0.336 A  
HETATM    5  C   UNL     1      -9.899   6.081  68.799  1.00  0.00    -0.139 A  
HETATM    6  C   UNL     1      -9.240   5.654  67.626  1.00  0.00    -0.106 A  
HETATM    7  C   UNL     1      -8.767   4.336  67.491  1.00  0.00    -0.114 A  
HETATM    8  S   UNL     1      -8.911   6.685  66.229  1.00  0.00    -0.137 SA 
HETATM    9  C   UNL     1      -9.669   8.219  66.693  1.00  0.00    -0.251 A  
HETATM   10  C   UNL     1      -8.918   3.406  68.509  1.00  0.00    -0.185 A  
HETATM   11  C   UNL     1     -10.318   8.433  67.928  1.00  0.00    -0.221 A  
HETATM   12  C   UNL     1     -10.857   9.734  68.098  1.00  0.00    -0.264 A  
HETATM   13  N   UNL     1     -10.403   7.415  68.937  1.00  0.00    -0.203 NA 
HETATM   14  C   UNL     1      -9.564   9.238  65.716  1.00  0.00    -0.341 A  
HETATM   15  C   UNL     1     -10.748  10.742  67.121  1.00  0.00    -0.324 A  
HETATM   16  C   UNL     1     -10.094  10.491  65.929  1.00  0.00    -0.323 A  
BRANCH  13  17
HETATM   17  C   UNL     1     -10.992   7.773  70.254  1.00  0.00    -0.247 C  
HETATM   18  C   UNL     1      -8.852   8.950  71.038  1.00  0.00    -0.230 C  
HETATM   19  C   UNL     1      -9.948   7.914  71.402  1.00  0.00    -0.208 C  
HETATM   20  C   UNL     1     -10.708   8.269  72.690  1.00  0.00    -0.384 C  
BRANCH  18  21
HETATM   21  N   UNL     1      -7.643   9.087  71.885  1.00  0.00    -0.343 NA 
HETATM   22  C   UNL     1      -7.296   7.843  72.579  1.00  0.00    -0.092 C  
HETATM   23  C   UNL     1      -6.522   9.455  70.999  1.00  0.00    -0.086 C  
ENDBRANCH  18  21
ENDBRANCH  13  17
ENDBRANCH   2   3
TORSDOF 3
ENDMDL
MODEL       89
REMARK 921   NORMALIZED FREE ENERGY PREDICTED BY IDOCK:   -4.32 KCAL/MOL
REMARK 922        TOTAL FREE ENERGY PREDICTED BY IDOCK:   -5.28 KCAL/MOL
REMARK 923 INTER-LIGAND FREE ENERGY PREDICTED BY IDOCK:   -5.35 KCAL/MOL
REMARK 924 INTRA-LIGAND FREE ENERGY PREDICTED BY IDOCK:    0.07 KCAL/MOL
REMARK 927      BINDING AFFINITY PREDICTED BY RF-SCORE:    0.00 PKD
ROOT
HETATM    1  C   UNL     1      -5.760  18.974  69.838  1.00  0.00    -0.237 C  
HETATM    2  O   UNL     1      -6.145  17.652  69.478  1.00  0.00    -0.231 OA 
ENDROOT
BRANCH   2   3
HETATM    3  C   UNL     1      -7.200  17.569  68.609  1.00  0.00    -0.246 A  
HETATM    4  C   UNL     1      -7.466  16.291  68.091  1.00  0.00    -0.148 A  
HETATM    5  C   UNL     1      -8.532  16.025  67.197  1.00  0.00    -0.196 A  
HETATM    6  C   UNL     1      -9.307  17.145  66.828  1.00  0.00    -0.254 A  
HETATM    7  C   UNL     1      -9.020  18.430  67.323  1.00  0.00    -0.265 A  
HETATM    8  S   UNL     1     -10.706  17.085  65.751  1.00  0.00    -0.027 SA 
HETATM    9  C   UNL     1     -10.754  15.378  65.274  1.00  0.00    -0.421 A  
HETATM   10  C   UNL     1      -7.971  18.646  68.205  1.00  0.00    -0.337 A  
HETATM   11  C   UNL     1      -9.847  14.405  65.744  1.00  0.00    -0.302 A  
HETATM   12  C   UNL     1     -10.062  13.097  65.237  1.00  0.00    -0.250 A  
HETATM   13  N   UNL     1      -8.804  14.716  66.680  1.00  0.00    -0.240 NA 
HETATM   14  C   UNL     1     -11.799  15.054  64.374  1.00  0.00    -0.349 A  
HETATM   15  C   UNL     1     -11.103  12.784  64.342  1.00  0.00    -0.386 A  
HETATM   16  C   UNL     1     -11.976  13.769  63.916  1.00  0.00    -0.414 A  
BRANCH  13  17
HETATM   17  C   UNL     1      -7.980  13.602  67.217  1.00  0.00    -0.114 C  
HETATM   18  C   UNL     1     -10.000  12.457  68.304  1.00  0.00    -0.224 C  
HETATM   19  C   UNL     1      -8.547  12.957  68.516  1.00  0.00    -0.042 C  
HETATM   20  C   UNL     1      -7.583  11.842  68.950  1.00  0.00    -0.063 C  
BRANCH  18  21
HETATM   21  N   UNL     1     -10.812  12.007  69.461  1.00  0.00    -0.000 NA 
HETATM   22  C   UNL     1     -11.813  12.998  69.867  1.00  0.00    -0.307 C  
HETATM   23  C   UNL     1     -11.513  10.773  69.055  1.00  0.00    -0.298 C  
ENDBRANCH  18  21
ENDBRANCH  13  17
ENDBRANCH   2   3
TORSDOF 3
ENDMDL
MODEL       90
REMARK 921   NORMALIZED FREE ENERGY PREDICTED BY IDOCK:   -4.31 KCAL/MOL
REMARK 922        TOTAL FREE ENERGY PREDICTED BY IDOCK:   -5.27 KCAL/MOL
REMARK 923 INTER-LIGAND FREE ENERGY PREDICTED BY IDOCK:   -4.93 KCAL/MOL
REMARK 924 INTRA-LIGAND FREE ENERGY PREDICTED BY IDOCK:   -0.34 KCAL/MOL
REMARK 927      BINDING AFFINITY PREDICTED BY RF-SCORE:    0.00 PKD
ROOT
HETATM    1  C   UNL     1      -5.595  15.720  70.177  1.00  0.00    -0.158 C  
HETATM    2  O   UNL     1      -6.865  15.077  70.177  1.00  0.00    -0.164 OA 
ENDROOT
BRANCH   2   3
HETATM    3  C   UNL     1      -7.638  15.315  69.073  1.00  0.00    -0.172 A  
HETATM    4  C   UNL     1      -8.356  14.212  68.581  1.00  0.00    -0.123 A  
HETATM    5  C   UNL     1      -9.219  14.289  67.460  1.00  0.00    -0.197 A  
HETATM    6  C   UNL     1      -9.294  15.554  66.839  1.00  0.00    -0.233 A  
HETATM    7  C   UNL     1      -8.550  16.648  67.314  1.00  0.00    -0.208 A  
HETATM    8  S   UNL     1     -10.311  15.925  65.443  1.00  0.00    -0.325 SA 
HETATM    9  C   UNL     1     -11.049  14.357  65.072  1.00  0.00    -0.380 A  
HETATM   10  C   UNL     1      -7.722  16.533  68.421  1.00  0.00    -0.189 A  
HETATM   11  C   UNL     1     -10.812  13.181  65.817  1.00  0.00    -0.273 A  
HETATM   12  C   UNL     1     -11.503  12.033  65.351  1.00  0.00    -0.361 A  
HETATM   13  N   UNL     1      -9.957  13.163  66.970  1.00  0.00    -0.239 NA 
HETATM   14  C   UNL     1     -11.919  14.372  63.955  1.00  0.00    -0.288 A  
HETATM   15  C   UNL     1     -12.366  12.057  64.239  1.00  0.00    -0.401 A  
HETATM   16  C   UNL     1     -12.576  13.234  63.544  1.00  0.00    -0.172 A  
BRANCH  13  17
HETATM   17  C   UNL     1      -9.871  11.911  67.766  1.00  0.00    -0.184 C  
HETATM   18  C   UNL     1      -7.841  11.059  66.452  1.00  0.00    -0.150 C  
HETATM   19  C   UNL     1      -9.249  10.707  66.997  1.00  0.00    -0.167 C  
HETATM   20  C   UNL     1      -9.244   9.495  67.942  1.00  0.00    -0.134 C  
BRANCH  18  21
HETATM   21  N   UNL     1      -7.155  10.143  65.507  1.00  0.00    -0.132 NA 
HETATM   22  C   UNL     1      -7.795  10.110  64.189  1.00  0.00    -0.145 C  
HETATM   23  C   UNL     1      -5.772  10.633  65.343  1.00  0.00    -0.133 C  
ENDBRANCH  18  21
ENDBRANCH  13  17
ENDBRANCH   2   3
TORSDOF 3
ENDMDL
MODEL       91
REMARK 921   NORMALIZED FREE ENERGY PREDICTED BY IDOCK:   -4.31 KCAL/MOL
REMARK 922        TOTAL FREE ENERGY PREDICTED BY IDOCK:   -5.27 KCAL/MOL
REMARK 923 INTER-LIGAND FREE ENERGY PREDICTED BY IDOCK:   -5.48 KCAL/MOL
REMARK 924 INTRA-LIGAND FREE ENERGY PREDICTED BY IDOCK:    0.21 KCAL/MOL
REMARK 927      BINDING AFFINITY PREDICTED BY RF-SCORE:    0.00 PKD
ROOT
HETATM    1  C   UNL     1     -12.288  12.835  63.455  1.00  0.00    -0.467 C  
HETATM    2  O   UNL     1     -12.203  12.450  64.823  1.00  0.00    -0.429 OA 
ENDROOT
BRANCH   2   3
HETATM    3  C   UNL     1     -11.176  11.596  65.124  1.00  0.00    -0.197 A  
HETATM    4  C   UNL     1     -10.835  11.507  66.484  1.00  0.00    -0.335 A  
HETATM    5  C   UNL     1      -9.812  10.656  66.971  1.00  0.00    -0.185 A  
HETATM    6  C   UNL     1      -9.123   9.913  65.988  1.00  0.00    -0.158 A  
HETATM    7  C   UNL     1      -9.445  10.028  64.623  1.00  0.00    -0.367 A  
HETATM    8  S   UNL     1      -7.825   8.764  66.328  1.00  0.00    -0.103 SA 
HETATM    9  C   UNL     1      -7.636   8.901  68.085  1.00  0.00    -0.093 A  
HETATM   10  C   UNL     1     -10.461  10.867  64.189  1.00  0.00    -0.397 A  
HETATM   11  C   UNL     1      -8.424   9.746  68.896  1.00  0.00    -0.129 A  
HETATM   12  C   UNL     1      -8.108   9.704  70.279  1.00  0.00    -0.206 A  
HETATM   13  N   UNL     1      -9.476  10.562  68.360  1.00  0.00    -0.152 NA 
HETATM   14  C   UNL     1      -6.621   8.077  68.627  1.00  0.00    -0.057 A  
HETATM   15  C   UNL     1      -7.097   8.882  70.810  1.00  0.00    -0.078 A  
HETATM   16  C   UNL     1      -6.356   8.062  69.978  1.00  0.00    -0.033 A  
BRANCH  13  17
HETATM   17  C   UNL     1     -10.336  11.319  69.307  1.00  0.00    -0.070 C  
HETATM   18  C   UNL     1     -11.116   9.191  70.505  1.00  0.00    -0.260 C  
HETATM   19  C   UNL     1     -11.561  10.517  69.837  1.00  0.00    -0.384 C  
HETATM   20  C   UNL     1     -12.352  11.434  70.784  1.00  0.00    -0.483 C  
BRANCH  18  21
HETATM   21  N   UNL     1     -12.123   8.170  70.885  1.00  0.00    -0.213 NA 
HETATM   22  C   UNL     1     -11.762   6.824  70.430  1.00  0.00    -0.363 C  
HETATM   23  C   UNL     1     -12.206   8.158  72.359  1.00  0.00    -0.319 C  
ENDBRANCH  18  21
ENDBRANCH  13  17
ENDBRANCH   2   3
TORSDOF 3
ENDMDL
MODEL       92
REMARK 921   NORMALIZED FREE ENERGY PREDICTED BY IDOCK:   -4.30 KCAL/MOL
REMARK 922        TOTAL FREE ENERGY PREDICTED BY IDOCK:   -5.25 KCAL/MOL
REMARK 923 INTER-LIGAND FREE ENERGY PREDICTED BY IDOCK:   -4.85 KCAL/MOL
REMARK 924 INTRA-LIGAND FREE ENERGY PREDICTED BY IDOCK:   -0.40 KCAL/MOL
REMARK 927      BINDING AFFINITY PREDICTED BY RF-SCORE:    0.00 PKD
ROOT
HETATM    1  C   UNL     1     -10.164   4.431  65.008  1.00  0.00    -0.145 C  
HETATM    2  O   UNL     1      -9.225   4.600  66.065  1.00  0.00    -0.130 OA 
ENDROOT
BRANCH   2   3
HETATM    3  C   UNL     1      -9.670   5.343  67.125  1.00  0.00    -0.146 A  
HETATM    4  C   UNL     1      -9.909   6.702  66.860  1.00  0.00    -0.222 A  
HETATM    5  C   UNL     1     -10.391   7.607  67.837  1.00  0.00    -0.212 A  
HETATM    6  C   UNL     1     -10.591   7.061  69.123  1.00  0.00    -0.219 A  
HETATM    7  C   UNL     1     -10.320   5.708  69.394  1.00  0.00    -0.343 A  
HETATM    8  S   UNL     1     -11.207   7.964  70.511  1.00  0.00    -0.222 SA 
HETATM    9  C   UNL     1     -11.384   9.603  69.859  1.00  0.00    -0.159 A  
HETATM   10  C   UNL     1      -9.857   4.851  68.405  1.00  0.00    -0.200 A  
HETATM   11  C   UNL     1     -11.094   9.953  68.522  1.00  0.00    -0.129 A  
HETATM   12  C   UNL     1     -11.305  11.320  68.207  1.00  0.00    -0.359 A  
HETATM   13  N   UNL     1     -10.643   8.990  67.558  1.00  0.00    -0.266 NA 
HETATM   14  C   UNL     1     -11.858  10.554  70.795  1.00  0.00    -0.465 A  
HETATM   15  C   UNL     1     -11.775  12.259  69.144  1.00  0.00    -0.377 A  
HETATM   16  C   UNL     1     -12.057  11.869  70.441  1.00  0.00    -0.421 A  
BRANCH  13  17
HETATM   17  C   UNL     1     -10.487   9.424  66.145  1.00  0.00     0.043 C  
HETATM   18  C   UNL     1      -7.962   9.791  66.398  1.00  0.00    -0.109 C  
HETATM   19  C   UNL     1      -9.300  10.402  65.906  1.00  0.00    -0.224 C  
HETATM   20  C   UNL     1      -9.281  10.767  64.412  1.00  0.00    -0.250 C  
BRANCH  18  21
HETATM   21  N   UNL     1      -6.739  10.627  66.470  1.00  0.00    -0.107 NA 
HETATM   22  C   UNL     1      -6.965  11.899  67.161  1.00  0.00    -0.142 C  
HETATM   23  C   UNL     1      -5.724   9.861  67.219  1.00  0.00    -0.046 C  
ENDBRANCH  18  21
ENDBRANCH  13  17
ENDBRANCH   2   3
TORSDOF 3
ENDMDL
MODEL       93
REMARK 921   NORMALIZED FREE ENERGY PREDICTED BY IDOCK:   -4.26 KCAL/MOL
REMARK 922        TOTAL FREE ENERGY PREDICTED BY IDOCK:   -5.21 KCAL/MOL
REMARK 923 INTER-LIGAND FREE ENERGY PREDICTED BY IDOCK:   -4.84 KCAL/MOL
REMARK 924 INTRA-LIGAND FREE ENERGY PREDICTED BY IDOCK:   -0.37 KCAL/MOL
REMARK 927      BINDING AFFINITY PREDICTED BY RF-SCORE:    0.00 PKD
ROOT
HETATM    1  C   UNL     1      -8.861  10.667  68.836  1.00  0.00    -0.157 C  
HETATM    2  O   UNL     1      -7.513  10.767  68.388  1.00  0.00    -0.087 OA 
ENDROOT
BRANCH   2   3
HETATM    3  C   UNL     1      -7.041  12.044  68.241  1.00  0.00    -0.086 A  
HETATM    4  C   UNL     1      -7.978  13.069  68.451  1.00  0.00    -0.135 A  
HETATM    5  C   UNL     1      -7.654  14.444  68.361  1.00  0.00    -0.122 A  
HETATM    6  C   UNL     1      -6.316  14.729  68.012  1.00  0.00    -0.154 A  
HETATM    7  C   UNL     1      -5.387  13.701  67.770  1.00  0.00    -0.045 A  
HETATM    8  S   UNL     1      -5.646  16.357  67.857  1.00  0.00    -0.131 SA 
HETATM    9  C   UNL     1      -7.056  17.387  68.160  1.00  0.00    -0.196 A  
HETATM   10  C   UNL     1      -5.745  12.365  67.878  1.00  0.00    -0.086 A  
HETATM   11  C   UNL     1      -8.341  16.890  68.470  1.00  0.00    -0.257 A  
HETATM   12  C   UNL     1      -9.329  17.886  68.677  1.00  0.00    -0.282 A  
HETATM   13  N   UNL     1      -8.612  15.485  68.587  1.00  0.00    -0.168 NA 
HETATM   14  C   UNL     1      -6.792  18.775  68.077  1.00  0.00    -0.244 A  
HETATM   15  C   UNL     1      -9.058  19.265  68.591  1.00  0.00    -0.428 A  
HETATM   16  C   UNL     1      -7.781  19.707  68.295  1.00  0.00    -0.356 A  
BRANCH  13  17
HETATM   17  C   UNL     1      -9.962  15.062  69.043  1.00  0.00    -0.246 C  
HETATM   18  C   UNL     1     -10.716  14.450  66.670  1.00  0.00    -0.292 C  
HETATM   19  C   UNL     1     -11.077  15.219  67.968  1.00  0.00    -0.312 C  
HETATM   20  C   UNL     1     -12.404  14.758  68.592  1.00  0.00     0.005 C  
BRANCH  18  21
HETATM   21  N   UNL     1     -11.525  14.636  65.441  1.00  0.00    -0.346 NA 
HETATM   22  C   UNL     1     -11.132  15.826  64.682  1.00  0.00    -0.361 C  
HETATM   23  C   UNL     1     -11.315  13.448  64.590  1.00  0.00    -0.350 C  
ENDBRANCH  18  21
ENDBRANCH  13  17
ENDBRANCH   2   3
TORSDOF 3
ENDMDL
MODEL       94
REMARK 921   NORMALIZED FREE ENERGY PREDICTED BY IDOCK:   -4.22 KCAL/MOL
REMARK 922        TOTAL FREE ENERGY PREDICTED BY IDOCK:   -5.16 KCAL/MOL
REMARK 923 INTER-LIGAND FREE ENERGY PREDICTED BY IDOCK:   -4.77 KCAL/MOL
REMARK 924 INTRA-LIGAND FREE ENERGY PREDICTED BY IDOCK:   -0.39 KCAL/MOL
REMARK 927      BINDING AFFINITY PREDICTED BY RF-SCORE:    0.00 PKD
ROOT
HETATM    1  C   UNL     1     -10.437   3.912  64.121  1.00  0.00    -0.233 C  
HETATM    2  O   UNL     1      -9.336   3.581  64.962  1.00  0.00    -0.143 OA 
ENDROOT
BRANCH   2   3
HETATM    3  C   UNL     1      -9.503   3.888  66.286  1.00  0.00    -0.188 A  
HETATM    4  C   UNL     1      -9.802   5.230  66.569  1.00  0.00    -0.204 A  
HETATM    5  C   UNL     1     -10.026   5.713  67.881  1.00  0.00    -0.143 A  
HETATM    6  C   UNL     1      -9.897   4.754  68.909  1.00  0.00    -0.160 A  
HETATM    7  C   UNL     1      -9.566   3.417  68.627  1.00  0.00    -0.127 A  
HETATM    8  S   UNL     1     -10.148   5.087  70.627  1.00  0.00    -0.233 SA 
HETATM    9  C   UNL     1     -10.485   6.827  70.639  1.00  0.00    -0.215 A  
HETATM   10  C   UNL     1      -9.364   2.983  67.324  1.00  0.00    -0.198 A  
HETATM   11  C   UNL     1     -10.538   7.626  69.477  1.00  0.00    -0.227 A  
HETATM   12  C   UNL     1     -10.823   8.996  69.710  1.00  0.00    -0.215 A  
HETATM   13  N   UNL     1     -10.341   7.082  68.162  1.00  0.00    -0.182 NA 
HETATM   14  C   UNL     1     -10.710   7.366  71.928  1.00  0.00    -0.247 A  
HETATM   15  C   UNL     1     -11.045   9.524  70.995  1.00  0.00    -0.433 A  
HETATM   16  C   UNL     1     -10.993   8.702  72.106  1.00  0.00    -0.434 A  
BRANCH  13  17
HETATM   17  C   UNL     1     -10.544   7.974  66.991  1.00  0.00    -0.294 C  
HETATM   18  C   UNL     1      -8.030   8.381  66.699  1.00  0.00    -0.097 C  
HETATM   19  C   UNL     1      -9.428   9.043  66.803  1.00  0.00    -0.238 C  
HETATM   20  C   UNL     1      -9.787   9.889  65.570  1.00  0.00    -0.381 C  
BRANCH  18  21
HETATM   21  N   UNL     1      -6.803   9.214  66.735  1.00  0.00    -0.079 NA 
HETATM   22  C   UNL     1      -5.981   8.958  67.921  1.00  0.00    -0.050 C  
HETATM   23  C   UNL     1      -6.009   8.883  65.536  1.00  0.00    -0.051 C  
ENDBRANCH  18  21
ENDBRANCH  13  17
ENDBRANCH   2   3
TORSDOF 3
ENDMDL
MODEL       95
REMARK 921   NORMALIZED FREE ENERGY PREDICTED BY IDOCK:   -4.22 KCAL/MOL
REMARK 922        TOTAL FREE ENERGY PREDICTED BY IDOCK:   -5.15 KCAL/MOL
REMARK 923 INTER-LIGAND FREE ENERGY PREDICTED BY IDOCK:   -4.97 KCAL/MOL
REMARK 924 INTRA-LIGAND FREE ENERGY PREDICTED BY IDOCK:   -0.18 KCAL/MOL
REMARK 927      BINDING AFFINITY PREDICTED BY RF-SCORE:    0.00 PKD
ROOT
HETATM    1  C   UNL     1      -7.459  11.368  68.493  1.00  0.00    -0.113 C  
HETATM    2  O   UNL     1      -6.557  11.825  69.495  1.00  0.00    -0.114 OA 
ENDROOT
BRANCH   2   3
HETATM    3  C   UNL     1      -6.425  13.185  69.583  1.00  0.00    -0.047 A  
HETATM    4  C   UNL     1      -7.126  13.930  68.620  1.00  0.00    -0.110 A  
HETATM    5  C   UNL     1      -7.116  15.346  68.580  1.00  0.00    -0.116 A  
HETATM    6  C   UNL     1      -6.323  15.974  69.564  1.00  0.00    -0.182 A  
HETATM    7  C   UNL     1      -5.597  15.226  70.508  1.00  0.00    -0.129 A  
HETATM    8  S   UNL     1      -6.158  17.723  69.751  1.00  0.00    -0.165 SA 
HETATM    9  C   UNL     1      -7.127  18.350  68.405  1.00  0.00    -0.264 A  
HETATM   10  C   UNL     1      -5.641  13.839  70.518  1.00  0.00    -0.150 A  
HETATM   11  C   UNL     1      -7.832  17.531  67.497  1.00  0.00    -0.199 A  
HETATM   12  C   UNL     1      -8.545  18.236  66.493  1.00  0.00    -0.283 A  
HETATM   13  N   UNL     1      -7.842  16.100  67.602  1.00  0.00    -0.141 NA 
HETATM   14  C   UNL     1      -7.149  19.762  68.312  1.00  0.00    -0.336 A  
HETATM   15  C   UNL     1      -8.561  19.641  66.407  1.00  0.00    -0.390 A  
HETATM   16  C   UNL     1      -7.863  20.404  67.325  1.00  0.00    -0.373 A  
BRANCH  13  17
HETATM   17  C   UNL     1      -8.716  15.329  66.680  1.00  0.00    -0.291 C  
HETATM   18  C   UNL     1     -10.742  15.508  68.242  1.00  0.00    -0.271 C  
HETATM   19  C   UNL     1      -9.865  14.554  67.390  1.00  0.00    -0.227 C  
HETATM   20  C   UNL     1     -10.664  13.802  66.312  1.00  0.00    -0.285 C  
BRANCH  18  21
HETATM   21  N   UNL     1     -11.757  14.958  69.173  1.00  0.00    -0.295 NA 
HETATM   22  C   UNL     1     -11.384  13.643  69.702  1.00  0.00    -0.161 C  
HETATM   23  C   UNL     1     -11.876  15.900  70.303  1.00  0.00    -0.327 C  
ENDBRANCH  18  21
ENDBRANCH  13  17
ENDBRANCH   2   3
TORSDOF 3
ENDMDL
MODEL       96
REMARK 921   NORMALIZED FREE ENERGY PREDICTED BY IDOCK:   -4.20 KCAL/MOL
REMARK 922        TOTAL FREE ENERGY PREDICTED BY IDOCK:   -5.14 KCAL/MOL
REMARK 923 INTER-LIGAND FREE ENERGY PREDICTED BY IDOCK:   -5.28 KCAL/MOL
REMARK 924 INTRA-LIGAND FREE ENERGY PREDICTED BY IDOCK:    0.14 KCAL/MOL
REMARK 927      BINDING AFFINITY PREDICTED BY RF-SCORE:    0.00 PKD
ROOT
HETATM    1  C   UNL     1     -13.124  14.167  65.042  1.00  0.00     0.079 C  
HETATM    2  O   UNL     1     -12.883  12.764  65.087  1.00  0.00    -0.726 OA 
ENDROOT
BRANCH   2   3
HETATM    3  C   UNL     1     -11.671  12.399  65.611  1.00  0.00    -0.414 A  
HETATM    4  C   UNL     1     -11.081  13.325  66.487  1.00  0.00    -0.313 A  
HETATM    5  C   UNL     1      -9.841  13.097  67.132  1.00  0.00    -0.235 A  
HETATM    6  C   UNL     1      -9.208  11.876  66.814  1.00  0.00    -0.194 A  
HETATM    7  C   UNL     1      -9.785  10.965  65.912  1.00  0.00    -0.269 A  
HETATM    8  S   UNL     1      -7.670  11.337  67.498  1.00  0.00    -0.129 SA 
HETATM    9  C   UNL     1      -7.200  12.706  68.521  1.00  0.00    -0.113 A  
HETATM   10  C   UNL     1     -11.007  11.223  65.308  1.00  0.00    -0.207 A  
HETATM   11  C   UNL     1      -7.979  13.872  68.680  1.00  0.00    -0.109 A  
HETATM   12  C   UNL     1      -7.418  14.847  69.545  1.00  0.00    -0.162 A  
HETATM   13  N   UNL     1      -9.249  14.041  68.033  1.00  0.00    -0.194 NA 
HETATM   14  C   UNL     1      -5.963  12.536  69.188  1.00  0.00    -0.085 A  
HETATM   15  C   UNL     1      -6.187  14.670  70.204  1.00  0.00    -0.165 A  
HETATM   16  C   UNL     1      -5.462  13.506  70.026  1.00  0.00    -0.105 A  
BRANCH  13  17
HETATM   17  C   UNL     1     -10.056  15.244  68.363  1.00  0.00    -0.220 C  
HETATM   18  C   UNL     1      -8.858  16.688  66.615  1.00  0.00    -0.248 C  
HETATM   19  C   UNL     1      -9.329  16.594  68.090  1.00  0.00    -0.224 C  
HETATM   20  C   UNL     1     -10.280  17.733  68.493  1.00  0.00    -0.382 C  
BRANCH  18  21
HETATM   21  N   UNL     1      -7.958  17.786  66.186  1.00  0.00    -0.469 NA 
HETATM   22  C   UNL     1      -8.620  19.093  66.190  1.00  0.00    -0.223 C  
HETATM   23  C   UNL     1      -6.831  17.830  67.138  1.00  0.00    -0.171 C  
ENDBRANCH  18  21
ENDBRANCH  13  17
ENDBRANCH   2   3
TORSDOF 3
ENDMDL
MODEL       97
REMARK 921   NORMALIZED FREE ENERGY PREDICTED BY IDOCK:   -4.20 KCAL/MOL
REMARK 922        TOTAL FREE ENERGY PREDICTED BY IDOCK:   -5.13 KCAL/MOL
REMARK 923 INTER-LIGAND FREE ENERGY PREDICTED BY IDOCK:   -5.47 KCAL/MOL
REMARK 924 INTRA-LIGAND FREE ENERGY PREDICTED BY IDOCK:    0.34 KCAL/MOL
REMARK 927      BINDING AFFINITY PREDICTED BY RF-SCORE:    0.00 PKD
ROOT
HETATM    1  C   UNL     1     -12.323  13.109  70.701  1.00  0.00    -0.326 C  
HETATM    2  O   UNL     1     -12.360  13.740  69.425  1.00  0.00    -0.310 OA 
ENDROOT
BRANCH   2   3
HETATM    3  C   UNL     1     -11.864  12.991  68.391  1.00  0.00    -0.334 A  
HETATM    4  C   UNL     1     -10.931  12.003  68.746  1.00  0.00    -0.282 A  
HETATM    5  C   UNL     1     -10.336  11.127  67.805  1.00  0.00    -0.187 A  
HETATM    6  C   UNL     1     -10.719  11.330  66.462  1.00  0.00    -0.271 A  
HETATM    7  C   UNL     1     -11.629  12.342  66.105  1.00  0.00    -0.450 A  
HETATM    8  S   UNL     1     -10.146  10.363  65.099  1.00  0.00    -0.267 SA 
HETATM    9  C   UNL     1      -9.003   9.248  65.869  1.00  0.00    -0.184 A  
HETATM   10  C   UNL     1     -12.196  13.173  67.060  1.00  0.00    -0.271 A  
HETATM   11  C   UNL     1      -8.735   9.230  67.255  1.00  0.00    -0.128 A  
HETATM   12  C   UNL     1      -7.787   8.258  67.664  1.00  0.00    -0.106 A  
HETATM   13  N   UNL     1      -9.393  10.114  68.175  1.00  0.00    -0.134 NA 
HETATM   14  C   UNL     1      -8.372   8.351  64.973  1.00  0.00    -0.169 A  
HETATM   15  C   UNL     1      -7.163   7.371  66.766  1.00  0.00    -0.087 A  
HETATM   16  C   UNL     1      -7.464   7.417  65.417  1.00  0.00    -0.090 A  
BRANCH  13  17
HETATM   17  C   UNL     1      -9.143   9.934  69.629  1.00  0.00    -0.227 C  
HETATM   18  C   UNL     1     -10.196   7.596  69.654  1.00  0.00    -0.204 C  
HETATM   19  C   UNL     1     -10.157   8.988  70.338  1.00  0.00    -0.248 C  
HETATM   20  C   UNL     1      -9.776   8.917  71.826  1.00  0.00    -0.365 C  
BRANCH  18  21
HETATM   21  N   UNL     1     -11.242   6.611  70.024  1.00  0.00    -0.340 NA 
HETATM   22  C   UNL     1     -10.713   5.498  70.817  1.00  0.00    -0.224 C  
HETATM   23  C   UNL     1     -12.253   7.321  70.831  1.00  0.00    -0.270 C  
ENDBRANCH  18  21
ENDBRANCH  13  17
ENDBRANCH   2   3
TORSDOF 3
ENDMDL
MODEL       98
REMARK 921   NORMALIZED FREE ENERGY PREDICTED BY IDOCK:   -4.17 KCAL/MOL
REMARK 922        TOTAL FREE ENERGY PREDICTED BY IDOCK:   -5.10 KCAL/MOL
REMARK 923 INTER-LIGAND FREE ENERGY PREDICTED BY IDOCK:   -4.76 KCAL/MOL
REMARK 924 INTRA-LIGAND FREE ENERGY PREDICTED BY IDOCK:   -0.33 KCAL/MOL
REMARK 927      BINDING AFFINITY PREDICTED BY RF-SCORE:    0.00 PKD
ROOT
HETATM    1  C   UNL     1     -13.347  13.077  72.412  1.00  0.00    -0.460 C  
HETATM    2  O   UNL     1     -13.236  12.910  71.002  1.00  0.00    -0.076 OA 
ENDROOT
BRANCH   2   3
HETATM    3  C   UNL     1     -12.348  11.950  70.598  1.00  0.00    -0.313 A  
HETATM    4  C   UNL     1     -11.746  12.162  69.347  1.00  0.00    -0.391 A  
HETATM    5  C   UNL     1     -10.790  11.279  68.789  1.00  0.00    -0.208 A  
HETATM    6  C   UNL     1     -10.495  10.137  69.564  1.00  0.00    -0.241 A  
HETATM    7  C   UNL     1     -11.123   9.909  70.802  1.00  0.00    -0.417 A  
HETATM    8  S   UNL     1      -9.324   8.893  69.111  1.00  0.00    -0.149 SA 
HETATM    9  C   UNL     1      -8.775   9.441  67.517  1.00  0.00    -0.122 A  
HETATM   10  C   UNL     1     -12.049  10.805  71.317  1.00  0.00    -0.365 A  
HETATM   11  C   UNL     1      -9.227  10.623  66.893  1.00  0.00    -0.155 A  
HETATM   12  C   UNL     1      -8.660  10.877  65.618  1.00  0.00    -0.163 A  
HETATM   13  N   UNL     1     -10.171  11.507  67.517  1.00  0.00    -0.183 NA 
HETATM   14  C   UNL     1      -7.820   8.591  66.907  1.00  0.00    -0.092 A  
HETATM   15  C   UNL     1      -7.712  10.026  65.018  1.00  0.00    -0.138 A  
HETATM   16  C   UNL     1      -7.289   8.883  65.671  1.00  0.00    -0.085 A  
BRANCH  13  17
HETATM   17  C   UNL     1     -10.490  12.792  66.841  1.00  0.00    -0.240 C  
HETATM   18  C   UNL     1      -8.249  13.847  67.504  1.00  0.00    -0.188 C  
HETATM   19  C   UNL     1      -9.788  14.033  67.467  1.00  0.00    -0.236 C  
HETATM   20  C   UNL     1     -10.227  15.275  66.674  1.00  0.00    -0.275 C  
BRANCH  18  21
HETATM   21  N   UNL     1      -7.397  14.805  68.252  1.00  0.00    -0.107 NA 
HETATM   22  C   UNL     1      -7.697  14.824  69.686  1.00  0.00    -0.011 C  
HETATM   23  C   UNL     1      -5.995  14.382  68.072  1.00  0.00    -0.148 C  
ENDBRANCH  18  21
ENDBRANCH  13  17
ENDBRANCH   2   3
TORSDOF 3
ENDMDL
MODEL       99
REMARK 921   NORMALIZED FREE ENERGY PREDICTED BY IDOCK:   -4.16 KCAL/MOL
REMARK 922        TOTAL FREE ENERGY PREDICTED BY IDOCK:   -5.09 KCAL/MOL
REMARK 923 INTER-LIGAND FREE ENERGY PREDICTED BY IDOCK:   -4.72 KCAL/MOL
REMARK 924 INTRA-LIGAND FREE ENERGY PREDICTED BY IDOCK:   -0.37 KCAL/MOL
REMARK 927      BINDING AFFINITY PREDICTED BY RF-SCORE:    0.00 PKD
ROOT
HETATM    1  C   UNL     1     -11.399  11.836  66.911  1.00  0.00    -0.320 C  
HETATM    2  O   UNL     1     -11.342  12.346  68.239  1.00  0.00    -0.240 OA 
ENDROOT
BRANCH   2   3
HETATM    3  C   UNL     1     -11.550  11.422  69.227  1.00  0.00    -0.317 A  
HETATM    4  C   UNL     1     -10.441  10.631  69.567  1.00  0.00    -0.236 A  
HETATM    5  C   UNL     1     -10.477   9.643  70.581  1.00  0.00    -0.312 A  
HETATM    6  C   UNL     1     -11.724   9.476  71.221  1.00  0.00    -0.370 A  
HETATM    7  C   UNL     1     -12.843  10.247  70.857  1.00  0.00    -0.463 A  
HETATM    8  S   UNL     1     -12.033   8.333  72.532  1.00  0.00    -0.281 SA 
HETATM    9  C   UNL     1     -10.475   7.504  72.699  1.00  0.00    -0.271 A  
HETATM   10  C   UNL     1     -12.762  11.212  69.863  1.00  0.00    -0.072 A  
HETATM   11  C   UNL     1      -9.336   7.808  71.922  1.00  0.00    -0.153 A  
HETATM   12  C   UNL     1      -8.191   7.025  72.217  1.00  0.00    -0.102 A  
HETATM   13  N   UNL     1      -9.338   8.846  70.931  1.00  0.00    -0.215 NA 
HETATM   14  C   UNL     1     -10.454   6.500  73.696  1.00  0.00    -0.330 A  
HETATM   15  C   UNL     1      -8.179   6.027  73.210  1.00  0.00    -0.115 A  
HETATM   16  C   UNL     1      -9.316   5.770  73.954  1.00  0.00    -0.135 A  
BRANCH  13  17
HETATM   17  C   UNL     1      -8.058   9.181  70.255  1.00  0.00    -0.148 C  
HETATM   18  C   UNL     1      -8.566   7.662  68.253  1.00  0.00    -0.124 C  
HETATM   19  C   UNL     1      -7.516   8.057  69.323  1.00  0.00    -0.094 C  
HETATM   20  C   UNL     1      -6.190   8.544  68.716  1.00  0.00    -0.045 C  
BRANCH  18  21
HETATM   21  N   UNL     1      -8.351   6.468  67.399  1.00  0.00    -0.120 NA 
HETATM   22  C   UNL     1      -9.220   5.347  67.768  1.00  0.00    -0.109 C  
HETATM   23  C   UNL     1      -8.657   6.858  66.009  1.00  0.00    -0.145 C  
ENDBRANCH  18  21
ENDBRANCH  13  17
ENDBRANCH   2   3
TORSDOF 3
ENDMDL
MODEL      100
REMARK 921   NORMALIZED FREE ENERGY PREDICTED BY IDOCK:   -4.14 KCAL/MOL
REMARK 922        TOTAL FREE ENERGY PREDICTED BY IDOCK:   -5.07 KCAL/MOL
REMARK 923 INTER-LIGAND FREE ENERGY PREDICTED BY IDOCK:   -4.69 KCAL/MOL
REMARK 924 INTRA-LIGAND FREE ENERGY PREDICTED BY IDOCK:   -0.37 KCAL/MOL
REMARK 927      BINDING AFFINITY PREDICTED BY RF-SCORE:    0.00 PKD
ROOT
HETATM    1  C   UNL     1     -11.812  13.561  67.790  1.00  0.00    -0.362 C  
HETATM    2  O   UNL     1     -11.960  12.148  67.704  1.00  0.00    -0.529 OA 
ENDROOT
BRANCH   2   3
HETATM    3  C   UNL     1     -11.039  11.513  66.915  1.00  0.00    -0.307 A  
HETATM    4  C   UNL     1     -10.881  10.137  67.147  1.00  0.00    -0.257 A  
HETATM    5  C   UNL     1      -9.988   9.325  66.406  1.00  0.00    -0.286 A  
HETATM    6  C   UNL     1      -9.230   9.998  65.424  1.00  0.00    -0.210 A  
HETATM    7  C   UNL     1      -9.366  11.383  65.215  1.00  0.00    -0.192 A  
HETATM    8  S   UNL     1      -8.065   9.219  64.348  1.00  0.00    -0.152 SA 
HETATM    9  C   UNL     1      -8.093   7.535  64.901  1.00  0.00    -0.121 A  
HETATM   10  C   UNL     1     -10.261  12.140  65.957  1.00  0.00    -0.265 A  
HETATM   11  C   UNL     1      -8.920   7.064  65.943  1.00  0.00    -0.062 A  
HETATM   12  C   UNL     1      -8.788   5.681  66.228  1.00  0.00    -0.137 A  
HETATM   13  N   UNL     1      -9.839   7.919  66.640  1.00  0.00    -0.241 NA 
HETATM   14  C   UNL     1      -7.213   6.677  64.199  1.00  0.00    -0.067 A  
HETATM   15  C   UNL     1      -7.909   4.835  65.525  1.00  0.00    -0.094 A  
HETATM   16  C   UNL     1      -7.124   5.338  64.503  1.00  0.00    -0.054 A  
BRANCH  13  17
HETATM   17  C   UNL     1     -10.760   7.308  67.633  1.00  0.00    -0.224 C  
HETATM   18  C   UNL     1      -9.223   7.874  69.605  1.00  0.00    -0.153 C  
HETATM   19  C   UNL     1     -10.053   6.764  68.909  1.00  0.00    -0.170 C  
HETATM   20  C   UNL     1     -11.129   6.154  69.823  1.00  0.00    -0.486 C  
BRANCH  18  21
HETATM   21  N   UNL     1      -8.295   7.532  70.711  1.00  0.00    -0.117 NA 
HETATM   22  C   UNL     1      -6.908   7.389  70.260  1.00  0.00    -0.052 C  
HETATM   23  C   UNL     1      -8.357   8.631  71.695  1.00  0.00    -0.157 C  
ENDBRANCH  18  21
ENDBRANCH  13  17
ENDBRANCH   2   3
TORSDOF 3
ENDMDL
MODEL      101
REMARK 921   NORMALIZED FREE ENERGY PREDICTED BY IDOCK:   -4.09 KCAL/MOL
REMARK 922        TOTAL FREE ENERGY PREDICTED BY IDOCK:   -5.00 KCAL/MOL
REMARK 923 INTER-LIGAND FREE ENERGY PREDICTED BY IDOCK:   -5.98 KCAL/MOL
REMARK 924 INTRA-LIGAND FREE ENERGY PREDICTED BY IDOCK:    0.98 KCAL/MOL
REMARK 927      BINDING AFFINITY PREDICTED BY RF-SCORE:    0.00 PKD
ROOT
HETATM    1  C   UNL     1     -12.437  14.384  64.290  1.00  0.00    -0.272 C  
HETATM    2  O   UNL     1     -12.646  13.983  65.641  1.00  0.00    -0.497 OA 
ENDROOT
BRANCH   2   3
HETATM    3  C   UNL     1     -11.849  12.958  66.074  1.00  0.00    -0.430 A  
HETATM    4  C   UNL     1     -12.076  12.521  67.389  1.00  0.00    -0.121 A  
HETATM    5  C   UNL     1     -11.356  11.458  67.987  1.00  0.00    -0.303 A  
HETATM    6  C   UNL     1     -10.358  10.872  67.178  1.00  0.00    -0.220 A  
HETATM    7  C   UNL     1     -10.110  11.332  65.872  1.00  0.00    -0.291 A  
HETATM    8  S   UNL     1      -9.336   9.517  67.671  1.00  0.00    -0.123 SA 
HETATM    9  C   UNL     1      -9.853   9.230  69.342  1.00  0.00    -0.174 A  
HETATM   10  C   UNL     1     -10.845  12.372  65.321  1.00  0.00    -0.324 A  
HETATM   11  C   UNL     1     -10.871   9.965  69.987  1.00  0.00    -0.294 A  
HETATM   12  C   UNL     1     -11.130   9.573  71.326  1.00  0.00    -0.449 A  
HETATM   13  N   UNL     1     -11.600  11.010  69.326  1.00  0.00    -0.285 NA 
HETATM   14  C   UNL     1      -9.162   8.180  69.992  1.00  0.00    -0.155 A  
HETATM   15  C   UNL     1     -10.437   8.528  71.965  1.00  0.00    -0.407 A  
HETATM   16  C   UNL     1      -9.453   7.828  71.291  1.00  0.00    -0.173 A  
BRANCH  13  17
HETATM   17  C   UNL     1     -12.740  11.640  70.042  1.00  0.00     0.149 C  
HETATM   18  C   UNL     1     -11.785  14.002  69.759  1.00  0.00    -0.313 C  
HETATM   19  C   UNL     1     -12.385  12.977  70.756  1.00  0.00    -0.394 C  
HETATM   20  C   UNL     1     -13.653  13.490  71.457  1.00  0.00    -0.254 C  
BRANCH  18  21
HETATM   21  N   UNL     1     -11.176  15.260  70.256  1.00  0.00    -0.275 NA 
HETATM   22  C   UNL     1     -11.085  15.304  71.718  1.00  0.00    -0.158 C  
HETATM   23  C   UNL     1      -9.811  15.340  69.700  1.00  0.00    -0.216 C  
ENDBRANCH  18  21
ENDBRANCH  13  17
ENDBRANCH   2   3
TORSDOF 3
ENDMDL
MODEL      102
REMARK 921   NORMALIZED FREE ENERGY PREDICTED BY IDOCK:   -4.09 KCAL/MOL
REMARK 922        TOTAL FREE ENERGY PREDICTED BY IDOCK:   -5.00 KCAL/MOL
REMARK 923 INTER-LIGAND FREE ENERGY PREDICTED BY IDOCK:   -5.41 KCAL/MOL
REMARK 924 INTRA-LIGAND FREE ENERGY PREDICTED BY IDOCK:    0.41 KCAL/MOL
REMARK 927      BINDING AFFINITY PREDICTED BY RF-SCORE:    0.00 PKD
ROOT
HETATM    1  C   UNL     1     -10.125   4.867  66.898  1.00  0.00    -0.222 C  
HETATM    2  O   UNL     1      -9.684   6.098  66.335  1.00  0.00    -0.160 OA 
ENDROOT
BRANCH   2   3
HETATM    3  C   UNL     1      -9.986   7.215  67.067  1.00  0.00    -0.217 A  
HETATM    4  C   UNL     1      -9.593   8.440  66.504  1.00  0.00    -0.304 A  
HETATM    5  C   UNL     1      -9.847   9.691  67.117  1.00  0.00    -0.186 A  
HETATM    6  C   UNL     1     -10.503   9.631  68.366  1.00  0.00    -0.223 A  
HETATM    7  C   UNL     1     -10.866   8.401  68.944  1.00  0.00     0.002 A  
HETATM    8  S   UNL     1     -10.958  11.042  69.327  1.00  0.00    -0.261 SA 
HETATM    9  C   UNL     1     -10.319  12.388  68.367  1.00  0.00    -0.229 A  
HETATM   10  C   UNL     1     -10.607   7.198  68.305  1.00  0.00    -0.230 A  
HETATM   11  C   UNL     1      -9.653  12.226  67.133  1.00  0.00    -0.200 A  
HETATM   12  C   UNL     1      -9.222  13.434  66.528  1.00  0.00    -0.182 A  
HETATM   13  N   UNL     1      -9.453  10.937  66.532  1.00  0.00    -0.181 NA 
HETATM   14  C   UNL     1     -10.539  13.665  68.936  1.00  0.00    -0.211 A  
HETATM   15  C   UNL     1      -9.443  14.700  67.101  1.00  0.00    -0.234 A  
HETATM   16  C   UNL     1     -10.110  14.812  68.308  1.00  0.00    -0.221 A  
BRANCH  13  17
HETATM   17  C   UNL     1      -8.858  10.877  65.171  1.00  0.00    -0.156 C  
HETATM   18  C   UNL     1     -10.641  12.430  64.179  1.00  0.00    -0.385 C  
HETATM   19  C   UNL     1      -9.882  11.087  64.017  1.00  0.00    -0.365 C  
HETATM   20  C   UNL     1      -9.122  10.982  62.685  1.00  0.00    -0.375 C  
BRANCH  18  21
HETATM   21  N   UNL     1     -11.811  12.737  63.321  1.00  0.00    -0.505 NA 
HETATM   22  C   UNL     1     -12.890  11.756  63.467  1.00  0.00    -0.220 C  
HETATM   23  C   UNL     1     -12.323  14.060  63.728  1.00  0.00    -0.146 C  
ENDBRANCH  18  21
ENDBRANCH  13  17
ENDBRANCH   2   3
TORSDOF 3
ENDMDL
MODEL      103
REMARK 921   NORMALIZED FREE ENERGY PREDICTED BY IDOCK:   -4.08 KCAL/MOL
REMARK 922        TOTAL FREE ENERGY PREDICTED BY IDOCK:   -4.99 KCAL/MOL
REMARK 923 INTER-LIGAND FREE ENERGY PREDICTED BY IDOCK:   -4.73 KCAL/MOL
REMARK 924 INTRA-LIGAND FREE ENERGY PREDICTED BY IDOCK:   -0.26 KCAL/MOL
REMARK 927      BINDING AFFINITY PREDICTED BY RF-SCORE:    0.00 PKD
ROOT
HETATM    1  C   UNL     1     -10.111   6.484  72.963  1.00  0.00    -0.191 C  
HETATM    2  O   UNL     1     -10.291   7.886  73.127  1.00  0.00    -0.332 OA 
ENDROOT
BRANCH   2   3
HETATM    3  C   UNL     1     -10.579   8.574  71.979  1.00  0.00    -0.338 A  
HETATM    4  C   UNL     1      -9.612   8.500  70.963  1.00  0.00    -0.241 A  
HETATM    5  C   UNL     1      -9.761   9.134  69.705  1.00  0.00    -0.181 A  
HETATM    6  C   UNL     1     -10.945   9.884  69.541  1.00  0.00    -0.242 A  
HETATM    7  C   UNL     1     -11.897   9.984  70.572  1.00  0.00    -0.387 A  
HETATM    8  S   UNL     1     -11.386  10.750  68.066  1.00  0.00    -0.258 SA 
HETATM    9  C   UNL     1      -9.982  10.473  67.019  1.00  0.00    -0.201 A  
HETATM   10  C   UNL     1     -11.717   9.339  71.787  1.00  0.00    -0.456 A  
HETATM   11  C   UNL     1      -8.862   9.700  67.395  1.00  0.00    -0.128 A  
HETATM   12  C   UNL     1      -7.848   9.605  66.408  1.00  0.00    -0.101 A  
HETATM   13  N   UNL     1      -8.775   9.044  68.669  1.00  0.00    -0.132 NA 
HETATM   14  C   UNL     1     -10.073  11.090  65.749  1.00  0.00    -0.305 A  
HETATM   15  C   UNL     1      -7.946  10.223  65.147  1.00  0.00    -0.147 A  
HETATM   16  C   UNL     1      -9.067  10.963  64.818  1.00  0.00    -0.197 A  
BRANCH  13  17
HETATM   17  C   UNL     1      -7.618   8.147  68.925  1.00  0.00    -0.098 C  
HETATM   18  C   UNL     1      -8.474   6.362  67.295  1.00  0.00    -0.111 C  
HETATM   19  C   UNL     1      -7.926   6.634  68.720  1.00  0.00    -0.118 C  
HETATM   20  C   UNL     1      -6.646   5.844  69.035  1.00  0.00    -0.051 C  
BRANCH  18  21
HETATM   21  N   UNL     1      -9.037   5.034  66.951  1.00  0.00    -0.116 NA 
HETATM   22  C   UNL     1     -10.424   5.112  66.485  1.00  0.00    -0.294 C  
HETATM   23  C   UNL     1      -8.210   4.472  65.865  1.00  0.00    -0.110 C  
ENDBRANCH  18  21
ENDBRANCH  13  17
ENDBRANCH   2   3
TORSDOF 3
ENDMDL
MODEL      104
REMARK 921   NORMALIZED FREE ENERGY PREDICTED BY IDOCK:   -4.08 KCAL/MOL
REMARK 922        TOTAL FREE ENERGY PREDICTED BY IDOCK:   -4.99 KCAL/MOL
REMARK 923 INTER-LIGAND FREE ENERGY PREDICTED BY IDOCK:   -4.66 KCAL/MOL
REMARK 924 INTRA-LIGAND FREE ENERGY PREDICTED BY IDOCK:   -0.33 KCAL/MOL
REMARK 927      BINDING AFFINITY PREDICTED BY RF-SCORE:    0.00 PKD
ROOT
HETATM    1  C   UNL     1     -12.852  13.485  65.134  1.00  0.00    -0.322 C  
HETATM    2  O   UNL     1     -12.310  12.248  65.585  1.00  0.00    -0.619 OA 
ENDROOT
BRANCH   2   3
HETATM    3  C   UNL     1     -11.142  12.348  66.291  1.00  0.00    -0.303 A  
HETATM    4  C   UNL     1     -10.794  11.225  67.060  1.00  0.00    -0.332 A  
HETATM    5  C   UNL     1      -9.610  11.153  67.833  1.00  0.00    -0.175 A  
HETATM    6  C   UNL     1      -8.799  12.308  67.809  1.00  0.00    -0.174 A  
HETATM    7  C   UNL     1      -9.165  13.444  67.065  1.00  0.00    -0.242 A  
HETATM    8  S   UNL     1      -7.261  12.471  68.663  1.00  0.00    -0.088 SA 
HETATM    9  C   UNL     1      -7.131  10.927  69.524  1.00  0.00    -0.123 A  
HETATM   10  C   UNL     1     -10.331  13.470  66.313  1.00  0.00    -0.293 A  
HETATM   11  C   UNL     1      -8.088   9.893  69.434  1.00  0.00    -0.139 A  
HETATM   12  C   UNL     1      -7.791   8.740  70.205  1.00  0.00    -0.094 A  
HETATM   13  N   UNL     1      -9.256   9.999  68.606  1.00  0.00    -0.147 NA 
HETATM   14  C   UNL     1      -5.967  10.801  70.320  1.00  0.00    -0.119 A  
HETATM   15  C   UNL     1      -6.631   8.623  70.994  1.00  0.00    -0.053 A  
HETATM   16  C   UNL     1      -5.715   9.658  71.044  1.00  0.00    -0.072 A  
BRANCH  13  17
HETATM   17  C   UNL     1     -10.139   8.811  68.473  1.00  0.00    -0.189 C  
HETATM   18  C   UNL     1      -8.647   7.739  66.684  1.00  0.00    -0.136 C  
HETATM   19  C   UNL     1     -10.096   8.137  67.070  1.00  0.00    -0.350 C  
HETATM   20  C   UNL     1     -11.065   6.944  67.088  1.00  0.00    -0.362 C  
BRANCH  18  21
HETATM   21  N   UNL     1      -8.339   7.282  65.307  1.00  0.00    -0.132 NA 
HETATM   22  C   UNL     1      -7.229   8.023  64.702  1.00  0.00    -0.079 C  
HETATM   23  C   UNL     1      -7.961   5.857  65.389  1.00  0.00    -0.120 C  
ENDBRANCH  18  21
ENDBRANCH  13  17
ENDBRANCH   2   3
TORSDOF 3
ENDMDL
MODEL      105
REMARK 921   NORMALIZED FREE ENERGY PREDICTED BY IDOCK:   -4.06 KCAL/MOL
REMARK 922        TOTAL FREE ENERGY PREDICTED BY IDOCK:   -4.97 KCAL/MOL
REMARK 923 INTER-LIGAND FREE ENERGY PREDICTED BY IDOCK:   -4.59 KCAL/MOL
REMARK 924 INTRA-LIGAND FREE ENERGY PREDICTED BY IDOCK:   -0.38 KCAL/MOL
REMARK 927      BINDING AFFINITY PREDICTED BY RF-SCORE:    0.00 PKD
ROOT
HETATM    1  C   UNL     1     -10.881   5.901  66.988  1.00  0.00    -0.295 C  
HETATM    2  O   UNL     1     -11.001   7.319  66.940  1.00  0.00    -0.343 OA 
ENDROOT
BRANCH   2   3
HETATM    3  C   UNL     1      -9.815   8.002  66.899  1.00  0.00    -0.248 A  
HETATM    4  C   UNL     1      -9.837   9.298  67.440  1.00  0.00    -0.229 A  
HETATM    5  C   UNL     1      -8.694  10.132  67.497  1.00  0.00    -0.125 A  
HETATM    6  C   UNL     1      -7.518   9.587  66.940  1.00  0.00    -0.094 A  
HETATM    7  C   UNL     1      -7.505   8.301  66.369  1.00  0.00    -0.080 A  
HETATM    8  S   UNL     1      -5.952  10.406  66.905  1.00  0.00    -0.060 SA 
HETATM    9  C   UNL     1      -6.323  11.981  67.629  1.00  0.00    -0.099 A  
HETATM   10  C   UNL     1      -8.646   7.512  66.342  1.00  0.00    -0.145 A  
HETATM   11  C   UNL     1      -7.601  12.346  68.105  1.00  0.00    -0.129 A  
HETATM   12  C   UNL     1      -7.681  13.654  68.649  1.00  0.00    -0.107 A  
HETATM   13  N   UNL     1      -8.721  11.449  68.060  1.00  0.00    -0.142 NA 
HETATM   14  C   UNL     1      -5.216  12.860  67.707  1.00  0.00    -0.108 A  
HETATM   15  C   UNL     1      -6.575  14.523  68.721  1.00  0.00    -0.088 A  
HETATM   16  C   UNL     1      -5.339  14.118  68.252  1.00  0.00    -0.113 A  
BRANCH  13  17
HETATM   17  C   UNL     1      -9.992  11.875  68.702  1.00  0.00    -0.154 C  
HETATM   18  C   UNL     1     -11.037  12.579  66.469  1.00  0.00    -0.287 C  
HETATM   19  C   UNL     1     -10.750  12.998  67.934  1.00  0.00    -0.249 C  
HETATM   20  C   UNL     1     -12.024  13.335  68.725  1.00  0.00    -0.335 C  
BRANCH  18  21
HETATM   21  N   UNL     1     -11.553  13.572  65.495  1.00  0.00    -0.313 NA 
HETATM   22  C   UNL     1     -10.486  14.376  64.891  1.00  0.00    -0.423 C  
HETATM   23  C   UNL     1     -12.238  12.824  64.423  1.00  0.00    -0.428 C  
ENDBRANCH  18  21
ENDBRANCH  13  17
ENDBRANCH   2   3
TORSDOF 3
ENDMDL
MODEL      106
REMARK 921   NORMALIZED FREE ENERGY PREDICTED BY IDOCK:   -4.01 KCAL/MOL
REMARK 922        TOTAL FREE ENERGY PREDICTED BY IDOCK:   -4.92 KCAL/MOL
REMARK 923 INTER-LIGAND FREE ENERGY PREDICTED BY IDOCK:   -4.57 KCAL/MOL
REMARK 924 INTRA-LIGAND FREE ENERGY PREDICTED BY IDOCK:   -0.34 KCAL/MOL
REMARK 927      BINDING AFFINITY PREDICTED BY RF-SCORE:    0.00 PKD
ROOT
HETATM    1  C   UNL     1     -10.124  10.719  64.092  1.00  0.00    -0.353 C  
HETATM    2  O   UNL     1     -10.010   9.857  65.219  1.00  0.00    -0.318 OA 
ENDROOT
BRANCH   2   3
HETATM    3  C   UNL     1      -9.123  10.267  66.178  1.00  0.00    -0.155 A  
HETATM    4  C   UNL     1      -9.004  11.657  66.345  1.00  0.00    -0.198 A  
HETATM    5  C   UNL     1      -8.150  12.250  67.307  1.00  0.00    -0.182 A  
HETATM    6  C   UNL     1      -7.389  11.348  68.079  1.00  0.00    -0.090 A  
HETATM    7  C   UNL     1      -7.485   9.957  67.888  1.00  0.00    -0.089 A  
HETATM    8  S   UNL     1      -6.268  11.823  69.360  1.00  0.00    -0.114 SA 
HETATM    9  C   UNL     1      -6.339  13.593  69.301  1.00  0.00    -0.108 A  
HETATM   10  C   UNL     1      -8.342   9.416  66.941  1.00  0.00    -0.127 A  
HETATM   11  C   UNL     1      -7.163  14.317  68.411  1.00  0.00    -0.113 A  
HETATM   12  C   UNL     1      -7.069  15.727  68.530  1.00  0.00    -0.118 A  
HETATM   13  N   UNL     1      -8.042  13.668  67.480  1.00  0.00    -0.172 NA 
HETATM   14  C   UNL     1      -5.499  14.241  70.237  1.00  0.00    -0.112 A  
HETATM   15  C   UNL     1      -6.230  16.364  69.464  1.00  0.00    -0.198 A  
HETATM   16  C   UNL     1      -5.447  15.614  70.323  1.00  0.00    -0.150 A  
BRANCH  13  17
HETATM   17  C   UNL     1      -8.965  14.511  66.675  1.00  0.00    -0.219 C  
HETATM   18  C   UNL     1     -10.655  14.720  68.592  1.00  0.00    -0.255 C  
HETATM   19  C   UNL     1     -10.462  14.392  67.089  1.00  0.00    -0.263 C  
HETATM   20  C   UNL     1     -11.282  15.303  66.162  1.00  0.00    -0.225 C  
BRANCH  18  21
HETATM   21  N   UNL     1     -11.958  14.462  69.252  1.00  0.00    -0.322 NA 
HETATM   22  C   UNL     1     -11.954  13.228  70.044  1.00  0.00    -0.329 C  
HETATM   23  C   UNL     1     -12.228  15.597  70.156  1.00  0.00    -0.361 C  
ENDBRANCH  18  21
ENDBRANCH  13  17
ENDBRANCH   2   3
TORSDOF 3
ENDMDL
MODEL      107
REMARK 921   NORMALIZED FREE ENERGY PREDICTED BY IDOCK:   -4.00 KCAL/MOL
REMARK 922        TOTAL FREE ENERGY PREDICTED BY IDOCK:   -4.91 KCAL/MOL
REMARK 923 INTER-LIGAND FREE ENERGY PREDICTED BY IDOCK:   -5.37 KCAL/MOL
REMARK 924 INTRA-LIGAND FREE ENERGY PREDICTED BY IDOCK:    0.46 KCAL/MOL
REMARK 927      BINDING AFFINITY PREDICTED BY RF-SCORE:    0.00 PKD
ROOT
HETATM    1  C   UNL     1     -10.524   6.218  72.601  1.00  0.00    -0.211 C  
HETATM    2  O   UNL     1     -10.218   7.608  72.563  1.00  0.00    -0.207 OA 
ENDROOT
BRANCH   2   3
HETATM    3  C   UNL     1      -9.866   8.093  71.333  1.00  0.00    -0.174 A  
HETATM    4  C   UNL     1     -10.724   9.064  70.790  1.00  0.00    -0.301 A  
HETATM    5  C   UNL     1     -10.496   9.685  69.538  1.00  0.00    -0.224 A  
HETATM    6  C   UNL     1      -9.351   9.241  68.841  1.00  0.00    -0.150 A  
HETATM    7  C   UNL     1      -8.511   8.246  69.372  1.00  0.00    -0.123 A  
HETATM    8  S   UNL     1      -8.826   9.868  67.275  1.00  0.00    -0.131 SA 
HETATM    9  C   UNL     1     -10.103  11.031  66.875  1.00  0.00    -0.210 A  
HETATM   10  C   UNL     1      -8.765   7.670  70.608  1.00  0.00    -0.140 A  
HETATM   11  C   UNL     1     -11.202  11.311  67.715  1.00  0.00    -0.291 A  
HETATM   12  C   UNL     1     -12.109  12.275  67.205  1.00  0.00    -0.017 A  
HETATM   13  N   UNL     1     -11.370  10.682  68.995  1.00  0.00    -0.263 NA 
HETATM   14  C   UNL     1      -9.930  11.679  65.629  1.00  0.00    -0.274 A  
HETATM   15  C   UNL     1     -11.930  12.914  65.964  1.00  0.00    -0.505 A  
HETATM   16  C   UNL     1     -10.832  12.617  65.178  1.00  0.00    -0.321 A  
BRANCH  13  17
HETATM   17  C   UNL     1     -12.487  11.135  69.864  1.00  0.00    -0.190 C  
HETATM   18  C   UNL     1     -11.672  13.566  69.868  1.00  0.00    -0.271 C  
HETATM   19  C   UNL     1     -12.150  12.377  70.741  1.00  0.00    -0.245 C  
HETATM   20  C   UNL     1     -13.390  12.709  71.587  1.00  0.00    -0.315 C  
BRANCH  18  21
HETATM   21  N   UNL     1     -11.093  14.775  70.503  1.00  0.00    -0.152 NA 
HETATM   22  C   UNL     1     -10.044  15.393  69.687  1.00  0.00    -0.269 C  
HETATM   23  C   UNL     1     -12.187  15.751  70.674  1.00  0.00    -0.384 C  
ENDBRANCH  18  21
ENDBRANCH  13  17
ENDBRANCH   2   3
TORSDOF 3
ENDMDL
MODEL      108
REMARK 921   NORMALIZED FREE ENERGY PREDICTED BY IDOCK:   -3.99 KCAL/MOL
REMARK 922        TOTAL FREE ENERGY PREDICTED BY IDOCK:   -4.89 KCAL/MOL
REMARK 923 INTER-LIGAND FREE ENERGY PREDICTED BY IDOCK:   -4.52 KCAL/MOL
REMARK 924 INTRA-LIGAND FREE ENERGY PREDICTED BY IDOCK:   -0.37 KCAL/MOL
REMARK 927      BINDING AFFINITY PREDICTED BY RF-SCORE:    0.00 PKD
ROOT
HETATM    1  C   UNL     1      -7.191   6.582  73.356  1.00  0.00    -0.081 C  
HETATM    2  O   UNL     1      -6.052   7.304  72.897  1.00  0.00    -0.054 OA 
ENDROOT
BRANCH   2   3
HETATM    3  C   UNL     1      -6.304   8.229  71.920  1.00  0.00    -0.058 A  
HETATM    4  C   UNL     1      -7.660   8.483  71.655  1.00  0.00    -0.135 A  
HETATM    5  C   UNL     1      -8.097   9.425  70.692  1.00  0.00    -0.161 A  
HETATM    6  C   UNL     1      -7.071  10.083  69.980  1.00  0.00    -0.146 A  
HETATM    7  C   UNL     1      -5.714   9.804  70.224  1.00  0.00    -0.048 A  
HETATM    8  S   UNL     1      -7.341  11.318  68.745  1.00  0.00    -0.115 SA 
HETATM    9  C   UNL     1      -9.110  11.385  68.645  1.00  0.00    -0.135 A  
HETATM   10  C   UNL     1      -5.329   8.879  71.184  1.00  0.00    -0.035 A  
HETATM   11  C   UNL     1      -9.972  10.603  69.443  1.00  0.00    -0.158 A  
HETATM   12  C   UNL     1     -11.355  10.812  69.204  1.00  0.00    -0.348 A  
HETATM   13  N   UNL     1      -9.481   9.688  70.435  1.00  0.00    -0.255 NA 
HETATM   14  C   UNL     1      -9.604  12.308  67.692  1.00  0.00    -0.191 A  
HETATM   15  C   UNL     1     -11.838  11.731  68.253  1.00  0.00    -0.340 A  
HETATM   16  C   UNL     1     -10.956  12.483  67.500  1.00  0.00    -0.288 A  
BRANCH  13  17
HETATM   17  C   UNL     1     -10.465   9.005  71.315  1.00  0.00    -0.311 C  
HETATM   18  C   UNL     1     -10.311   6.808  70.003  1.00  0.00    -0.199 C  
HETATM   19  C   UNL     1     -11.265   7.867  70.615  1.00  0.00    -0.269 C  
HETATM   20  C   UNL     1     -12.242   7.275  71.643  1.00  0.00    -0.377 C  
BRANCH  18  21
HETATM   21  N   UNL     1     -10.843   5.753  69.105  1.00  0.00    -0.309 NA 
HETATM   22  C   UNL     1     -11.009   6.218  67.725  1.00  0.00    -0.332 C  
HETATM   23  C   UNL     1      -9.874   4.640  69.110  1.00  0.00    -0.172 C  
ENDBRANCH  18  21
ENDBRANCH  13  17
ENDBRANCH   2   3
TORSDOF 3
ENDMDL
MODEL      109
REMARK 921   NORMALIZED FREE ENERGY PREDICTED BY IDOCK:   -3.99 KCAL/MOL
REMARK 922        TOTAL FREE ENERGY PREDICTED BY IDOCK:   -4.89 KCAL/MOL
REMARK 923 INTER-LIGAND FREE ENERGY PREDICTED BY IDOCK:   -4.75 KCAL/MOL
REMARK 924 INTRA-LIGAND FREE ENERGY PREDICTED BY IDOCK:   -0.14 KCAL/MOL
REMARK 927      BINDING AFFINITY PREDICTED BY RF-SCORE:    0.00 PKD
ROOT
HETATM    1  C   UNL     1     -11.342   7.132  73.087  1.00  0.00    -0.093 C  
HETATM    2  O   UNL     1     -12.227   8.241  72.967  1.00  0.00    -0.228 OA 
ENDROOT
BRANCH   2   3
HETATM    3  C   UNL     1     -12.056   9.002  71.841  1.00  0.00    -0.378 A  
HETATM    4  C   UNL     1     -11.349   8.391  70.792  1.00  0.00    -0.290 A  
HETATM    5  C   UNL     1     -11.102   9.028  69.552  1.00  0.00    -0.024 A  
HETATM    6  C   UNL     1     -11.590  10.347  69.440  1.00  0.00    -0.202 A  
HETATM    7  C   UNL     1     -12.270  10.969  70.503  1.00  0.00    -0.472 A  
HETATM    8  S   UNL     1     -11.439  11.353  67.996  1.00  0.00    -0.298 SA 
HETATM    9  C   UNL     1     -10.507  10.318  66.899  1.00  0.00    -0.229 A  
HETATM   10  C   UNL     1     -12.499  10.306  71.700  1.00  0.00    -0.491 A  
HETATM   11  C   UNL     1     -10.081   9.012  67.223  1.00  0.00    -0.234 A  
HETATM   12  C   UNL     1      -9.348   8.356  66.201  1.00  0.00    -0.267 A  
HETATM   13  N   UNL     1     -10.389   8.395  68.482  1.00  0.00    -0.209 NA 
HETATM   14  C   UNL     1     -10.225  10.907  65.643  1.00  0.00    -0.323 A  
HETATM   15  C   UNL     1      -9.070   8.949  64.955  1.00  0.00    -0.110 A  
HETATM   16  C   UNL     1      -9.517  10.228  64.677  1.00  0.00    -0.351 A  
BRANCH  13  17
HETATM   17  C   UNL     1     -10.010   6.972  68.683  1.00  0.00    -0.156 C  
HETATM   18  C   UNL     1      -7.905   7.584  70.013  1.00  0.00    -0.099 C  
HETATM   19  C   UNL     1      -8.480   6.737  68.848  1.00  0.00    -0.120 C  
HETATM   20  C   UNL     1      -8.250   5.227  69.030  1.00  0.00    -0.085 C  
BRANCH  18  21
HETATM   21  N   UNL     1      -6.439   7.684  70.213  1.00  0.00    -0.037 NA 
HETATM   22  C   UNL     1      -5.894   6.553  70.970  1.00  0.00    -0.027 C  
HETATM   23  C   UNL     1      -5.812   7.699  68.877  1.00  0.00    -0.027 C  
ENDBRANCH  18  21
ENDBRANCH  13  17
ENDBRANCH   2   3
TORSDOF 3
ENDMDL
MODEL      110
REMARK 921   NORMALIZED FREE ENERGY PREDICTED BY IDOCK:   -3.99 KCAL/MOL
REMARK 922        TOTAL FREE ENERGY PREDICTED BY IDOCK:   -4.89 KCAL/MOL
REMARK 923 INTER-LIGAND FREE ENERGY PREDICTED BY IDOCK:   -4.99 KCAL/MOL
REMARK 924 INTRA-LIGAND FREE ENERGY PREDICTED BY IDOCK:    0.11 KCAL/MOL
REMARK 927      BINDING AFFINITY PREDICTED BY RF-SCORE:    0.00 PKD
ROOT
HETATM    1  C   UNL     1      -6.129  11.069  66.161  1.00  0.00    -0.119 C  
HETATM    2  O   UNL     1      -6.399  12.014  67.191  1.00  0.00    -0.138 OA 
ENDROOT
BRANCH   2   3
HETATM    3  C   UNL     1      -7.688  12.022  67.651  1.00  0.00    -0.144 A  
HETATM    4  C   UNL     1      -8.002  11.039  68.605  1.00  0.00    -0.143 A  
HETATM    5  C   UNL     1      -9.281  10.919  69.200  1.00  0.00    -0.060 A  
HETATM    6  C   UNL     1     -10.249  11.842  68.748  1.00  0.00    -0.160 A  
HETATM    7  C   UNL     1      -9.942  12.804  67.769  1.00  0.00    -0.219 A  
HETATM    8  S   UNL     1     -11.910  11.924  69.343  1.00  0.00    -0.314 SA 
HETATM    9  C   UNL     1     -11.978  10.574  70.490  1.00  0.00    -0.342 A  
HETATM   10  C   UNL     1      -8.672  12.894  67.218  1.00  0.00    -0.204 A  
HETATM   11  C   UNL     1     -10.881   9.735  70.782  1.00  0.00    -0.333 A  
HETATM   12  C   UNL     1     -11.150   8.714  71.730  1.00  0.00    -0.396 A  
HETATM   13  N   UNL     1      -9.591   9.921  70.180  1.00  0.00    -0.233 NA 
HETATM   14  C   UNL     1     -13.238  10.402  71.112  1.00  0.00    -0.399 A  
HETATM   15  C   UNL     1     -12.406   8.550  72.343  1.00  0.00    -0.424 A  
HETATM   16  C   UNL     1     -13.450   9.402  72.034  1.00  0.00    -0.522 A  
BRANCH  13  17
HETATM   17  C   UNL     1      -8.465   9.071  70.646  1.00  0.00    -0.196 C  
HETATM   18  C   UNL     1      -8.364   7.767  68.440  1.00  0.00    -0.125 C  
HETATM   19  C   UNL     1      -8.415   7.661  69.986  1.00  0.00    -0.136 C  
HETATM   20  C   UNL     1      -7.214   6.904  70.578  1.00  0.00    -0.072 C  
BRANCH  18  21
HETATM   21  N   UNL     1      -8.530   6.555  67.601  1.00  0.00    -0.117 NA 
HETATM   22  C   UNL     1      -7.334   5.708  67.591  1.00  0.00    -0.077 C  
HETATM   23  C   UNL     1      -9.650   5.777  68.166  1.00  0.00    -0.116 C  
ENDBRANCH  18  21
ENDBRANCH  13  17
ENDBRANCH   2   3
TORSDOF 3
ENDMDL
MODEL      111
REMARK 921   NORMALIZED FREE ENERGY PREDICTED BY IDOCK:   -3.98 KCAL/MOL
REMARK 922        TOTAL FREE ENERGY PREDICTED BY IDOCK:   -4.88 KCAL/MOL
REMARK 923 INTER-LIGAND FREE ENERGY PREDICTED BY IDOCK:   -5.02 KCAL/MOL
REMARK 924 INTRA-LIGAND FREE ENERGY PREDICTED BY IDOCK:    0.14 KCAL/MOL
REMARK 927      BINDING AFFINITY PREDICTED BY RF-SCORE:    0.00 PKD
ROOT
HETATM    1  C   UNL     1     -12.958  11.929  63.449  1.00  0.00    -0.115 C  
HETATM    2  O   UNL     1     -12.378  13.229  63.430  1.00  0.00    -0.726 OA 
ENDROOT
BRANCH   2   3
HETATM    3  C   UNL     1     -11.589  13.530  64.508  1.00  0.00    -0.381 A  
HETATM    4  C   UNL     1     -10.650  12.550  64.870  1.00  0.00    -0.330 A  
HETATM    5  C   UNL     1      -9.742  12.708  65.946  1.00  0.00    -0.207 A  
HETATM    6  C   UNL     1      -9.859  13.917  66.664  1.00  0.00    -0.284 A  
HETATM    7  C   UNL     1     -10.822  14.883  66.320  1.00  0.00    -0.331 A  
HETATM    8  S   UNL     1      -8.836  14.374  68.030  1.00  0.00    -0.187 SA 
HETATM    9  C   UNL     1      -7.800  12.950  68.232  1.00  0.00    -0.142 A  
HETATM   10  C   UNL     1     -11.687  14.693  65.252  1.00  0.00    -0.346 A  
HETATM   11  C   UNL     1      -7.867  11.806  67.406  1.00  0.00    -0.155 A  
HETATM   12  C   UNL     1      -6.948  10.778  67.740  1.00  0.00    -0.077 A  
HETATM   13  N   UNL     1      -8.780  11.709  66.303  1.00  0.00    -0.171 NA 
HETATM   14  C   UNL     1      -6.875  13.049  69.299  1.00  0.00    -0.019 A  
HETATM   15  C   UNL     1      -6.032  10.885  68.804  1.00  0.00    -0.039 A  
HETATM   16  C   UNL     1      -5.995  12.029  69.580  1.00  0.00    -0.120 A  
BRANCH  13  17
HETATM   17  C   UNL     1      -8.688  10.522  65.413  1.00  0.00    -0.183 C  
HETATM   18  C   UNL     1     -10.209   9.110  66.919  1.00  0.00    -0.266 C  
HETATM   19  C   UNL     1      -8.865   9.159  66.145  1.00  0.00    -0.187 C  
HETATM   20  C   UNL     1      -8.730   8.040  65.100  1.00  0.00    -0.015 C  
BRANCH  18  21
HETATM   21  N   UNL     1     -10.489   8.000  67.861  1.00  0.00    -0.216 NA 
HETATM   22  C   UNL     1     -10.705   6.721  67.178  1.00  0.00    -0.371 C  
HETATM   23  C   UNL     1      -9.315   7.865  68.746  1.00  0.00    -0.146 C  
ENDBRANCH  18  21
ENDBRANCH  13  17
ENDBRANCH   2   3
TORSDOF 3
ENDMDL
MODEL      112
REMARK 921   NORMALIZED FREE ENERGY PREDICTED BY IDOCK:   -3.95 KCAL/MOL
REMARK 922        TOTAL FREE ENERGY PREDICTED BY IDOCK:   -4.84 KCAL/MOL
REMARK 923 INTER-LIGAND FREE ENERGY PREDICTED BY IDOCK:   -4.73 KCAL/MOL
REMARK 924 INTRA-LIGAND FREE ENERGY PREDICTED BY IDOCK:   -0.11 KCAL/MOL
REMARK 927      BINDING AFFINITY PREDICTED BY RF-SCORE:    0.00 PKD
ROOT
HETATM    1  C   UNL     1     -12.299   8.966  71.168  1.00  0.00    -0.235 C  
HETATM    2  O   UNL     1     -11.742   8.045  72.101  1.00  0.00    -0.302 OA 
ENDROOT
BRANCH   2   3
HETATM    3  C   UNL     1     -11.205   6.913  71.550  1.00  0.00    -0.256 A  
HETATM    4  C   UNL     1     -11.142   6.886  70.147  1.00  0.00    -0.344 A  
HETATM    5  C   UNL     1     -10.596   5.801  69.418  1.00  0.00    -0.313 A  
HETATM    6  C   UNL     1     -10.139   4.716  70.197  1.00  0.00    -0.213 A  
HETATM    7  C   UNL     1     -10.233   4.731  71.600  1.00  0.00    -0.249 A  
HETATM    8  S   UNL     1      -9.396   3.254  69.540  1.00  0.00    -0.144 SA 
HETATM    9  C   UNL     1      -9.483   3.528  67.790  1.00  0.00    -0.178 A  
HETATM   10  C   UNL     1     -10.766   5.819  72.277  1.00  0.00    -0.282 A  
HETATM   11  C   UNL     1     -10.018   4.695  67.203  1.00  0.00    -0.177 A  
HETATM   12  C   UNL     1      -9.991   4.711  65.785  1.00  0.00    -0.246 A  
HETATM   13  N   UNL     1     -10.525   5.785  67.987  1.00  0.00    -0.219 NA 
HETATM   14  C   UNL     1      -8.956   2.471  67.009  1.00  0.00    -0.167 A  
HETATM   15  C   UNL     1      -9.467   3.655  65.016  1.00  0.00    -0.161 A  
HETATM   16  C   UNL     1      -8.943   2.535  65.635  1.00  0.00    -0.131 A  
BRANCH  13  17
HETATM   17  C   UNL     1     -10.948   7.024  67.284  1.00  0.00    -0.302 C  
HETATM   18  C   UNL     1      -8.536   7.855  67.021  1.00  0.00    -0.128 C  
HETATM   19  C   UNL     1      -9.974   8.226  67.468  1.00  0.00    -0.252 C  
HETATM   20  C   UNL     1     -10.554   9.425  66.700  1.00  0.00    -0.170 C  
BRANCH  18  21
HETATM   21  N   UNL     1      -7.405   8.770  67.309  1.00  0.00    -0.080 NA 
HETATM   22  C   UNL     1      -7.230   9.794  66.274  1.00  0.00    -0.099 C  
HETATM   23  C   UNL     1      -7.696   9.444  68.589  1.00  0.00    -0.084 C  
ENDBRANCH  18  21
ENDBRANCH  13  17
ENDBRANCH   2   3
TORSDOF 3
ENDMDL
MODEL      113
REMARK 921   NORMALIZED FREE ENERGY PREDICTED BY IDOCK:   -3.95 KCAL/MOL
REMARK 922        TOTAL FREE ENERGY PREDICTED BY IDOCK:   -4.84 KCAL/MOL
REMARK 923 INTER-LIGAND FREE ENERGY PREDICTED BY IDOCK:   -4.60 KCAL/MOL
REMARK 924 INTRA-LIGAND FREE ENERGY PREDICTED BY IDOCK:   -0.23 KCAL/MOL
REMARK 927      BINDING AFFINITY PREDICTED BY RF-SCORE:    0.00 PKD
ROOT
HETATM    1  C   UNL     1      -9.792  19.720  69.431  1.00  0.00    -0.135 C  
HETATM    2  O   UNL     1     -10.283  18.384  69.406  1.00  0.00    -0.173 OA 
ENDROOT
BRANCH   2   3
HETATM    3  C   UNL     1     -10.500  17.868  68.156  1.00  0.00    -0.372 A  
HETATM    4  C   UNL     1     -10.869  16.513  68.111  1.00  0.00    -0.345 A  
HETATM    5  C   UNL     1     -11.151  15.828  66.904  1.00  0.00    -0.133 A  
HETATM    6  C   UNL     1     -11.007  16.592  65.726  1.00  0.00    -0.010 A  
HETATM    7  C   UNL     1     -10.606  17.939  65.771  1.00  0.00    -0.175 A  
HETATM    8  S   UNL     1     -11.320  15.988  64.095  1.00  0.00     0.388 SA 
HETATM    9  C   UNL     1     -11.737  14.289  64.385  1.00  0.00    -0.389 A  
HETATM   10  C   UNL     1     -10.348  18.576  66.977  1.00  0.00    -0.433 A  
HETATM   11  C   UNL     1     -11.795  13.702  65.667  1.00  0.00    -0.364 A  
HETATM   12  C   UNL     1     -12.149  12.328  65.676  1.00  0.00    -0.306 A  
HETATM   13  N   UNL     1     -11.537  14.449  66.866  1.00  0.00    -0.373 NA 
HETATM   14  C   UNL     1     -12.023  13.552  63.211  1.00  0.00    -0.182 A  
HETATM   15  C   UNL     1     -12.431  11.602  64.503  1.00  0.00     0.245 A  
HETATM   16  C   UNL     1     -12.372  12.222  63.268  1.00  0.00    -0.518 A  
BRANCH  13  17
HETATM   17  C   UNL     1     -11.749  13.779  68.175  1.00  0.00    -0.357 C  
HETATM   18  C   UNL     1      -9.367  12.829  68.222  1.00  0.00    -0.194 C  
HETATM   19  C   UNL     1     -10.875  12.507  68.390  1.00  0.00    -0.266 C  
HETATM   20  C   UNL     1     -11.218  11.926  69.771  1.00  0.00    -0.133 C  
BRANCH  18  21
HETATM   21  N   UNL     1      -8.370  11.732  68.168  1.00  0.00    -0.149 NA 
HETATM   22  C   UNL     1      -8.346  11.056  66.867  1.00  0.00    -0.138 C  
HETATM   23  C   UNL     1      -7.043  12.329  68.409  1.00  0.00    -0.094 C  
ENDBRANCH  18  21
ENDBRANCH  13  17
ENDBRANCH   2   3
TORSDOF 3
ENDMDL
MODEL      114
REMARK 921   NORMALIZED FREE ENERGY PREDICTED BY IDOCK:   -3.94 KCAL/MOL
REMARK 922        TOTAL FREE ENERGY PREDICTED BY IDOCK:   -4.83 KCAL/MOL
REMARK 923 INTER-LIGAND FREE ENERGY PREDICTED BY IDOCK:   -4.86 KCAL/MOL
REMARK 924 INTRA-LIGAND FREE ENERGY PREDICTED BY IDOCK:    0.03 KCAL/MOL
REMARK 927      BINDING AFFINITY PREDICTED BY RF-SCORE:    0.00 PKD
ROOT
HETATM    1  C   UNL     1      -5.675   9.448  69.711  1.00  0.00    -0.032 C  
HETATM    2  O   UNL     1      -5.239  10.604  69.002  1.00  0.00    -0.042 OA 
ENDROOT
BRANCH   2   3
HETATM    3  C   UNL     1      -6.240  11.419  68.547  1.00  0.00    -0.046 A  
HETATM    4  C   UNL     1      -6.927  10.966  67.409  1.00  0.00    -0.084 A  
HETATM    5  C   UNL     1      -8.003  11.676  66.821  1.00  0.00    -0.140 A  
HETATM    6  C   UNL     1      -8.329  12.902  67.439  1.00  0.00    -0.190 A  
HETATM    7  C   UNL     1      -7.619  13.370  68.560  1.00  0.00    -0.127 A  
HETATM    8  S   UNL     1      -9.641  13.967  66.922  1.00  0.00    -0.280 SA 
HETATM    9  C   UNL     1     -10.276  13.134  65.492  1.00  0.00    -0.287 A  
HETATM   10  C   UNL     1      -6.577  12.638  69.111  1.00  0.00    -0.099 A  
HETATM   11  C   UNL     1      -9.775  11.904  65.013  1.00  0.00    -0.156 A  
HETATM   12  C   UNL     1     -10.426  11.409  63.853  1.00  0.00    -0.444 A  
HETATM   13  N   UNL     1      -8.707  11.203  65.667  1.00  0.00    -0.163 NA 
HETATM   14  C   UNL     1     -11.350  13.802  64.858  1.00  0.00    -0.353 A  
HETATM   15  C   UNL     1     -11.494  12.081  63.229  1.00  0.00    -0.398 A  
HETATM   16  C   UNL     1     -11.959  13.279  63.740  1.00  0.00    -0.551 A  
BRANCH  13  17
HETATM   17  C   UNL     1      -8.335   9.854  65.165  1.00  0.00    -0.148 C  
HETATM   18  C   UNL     1     -10.219   8.705  66.471  1.00  0.00    -0.225 C  
HETATM   19  C   UNL     1      -8.706   8.690  66.131  1.00  0.00    -0.180 C  
HETATM   20  C   UNL     1      -8.247   7.373  65.482  1.00  0.00    -0.135 C  
BRANCH  18  21
HETATM   21  N   UNL     1     -10.755   7.825  67.538  1.00  0.00    -0.231 NA 
HETATM   22  C   UNL     1     -10.681   6.404  67.187  1.00  0.00    -0.361 C  
HETATM   23  C   UNL     1      -9.939   8.051  68.747  1.00  0.00    -0.189 C  
ENDBRANCH  18  21
ENDBRANCH  13  17
ENDBRANCH   2   3
TORSDOF 3
ENDMDL
MODEL      115
REMARK 921   NORMALIZED FREE ENERGY PREDICTED BY IDOCK:   -3.92 KCAL/MOL
REMARK 922        TOTAL FREE ENERGY PREDICTED BY IDOCK:   -4.81 KCAL/MOL
REMARK 923 INTER-LIGAND FREE ENERGY PREDICTED BY IDOCK:   -4.53 KCAL/MOL
REMARK 924 INTRA-LIGAND FREE ENERGY PREDICTED BY IDOCK:   -0.28 KCAL/MOL
REMARK 927      BINDING AFFINITY PREDICTED BY RF-SCORE:    0.00 PKD
ROOT
HETATM    1  C   UNL     1      -6.282   8.093  65.299  1.00  0.00    -0.045 C  
HETATM    2  O   UNL     1      -6.517   6.916  66.065  1.00  0.00    -0.048 OA 
ENDROOT
BRANCH   2   3
HETATM    3  C   UNL     1      -7.197   7.111  67.237  1.00  0.00    -0.086 A  
HETATM    4  C   UNL     1      -8.253   8.035  67.185  1.00  0.00    -0.117 A  
HETATM    5  C   UNL     1      -9.072   8.339  68.299  1.00  0.00    -0.135 A  
HETATM    6  C   UNL     1      -8.739   7.668  69.496  1.00  0.00    -0.136 A  
HETATM    7  C   UNL     1      -7.661   6.767  69.555  1.00  0.00    -0.104 A  
HETATM    8  S   UNL     1      -9.613   7.847  71.021  1.00  0.00    -0.160 SA 
HETATM    9  C   UNL     1     -10.840   9.064  70.625  1.00  0.00    -0.243 A  
HETATM   10  C   UNL     1      -6.889   6.491  68.436  1.00  0.00    -0.071 A  
HETATM   11  C   UNL     1     -10.986   9.644  69.346  1.00  0.00    -0.190 A  
HETATM   12  C   UNL     1     -12.032  10.598  69.243  1.00  0.00    -0.269 A  
HETATM   13  N   UNL     1     -10.155   9.275  68.236  1.00  0.00    -0.177 NA 
HETATM   14  C   UNL     1     -11.685   9.412  71.706  1.00  0.00    -0.444 A  
HETATM   15  C   UNL     1     -12.867  10.939  70.324  1.00  0.00    -0.209 A  
HETATM   16  C   UNL     1     -12.693  10.337  71.557  1.00  0.00    -0.557 A  
BRANCH  13  17
HETATM   17  C   UNL     1     -10.468   9.843  66.899  1.00  0.00    -0.215 C  
HETATM   18  C   UNL     1      -8.985  11.900  67.280  1.00  0.00    -0.176 C  
HETATM   19  C   UNL     1     -10.381  11.397  66.829  1.00  0.00    -0.271 C  
HETATM   20  C   UNL     1     -10.744  11.827  65.399  1.00  0.00    -0.333 C  
BRANCH  18  21
HETATM   21  N   UNL     1      -8.747  13.347  67.500  1.00  0.00    -0.192 NA 
HETATM   22  C   UNL     1      -9.832  13.989  68.249  1.00  0.00    -0.233 C  
HETATM   23  C   UNL     1      -7.501  13.477  68.280  1.00  0.00    -0.122 C  
ENDBRANCH  18  21
ENDBRANCH  13  17
ENDBRANCH   2   3
TORSDOF 3
ENDMDL
MODEL      116
REMARK 921   NORMALIZED FREE ENERGY PREDICTED BY IDOCK:   -3.92 KCAL/MOL
REMARK 922        TOTAL FREE ENERGY PREDICTED BY IDOCK:   -4.81 KCAL/MOL
REMARK 923 INTER-LIGAND FREE ENERGY PREDICTED BY IDOCK:   -4.41 KCAL/MOL
REMARK 924 INTRA-LIGAND FREE ENERGY PREDICTED BY IDOCK:   -0.39 KCAL/MOL
REMARK 927      BINDING AFFINITY PREDICTED BY RF-SCORE:    0.00 PKD
ROOT
HETATM    1  C   UNL     1     -10.164   7.795  73.412  1.00  0.00    -0.250 C  
HETATM    2  O   UNL     1     -11.038   8.269  72.393  1.00  0.00    -0.334 OA 
ENDROOT
BRANCH   2   3
HETATM    3  C   UNL     1     -10.855   7.703  71.160  1.00  0.00    -0.235 A  
HETATM    4  C   UNL     1      -9.914   8.335  70.331  1.00  0.00    -0.196 A  
HETATM    5  C   UNL     1      -9.587   7.868  69.034  1.00  0.00    -0.155 A  
HETATM    6  C   UNL     1     -10.299   6.728  68.604  1.00  0.00    -0.186 A  
HETATM    7  C   UNL     1     -11.265   6.116  69.422  1.00  0.00    -0.466 A  
HETATM    8  S   UNL     1     -10.067   5.931  67.044  1.00  0.00    -0.207 SA 
HETATM    9  C   UNL     1      -8.858   6.963  66.258  1.00  0.00    -0.148 A  
HETATM   10  C   UNL     1     -11.548   6.600  70.692  1.00  0.00    -0.439 A  
HETATM   11  C   UNL     1      -8.282   8.100  66.865  1.00  0.00    -0.111 A  
HETATM   12  C   UNL     1      -7.334   8.785  66.062  1.00  0.00    -0.089 A  
HETATM   13  N   UNL     1      -8.618   8.512  68.198  1.00  0.00    -0.137 NA 
HETATM   14  C   UNL     1      -8.497   6.547  64.954  1.00  0.00     0.017 A  
HETATM   15  C   UNL     1      -6.982   8.365  64.765  1.00  0.00    -0.072 A  
HETATM   16  C   UNL     1      -7.564   7.237  64.215  1.00  0.00    -0.116 A  
BRANCH  13  17
HETATM   17  C   UNL     1      -7.866   9.644  68.799  1.00  0.00    -0.081 C  
HETATM   18  C   UNL     1      -9.732  11.326  68.288  1.00  0.00    -0.198 C  
HETATM   19  C   UNL     1      -8.212  11.035  68.189  1.00  0.00    -0.124 C  
HETATM   20  C   UNL     1      -7.348  12.090  68.899  1.00  0.00    -0.067 C  
BRANCH  18  21
HETATM   21  N   UNL     1     -10.318  12.491  67.580  1.00  0.00    -0.218 NA 
HETATM   22  C   UNL     1      -9.962  12.523  66.158  1.00  0.00    -0.255 C  
HETATM   23  C   UNL     1     -11.785  12.384  67.692  1.00  0.00    -0.346 C  
ENDBRANCH  18  21
ENDBRANCH  13  17
ENDBRANCH   2   3
TORSDOF 3
ENDMDL
MODEL      117
REMARK 921   NORMALIZED FREE ENERGY PREDICTED BY IDOCK:   -3.91 KCAL/MOL
REMARK 922        TOTAL FREE ENERGY PREDICTED BY IDOCK:   -4.79 KCAL/MOL
REMARK 923 INTER-LIGAND FREE ENERGY PREDICTED BY IDOCK:   -4.56 KCAL/MOL
REMARK 924 INTRA-LIGAND FREE ENERGY PREDICTED BY IDOCK:   -0.23 KCAL/MOL
REMARK 927      BINDING AFFINITY PREDICTED BY RF-SCORE:    0.00 PKD
ROOT
HETATM    1  C   UNL     1      -7.006   8.971  70.809  1.00  0.00    -0.087 C  
HETATM    2  O   UNL     1      -5.852   9.756  70.531  1.00  0.00    -0.051 OA 
ENDROOT
BRANCH   2   3
HETATM    3  C   UNL     1      -6.100  11.067  70.225  1.00  0.00    -0.144 A  
HETATM    4  C   UNL     1      -6.996  11.289  69.167  1.00  0.00    -0.114 A  
HETATM    5  C   UNL     1      -7.379  12.582  68.735  1.00  0.00    -0.070 A  
HETATM    6  C   UNL     1      -6.773  13.655  69.424  1.00  0.00    -0.063 A  
HETATM    7  C   UNL     1      -5.851  13.431  70.462  1.00  0.00    -0.159 A  
HETATM    8  S   UNL     1      -7.094  15.362  69.101  1.00  0.00    -0.177 SA 
HETATM    9  C   UNL     1      -8.222  15.293  67.736  1.00  0.00    -0.147 A  
HETATM   10  C   UNL     1      -5.510  12.147  70.861  1.00  0.00    -0.127 A  
HETATM   11  C   UNL     1      -8.690  14.090  67.164  1.00  0.00    -0.221 A  
HETATM   12  C   UNL     1      -9.588  14.259  66.078  1.00  0.00    -0.271 A  
HETATM   13  N   UNL     1      -8.302  12.801  67.662  1.00  0.00    -0.162 NA 
HETATM   14  C   UNL     1      -8.635  16.559  67.257  1.00  0.00    -0.202 A  
HETATM   15  C   UNL     1      -9.993  15.523  65.608  1.00  0.00    -0.394 A  
HETATM   16  C   UNL     1      -9.517  16.675  66.206  1.00  0.00    -0.321 A  
BRANCH  13  17
HETATM   17  C   UNL     1      -8.946  11.595  67.080  1.00  0.00    -0.182 C  
HETATM   18  C   UNL     1     -11.058  11.874  68.507  1.00  0.00    -0.243 C  
HETATM   19  C   UNL     1      -9.958  10.890  68.031  1.00  0.00    -0.188 C  
HETATM   20  C   UNL     1     -10.522   9.663  67.296  1.00  0.00    -0.323 C  
BRANCH  18  21
HETATM   21  N   UNL     1     -11.998  11.480  69.585  1.00  0.00    -0.332 NA 
HETATM   22  C   UNL     1     -11.421  10.495  70.504  1.00  0.00    -0.345 C  
HETATM   23  C   UNL     1     -12.327  12.698  70.350  1.00  0.00    -0.237 C  
ENDBRANCH  18  21
ENDBRANCH  13  17
ENDBRANCH   2   3
TORSDOF 3
ENDMDL
MODEL      118
REMARK 921   NORMALIZED FREE ENERGY PREDICTED BY IDOCK:   -3.90 KCAL/MOL
REMARK 922        TOTAL FREE ENERGY PREDICTED BY IDOCK:   -4.78 KCAL/MOL
REMARK 923 INTER-LIGAND FREE ENERGY PREDICTED BY IDOCK:   -4.44 KCAL/MOL
REMARK 924 INTRA-LIGAND FREE ENERGY PREDICTED BY IDOCK:   -0.34 KCAL/MOL
REMARK 927      BINDING AFFINITY PREDICTED BY RF-SCORE:    0.00 PKD
ROOT
HETATM    1  C   UNL     1      -8.255   4.661  66.386  1.00  0.00    -0.107 C  
HETATM    2  O   UNL     1      -7.667   5.336  65.279  1.00  0.00    -0.080 OA 
ENDROOT
BRANCH   2   3
HETATM    3  C   UNL     1      -8.068   6.634  65.110  1.00  0.00    -0.133 A  
HETATM    4  C   UNL     1      -8.857   7.169  66.142  1.00  0.00    -0.171 A  
HETATM    5  C   UNL     1      -9.337   8.502  66.137  1.00  0.00    -0.214 A  
HETATM    6  C   UNL     1      -8.996   9.264  64.999  1.00  0.00    -0.197 A  
HETATM    7  C   UNL     1      -8.233   8.716  63.952  1.00  0.00    -0.147 A  
HETATM    8  S   UNL     1      -9.446  10.955  64.754  1.00  0.00    -0.252 SA 
HETATM    9  C   UNL     1     -10.423  11.308  66.190  1.00  0.00    -0.254 A  
HETATM   10  C   UNL     1      -7.774   7.408  64.001  1.00  0.00    -0.121 A  
HETATM   11  C   UNL     1     -10.674  10.374  67.219  1.00  0.00    -0.273 A  
HETATM   12  C   UNL     1     -11.480  10.861  68.280  1.00  0.00    -0.376 A  
HETATM   13  N   UNL     1     -10.132   9.045  67.197  1.00  0.00    -0.221 NA 
HETATM   14  C   UNL     1     -10.936  12.627  66.236  1.00  0.00    -0.314 A  
HETATM   15  C   UNL     1     -11.987  12.174  68.316  1.00  0.00    -0.248 A  
HETATM   16  C   UNL     1     -11.707  13.059  67.291  1.00  0.00    -0.429 A  
BRANCH  13  17
HETATM   17  C   UNL     1     -10.343   8.177  68.385  1.00  0.00    -0.199 C  
HETATM   18  C   UNL     1      -8.426   9.271  69.689  1.00  0.00    -0.140 C  
HETATM   19  C   UNL     1      -9.059   7.931  69.232  1.00  0.00    -0.148 C  
HETATM   20  C   UNL     1      -9.436   7.011  70.404  1.00  0.00    -0.162 C  
BRANCH  18  21
HETATM   21  N   UNL     1      -7.083   9.286  70.320  1.00  0.00    -0.071 NA 
HETATM   22  C   UNL     1      -6.149   8.353  69.682  1.00  0.00    -0.032 C  
HETATM   23  C   UNL     1      -6.546  10.653  70.182  1.00  0.00    -0.151 C  
ENDBRANCH  18  21
ENDBRANCH  13  17
ENDBRANCH   2   3
TORSDOF 3
ENDMDL
MODEL      119
REMARK 921   NORMALIZED FREE ENERGY PREDICTED BY IDOCK:   -3.89 KCAL/MOL
REMARK 922        TOTAL FREE ENERGY PREDICTED BY IDOCK:   -4.77 KCAL/MOL
REMARK 923 INTER-LIGAND FREE ENERGY PREDICTED BY IDOCK:   -4.92 KCAL/MOL
REMARK 924 INTRA-LIGAND FREE ENERGY PREDICTED BY IDOCK:    0.15 KCAL/MOL
REMARK 927      BINDING AFFINITY PREDICTED BY RF-SCORE:    0.00 PKD
ROOT
HETATM    1  C   UNL     1     -13.498   8.655  71.754  1.00  0.00    -0.382 C  
HETATM    2  O   UNL     1     -12.550   9.716  71.717  1.00  0.00    -0.361 OA 
ENDROOT
BRANCH   2   3
HETATM    3  C   UNL     1     -11.356   9.411  71.119  1.00  0.00    -0.351 A  
HETATM    4  C   UNL     1     -11.202   9.860  69.798  1.00  0.00    -0.279 A  
HETATM    5  C   UNL     1     -10.023   9.649  69.041  1.00  0.00    -0.185 A  
HETATM    6  C   UNL     1      -9.007   8.920  69.695  1.00  0.00    -0.147 A  
HETATM    7  C   UNL     1      -9.176   8.442  71.007  1.00  0.00    -0.206 A  
HETATM    8  S   UNL     1      -7.433   8.540  68.988  1.00  0.00    -0.091 SA 
HETATM    9  C   UNL     1      -7.568   9.217  67.355  1.00  0.00    -0.085 A  
HETATM   10  C   UNL     1     -10.344   8.679  71.717  1.00  0.00    -0.386 A  
HETATM   11  C   UNL     1      -8.710   9.897  66.879  1.00  0.00    -0.128 A  
HETATM   12  C   UNL     1      -8.611  10.360  65.541  1.00  0.00    -0.177 A  
HETATM   13  N   UNL     1      -9.868  10.120  67.697  1.00  0.00    -0.167 NA 
HETATM   14  C   UNL     1      -6.419   9.029  66.550  1.00  0.00    -0.067 A  
HETATM   15  C   UNL     1      -7.464  10.167  64.747  1.00  0.00    -0.136 A  
HETATM   16  C   UNL     1      -6.364   9.504  65.259  1.00  0.00    -0.073 A  
BRANCH  13  17
HETATM   17  C   UNL     1     -10.968  10.958  67.153  1.00  0.00    -0.272 C  
HETATM   18  C   UNL     1      -9.549  13.093  67.213  1.00  0.00    -0.233 C  
HETATM   19  C   UNL     1     -10.909  12.451  67.591  1.00  0.00    -0.258 C  
HETATM   20  C   UNL     1     -12.112  13.175  66.964  1.00  0.00    -0.366 C  
BRANCH  18  21
HETATM   21  N   UNL     1      -9.189  14.438  67.724  1.00  0.00    -0.187 NA 
HETATM   22  C   UNL     1     -10.138  14.934  68.725  1.00  0.00    -0.241 C  
HETATM   23  C   UNL     1      -7.858  14.330  68.354  1.00  0.00    -0.140 C  
ENDBRANCH  18  21
ENDBRANCH  13  17
ENDBRANCH   2   3
TORSDOF 3
ENDMDL
MODEL      120
REMARK 921   NORMALIZED FREE ENERGY PREDICTED BY IDOCK:   -3.88 KCAL/MOL
REMARK 922        TOTAL FREE ENERGY PREDICTED BY IDOCK:   -4.76 KCAL/MOL
REMARK 923 INTER-LIGAND FREE ENERGY PREDICTED BY IDOCK:   -4.65 KCAL/MOL
REMARK 924 INTRA-LIGAND FREE ENERGY PREDICTED BY IDOCK:   -0.12 KCAL/MOL
REMARK 927      BINDING AFFINITY PREDICTED BY RF-SCORE:    0.00 PKD
ROOT
HETATM    1  C   UNL     1      -9.271   2.910  73.357  1.00  0.00    -0.085 C  
HETATM    2  O   UNL     1     -10.577   3.455  73.200  1.00  0.00    -0.165 OA 
ENDROOT
BRANCH   2   3
HETATM    3  C   UNL     1     -10.617   4.780  72.857  1.00  0.00    -0.218 A  
HETATM    4  C   UNL     1     -10.579   5.056  71.481  1.00  0.00    -0.175 A  
HETATM    5  C   UNL     1     -10.634   6.369  70.953  1.00  0.00    -0.236 A  
HETATM    6  C   UNL     1     -10.699   7.404  71.910  1.00  0.00    -0.216 A  
HETATM    7  C   UNL     1     -10.705   7.127  73.289  1.00  0.00    -0.403 A  
HETATM    8  S   UNL     1     -10.801   9.124  71.521  1.00  0.00    -0.372 SA 
HETATM    9  C   UNL     1     -10.714   9.127  69.750  1.00  0.00    -0.228 A  
HETATM   10  C   UNL     1     -10.659   5.825  73.765  1.00  0.00    -0.285 A  
HETATM   11  C   UNL     1     -10.619   7.956  68.967  1.00  0.00    -0.162 A  
HETATM   12  C   UNL     1     -10.561   8.181  67.567  1.00  0.00    -0.291 A  
HETATM   13  N   UNL     1     -10.605   6.643  69.547  1.00  0.00    -0.223 NA 
HETATM   14  C   UNL     1     -10.759  10.415  69.167  1.00  0.00    -0.266 A  
HETATM   15  C   UNL     1     -10.605   9.467  66.995  1.00  0.00    -0.272 A  
HETATM   16  C   UNL     1     -10.710  10.585  67.802  1.00  0.00    -0.319 A  
BRANCH  13  17
HETATM   17  C   UNL     1     -10.633   5.468  68.638  1.00  0.00    -0.145 C  
HETATM   18  C   UNL     1      -8.110   5.069  68.863  1.00  0.00    -0.084 C  
HETATM   19  C   UNL     1      -9.297   5.219  67.876  1.00  0.00    -0.131 C  
HETATM   20  C   UNL     1      -9.490   3.989  66.973  1.00  0.00    -0.223 C  
BRANCH  18  21
HETATM   21  N   UNL     1      -6.716   5.042  68.356  1.00  0.00    -0.053 NA 
HETATM   22  C   UNL     1      -6.251   3.685  68.055  1.00  0.00    -0.032 C  
HETATM   23  C   UNL     1      -6.683   5.835  67.112  1.00  0.00    -0.062 C  
ENDBRANCH  18  21
ENDBRANCH  13  17
ENDBRANCH   2   3
TORSDOF 3
ENDMDL
MODEL      121
REMARK 921   NORMALIZED FREE ENERGY PREDICTED BY IDOCK:   -3.87 KCAL/MOL
REMARK 922        TOTAL FREE ENERGY PREDICTED BY IDOCK:   -4.75 KCAL/MOL
REMARK 923 INTER-LIGAND FREE ENERGY PREDICTED BY IDOCK:   -4.59 KCAL/MOL
REMARK 924 INTRA-LIGAND FREE ENERGY PREDICTED BY IDOCK:   -0.16 KCAL/MOL
REMARK 927      BINDING AFFINITY PREDICTED BY RF-SCORE:    0.00 PKD
ROOT
HETATM    1  C   UNL     1      -9.613  12.727  67.719  1.00  0.00    -0.204 C  
HETATM    2  O   UNL     1      -9.225  11.646  68.560  1.00  0.00    -0.193 OA 
ENDROOT
BRANCH   2   3
HETATM    3  C   UNL     1      -9.371  10.400  68.012  1.00  0.00    -0.140 A  
HETATM    4  C   UNL     1      -9.101   9.320  68.869  1.00  0.00    -0.139 A  
HETATM    5  C   UNL     1      -9.223   7.967  68.470  1.00  0.00    -0.138 A  
HETATM    6  C   UNL     1      -9.611   7.763  67.128  1.00  0.00    -0.170 A  
HETATM    7  C   UNL     1      -9.850   8.846  66.263  1.00  0.00    -0.355 A  
HETATM    8  S   UNL     1      -9.860   6.179  66.386  1.00  0.00    -0.039 SA 
HETATM    9  C   UNL     1      -9.429   5.066  67.696  1.00  0.00    -0.132 A  
HETATM   10  C   UNL     1      -9.728  10.158  66.696  1.00  0.00    -0.242 A  
HETATM   11  C   UNL     1      -9.029   5.484  68.984  1.00  0.00    -0.108 A  
HETATM   12  C   UNL     1      -8.729   4.430  69.884  1.00  0.00    -0.111 A  
HETATM   13  N   UNL     1      -8.956   6.870  69.352  1.00  0.00    -0.138 NA 
HETATM   14  C   UNL     1      -9.527   3.696  67.352  1.00  0.00    -0.238 A  
HETATM   15  C   UNL     1      -8.828   3.070  69.533  1.00  0.00    -0.147 A  
HETATM   16  C   UNL     1      -9.235   2.706  68.263  1.00  0.00    -0.255 A  
BRANCH  13  17
HETATM   17  C   UNL     1      -8.651   7.210  70.766  1.00  0.00    -0.146 C  
HETATM   18  C   UNL     1     -11.129   7.312  71.415  1.00  0.00    -0.243 C  
HETATM   19  C   UNL     1      -9.761   8.039  71.477  1.00  0.00    -0.213 C  
HETATM   20  C   UNL     1      -9.293   8.322  72.914  1.00  0.00    -0.324 C  
BRANCH  18  21
HETATM   21  N   UNL     1     -12.368   8.012  71.835  1.00  0.00    -0.310 NA 
HETATM   22  C   UNL     1     -12.499   9.339  71.226  1.00  0.00    -0.316 C  
HETATM   23  C   UNL     1     -13.511   7.184  71.403  1.00  0.00    -0.291 C  
ENDBRANCH  18  21
ENDBRANCH  13  17
ENDBRANCH   2   3
TORSDOF 3
ENDMDL
MODEL      122
REMARK 921   NORMALIZED FREE ENERGY PREDICTED BY IDOCK:   -3.82 KCAL/MOL
REMARK 922        TOTAL FREE ENERGY PREDICTED BY IDOCK:   -4.69 KCAL/MOL
REMARK 923 INTER-LIGAND FREE ENERGY PREDICTED BY IDOCK:   -5.11 KCAL/MOL
REMARK 924 INTRA-LIGAND FREE ENERGY PREDICTED BY IDOCK:    0.42 KCAL/MOL
REMARK 927      BINDING AFFINITY PREDICTED BY RF-SCORE:    0.00 PKD
ROOT
HETATM    1  C   UNL     1      -8.391   7.980  73.112  1.00  0.00    -0.195 C  
HETATM    2  O   UNL     1      -7.446   8.762  72.390  1.00  0.00    -0.324 OA 
ENDROOT
BRANCH   2   3
HETATM    3  C   UNL     1      -7.584   8.731  71.028  1.00  0.00    -0.111 A  
HETATM    4  C   UNL     1      -8.537   9.611  70.490  1.00  0.00    -0.142 A  
HETATM    5  C   UNL     1      -8.792   9.722  69.101  1.00  0.00    -0.160 A  
HETATM    6  C   UNL     1      -8.039   8.858  68.277  1.00  0.00    -0.109 A  
HETATM    7  C   UNL     1      -7.108   7.954  68.820  1.00  0.00    -0.072 A  
HETATM    8  S   UNL     1      -8.144   8.812  66.514  1.00  0.00    -0.104 SA 
HETATM    9  C   UNL     1      -9.415   9.999  66.170  1.00  0.00    -0.190 A  
HETATM   10  C   UNL     1      -6.882   7.884  70.187  1.00  0.00    -0.045 A  
HETATM   11  C   UNL     1     -10.078  10.751  67.164  1.00  0.00    -0.204 A  
HETATM   12  C   UNL     1     -11.063  11.646  66.674  1.00  0.00    -0.364 A  
HETATM   13  N   UNL     1      -9.758  10.630  68.558  1.00  0.00    -0.167 NA 
HETATM   14  C   UNL     1      -9.717  10.147  64.795  1.00  0.00    -0.389 A  
HETATM   15  C   UNL     1     -11.357  11.786  65.304  1.00  0.00    -0.284 A  
HETATM   16  C   UNL     1     -10.675  11.036  64.364  1.00  0.00    -0.340 A  
BRANCH  13  17
HETATM   17  C   UNL     1     -10.416  11.555  69.517  1.00  0.00     0.154 C  
HETATM   18  C   UNL     1     -11.653   9.650  70.708  1.00  0.00    -0.321 C  
HETATM   19  C   UNL     1     -11.789  11.049  70.052  1.00  0.00    -0.435 C  
HETATM   20  C   UNL     1     -12.344  12.114  71.011  1.00  0.00    -0.331 C  
BRANCH  18  21
HETATM   21  N   UNL     1     -12.863   8.883  71.090  1.00  0.00    -0.209 NA 
HETATM   22  C   UNL     1     -12.584   7.460  71.307  1.00  0.00    -0.340 C  
HETATM   23  C   UNL     1     -13.371   9.457  72.351  1.00  0.00    -0.424 C  
ENDBRANCH  18  21
ENDBRANCH  13  17
ENDBRANCH   2   3
TORSDOF 3
ENDMDL
MODEL      123
REMARK 921   NORMALIZED FREE ENERGY PREDICTED BY IDOCK:   -3.81 KCAL/MOL
REMARK 922        TOTAL FREE ENERGY PREDICTED BY IDOCK:   -4.68 KCAL/MOL
REMARK 923 INTER-LIGAND FREE ENERGY PREDICTED BY IDOCK:   -4.30 KCAL/MOL
REMARK 924 INTRA-LIGAND FREE ENERGY PREDICTED BY IDOCK:   -0.38 KCAL/MOL
REMARK 927      BINDING AFFINITY PREDICTED BY RF-SCORE:    0.00 PKD
ROOT
HETATM    1  C   UNL     1      -9.003   4.201  64.456  1.00  0.00    -0.142 C  
HETATM    2  O   UNL     1     -10.019   4.708  65.315  1.00  0.00    -0.170 OA 
ENDROOT
BRANCH   2   3
HETATM    3  C   UNL     1      -9.850   4.428  66.645  1.00  0.00    -0.226 A  
HETATM    4  C   UNL     1     -10.209   5.453  67.535  1.00  0.00    -0.243 A  
HETATM    5  C   UNL     1     -10.118   5.323  68.942  1.00  0.00    -0.184 A  
HETATM    6  C   UNL     1      -9.606   4.092  69.405  1.00  0.00    -0.187 A  
HETATM    7  C   UNL     1      -9.217   3.079  68.511  1.00  0.00    -0.233 A  
HETATM    8  S   UNL     1      -9.413   3.663  71.108  1.00  0.00    -0.174 SA 
HETATM    9  C   UNL     1      -9.926   5.142  71.941  1.00  0.00    -0.184 A  
HETATM   10  C   UNL     1      -9.331   3.243  67.138  1.00  0.00    -0.212 A  
HETATM   11  C   UNL     1     -10.385   6.299  71.275  1.00  0.00    -0.212 A  
HETATM   12  C   UNL     1     -10.747   7.372  72.130  1.00  0.00    -0.262 A  
HETATM   13  N   UNL     1     -10.496   6.369  69.845  1.00  0.00    -0.197 NA 
HETATM   14  C   UNL     1      -9.850   5.071  73.352  1.00  0.00    -0.164 A  
HETATM   15  C   UNL     1     -10.667   7.294  73.533  1.00  0.00    -0.367 A  
HETATM   16  C   UNL     1     -10.221   6.135  74.143  1.00  0.00    -0.320 A  
BRANCH  13  17
HETATM   17  C   UNL     1     -11.111   7.581  69.243  1.00  0.00     0.050 C  
HETATM   18  C   UNL     1      -8.836   8.681  68.811  1.00  0.00    -0.139 C  
HETATM   19  C   UNL     1     -10.258   8.874  69.399  1.00  0.00    -0.210 C  
HETATM   20  C   UNL     1     -11.029  10.032  68.744  1.00  0.00    -0.242 C  
BRANCH  18  21
HETATM   21  N   UNL     1      -7.785   9.703  69.042  1.00  0.00    -0.075 NA 
HETATM   22  C   UNL     1      -7.209   9.624  70.388  1.00  0.00    -0.142 C  
HETATM   23  C   UNL     1      -6.712   9.463  68.058  1.00  0.00    -0.063 C  
ENDBRANCH  18  21
ENDBRANCH  13  17
ENDBRANCH   2   3
TORSDOF 3
ENDMDL
MODEL      124
REMARK 921   NORMALIZED FREE ENERGY PREDICTED BY IDOCK:   -3.73 KCAL/MOL
REMARK 922        TOTAL FREE ENERGY PREDICTED BY IDOCK:   -4.58 KCAL/MOL
REMARK 923 INTER-LIGAND FREE ENERGY PREDICTED BY IDOCK:   -4.28 KCAL/MOL
REMARK 924 INTRA-LIGAND FREE ENERGY PREDICTED BY IDOCK:   -0.30 KCAL/MOL
REMARK 927      BINDING AFFINITY PREDICTED BY RF-SCORE:    0.00 PKD
ROOT
HETATM    1  C   UNL     1      -8.215   5.560  63.818  1.00  0.00    -0.108 C  
HETATM    2  O   UNL     1      -8.235   6.587  64.803  1.00  0.00    -0.129 OA 
ENDROOT
BRANCH   2   3
HETATM    3  C   UNL     1      -8.774   6.227  66.009  1.00  0.00    -0.151 A  
HETATM    4  C   UNL     1      -8.443   7.051  67.097  1.00  0.00    -0.121 A  
HETATM    5  C   UNL     1      -8.931   6.834  68.409  1.00  0.00    -0.124 A  
HETATM    6  C   UNL     1      -9.759   5.703  68.567  1.00  0.00    -0.136 A  
HETATM    7  C   UNL     1     -10.063   4.859  67.483  1.00  0.00    -0.184 A  
HETATM    8  S   UNL     1     -10.516   5.221  70.089  1.00  0.00    -0.216 SA 
HETATM    9  C   UNL     1      -9.897   6.428  71.230  1.00  0.00    -0.181 A  
HETATM   10  C   UNL     1      -9.571   5.113  66.211  1.00  0.00    -0.174 A  
HETATM   11  C   UNL     1      -9.036   7.485  70.864  1.00  0.00    -0.149 A  
HETATM   12  C   UNL     1      -8.659   8.340  71.932  1.00  0.00    -0.224 A  
HETATM   13  N   UNL     1      -8.598   7.686  69.512  1.00  0.00    -0.132 NA 
HETATM   14  C   UNL     1     -10.348   6.257  72.561  1.00  0.00    -0.214 A  
HETATM   15  C   UNL     1      -9.111   8.162  73.253  1.00  0.00    -0.327 A  
HETATM   16  C   UNL     1      -9.963   7.118  73.563  1.00  0.00    -0.344 A  
BRANCH  13  17
HETATM   17  C   UNL     1      -7.798   8.899  69.200  1.00  0.00    -0.093 C  
HETATM   18  C   UNL     1      -9.828  10.452  69.408  1.00  0.00    -0.213 C  
HETATM   19  C   UNL     1      -8.613  10.047  68.534  1.00  0.00    -0.119 C  
HETATM   20  C   UNL     1      -7.650  11.214  68.263  1.00  0.00    -0.111 C  
BRANCH  18  21
HETATM   21  N   UNL     1     -10.863  11.370  68.871  1.00  0.00    -0.205 NA 
HETATM   22  C   UNL     1     -11.255  11.036  67.499  1.00  0.00    -0.302 C  
HETATM   23  C   UNL     1     -12.050  11.252  69.739  1.00  0.00    -0.325 C  
ENDBRANCH  18  21
ENDBRANCH  13  17
ENDBRANCH   2   3
TORSDOF 3
ENDMDL
MODEL      125
REMARK 921   NORMALIZED FREE ENERGY PREDICTED BY IDOCK:   -3.72 KCAL/MOL
REMARK 922        TOTAL FREE ENERGY PREDICTED BY IDOCK:   -4.57 KCAL/MOL
REMARK 923 INTER-LIGAND FREE ENERGY PREDICTED BY IDOCK:   -4.19 KCAL/MOL
REMARK 924 INTRA-LIGAND FREE ENERGY PREDICTED BY IDOCK:   -0.38 KCAL/MOL
REMARK 927      BINDING AFFINITY PREDICTED BY RF-SCORE:    0.00 PKD
ROOT
HETATM    1  C   UNL     1     -10.368   3.962  62.669  1.00  0.00    -0.191 C  
HETATM    2  O   UNL     1      -9.084   3.924  63.283  1.00  0.00    -0.102 OA 
ENDROOT
BRANCH   2   3
HETATM    3  C   UNL     1      -9.088   3.650  64.624  1.00  0.00    -0.133 A  
HETATM    4  C   UNL     1      -9.558   4.680  65.456  1.00  0.00    -0.187 A  
HETATM    5  C   UNL     1      -9.648   4.556  66.864  1.00  0.00    -0.190 A  
HETATM    6  C   UNL     1      -9.202   3.326  67.394  1.00  0.00    -0.198 A  
HETATM    7  C   UNL     1      -8.702   2.309  66.562  1.00  0.00    -0.125 A  
HETATM    8  S   UNL     1      -9.230   2.906  69.110  1.00  0.00    -0.148 SA 
HETATM    9  C   UNL     1      -9.845   4.388  69.862  1.00  0.00    -0.220 A  
HETATM   10  C   UNL     1      -8.638   2.467  65.185  1.00  0.00    -0.109 A  
HETATM   11  C   UNL     1     -10.213   5.543  69.138  1.00  0.00    -0.239 A  
HETATM   12  C   UNL     1     -10.681   6.620  69.935  1.00  0.00    -0.297 A  
HETATM   13  N   UNL     1     -10.139   5.606  67.706  1.00  0.00    -0.157 NA 
HETATM   14  C   UNL     1      -9.951   4.324  71.273  1.00  0.00    -0.230 A  
HETATM   15  C   UNL     1     -10.782   6.548  71.337  1.00  0.00    -0.280 A  
HETATM   16  C   UNL     1     -10.420   5.392  72.004  1.00  0.00    -0.278 A  
BRANCH  13  17
HETATM   17  C   UNL     1     -10.669   6.815  67.024  1.00  0.00    -0.365 C  
HETATM   18  C   UNL     1      -8.332   7.818  66.697  1.00  0.00    -0.126 C  
HETATM   19  C   UNL     1      -9.779   8.083  67.188  1.00  0.00    -0.255 C  
HETATM   20  C   UNL     1     -10.464   9.241  66.445  1.00  0.00    -0.157 C  
BRANCH  18  21
HETATM   21  N   UNL     1      -7.260   8.810  66.958  1.00  0.00    -0.079 NA 
HETATM   22  C   UNL     1      -6.171   8.262  67.772  1.00  0.00    -0.052 C  
HETATM   23  C   UNL     1      -6.708   9.218  65.652  1.00  0.00    -0.073 C  
ENDBRANCH  18  21
ENDBRANCH  13  17
ENDBRANCH   2   3
TORSDOF 3
ENDMDL
MODEL      126
REMARK 921   NORMALIZED FREE ENERGY PREDICTED BY IDOCK:   -3.69 KCAL/MOL
REMARK 922        TOTAL FREE ENERGY PREDICTED BY IDOCK:   -4.54 KCAL/MOL
REMARK 923 INTER-LIGAND FREE ENERGY PREDICTED BY IDOCK:   -4.16 KCAL/MOL
REMARK 924 INTRA-LIGAND FREE ENERGY PREDICTED BY IDOCK:   -0.38 KCAL/MOL
REMARK 927      BINDING AFFINITY PREDICTED BY RF-SCORE:    0.00 PKD
ROOT
HETATM    1  C   UNL     1     -11.869   7.538  70.831  1.00  0.00    -0.267 C  
HETATM    2  O   UNL     1     -11.557   6.219  70.394  1.00  0.00    -0.381 OA 
ENDROOT
BRANCH   2   3
HETATM    3  C   UNL     1     -10.793   6.146  69.261  1.00  0.00    -0.351 A  
HETATM    4  C   UNL     1     -10.706   7.328  68.506  1.00  0.00    -0.165 A  
HETATM    5  C   UNL     1      -9.942   7.433  67.319  1.00  0.00    -0.198 A  
HETATM    6  C   UNL     1      -9.285   6.251  66.914  1.00  0.00    -0.130 A  
HETATM    7  C   UNL     1      -9.400   5.060  67.654  1.00  0.00    -0.141 A  
HETATM    8  S   UNL     1      -8.250   6.117  65.488  1.00  0.00    -0.147 SA 
HETATM    9  C   UNL     1      -8.367   7.734  64.772  1.00  0.00    -0.043 A  
HETATM   10  C   UNL     1     -10.152   5.002  68.818  1.00  0.00    -0.200 A  
HETATM   11  C   UNL     1      -9.119   8.790  65.331  1.00  0.00    -0.134 A  
HETATM   12  C   UNL     1      -9.077  10.003  64.598  1.00  0.00    -0.280 A  
HETATM   13  N   UNL     1      -9.848   8.645  66.560  1.00  0.00    -0.259 NA 
HETATM   14  C   UNL     1      -7.626   7.896  63.577  1.00  0.00    -0.130 A  
HETATM   15  C   UNL     1      -8.338  10.155  63.410  1.00  0.00    -0.168 A  
HETATM   16  C   UNL     1      -7.606   9.096  62.903  1.00  0.00    -0.104 A  
BRANCH  13  17
HETATM   17  C   UNL     1     -10.504   9.846  67.138  1.00  0.00    -0.242 C  
HETATM   18  C   UNL     1      -8.313  10.721  68.141  1.00  0.00    -0.120 C  
HETATM   19  C   UNL     1      -9.806  10.403  68.414  1.00  0.00    -0.173 C  
HETATM   20  C   UNL     1     -10.605  11.624  68.896  1.00  0.00    -0.224 C  
BRANCH  18  21
HETATM   21  N   UNL     1      -7.402  11.055  69.264  1.00  0.00    -0.123 NA 
HETATM   22  C   UNL     1      -7.321   9.984  70.261  1.00  0.00    -0.141 C  
HETATM   23  C   UNL     1      -6.057  11.266  68.694  1.00  0.00    -0.043 C  
ENDBRANCH  18  21
ENDBRANCH  13  17
ENDBRANCH   2   3
TORSDOF 3
ENDMDL
MODEL      127
REMARK 921   NORMALIZED FREE ENERGY PREDICTED BY IDOCK:   -3.68 KCAL/MOL
REMARK 922        TOTAL FREE ENERGY PREDICTED BY IDOCK:   -4.53 KCAL/MOL
REMARK 923 INTER-LIGAND FREE ENERGY PREDICTED BY IDOCK:   -4.30 KCAL/MOL
REMARK 924 INTRA-LIGAND FREE ENERGY PREDICTED BY IDOCK:   -0.23 KCAL/MOL
REMARK 927      BINDING AFFINITY PREDICTED BY RF-SCORE:    0.00 PKD
ROOT
HETATM    1  C   UNL     1     -13.648   8.739  72.295  1.00  0.00    -0.430 C  
HETATM    2  O   UNL     1     -12.454   8.280  72.921  1.00  0.00    -0.202 OA 
ENDROOT
BRANCH   2   3
HETATM    3  C   UNL     1     -11.700   7.416  72.173  1.00  0.00    -0.290 A  
HETATM    4  C   UNL     1     -11.271   7.902  70.927  1.00  0.00    -0.284 A  
HETATM    5  C   UNL     1     -10.466   7.148  70.038  1.00  0.00    -0.221 A  
HETATM    6  C   UNL     1     -10.141   5.845  70.473  1.00  0.00    -0.197 A  
HETATM    7  C   UNL     1     -10.599   5.349  71.706  1.00  0.00    -0.286 A  
HETATM    8  S   UNL     1      -9.133   4.710  69.569  1.00  0.00    -0.121 SA 
HETATM    9  C   UNL     1      -8.782   5.604  68.079  1.00  0.00    -0.099 A  
HETATM   10  C   UNL     1     -11.378   6.125  72.552  1.00  0.00    -0.328 A  
HETATM   11  C   UNL     1      -9.240   6.915  67.823  1.00  0.00    -0.119 A  
HETATM   12  C   UNL     1      -8.845   7.447  66.569  1.00  0.00    -0.165 A  
HETATM   13  N   UNL     1     -10.022   7.654  68.773  1.00  0.00    -0.169 NA 
HETATM   14  C   UNL     1      -7.985   4.895  67.149  1.00  0.00    -0.099 A  
HETATM   15  C   UNL     1      -8.053   6.735  65.649  1.00  0.00    -0.122 A  
HETATM   16  C   UNL     1      -7.618   5.456  65.946  1.00  0.00    -0.083 A  
BRANCH  13  17
HETATM   17  C   UNL     1     -10.347   9.072  68.470  1.00  0.00    -0.203 C  
HETATM   18  C   UNL     1      -8.047   9.901  69.241  1.00  0.00    -0.128 C  
HETATM   19  C   UNL     1      -9.580  10.104  69.349  1.00  0.00    -0.249 C  
HETATM   20  C   UNL     1     -10.033  11.512  68.929  1.00  0.00    -0.117 C  
BRANCH  18  21
HETATM   21  N   UNL     1      -7.130  10.626  70.155  1.00  0.00    -0.206 NA 
HETATM   22  C   UNL     1      -5.975   9.817  70.554  1.00  0.00    -0.072 C  
HETATM   23  C   UNL     1      -6.641  11.818  69.436  1.00  0.00    -0.113 C  
ENDBRANCH  18  21
ENDBRANCH  13  17
ENDBRANCH   2   3
TORSDOF 3
ENDMDL
MODEL      128
REMARK 921   NORMALIZED FREE ENERGY PREDICTED BY IDOCK:   -3.68 KCAL/MOL
REMARK 922        TOTAL FREE ENERGY PREDICTED BY IDOCK:   -4.53 KCAL/MOL
REMARK 923 INTER-LIGAND FREE ENERGY PREDICTED BY IDOCK:   -4.59 KCAL/MOL
REMARK 924 INTRA-LIGAND FREE ENERGY PREDICTED BY IDOCK:    0.07 KCAL/MOL
REMARK 927      BINDING AFFINITY PREDICTED BY RF-SCORE:    0.00 PKD
ROOT
HETATM    1  C   UNL     1     -10.325   9.262  70.971  1.00  0.00    -0.318 C  
HETATM    2  O   UNL     1     -10.597   9.217  69.574  1.00  0.00    -0.218 OA 
ENDROOT
BRANCH   2   3
HETATM    3  C   UNL     1     -10.706  10.437  68.962  1.00  0.00    -0.228 A  
HETATM    4  C   UNL     1      -9.517  11.177  68.860  1.00  0.00    -0.136 A  
HETATM    5  C   UNL     1      -9.447  12.447  68.238  1.00  0.00    -0.203 A  
HETATM    6  C   UNL     1     -10.671  12.948  67.745  1.00  0.00    -0.224 A  
HETATM    7  C   UNL     1     -11.867  12.220  67.878  1.00  0.00    -0.358 A  
HETATM    8  S   UNL     1     -10.858  14.493  66.907  1.00  0.00    -0.311 SA 
HETATM    9  C   UNL     1      -9.217  15.163  66.962  1.00  0.00    -0.223 A  
HETATM   10  C   UNL     1     -11.890  10.973  68.486  1.00  0.00    -0.286 A  
HETATM   11  C   UNL     1      -8.116  14.498  67.542  1.00  0.00    -0.189 A  
HETATM   12  C   UNL     1      -6.891  15.212  67.478  1.00  0.00    -0.203 A  
HETATM   13  N   UNL     1      -8.229  13.192  68.128  1.00  0.00    -0.153 NA 
HETATM   14  C   UNL     1      -9.089  16.437  66.359  1.00  0.00    -0.341 A  
HETATM   15  C   UNL     1      -6.773  16.479  66.878  1.00  0.00    -0.233 A  
HETATM   16  C   UNL     1      -7.878  17.089  66.312  1.00  0.00    -0.346 A  
BRANCH  13  17
HETATM   17  C   UNL     1      -6.990  12.519  68.597  1.00  0.00    -0.091 C  
HETATM   18  C   UNL     1      -6.792  11.109  66.464  1.00  0.00    -0.126 C  
HETATM   19  C   UNL     1      -6.782  11.089  68.015  1.00  0.00    -0.063 C  
HETATM   20  C   UNL     1      -5.477  10.525  68.602  1.00  0.00    -0.041 C  
BRANCH  18  21
HETATM   21  N   UNL     1      -6.828   9.838  65.700  1.00  0.00    -0.091 NA 
HETATM   22  C   UNL     1      -7.827   8.898  66.217  1.00  0.00    -0.102 C  
HETATM   23  C   UNL     1      -7.177  10.170  64.305  1.00  0.00    -0.108 C  
ENDBRANCH  18  21
ENDBRANCH  13  17
ENDBRANCH   2   3
TORSDOF 3
ENDMDL
MODEL      129
REMARK 921   NORMALIZED FREE ENERGY PREDICTED BY IDOCK:   -3.65 KCAL/MOL
REMARK 922        TOTAL FREE ENERGY PREDICTED BY IDOCK:   -4.49 KCAL/MOL
REMARK 923 INTER-LIGAND FREE ENERGY PREDICTED BY IDOCK:   -4.97 KCAL/MOL
REMARK 924 INTRA-LIGAND FREE ENERGY PREDICTED BY IDOCK:    0.48 KCAL/MOL
REMARK 927      BINDING AFFINITY PREDICTED BY RF-SCORE:    0.00 PKD
ROOT
HETATM    1  C   UNL     1     -11.209  16.632  64.434  1.00  0.00     0.227 C  
HETATM    2  O   UNL     1     -12.003  15.505  64.078  1.00  0.00    -0.531 OA 
ENDROOT
BRANCH   2   3
HETATM    3  C   UNL     1     -11.719  14.353  64.761  1.00  0.00    -0.416 A  
HETATM    4  C   UNL     1     -10.522  14.359  65.496  1.00  0.00    -0.366 A  
HETATM    5  C   UNL     1     -10.087  13.259  66.276  1.00  0.00    -0.294 A  
HETATM    6  C   UNL     1     -10.928  12.126  66.246  1.00  0.00    -0.295 A  
HETATM    7  C   UNL     1     -12.110  12.111  65.484  1.00  0.00    -0.209 A  
HETATM    8  S   UNL     1     -10.632  10.635  67.147  1.00  0.00    -0.263 SA 
HETATM    9  C   UNL     1      -9.077  10.959  67.932  1.00  0.00    -0.149 A  
HETATM   10  C   UNL     1     -12.505  13.214  64.741  1.00  0.00    -0.460 A  
HETATM   11  C   UNL     1      -8.370  12.174  67.805  1.00  0.00    -0.159 A  
HETATM   12  C   UNL     1      -7.144  12.226  68.517  1.00  0.00    -0.099 A  
HETATM   13  N   UNL     1      -8.871  13.276  67.032  1.00  0.00    -0.223 NA 
HETATM   14  C   UNL     1      -8.590   9.890  68.722  1.00  0.00    -0.130 A  
HETATM   15  C   UNL     1      -6.667  11.157  69.299  1.00  0.00    -0.103 A  
HETATM   16  C   UNL     1      -7.398   9.988  69.403  1.00  0.00    -0.100 A  
BRANCH  13  17
HETATM   17  C   UNL     1      -8.121  14.558  67.062  1.00  0.00    -0.094 C  
HETATM   18  C   UNL     1      -9.644  15.558  68.866  1.00  0.00    -0.220 C  
HETATM   19  C   UNL     1      -8.977  15.788  67.484  1.00  0.00    -0.201 C  
HETATM   20  C   UNL     1      -8.071  17.030  67.452  1.00  0.00    -0.193 C  
BRANCH  18  21
HETATM   21  N   UNL     1     -10.674  16.502  69.366  1.00  0.00    -0.318 NA 
HETATM   22  C   UNL     1     -10.860  17.654  68.479  1.00  0.00    -0.069 C  
HETATM   23  C   UNL     1     -11.948  15.762  69.446  1.00  0.00    -0.305 C  
ENDBRANCH  18  21
ENDBRANCH  13  17
ENDBRANCH   2   3
TORSDOF 3
ENDMDL
MODEL      130
REMARK 921   NORMALIZED FREE ENERGY PREDICTED BY IDOCK:   -3.64 KCAL/MOL
REMARK 922        TOTAL FREE ENERGY PREDICTED BY IDOCK:   -4.48 KCAL/MOL
REMARK 923 INTER-LIGAND FREE ENERGY PREDICTED BY IDOCK:   -4.07 KCAL/MOL
REMARK 924 INTRA-LIGAND FREE ENERGY PREDICTED BY IDOCK:   -0.40 KCAL/MOL
REMARK 927      BINDING AFFINITY PREDICTED BY RF-SCORE:    0.00 PKD
ROOT
HETATM    1  C   UNL     1     -10.252  10.020  64.850  1.00  0.00     0.034 C  
HETATM    2  O   UNL     1      -9.729  11.039  65.696  1.00  0.00    -0.209 OA 
ENDROOT
BRANCH   2   3
HETATM    3  C   UNL     1     -10.118  12.314  65.381  1.00  0.00    -0.269 A  
HETATM    4  C   UNL     1      -9.665  13.322  66.247  1.00  0.00    -0.274 A  
HETATM    5  C   UNL     1      -9.957  14.695  66.056  1.00  0.00    -0.316 A  
HETATM    6  C   UNL     1     -10.771  14.992  64.941  1.00  0.00    -0.397 A  
HETATM    7  C   UNL     1     -11.250  13.977  64.093  1.00  0.00    -0.114 A  
HETATM    8  S   UNL     1     -11.261  16.621  64.464  1.00  0.00     0.446 SA 
HETATM    9  C   UNL     1     -10.555  17.628  65.740  1.00  0.00    -0.177 A  
HETATM   10  C   UNL     1     -10.933  12.644  64.311  1.00  0.00    -0.404 A  
HETATM   11  C   UNL     1      -9.783  17.118  66.807  1.00  0.00    -0.271 A  
HETATM   12  C   UNL     1      -9.313  18.096  67.720  1.00  0.00    -0.268 A  
HETATM   13  N   UNL     1      -9.482  15.720  66.936  1.00  0.00    -0.221 NA 
HETATM   14  C   UNL     1     -10.821  19.011  65.604  1.00  0.00    -0.164 A  
HETATM   15  C   UNL     1      -9.583  19.470  67.577  1.00  0.00    -0.429 A  
HETATM   16  C   UNL     1     -10.335  19.926  66.510  1.00  0.00    -0.608 A  
BRANCH  13  17
HETATM   17  C   UNL     1      -8.556  15.294  68.017  1.00  0.00    -0.152 C  
HETATM   18  C   UNL     1     -10.475  14.617  69.576  1.00  0.00    -0.107 C  
HETATM   19  C   UNL     1      -9.151  15.414  69.452  1.00  0.00    -0.258 C  
HETATM   20  C   UNL     1      -8.075  14.955  70.450  1.00  0.00     1.037 C  
BRANCH  18  21
HETATM   21  N   UNL     1     -11.326  14.765  70.783  1.00  0.00    -0.220 NA 
HETATM   22  C   UNL     1     -11.620  16.166  71.098  1.00  0.00    -0.404 C  
HETATM   23  C   UNL     1     -12.599  14.069  70.513  1.00  0.00    -0.329 C  
ENDBRANCH  18  21
ENDBRANCH  13  17
ENDBRANCH   2   3
TORSDOF 3
ENDMDL
MODEL      131
REMARK 921   NORMALIZED FREE ENERGY PREDICTED BY IDOCK:   -3.64 KCAL/MOL
REMARK 922        TOTAL FREE ENERGY PREDICTED BY IDOCK:   -4.47 KCAL/MOL
REMARK 923 INTER-LIGAND FREE ENERGY PREDICTED BY IDOCK:   -4.95 KCAL/MOL
REMARK 924 INTRA-LIGAND FREE ENERGY PREDICTED BY IDOCK:    0.48 KCAL/MOL
REMARK 927      BINDING AFFINITY PREDICTED BY RF-SCORE:    0.00 PKD
ROOT
HETATM    1  C   UNL     1      -6.761   8.030  69.503  1.00  0.00    -0.038 C  
HETATM    2  O   UNL     1      -6.874   9.393  69.108  1.00  0.00    -0.049 OA 
ENDROOT
BRANCH   2   3
HETATM    3  C   UNL     1      -7.706   9.625  68.046  1.00  0.00    -0.086 A  
HETATM    4  C   UNL     1      -8.213  10.930  67.940  1.00  0.00    -0.114 A  
HETATM    5  C   UNL     1      -9.069  11.345  66.891  1.00  0.00    -0.175 A  
HETATM    6  C   UNL     1      -9.414  10.344  65.958  1.00  0.00    -0.185 A  
HETATM    7  C   UNL     1      -8.931   9.029  66.084  1.00  0.00    -0.216 A  
HETATM    8  S   UNL     1     -10.443  10.602  64.546  1.00  0.00    -0.041 SA 
HETATM    9  C   UNL     1     -10.915  12.302  64.715  1.00  0.00    -0.303 A  
HETATM   10  C   UNL     1      -8.086   8.666  67.122  1.00  0.00    -0.100 A  
HETATM   11  C   UNL     1     -10.474  13.139  65.762  1.00  0.00    -0.283 A  
HETATM   12  C   UNL     1     -10.971  14.467  65.711  1.00  0.00    -0.319 A  
HETATM   13  N   UNL     1      -9.574  12.682  66.783  1.00  0.00    -0.235 NA 
HETATM   14  C   UNL     1     -11.778  12.771  63.695  1.00  0.00    -0.587 A  
HETATM   15  C   UNL     1     -11.829  14.925  64.693  1.00  0.00    -0.412 A  
HETATM   16  C   UNL     1     -12.228  14.072  63.681  1.00  0.00    -0.145 A  
BRANCH  13  17
HETATM   17  C   UNL     1      -9.064  13.669  67.770  1.00  0.00    -0.199 C  
HETATM   18  C   UNL     1     -11.144  13.460  69.254  1.00  0.00    -0.164 C  
HETATM   19  C   UNL     1     -10.178  14.439  68.537  1.00  0.00    -0.243 C  
HETATM   20  C   UNL     1      -9.496  15.425  69.500  1.00  0.00    -0.250 C  
BRANCH  18  21
HETATM   21  N   UNL     1     -12.400  13.960  69.863  1.00  0.00    -0.326 NA 
HETATM   22  C   UNL     1     -12.458  13.726  71.309  1.00  0.00    -0.345 C  
HETATM   23  C   UNL     1     -12.460  15.414  69.622  1.00  0.00    -0.136 C  
ENDBRANCH  18  21
ENDBRANCH  13  17
ENDBRANCH   2   3
TORSDOF 3
ENDMDL
MODEL      132
REMARK 921   NORMALIZED FREE ENERGY PREDICTED BY IDOCK:   -3.63 KCAL/MOL
REMARK 922        TOTAL FREE ENERGY PREDICTED BY IDOCK:   -4.47 KCAL/MOL
REMARK 923 INTER-LIGAND FREE ENERGY PREDICTED BY IDOCK:   -4.35 KCAL/MOL
REMARK 924 INTRA-LIGAND FREE ENERGY PREDICTED BY IDOCK:   -0.12 KCAL/MOL
REMARK 927      BINDING AFFINITY PREDICTED BY RF-SCORE:    0.00 PKD
ROOT
HETATM    1  C   UNL     1      -9.940  12.703  66.049  1.00  0.00    -0.258 C  
HETATM    2  O   UNL     1     -10.507  11.445  66.399  1.00  0.00    -0.237 OA 
ENDROOT
BRANCH   2   3
HETATM    3  C   UNL     1      -9.812  10.350  65.959  1.00  0.00    -0.232 A  
HETATM    4  C   UNL     1     -10.149   9.129  66.565  1.00  0.00    -0.357 A  
HETATM    5  C   UNL     1      -9.544   7.898  66.213  1.00  0.00    -0.130 A  
HETATM    6  C   UNL     1      -8.542   7.977  65.222  1.00  0.00    -0.086 A  
HETATM    7  C   UNL     1      -8.182   9.206  64.640  1.00  0.00    -0.152 A  
HETATM    8  S   UNL     1      -7.649   6.591  64.586  1.00  0.00    -0.107 SA 
HETATM    9  C   UNL     1      -8.287   5.245  65.548  1.00  0.00    -0.130 A  
HETATM   10  C   UNL     1      -8.808  10.389  65.007  1.00  0.00    -0.209 A  
HETATM   11  C   UNL     1      -9.289   5.388  66.533  1.00  0.00    -0.145 A  
HETATM   12  C   UNL     1      -9.656   4.183  67.186  1.00  0.00    -0.229 A  
HETATM   13  N   UNL     1      -9.900   6.653  66.827  1.00  0.00    -0.173 NA 
HETATM   14  C   UNL     1      -7.712   3.988  65.243  1.00  0.00    -0.085 A  
HETATM   15  C   UNL     1      -9.078   2.938  66.877  1.00  0.00    -0.181 A  
HETATM   16  C   UNL     1      -8.106   2.843  65.898  1.00  0.00    -0.087 A  
BRANCH  13  17
HETATM   17  C   UNL     1     -11.035   6.683  67.786  1.00  0.00    -0.281 C  
HETATM   18  C   UNL     1      -9.563   7.535  69.705  1.00  0.00    -0.159 C  
HETATM   19  C   UNL     1     -10.619   6.484  69.273  1.00  0.00    -0.292 C  
HETATM   20  C   UNL     1     -11.895   6.525  70.130  1.00  0.00    -0.331 C  
BRANCH  18  21
HETATM   21  N   UNL     1      -8.866   7.403  71.007  1.00  0.00    -0.143 NA 
HETATM   22  C   UNL     1      -9.585   8.062  72.101  1.00  0.00    -0.215 C  
HETATM   23  C   UNL     1      -8.769   5.962  71.312  1.00  0.00    -0.132 C  
ENDBRANCH  18  21
ENDBRANCH  13  17
ENDBRANCH   2   3
TORSDOF 3
ENDMDL
MODEL      133
REMARK 921   NORMALIZED FREE ENERGY PREDICTED BY IDOCK:   -3.60 KCAL/MOL
REMARK 922        TOTAL FREE ENERGY PREDICTED BY IDOCK:   -4.43 KCAL/MOL
REMARK 923 INTER-LIGAND FREE ENERGY PREDICTED BY IDOCK:   -4.09 KCAL/MOL
REMARK 924 INTRA-LIGAND FREE ENERGY PREDICTED BY IDOCK:   -0.34 KCAL/MOL
REMARK 927      BINDING AFFINITY PREDICTED BY RF-SCORE:    0.00 PKD
ROOT
HETATM    1  C   UNL     1     -10.930   7.438  69.776  1.00  0.00    -0.200 C  
HETATM    2  O   UNL     1     -11.325   6.425  68.857  1.00  0.00    -0.341 OA 
ENDROOT
BRANCH   2   3
HETATM    3  C   UNL     1     -10.534   6.307  67.746  1.00  0.00    -0.232 A  
HETATM    4  C   UNL     1      -9.744   7.427  67.436  1.00  0.00    -0.196 A  
HETATM    5  C   UNL     1      -8.855   7.466  66.335  1.00  0.00    -0.156 A  
HETATM    6  C   UNL     1      -8.830   6.303  65.535  1.00  0.00    -0.029 A  
HETATM    7  C   UNL     1      -9.646   5.195  65.827  1.00  0.00    -0.138 A  
HETATM    8  S   UNL     1      -7.795   6.082  64.120  1.00  0.00    -0.117 SA 
HETATM    9  C   UNL     1      -6.963   7.643  64.001  1.00  0.00    -0.062 A  
HETATM   10  C   UNL     1     -10.498   5.195  66.922  1.00  0.00    -0.280 A  
HETATM   11  C   UNL     1      -7.158   8.708  64.907  1.00  0.00    -0.080 A  
HETATM   12  C   UNL     1      -6.393   9.871  64.629  1.00  0.00    -0.117 A  
HETATM   13  N   UNL     1      -8.044   8.607  66.032  1.00  0.00    -0.105 NA 
HETATM   14  C   UNL     1      -6.064   7.742  62.912  1.00  0.00    -0.067 A  
HETATM   15  C   UNL     1      -5.501   9.960  63.544  1.00  0.00    -0.099 A  
HETATM   16  C   UNL     1      -5.335   8.887  62.687  1.00  0.00    -0.070 A  
BRANCH  13  17
HETATM   17  C   UNL     1      -8.085   9.732  67.002  1.00  0.00    -0.113 C  
HETATM   18  C   UNL     1     -10.018  10.890  65.779  1.00  0.00    -0.247 C  
HETATM   19  C   UNL     1      -8.611  11.071  66.406  1.00  0.00    -0.165 C  
HETATM   20  C   UNL     1      -8.579  12.130  67.520  1.00  0.00    -0.171 C  
BRANCH  18  21
HETATM   21  N   UNL     1     -10.619  11.974  64.964  1.00  0.00    -0.278 NA 
HETATM   22  C   UNL     1     -10.903  11.554  63.589  1.00  0.00    -0.415 C  
HETATM   23  C   UNL     1     -11.890  12.358  65.608  1.00  0.00    -0.409 C  
ENDBRANCH  18  21
ENDBRANCH  13  17
ENDBRANCH   2   3
TORSDOF 3
ENDMDL
MODEL      134
REMARK 921   NORMALIZED FREE ENERGY PREDICTED BY IDOCK:   -3.59 KCAL/MOL
REMARK 922        TOTAL FREE ENERGY PREDICTED BY IDOCK:   -4.42 KCAL/MOL
REMARK 923 INTER-LIGAND FREE ENERGY PREDICTED BY IDOCK:   -4.15 KCAL/MOL
REMARK 924 INTRA-LIGAND FREE ENERGY PREDICTED BY IDOCK:   -0.27 KCAL/MOL
REMARK 927      BINDING AFFINITY PREDICTED BY RF-SCORE:    0.00 PKD
ROOT
HETATM    1  C   UNL     1     -13.465   9.413  71.964  1.00  0.00    -0.449 C  
HETATM    2  O   UNL     1     -12.605  10.537  71.808  1.00  0.00    -0.405 OA 
ENDROOT
BRANCH   2   3
HETATM    3  C   UNL     1     -11.885  10.562  70.644  1.00  0.00    -0.360 A  
HETATM    4  C   UNL     1     -10.577  10.058  70.723  1.00  0.00    -0.209 A  
HETATM    5  C   UNL     1      -9.705   9.991  69.609  1.00  0.00    -0.229 A  
HETATM    6  C   UNL     1     -10.227  10.497  68.400  1.00  0.00    -0.172 A  
HETATM    7  C   UNL     1     -11.526  11.031  68.329  1.00  0.00    -0.374 A  
HETATM    8  S   UNL     1      -9.359  10.509  66.861  1.00  0.00    -0.161 SA 
HETATM    9  C   UNL     1      -7.778   9.840  67.302  1.00  0.00    -0.095 A  
HETATM   10  C   UNL     1     -12.352  11.070  69.443  1.00  0.00    -0.222 A  
HETATM   11  C   UNL     1      -7.441   9.412  68.605  1.00  0.00    -0.079 A  
HETATM   12  C   UNL     1      -6.123   8.908  68.743  1.00  0.00    -0.045 A  
HETATM   13  N   UNL     1      -8.374   9.466  69.695  1.00  0.00    -0.132 NA 
HETATM   14  C   UNL     1      -6.861   9.754  66.227  1.00  0.00    -0.092 A  
HETATM   15  C   UNL     1      -5.217   8.828  67.668  1.00  0.00    -0.034 A  
HETATM   16  C   UNL     1      -5.594   9.248  66.406  1.00  0.00    -0.052 A  
BRANCH  13  17
HETATM   17  C   UNL     1      -7.973   8.874  70.998  1.00  0.00    -0.151 C  
HETATM   18  C   UNL     1      -8.711   6.519  70.306  1.00  0.00    -0.151 C  
HETATM   19  C   UNL     1      -8.789   7.611  71.404  1.00  0.00    -0.141 C  
HETATM   20  C   UNL     1      -8.270   7.132  72.769  1.00  0.00    -0.121 C  
BRANCH  18  21
HETATM   21  N   UNL     1      -9.585   5.322  70.379  1.00  0.00    -0.168 NA 
HETATM   22  C   UNL     1     -10.897   5.543  69.766  1.00  0.00    -0.221 C  
HETATM   23  C   UNL     1      -8.905   4.234  69.649  1.00  0.00    -0.086 C  
ENDBRANCH  18  21
ENDBRANCH  13  17
ENDBRANCH   2   3
TORSDOF 3
ENDMDL
MODEL      135
REMARK 921   NORMALIZED FREE ENERGY PREDICTED BY IDOCK:   -3.58 KCAL/MOL
REMARK 922        TOTAL FREE ENERGY PREDICTED BY IDOCK:   -4.41 KCAL/MOL
REMARK 923 INTER-LIGAND FREE ENERGY PREDICTED BY IDOCK:   -4.06 KCAL/MOL
REMARK 924 INTRA-LIGAND FREE ENERGY PREDICTED BY IDOCK:   -0.36 KCAL/MOL
REMARK 927      BINDING AFFINITY PREDICTED BY RF-SCORE:    0.00 PKD
ROOT
HETATM    1  C   UNL     1     -12.129  11.606  69.103  1.00  0.00    -0.251 C  
HETATM    2  O   UNL     1     -10.790  11.289  69.469  1.00  0.00    -0.226 OA 
ENDROOT
BRANCH   2   3
HETATM    3  C   UNL     1     -10.199  10.307  68.719  1.00  0.00    -0.192 A  
HETATM    4  C   UNL     1     -10.434   8.989  69.145  1.00  0.00    -0.239 A  
HETATM    5  C   UNL     1      -9.917   7.855  68.473  1.00  0.00    -0.187 A  
HETATM    6  C   UNL     1      -9.112   8.133  67.347  1.00  0.00    -0.134 A  
HETATM    7  C   UNL     1      -8.852   9.454  66.941  1.00  0.00    -0.141 A  
HETATM    8  S   UNL     1      -8.368   6.903  66.319  1.00  0.00    -0.132 SA 
HETATM    9  C   UNL     1      -8.833   5.393  67.123  1.00  0.00    -0.109 A  
HETATM   10  C   UNL     1      -9.386  10.538  67.623  1.00  0.00    -0.160 A  
HETATM   11  C   UNL     1      -9.636   5.335  68.283  1.00  0.00    -0.130 A  
HETATM   12  C   UNL     1      -9.890   4.025  68.764  1.00  0.00    -0.045 A  
HETATM   13  N   UNL     1     -10.168   6.513  68.907  1.00  0.00    -0.170 NA 
HETATM   14  C   UNL     1      -8.338   4.224  66.496  1.00  0.00    -0.101 A  
HETATM   15  C   UNL     1      -9.393   2.868  68.135  1.00  0.00    -0.258 A  
HETATM   16  C   UNL     1      -8.618   2.972  66.994  1.00  0.00    -0.120 A  
BRANCH  13  17
HETATM   17  C   UNL     1     -11.108   6.345  70.046  1.00  0.00    -0.379 C  
HETATM   18  C   UNL     1      -9.327   6.977  71.779  1.00  0.00    -0.144 C  
HETATM   19  C   UNL     1     -10.421   5.950  71.387  1.00  0.00    -0.291 C  
HETATM   20  C   UNL     1     -11.518   5.801  72.454  1.00  0.00    -0.343 C  
BRANCH  18  21
HETATM   21  N   UNL     1      -8.398   6.688  72.900  1.00  0.00    -0.118 NA 
HETATM   22  C   UNL     1      -7.727   5.393  72.757  1.00  0.00    -0.098 C  
HETATM   23  C   UNL     1      -7.372   7.749  72.907  1.00  0.00    -0.088 C  
ENDBRANCH  18  21
ENDBRANCH  13  17
ENDBRANCH   2   3
TORSDOF 3
ENDMDL
MODEL      136
REMARK 921   NORMALIZED FREE ENERGY PREDICTED BY IDOCK:   -3.58 KCAL/MOL
REMARK 922        TOTAL FREE ENERGY PREDICTED BY IDOCK:   -4.41 KCAL/MOL
REMARK 923 INTER-LIGAND FREE ENERGY PREDICTED BY IDOCK:   -4.27 KCAL/MOL
REMARK 924 INTRA-LIGAND FREE ENERGY PREDICTED BY IDOCK:   -0.14 KCAL/MOL
REMARK 927      BINDING AFFINITY PREDICTED BY RF-SCORE:    0.00 PKD
ROOT
HETATM    1  C   UNL     1     -11.825  16.058  68.169  1.00  0.00     0.071 C  
HETATM    2  O   UNL     1     -12.121  14.682  68.386  1.00  0.00    -0.284 OA 
ENDROOT
BRANCH   2   3
HETATM    3  C   UNL     1     -11.583  13.820  67.468  1.00  0.00    -0.354 A  
HETATM    4  C   UNL     1     -11.243  12.546  67.953  1.00  0.00    -0.312 A  
HETATM    5  C   UNL     1     -10.696  11.527  67.135  1.00  0.00    -0.254 A  
HETATM    6  C   UNL     1     -10.481  11.884  65.786  1.00  0.00    -0.256 A  
HETATM    7  C   UNL     1     -10.792  13.170  65.310  1.00  0.00    -0.314 A  
HETATM    8  S   UNL     1      -9.836  10.796  64.553  1.00  0.00    -0.337 SA 
HETATM    9  C   UNL     1      -9.505   9.318  65.475  1.00  0.00    -0.240 A  
HETATM   10  C   UNL     1     -11.335  14.137  66.144  1.00  0.00    -0.337 A  
HETATM   11  C   UNL     1      -9.771   9.176  66.854  1.00  0.00    -0.194 A  
HETATM   12  C   UNL     1      -9.431   7.910  67.397  1.00  0.00    -0.179 A  
HETATM   13  N   UNL     1     -10.362  10.227  67.633  1.00  0.00    -0.205 NA 
HETATM   14  C   UNL     1      -8.950   8.266  64.707  1.00  0.00     0.274 A  
HETATM   15  C   UNL     1      -8.879   6.869  66.626  1.00  0.00    -0.140 A  
HETATM   16  C   UNL     1      -8.644   7.050  65.276  1.00  0.00     0.001 A  
BRANCH  13  17
HETATM   17  C   UNL     1     -10.725   9.940  69.046  1.00  0.00    -0.222 C  
HETATM   18  C   UNL     1      -8.350  10.415  69.889  1.00  0.00     0.103 C  
HETATM   19  C   UNL     1      -9.541   9.422  69.916  1.00  0.00    -0.234 C  
HETATM   20  C   UNL     1     -10.076   9.159  71.333  1.00  0.00    -0.392 C  
BRANCH  18  21
HETATM   21  N   UNL     1      -7.040  10.028  70.467  1.00  0.00    -0.286 NA 
HETATM   22  C   UNL     1      -6.551   8.748  69.947  1.00  0.00    -0.041 C  
HETATM   23  C   UNL     1      -6.070  11.080  70.108  1.00  0.00    -0.138 C  
ENDBRANCH  18  21
ENDBRANCH  13  17
ENDBRANCH   2   3
TORSDOF 3
ENDMDL
MODEL      137
REMARK 921   NORMALIZED FREE ENERGY PREDICTED BY IDOCK:   -3.56 KCAL/MOL
REMARK 922        TOTAL FREE ENERGY PREDICTED BY IDOCK:   -4.39 KCAL/MOL
REMARK 923 INTER-LIGAND FREE ENERGY PREDICTED BY IDOCK:   -4.17 KCAL/MOL
REMARK 924 INTRA-LIGAND FREE ENERGY PREDICTED BY IDOCK:   -0.22 KCAL/MOL
REMARK 927      BINDING AFFINITY PREDICTED BY RF-SCORE:    0.00 PKD
ROOT
HETATM    1  C   UNL     1      -5.849  15.379  71.656  1.00  0.00     0.604 C  
HETATM    2  O   UNL     1      -5.139  16.547  72.057  1.00  0.00    -0.236 OA 
ENDROOT
BRANCH   2   3
HETATM    3  C   UNL     1      -5.237  17.610  71.200  1.00  0.00    -0.149 A  
HETATM    4  C   UNL     1      -5.366  17.288  69.839  1.00  0.00    -0.205 A  
HETATM    5  C   UNL     1      -5.500  18.264  68.822  1.00  0.00    -0.184 A  
HETATM    6  C   UNL     1      -5.465  19.605  69.261  1.00  0.00    -0.188 A  
HETATM    7  C   UNL     1      -5.304  19.927  70.621  1.00  0.00    -0.273 A  
HETATM    8  S   UNL     1      -5.635  21.011  68.204  1.00  0.00    -0.332 SA 
HETATM    9  C   UNL     1      -5.758  20.274  66.596  1.00  0.00    -0.173 A  
HETATM   10  C   UNL     1      -5.185  18.938  71.587  1.00  0.00    -0.285 A  
HETATM   11  C   UNL     1      -5.741  18.881  66.367  1.00  0.00    -0.157 A  
HETATM   12  C   UNL     1      -5.853  18.502  65.004  1.00  0.00    -0.252 A  
HETATM   13  N   UNL     1      -5.641  17.928  67.436  1.00  0.00    -0.132 NA 
HETATM   14  C   UNL     1      -5.888  21.205  65.538  1.00  0.00    -0.252 A  
HETATM   15  C   UNL     1      -5.980  19.435  63.958  1.00  0.00    -0.201 A  
HETATM   16  C   UNL     1      -6.003  20.791  64.230  1.00  0.00    -0.338 A  
BRANCH  13  17
HETATM   17  C   UNL     1      -5.762  16.484  67.109  1.00  0.00    -0.124 C  
HETATM   18  C   UNL     1      -8.307  16.490  67.420  1.00  0.00    -0.170 C  
HETATM   19  C   UNL     1      -6.977  15.777  67.778  1.00  0.00    -0.173 C  
HETATM   20  C   UNL     1      -6.954  14.298  67.358  1.00  0.00    -0.077 C  
BRANCH  18  21
HETATM   21  N   UNL     1      -9.564  16.124  68.117  1.00  0.00    -0.215 NA 
HETATM   22  C   UNL     1     -10.164  17.255  68.830  1.00  0.00    -0.353 C  
HETATM   23  C   UNL     1     -10.517  15.658  67.092  1.00  0.00    -0.303 C  
ENDBRANCH  18  21
ENDBRANCH  13  17
ENDBRANCH   2   3
TORSDOF 3
ENDMDL
MODEL      138
REMARK 921   NORMALIZED FREE ENERGY PREDICTED BY IDOCK:   -3.56 KCAL/MOL
REMARK 922        TOTAL FREE ENERGY PREDICTED BY IDOCK:   -4.39 KCAL/MOL
REMARK 923 INTER-LIGAND FREE ENERGY PREDICTED BY IDOCK:   -4.08 KCAL/MOL
REMARK 924 INTRA-LIGAND FREE ENERGY PREDICTED BY IDOCK:   -0.31 KCAL/MOL
REMARK 927      BINDING AFFINITY PREDICTED BY RF-SCORE:    0.00 PKD
ROOT
HETATM    1  C   UNL     1     -10.855   2.332  73.587  1.00  0.00    -0.181 C  
HETATM    2  O   UNL     1      -9.671   2.105  72.829  1.00  0.00    -0.084 OA 
ENDROOT
BRANCH   2   3
HETATM    3  C   UNL     1      -9.646   2.700  71.596  1.00  0.00    -0.148 A  
HETATM    4  C   UNL     1      -9.909   4.080  71.579  1.00  0.00    -0.251 A  
HETATM    5  C   UNL     1      -9.902   4.854  70.392  1.00  0.00    -0.232 A  
HETATM    6  C   UNL     1      -9.640   4.139  69.204  1.00  0.00    -0.172 A  
HETATM    7  C   UNL     1      -9.409   2.751  69.220  1.00  0.00    -0.193 A  
HETATM    8  S   UNL     1      -9.550   4.866  67.596  1.00  0.00    -0.160 SA 
HETATM    9  C   UNL     1      -9.936   6.566  67.917  1.00  0.00    -0.131 A  
HETATM   10  C   UNL     1      -9.416   2.031  70.406  1.00  0.00    -0.156 A  
HETATM   11  C   UNL     1     -10.202   7.081  69.204  1.00  0.00    -0.187 A  
HETATM   12  C   UNL     1     -10.489   8.470  69.239  1.00  0.00    -0.224 A  
HETATM   13  N   UNL     1     -10.160   6.263  70.383  1.00  0.00    -0.181 NA 
HETATM   14  C   UNL     1      -9.950   7.387  66.765  1.00  0.00    -0.300 A  
HETATM   15  C   UNL     1     -10.501   9.280  68.088  1.00  0.00    -0.263 A  
HETATM   16  C   UNL     1     -10.224   8.733  66.848  1.00  0.00    -0.357 A  
BRANCH  13  17
HETATM   17  C   UNL     1     -10.326   6.920  71.706  1.00  0.00    -0.198 C  
HETATM   18  C   UNL     1      -7.847   7.560  71.845  1.00  0.00    -0.090 C  
HETATM   19  C   UNL     1      -9.043   6.909  72.588  1.00  0.00    -0.150 C  
HETATM   20  C   UNL     1      -9.378   7.606  73.917  1.00  0.00    -0.270 C  
BRANCH  18  21
HETATM   21  N   UNL     1      -6.477   7.465  72.407  1.00  0.00    -0.051 NA 
HETATM   22  C   UNL     1      -5.545   6.779  71.507  1.00  0.00    -0.032 C  
HETATM   23  C   UNL     1      -5.991   8.842  72.622  1.00  0.00    -0.071 C  
ENDBRANCH  18  21
ENDBRANCH  13  17
ENDBRANCH   2   3
TORSDOF 3
ENDMDL
MODEL      139
REMARK 921   NORMALIZED FREE ENERGY PREDICTED BY IDOCK:   -3.52 KCAL/MOL
REMARK 922        TOTAL FREE ENERGY PREDICTED BY IDOCK:   -4.33 KCAL/MOL
REMARK 923 INTER-LIGAND FREE ENERGY PREDICTED BY IDOCK:   -4.05 KCAL/MOL
REMARK 924 INTRA-LIGAND FREE ENERGY PREDICTED BY IDOCK:   -0.28 KCAL/MOL
REMARK 927      BINDING AFFINITY PREDICTED BY RF-SCORE:    0.00 PKD
ROOT
HETATM    1  C   UNL     1      -7.083   6.707  72.970  1.00  0.00    -0.077 C  
HETATM    2  O   UNL     1      -5.925   7.396  72.509  1.00  0.00    -0.040 OA 
ENDROOT
BRANCH   2   3
HETATM    3  C   UNL     1      -6.170   8.446  71.665  1.00  0.00    -0.052 A  
HETATM    4  C   UNL     1      -7.115   8.209  70.654  1.00  0.00    -0.045 A  
HETATM    5  C   UNL     1      -7.502   9.192  69.710  1.00  0.00    -0.069 A  
HETATM    6  C   UNL     1      -6.847  10.437  69.829  1.00  0.00    -0.130 A  
HETATM    7  C   UNL     1      -5.877  10.662  70.822  1.00  0.00    -0.084 A  
HETATM    8  S   UNL     1      -7.161  11.837  68.798  1.00  0.00    -0.113 SA 
HETATM    9  C   UNL     1      -8.357  11.211  67.649  1.00  0.00    -0.122 A  
HETATM   10  C   UNL     1      -5.534   9.674  71.734  1.00  0.00    -0.062 A  
HETATM   11  C   UNL     1      -8.870   9.897  67.686  1.00  0.00    -0.125 A  
HETATM   12  C   UNL     1      -9.819   9.600  66.674  1.00  0.00    -0.285 A  
HETATM   13  N   UNL     1      -8.475   8.947  68.687  1.00  0.00    -0.127 NA 
HETATM   14  C   UNL     1      -8.776  12.150  66.676  1.00  0.00    -0.153 A  
HETATM   15  C   UNL     1     -10.230  10.540  65.710  1.00  0.00    -0.310 A  
HETATM   16  C   UNL     1      -9.708  11.821  65.718  1.00  0.00    -0.260 A  
BRANCH  13  17
HETATM   17  C   UNL     1      -9.164   7.631  68.724  1.00  0.00    -0.142 C  
HETATM   18  C   UNL     1     -11.106   8.540  70.130  1.00  0.00    -0.188 C  
HETATM   19  C   UNL     1     -10.052   7.411  69.984  1.00  0.00    -0.191 C  
HETATM   20  C   UNL     1     -10.679   6.011  69.883  1.00  0.00    -0.393 C  
BRANCH  18  21
HETATM   21  N   UNL     1     -11.913   8.653  71.370  1.00  0.00    -0.294 NA 
HETATM   22  C   UNL     1     -11.143   8.334  72.576  1.00  0.00    -0.368 C  
HETATM   23  C   UNL     1     -12.378  10.050  71.468  1.00  0.00    -0.419 C  
ENDBRANCH  18  21
ENDBRANCH  13  17
ENDBRANCH   2   3
TORSDOF 3
ENDMDL
MODEL      140
REMARK 921   NORMALIZED FREE ENERGY PREDICTED BY IDOCK:   -3.50 KCAL/MOL
REMARK 922        TOTAL FREE ENERGY PREDICTED BY IDOCK:   -4.31 KCAL/MOL
REMARK 923 INTER-LIGAND FREE ENERGY PREDICTED BY IDOCK:   -3.92 KCAL/MOL
REMARK 924 INTRA-LIGAND FREE ENERGY PREDICTED BY IDOCK:   -0.39 KCAL/MOL
REMARK 927      BINDING AFFINITY PREDICTED BY RF-SCORE:    0.00 PKD
ROOT
HETATM    1  C   UNL     1      -8.968   3.004  69.530  1.00  0.00    -0.111 C  
HETATM    2  O   UNL     1      -9.623   3.480  70.702  1.00  0.00    -0.169 OA 
ENDROOT
BRANCH   2   3
HETATM    3  C   UNL     1      -9.942   4.811  70.689  1.00  0.00    -0.230 A  
HETATM    4  C   UNL     1      -9.943   5.428  69.427  1.00  0.00    -0.280 A  
HETATM    5  C   UNL     1     -10.270   6.792  69.233  1.00  0.00    -0.181 A  
HETATM    6  C   UNL     1     -10.572   7.516  70.406  1.00  0.00    -0.229 A  
HETATM    7  C   UNL     1     -10.539   6.904  71.673  1.00  0.00    -0.231 A  
HETATM    8  S   UNL     1     -11.036   9.220  70.441  1.00  0.00    -0.270 SA 
HETATM    9  C   UNL     1     -10.924   9.687  68.735  1.00  0.00    -0.117 A  
HETATM   10  C   UNL     1     -10.222   5.562  71.819  1.00  0.00    -0.256 A  
HETATM   11  C   UNL     1     -10.566   8.797  67.698  1.00  0.00    -0.213 A  
HETATM   12  C   UNL     1     -10.537   9.375  66.403  1.00  0.00    -0.065 A  
HETATM   13  N   UNL     1     -10.280   7.412  67.941  1.00  0.00    -0.184 NA 
HETATM   14  C   UNL     1     -11.235  11.044  68.481  1.00  0.00    -0.329 A  
HETATM   15  C   UNL     1     -10.847  10.727  66.160  1.00  0.00    -0.124 A  
HETATM   16  C   UNL     1     -11.202  11.560  67.205  1.00  0.00    -0.365 A  
BRANCH  13  17
HETATM   17  C   UNL     1     -10.040   6.524  66.774  1.00  0.00    -0.176 C  
HETATM   18  C   UNL     1      -7.492   6.732  66.972  1.00  0.00    -0.087 C  
HETATM   19  C   UNL     1      -8.711   6.813  66.015  1.00  0.00    -0.155 C  
HETATM   20  C   UNL     1      -8.617   5.831  64.836  1.00  0.00    -0.065 C  
BRANCH  18  21
HETATM   21  N   UNL     1      -6.154   7.182  66.517  1.00  0.00    -0.038 NA 
HETATM   22  C   UNL     1      -5.741   8.444  67.139  1.00  0.00    -0.039 C  
HETATM   23  C   UNL     1      -5.184   6.135  66.894  1.00  0.00    -0.005 C  
ENDBRANCH  18  21
ENDBRANCH  13  17
ENDBRANCH   2   3
TORSDOF 3
ENDMDL
MODEL      141
REMARK 921   NORMALIZED FREE ENERGY PREDICTED BY IDOCK:   -3.48 KCAL/MOL
REMARK 922        TOTAL FREE ENERGY PREDICTED BY IDOCK:   -4.29 KCAL/MOL
REMARK 923 INTER-LIGAND FREE ENERGY PREDICTED BY IDOCK:   -4.44 KCAL/MOL
REMARK 924 INTRA-LIGAND FREE ENERGY PREDICTED BY IDOCK:    0.15 KCAL/MOL
REMARK 927      BINDING AFFINITY PREDICTED BY RF-SCORE:    0.00 PKD
ROOT
HETATM    1  C   UNL     1      -7.128   9.218  64.050  1.00  0.00    -0.098 C  
HETATM    2  O   UNL     1      -6.701   9.948  65.196  1.00  0.00    -0.095 OA 
ENDROOT
BRANCH   2   3
HETATM    3  C   UNL     1      -7.538   9.876  66.277  1.00  0.00    -0.102 A  
HETATM    4  C   UNL     1      -8.319  11.017  66.523  1.00  0.00    -0.163 A  
HETATM    5  C   UNL     1      -9.251  11.103  67.585  1.00  0.00    -0.151 A  
HETATM    6  C   UNL     1      -9.329   9.965  68.416  1.00  0.00    -0.133 A  
HETATM    7  C   UNL     1      -8.523   8.835  68.188  1.00  0.00    -0.130 A  
HETATM    8  S   UNL     1     -10.424   9.802  69.793  1.00  0.00    -0.269 SA 
HETATM    9  C   UNL     1     -11.230  11.380  69.835  1.00  0.00    -0.143 A  
HETATM   10  C   UNL     1      -7.628   8.788  67.128  1.00  0.00    -0.088 A  
HETATM   11  C   UNL     1     -10.980  12.416  68.909  1.00  0.00    -0.223 A  
HETATM   12  C   UNL     1     -11.733  13.599  69.123  1.00  0.00    -0.376 A  
HETATM   13  N   UNL     1     -10.052  12.267  67.824  1.00  0.00    -0.197 NA 
HETATM   14  C   UNL     1     -12.171  11.525  70.883  1.00  0.00    -0.425 A  
HETATM   15  C   UNL     1     -12.666  13.735  70.168  1.00  0.00    -0.151 A  
HETATM   16  C   UNL     1     -12.886  12.690  71.047  1.00  0.00    -0.254 A  
BRANCH  13  17
HETATM   17  C   UNL     1      -9.951  13.363  66.825  1.00  0.00    -0.264 C  
HETATM   18  C   UNL     1      -7.814  14.307  67.882  1.00  0.00    -0.152 C  
HETATM   19  C   UNL     1      -9.232  14.641  67.350  1.00  0.00    -0.201 C  
HETATM   20  C   UNL     1      -9.222  15.677  66.215  1.00  0.00    -0.365 C  
BRANCH  18  21
HETATM   21  N   UNL     1      -7.036  15.327  68.627  1.00  0.00    -0.107 NA 
HETATM   22  C   UNL     1      -7.700  16.634  68.655  1.00  0.00    -0.224 C  
HETATM   23  C   UNL     1      -6.891  14.846  70.014  1.00  0.00    -0.129 C  
ENDBRANCH  18  21
ENDBRANCH  13  17
ENDBRANCH   2   3
TORSDOF 3
ENDMDL
MODEL      142
REMARK 921   NORMALIZED FREE ENERGY PREDICTED BY IDOCK:   -3.48 KCAL/MOL
REMARK 922        TOTAL FREE ENERGY PREDICTED BY IDOCK:   -4.29 KCAL/MOL
REMARK 923 INTER-LIGAND FREE ENERGY PREDICTED BY IDOCK:   -4.48 KCAL/MOL
REMARK 924 INTRA-LIGAND FREE ENERGY PREDICTED BY IDOCK:    0.19 KCAL/MOL
REMARK 927      BINDING AFFINITY PREDICTED BY RF-SCORE:    0.00 PKD
ROOT
HETATM    1  C   UNL     1     -10.702  16.684  69.442  1.00  0.00    -0.331 C  
HETATM    2  O   UNL     1     -11.724  15.924  68.807  1.00  0.00    -0.387 OA 
ENDROOT
BRANCH   2   3
HETATM    3  C   UNL     1     -11.280  14.905  68.007  1.00  0.00    -0.308 A  
HETATM    4  C   UNL     1      -9.961  14.481  68.234  1.00  0.00    -0.229 A  
HETATM    5  C   UNL     1      -9.352  13.426  67.512  1.00  0.00    -0.218 A  
HETATM    6  C   UNL     1     -10.153  12.836  66.511  1.00  0.00    -0.258 A  
HETATM    7  C   UNL     1     -11.463  13.284  66.263  1.00  0.00    -0.358 A  
HETATM    8  S   UNL     1      -9.646  11.489  65.485  1.00  0.00    -0.212 SA 
HETATM    9  C   UNL     1      -7.973  11.216  66.004  1.00  0.00    -0.041 A  
HETATM   10  C   UNL     1     -12.026  14.315  67.001  1.00  0.00    -0.463 A  
HETATM   11  C   UNL     1      -7.336  11.954  67.025  1.00  0.00    -0.118 A  
HETATM   12  C   UNL     1      -5.994  11.574  67.284  1.00  0.00    -0.100 A  
HETATM   13  N   UNL     1      -8.009  12.991  67.756  1.00  0.00    -0.149 NA 
HETATM   14  C   UNL     1      -7.311  10.175  65.310  1.00  0.00    -0.141 A  
HETATM   15  C   UNL     1      -5.343  10.538  66.588  1.00  0.00    -0.048 A  
HETATM   16  C   UNL     1      -6.009   9.835  65.601  1.00  0.00    -0.065 A  
BRANCH  13  17
HETATM   17  C   UNL     1      -7.300  13.623  68.899  1.00  0.00    -0.060 C  
HETATM   18  C   UNL     1      -7.097  15.878  67.696  1.00  0.00    -0.161 C  
HETATM   19  C   UNL     1      -6.343  14.783  68.494  1.00  0.00    -0.086 C  
HETATM   20  C   UNL     1      -5.680  15.318  69.774  1.00  0.00    -0.119 C  
BRANCH  18  21
HETATM   21  N   UNL     1      -6.345  16.966  67.024  1.00  0.00    -0.177 NA 
HETATM   22  C   UNL     1      -7.115  17.608  65.955  1.00  0.00    -0.283 C  
HETATM   23  C   UNL     1      -6.029  17.981  68.048  1.00  0.00    -0.163 C  
ENDBRANCH  18  21
ENDBRANCH  13  17
ENDBRANCH   2   3
TORSDOF 3
ENDMDL
MODEL      143
REMARK 921   NORMALIZED FREE ENERGY PREDICTED BY IDOCK:   -3.47 KCAL/MOL
REMARK 922        TOTAL FREE ENERGY PREDICTED BY IDOCK:   -4.28 KCAL/MOL
REMARK 923 INTER-LIGAND FREE ENERGY PREDICTED BY IDOCK:   -4.22 KCAL/MOL
REMARK 924 INTRA-LIGAND FREE ENERGY PREDICTED BY IDOCK:   -0.05 KCAL/MOL
REMARK 927      BINDING AFFINITY PREDICTED BY RF-SCORE:    0.00 PKD
ROOT
HETATM    1  C   UNL     1      -5.797  17.345  68.858  1.00  0.00    -0.175 C  
HETATM    2  O   UNL     1      -5.217  16.107  68.460  1.00  0.00    -0.093 OA 
ENDROOT
BRANCH   2   3
HETATM    3  C   UNL     1      -6.112  15.124  68.130  1.00  0.00    -0.135 A  
HETATM    4  C   UNL     1      -7.215  15.535  67.363  1.00  0.00    -0.241 A  
HETATM    5  C   UNL     1      -8.222  14.645  66.918  1.00  0.00    -0.076 A  
HETATM    6  C   UNL     1      -8.067  13.303  67.324  1.00  0.00    -0.142 A  
HETATM    7  C   UNL     1      -6.980  12.899  68.120  1.00  0.00    -0.102 A  
HETATM    8  S   UNL     1      -9.166  11.990  66.886  1.00  0.00    -0.201 SA 
HETATM    9  C   UNL     1     -10.421  12.829  65.958  1.00  0.00    -0.274 A  
HETATM   10  C   UNL     1      -6.008  13.802  68.527  1.00  0.00    -0.093 A  
HETATM   11  C   UNL     1     -10.404  14.214  65.685  1.00  0.00    -0.333 A  
HETATM   12  C   UNL     1     -11.505  14.683  64.924  1.00  0.00    -0.401 A  
HETATM   13  N   UNL     1      -9.339  15.069  66.126  1.00  0.00    -0.302 NA 
HETATM   14  C   UNL     1     -11.460  11.988  65.492  1.00  0.00    -0.368 A  
HETATM   15  C   UNL     1     -12.535  13.840  64.465  1.00  0.00    -0.329 A  
HETATM   16  C   UNL     1     -12.506  12.486  64.748  1.00  0.00    -0.532 A  
BRANCH  13  17
HETATM   17  C   UNL     1      -9.341  16.487  65.681  1.00  0.00     0.092 C  
HETATM   18  C   UNL     1      -9.727  17.370  68.057  1.00  0.00    -0.281 C  
HETATM   19  C   UNL     1     -10.189  17.436  66.578  1.00  0.00    -0.329 C  
HETATM   20  C   UNL     1     -10.104  18.851  65.982  1.00  0.00    -0.372 C  
BRANCH  18  21
HETATM   21  N   UNL     1     -10.530  18.022  69.121  1.00  0.00    -0.111 NA 
HETATM   22  C   UNL     1     -10.727  17.158  70.288  1.00  0.00     0.565 C  
HETATM   23  C   UNL     1      -9.796  19.228  69.550  1.00  0.00     0.008 C  
ENDBRANCH  18  21
ENDBRANCH  13  17
ENDBRANCH   2   3
TORSDOF 3
ENDMDL
MODEL      144
REMARK 921   NORMALIZED FREE ENERGY PREDICTED BY IDOCK:   -3.45 KCAL/MOL
REMARK 922        TOTAL FREE ENERGY PREDICTED BY IDOCK:   -4.25 KCAL/MOL
REMARK 923 INTER-LIGAND FREE ENERGY PREDICTED BY IDOCK:   -3.92 KCAL/MOL
REMARK 924 INTRA-LIGAND FREE ENERGY PREDICTED BY IDOCK:   -0.33 KCAL/MOL
REMARK 927      BINDING AFFINITY PREDICTED BY RF-SCORE:    0.00 PKD
ROOT
HETATM    1  C   UNL     1      -6.931  14.744  69.488  1.00  0.00    -0.176 C  
HETATM    2  O   UNL     1      -6.797  13.779  68.449  1.00  0.00    -0.083 OA 
ENDROOT
BRANCH   2   3
HETATM    3  C   UNL     1      -6.894  12.474  68.851  1.00  0.00    -0.098 A  
HETATM    4  C   UNL     1      -7.968  11.747  68.310  1.00  0.00    -0.147 A  
HETATM    5  C   UNL     1      -8.203  10.381  68.603  1.00  0.00    -0.121 A  
HETATM    6  C   UNL     1      -7.297   9.792  69.511  1.00  0.00    -0.092 A  
HETATM    7  C   UNL     1      -6.242  10.530  70.076  1.00  0.00    -0.102 A  
HETATM    8  S   UNL     1      -7.350   8.102  70.024  1.00  0.00    -0.062 SA 
HETATM    9  C   UNL     1      -8.793   7.490  69.195  1.00  0.00    -0.136 A  
HETATM   10  C   UNL     1      -6.041  11.865  69.755  1.00  0.00    -0.141 A  
HETATM   11  C   UNL     1      -9.596   8.271  68.336  1.00  0.00    -0.144 A  
HETATM   12  C   UNL     1     -10.704   7.586  67.774  1.00  0.00    -0.233 A  
HETATM   13  N   UNL     1      -9.294   9.643  68.040  1.00  0.00    -0.132 NA 
HETATM   14  C   UNL     1      -9.081   6.129  69.457  1.00  0.00    -0.140 A  
HETATM   15  C   UNL     1     -10.984   6.233  68.040  1.00  0.00    -0.418 A  
HETATM   16  C   UNL     1     -10.163   5.503  68.881  1.00  0.00    -0.284 A  
BRANCH  13  17
HETATM   17  C   UNL     1     -10.121  10.345  67.024  1.00  0.00    -0.215 C  
HETATM   18  C   UNL     1      -8.969   9.150  65.069  1.00  0.00    -0.171 C  
HETATM   19  C   UNL     1      -9.423  10.518  65.642  1.00  0.00    -0.259 C  
HETATM   20  C   UNL     1     -10.392  11.269  64.714  1.00  0.00    -0.366 C  
BRANCH  18  21
HETATM   21  N   UNL     1      -8.095   9.094  63.872  1.00  0.00    -0.146 NA 
HETATM   22  C   UNL     1      -6.900   9.934  64.007  1.00  0.00    -0.126 C  
HETATM   23  C   UNL     1      -7.665   7.693  63.704  1.00  0.00    -0.123 C  
ENDBRANCH  18  21
ENDBRANCH  13  17
ENDBRANCH   2   3
TORSDOF 3
ENDMDL
MODEL      145
REMARK 921   NORMALIZED FREE ENERGY PREDICTED BY IDOCK:   -3.44 KCAL/MOL
REMARK 922        TOTAL FREE ENERGY PREDICTED BY IDOCK:   -4.24 KCAL/MOL
REMARK 923 INTER-LIGAND FREE ENERGY PREDICTED BY IDOCK:   -4.65 KCAL/MOL
REMARK 924 INTRA-LIGAND FREE ENERGY PREDICTED BY IDOCK:    0.42 KCAL/MOL
REMARK 927      BINDING AFFINITY PREDICTED BY RF-SCORE:    0.00 PKD
ROOT
HETATM    1  C   UNL     1     -12.034   6.599  71.702  1.00  0.00    -0.347 C  
HETATM    2  O   UNL     1     -12.089   7.071  70.360  1.00  0.00    -0.265 OA 
ENDROOT
BRANCH   2   3
HETATM    3  C   UNL     1     -10.895   7.505  69.847  1.00  0.00    -0.240 A  
HETATM    4  C   UNL     1     -10.791   8.888  69.628  1.00  0.00    -0.186 A  
HETATM    5  C   UNL     1      -9.621   9.506  69.123  1.00  0.00    -0.170 A  
HETATM    6  C   UNL     1      -8.557   8.629  68.819  1.00  0.00    -0.130 A  
HETATM    7  C   UNL     1      -8.675   7.240  69.008  1.00  0.00    -0.132 A  
HETATM    8  S   UNL     1      -6.983   9.141  68.201  1.00  0.00    -0.077 SA 
HETATM    9  C   UNL     1      -7.186  10.893  68.027  1.00  0.00    -0.086 A  
HETATM   10  C   UNL     1      -9.837   6.677  69.514  1.00  0.00    -0.162 A  
HETATM   11  C   UNL     1      -8.368  11.585  68.368  1.00  0.00    -0.154 A  
HETATM   12  C   UNL     1      -8.320  12.986  68.151  1.00  0.00    -0.164 A  
HETATM   13  N   UNL     1      -9.517  10.919  68.913  1.00  0.00    -0.189 NA 
HETATM   14  C   UNL     1      -6.047  11.564  67.519  1.00  0.00    -0.071 A  
HETATM   15  C   UNL     1      -7.183  13.645  67.644  1.00  0.00    -0.179 A  
HETATM   16  C   UNL     1      -6.043  12.927  67.333  1.00  0.00    -0.097 A  
BRANCH  13  17
HETATM   17  C   UNL     1     -10.667  11.746  69.362  1.00  0.00     0.003 C  
HETATM   18  C   UNL     1     -11.376  12.300  66.961  1.00  0.00    -0.334 C  
HETATM   19  C   UNL     1     -11.067  12.876  68.367  1.00  0.00    -0.293 C  
HETATM   20  C   UNL     1     -12.251  13.645  68.977  1.00  0.00    -0.245 C  
BRANCH  18  21
HETATM   21  N   UNL     1     -11.566  13.210  65.805  1.00  0.00    -0.333 NA 
HETATM   22  C   UNL     1     -10.317  13.478  65.087  1.00  0.00    -0.353 C  
HETATM   23  C   UNL     1     -12.508  12.554  64.877  1.00  0.00    -0.450 C  
ENDBRANCH  18  21
ENDBRANCH  13  17
ENDBRANCH   2   3
TORSDOF 3
ENDMDL
MODEL      146
REMARK 921   NORMALIZED FREE ENERGY PREDICTED BY IDOCK:   -3.40 KCAL/MOL
REMARK 922        TOTAL FREE ENERGY PREDICTED BY IDOCK:   -4.19 KCAL/MOL
REMARK 923 INTER-LIGAND FREE ENERGY PREDICTED BY IDOCK:   -3.80 KCAL/MOL
REMARK 924 INTRA-LIGAND FREE ENERGY PREDICTED BY IDOCK:   -0.39 KCAL/MOL
REMARK 927      BINDING AFFINITY PREDICTED BY RF-SCORE:    0.00 PKD
ROOT
HETATM    1  C   UNL     1     -10.045   7.097  73.786  1.00  0.00    -0.349 C  
HETATM    2  O   UNL     1     -10.972   7.862  73.024  1.00  0.00    -0.393 OA 
ENDROOT
BRANCH   2   3
HETATM    3  C   UNL     1     -10.812   7.787  71.667  1.00  0.00    -0.229 A  
HETATM    4  C   UNL     1     -10.451   6.526  71.163  1.00  0.00    -0.257 A  
HETATM    5  C   UNL     1     -10.267   6.268  69.783  1.00  0.00    -0.187 A  
HETATM    6  C   UNL     1     -10.440   7.380  68.931  1.00  0.00    -0.203 A  
HETATM    7  C   UNL     1     -10.769   8.649  69.439  1.00  0.00    -0.169 A  
HETATM    8  S   UNL     1     -10.292   7.325  67.171  1.00  0.00    -0.324 SA 
HETATM    9  C   UNL     1      -9.825   5.642  66.873  1.00  0.00    -0.159 A  
HETATM   10  C   UNL     1     -10.951   8.857  70.799  1.00  0.00    -0.305 A  
HETATM   11  C   UNL     1      -9.673   4.676  67.891  1.00  0.00    -0.143 A  
HETATM   12  C   UNL     1      -9.294   3.387  67.436  1.00  0.00    -0.243 A  
HETATM   13  N   UNL     1      -9.909   4.977  69.275  1.00  0.00    -0.179 NA 
HETATM   14  C   UNL     1      -9.620   5.327  65.508  1.00  0.00    -0.015 A  
HETATM   15  C   UNL     1      -9.091   3.083  66.077  1.00  0.00    -0.142 A  
HETATM   16  C   UNL     1      -9.261   4.059  65.111  1.00  0.00    -0.151 A  
BRANCH  13  17
HETATM   17  C   UNL     1      -9.851   3.865  70.260  1.00  0.00    -0.098 C  
HETATM   18  C   UNL     1      -7.458   4.450  70.974  1.00  0.00    -0.051 C  
HETATM   19  C   UNL     1      -8.416   3.318  70.519  1.00  0.00    -0.098 C  
HETATM   20  C   UNL     1      -8.524   2.173  71.540  1.00  0.00    -0.085 C  
BRANCH  18  21
HETATM   21  N   UNL     1      -5.999   4.202  71.068  1.00  0.00    -0.013 NA 
HETATM   22  C   UNL     1      -5.248   4.838  69.982  1.00  0.00     0.000 C  
HETATM   23  C   UNL     1      -5.536   4.767  72.350  1.00  0.00    -0.008 C  
ENDBRANCH  18  21
ENDBRANCH  13  17
ENDBRANCH   2   3
TORSDOF 3
ENDMDL
MODEL      147
REMARK 921   NORMALIZED FREE ENERGY PREDICTED BY IDOCK:   -3.37 KCAL/MOL
REMARK 922        TOTAL FREE ENERGY PREDICTED BY IDOCK:   -4.16 KCAL/MOL
REMARK 923 INTER-LIGAND FREE ENERGY PREDICTED BY IDOCK:   -3.80 KCAL/MOL
REMARK 924 INTRA-LIGAND FREE ENERGY PREDICTED BY IDOCK:   -0.36 KCAL/MOL
REMARK 927      BINDING AFFINITY PREDICTED BY RF-SCORE:    0.00 PKD
ROOT
HETATM    1  C   UNL     1     -10.396   4.112  64.920  1.00  0.00    -0.193 C  
HETATM    2  O   UNL     1     -10.701   4.724  66.169  1.00  0.00    -0.308 OA 
ENDROOT
BRANCH   2   3
HETATM    3  C   UNL     1      -9.728   4.611  67.125  1.00  0.00    -0.192 A  
HETATM    4  C   UNL     1     -10.063   5.102  68.398  1.00  0.00    -0.205 A  
HETATM    5  C   UNL     1      -9.182   5.044  69.506  1.00  0.00    -0.119 A  
HETATM    6  C   UNL     1      -7.915   4.481  69.243  1.00  0.00    -0.069 A  
HETATM    7  C   UNL     1      -7.570   4.019  67.960  1.00  0.00    -0.067 A  
HETATM    8  S   UNL     1      -6.643   4.268  70.451  1.00  0.00    -0.033 SA 
HETATM    9  C   UNL     1      -7.362   4.988  71.902  1.00  0.00    -0.084 A  
HETATM   10  C   UNL     1      -8.467   4.086  66.903  1.00  0.00    -0.101 A  
HETATM   11  C   UNL     1      -8.663   5.536  71.946  1.00  0.00    -0.135 A  
HETATM   12  C   UNL     1      -9.044   6.061  73.207  1.00  0.00    -0.129 A  
HETATM   13  N   UNL     1      -9.533   5.537  70.804  1.00  0.00    -0.162 NA 
HETATM   14  C   UNL     1      -6.523   4.964  73.042  1.00  0.00    -0.051 A  
HETATM   15  C   UNL     1      -8.202   6.033  74.335  1.00  0.00    -0.112 A  
HETATM   16  C   UNL     1      -6.939   5.477  74.249  1.00  0.00    -0.081 A  
BRANCH  13  17
HETATM   17  C   UNL     1     -10.928   6.018  70.980  1.00  0.00    -0.286 C  
HETATM   18  C   UNL     1     -10.396   8.327  70.000  1.00  0.00    -0.212 C  
HETATM   19  C   UNL     1     -11.053   7.558  71.176  1.00  0.00    -0.270 C  
HETATM   20  C   UNL     1     -12.542   7.893  71.358  1.00  0.00    -0.319 C  
BRANCH  18  21
HETATM   21  N   UNL     1     -10.204   9.796  70.080  1.00  0.00    -0.261 NA 
HETATM   22  C   UNL     1      -8.857  10.212  69.678  1.00  0.00    -0.164 C  
HETATM   23  C   UNL     1     -11.180  10.419  69.165  1.00  0.00    -0.246 C  
ENDBRANCH  18  21
ENDBRANCH  13  17
ENDBRANCH   2   3
TORSDOF 3
ENDMDL
MODEL      148
REMARK 921   NORMALIZED FREE ENERGY PREDICTED BY IDOCK:   -3.34 KCAL/MOL
REMARK 922        TOTAL FREE ENERGY PREDICTED BY IDOCK:   -4.12 KCAL/MOL
REMARK 923 INTER-LIGAND FREE ENERGY PREDICTED BY IDOCK:   -4.95 KCAL/MOL
REMARK 924 INTRA-LIGAND FREE ENERGY PREDICTED BY IDOCK:    0.82 KCAL/MOL
REMARK 927      BINDING AFFINITY PREDICTED BY RF-SCORE:    0.00 PKD
ROOT
HETATM    1  C   UNL     1     -10.381  19.940  68.911  1.00  0.00    -0.185 C  
HETATM    2  O   UNL     1      -9.457  18.938  68.502  1.00  0.00    -0.331 OA 
ENDROOT
BRANCH   2   3
HETATM    3  C   UNL     1      -9.888  18.129  67.485  1.00  0.00    -0.313 A  
HETATM    4  C   UNL     1      -9.630  16.757  67.644  1.00  0.00    -0.244 A  
HETATM    5  C   UNL     1     -10.027  15.781  66.698  1.00  0.00    -0.257 A  
HETATM    6  C   UNL     1     -10.680  16.280  65.551  1.00  0.00    -0.313 A  
HETATM    7  C   UNL     1     -10.908  17.657  65.378  1.00  0.00     0.104 A  
HETATM    8  S   UNL     1     -11.297  15.277  64.233  1.00  0.00     0.030 SA 
HETATM    9  C   UNL     1     -10.806  13.646  64.725  1.00  0.00    -0.394 A  
HETATM   10  C   UNL     1     -10.512  18.580  66.334  1.00  0.00    -0.443 A  
HETATM   11  C   UNL     1     -10.118  13.361  65.924  1.00  0.00    -0.293 A  
HETATM   12  C   UNL     1      -9.819  11.988  66.126  1.00  0.00    -0.255 A  
HETATM   13  N   UNL     1      -9.771  14.382  66.871  1.00  0.00    -0.253 NA 
HETATM   14  C   UNL     1     -11.171  12.628  63.812  1.00  0.00    -0.519 A  
HETATM   15  C   UNL     1     -10.186  10.982  65.212  1.00  0.00    -0.344 A  
HETATM   16  C   UNL     1     -10.869  11.307  64.054  1.00  0.00    -0.414 A  
BRANCH  13  17
HETATM   17  C   UNL     1      -9.163  13.971  68.163  1.00  0.00    -0.196 C  
HETATM   18  C   UNL     1      -7.140  15.516  67.855  1.00  0.00    -0.139 C  
HETATM   19  C   UNL     1      -7.609  14.079  68.201  1.00  0.00    -0.141 C  
HETATM   20  C   UNL     1      -7.136  13.607  69.586  1.00  0.00     0.243 C  
BRANCH  18  21
HETATM   21  N   UNL     1      -5.703  15.797  67.618  1.00  0.00    -0.198 NA 
HETATM   22  C   UNL     1      -5.490  16.829  66.600  1.00  0.00     0.016 C  
HETATM   23  C   UNL     1      -5.130  16.272  68.893  1.00  0.00    -0.105 C  
ENDBRANCH  18  21
ENDBRANCH  13  17
ENDBRANCH   2   3
TORSDOF 3
ENDMDL
MODEL      149
REMARK 921   NORMALIZED FREE ENERGY PREDICTED BY IDOCK:   -3.32 KCAL/MOL
REMARK 922        TOTAL FREE ENERGY PREDICTED BY IDOCK:   -4.11 KCAL/MOL
REMARK 923 INTER-LIGAND FREE ENERGY PREDICTED BY IDOCK:   -4.04 KCAL/MOL
REMARK 924 INTRA-LIGAND FREE ENERGY PREDICTED BY IDOCK:   -0.07 KCAL/MOL
REMARK 927      BINDING AFFINITY PREDICTED BY RF-SCORE:    0.00 PKD
ROOT
HETATM    1  C   UNL     1     -10.556  11.101  64.380  1.00  0.00    -0.343 C  
HETATM    2  O   UNL     1     -10.285  10.035  65.284  1.00  0.00    -0.296 OA 
ENDROOT
BRANCH   2   3
HETATM    3  C   UNL     1      -9.356  10.313  66.251  1.00  0.00    -0.167 A  
HETATM    4  C   UNL     1      -9.253   9.372  67.288  1.00  0.00    -0.151 A  
HETATM    5  C   UNL     1      -8.330   9.494  68.355  1.00  0.00    -0.118 A  
HETATM    6  C   UNL     1      -7.526  10.654  68.331  1.00  0.00    -0.093 A  
HETATM    7  C   UNL     1      -7.653  11.612  67.309  1.00  0.00    -0.147 A  
HETATM    8  S   UNL     1      -6.282  11.037  69.526  1.00  0.00    -0.100 SA 
HETATM    9  C   UNL     1      -6.420   9.692  70.673  1.00  0.00    -0.105 A  
HETATM   10  C   UNL     1      -8.565  11.449  66.275  1.00  0.00    -0.156 A  
HETATM   11  C   UNL     1      -7.331   8.624  70.526  1.00  0.00    -0.058 A  
HETATM   12  C   UNL     1      -7.278   7.652  71.557  1.00  0.00    -0.063 A  
HETATM   13  N   UNL     1      -8.222   8.525  69.404  1.00  0.00    -0.112 NA 
HETATM   14  C   UNL     1      -5.524   9.766  71.766  1.00  0.00    -0.041 A  
HETATM   15  C   UNL     1      -6.384   7.733  72.641  1.00  0.00    -0.063 A  
HETATM   16  C   UNL     1      -5.502   8.793  72.740  1.00  0.00    -0.069 A  
BRANCH  13  17
HETATM   17  C   UNL     1      -9.053   7.300  69.268  1.00  0.00    -0.138 C  
HETATM   18  C   UNL     1     -11.012   8.325  70.565  1.00  0.00    -0.242 C  
HETATM   19  C   UNL     1     -10.080   7.094  70.420  1.00  0.00    -0.199 C  
HETATM   20  C   UNL     1     -10.844   5.789  70.145  1.00  0.00    -0.383 C  
BRANCH  18  21
HETATM   21  N   UNL     1     -11.921   8.442  71.732  1.00  0.00    -0.304 NA 
HETATM   22  C   UNL     1     -13.200   7.758  71.521  1.00  0.00    -0.316 C  
HETATM   23  C   UNL     1     -11.242   7.819  72.885  1.00  0.00    -0.376 C  
ENDBRANCH  18  21
ENDBRANCH  13  17
ENDBRANCH   2   3
TORSDOF 3
ENDMDL
MODEL      150
REMARK 921   NORMALIZED FREE ENERGY PREDICTED BY IDOCK:   -3.32 KCAL/MOL
REMARK 922        TOTAL FREE ENERGY PREDICTED BY IDOCK:   -4.10 KCAL/MOL
REMARK 923 INTER-LIGAND FREE ENERGY PREDICTED BY IDOCK:   -3.80 KCAL/MOL
REMARK 924 INTRA-LIGAND FREE ENERGY PREDICTED BY IDOCK:   -0.30 KCAL/MOL
REMARK 927      BINDING AFFINITY PREDICTED BY RF-SCORE:    0.00 PKD
ROOT
HETATM    1  C   UNL     1      -8.418   7.854  74.405  1.00  0.00    -0.178 C  
HETATM    2  O   UNL     1      -7.169   7.239  74.106  1.00  0.00    -0.089 OA 
ENDROOT
BRANCH   2   3
HETATM    3  C   UNL     1      -7.014   6.841  72.805  1.00  0.00    -0.075 A  
HETATM    4  C   UNL     1      -8.195   6.739  72.052  1.00  0.00    -0.104 A  
HETATM    5  C   UNL     1      -8.212   6.362  70.687  1.00  0.00    -0.125 A  
HETATM    6  C   UNL     1      -6.953   6.060  70.126  1.00  0.00    -0.069 A  
HETATM    7  C   UNL     1      -5.774   6.131  70.890  1.00  0.00    -0.018 A  
HETATM    8  S   UNL     1      -6.692   5.589  68.443  1.00  0.00    -0.056 SA 
HETATM    9  C   UNL     1      -8.341   5.541  67.794  1.00  0.00    -0.099 A  
HETATM   10  C   UNL     1      -5.800   6.514  72.224  1.00  0.00    -0.038 A  
HETATM   11  C   UNL     1      -9.492   5.857  68.549  1.00  0.00    -0.121 A  
HETATM   12  C   UNL     1     -10.715   5.755  67.837  1.00  0.00    -0.295 A  
HETATM   13  N   UNL     1      -9.420   6.271  69.921  1.00  0.00    -0.149 NA 
HETATM   14  C   UNL     1      -8.420   5.164  66.432  1.00  0.00    -0.112 A  
HETATM   15  C   UNL     1     -10.785   5.378  66.483  1.00  0.00    -0.309 A  
HETATM   16  C   UNL     1      -9.630   5.087  65.780  1.00  0.00    -0.162 A  
BRANCH  13  17
HETATM   17  C   UNL     1     -10.671   6.708  70.595  1.00  0.00    -0.241 C  
HETATM   18  C   UNL     1     -10.643   9.001  69.448  1.00  0.00    -0.221 C  
HETATM   19  C   UNL     1     -10.783   8.248  70.797  1.00  0.00    -0.244 C  
HETATM   20  C   UNL     1     -12.113   8.535  71.513  1.00  0.00    -0.351 C  
BRANCH  18  21
HETATM   21  N   UNL     1     -10.502  10.477  69.427  1.00  0.00    -0.230 NA 
HETATM   22  C   UNL     1      -9.501  10.934  68.458  1.00  0.00    -0.185 C  
HETATM   23  C   UNL     1     -11.812  11.042  69.048  1.00  0.00    -0.329 C  
ENDBRANCH  18  21
ENDBRANCH  13  17
ENDBRANCH   2   3
TORSDOF 3
ENDMDL
MODEL      151
REMARK 921   NORMALIZED FREE ENERGY PREDICTED BY IDOCK:   -3.28 KCAL/MOL
REMARK 922        TOTAL FREE ENERGY PREDICTED BY IDOCK:   -4.05 KCAL/MOL
REMARK 923 INTER-LIGAND FREE ENERGY PREDICTED BY IDOCK:   -4.04 KCAL/MOL
REMARK 924 INTRA-LIGAND FREE ENERGY PREDICTED BY IDOCK:   -0.01 KCAL/MOL
REMARK 927      BINDING AFFINITY PREDICTED BY RF-SCORE:    0.00 PKD
ROOT
HETATM    1  C   UNL     1      -8.799   8.637  72.029  1.00  0.00    -0.194 C  
HETATM    2  O   UNL     1     -10.082   8.197  71.595  1.00  0.00    -0.179 OA 
ENDROOT
BRANCH   2   3
HETATM    3  C   UNL     1     -10.072   7.332  70.534  1.00  0.00    -0.191 A  
HETATM    4  C   UNL     1      -9.429   7.795  69.374  1.00  0.00    -0.156 A  
HETATM    5  C   UNL     1      -9.310   7.020  68.195  1.00  0.00    -0.125 A  
HETATM    6  C   UNL     1      -9.912   5.745  68.244  1.00  0.00    -0.149 A  
HETATM    7  C   UNL     1     -10.583   5.295  69.395  1.00  0.00    -0.215 A  
HETATM    8  S   UNL     1      -9.887   4.573  66.921  1.00  0.00    -0.200 SA 
HETATM    9  C   UNL     1      -9.037   5.455  65.639  1.00  0.00    -0.140 A  
HETATM   10  C   UNL     1     -10.670   6.083  70.534  1.00  0.00    -0.349 A  
HETATM   11  C   UNL     1      -8.530   6.764  65.788  1.00  0.00    -0.147 A  
HETATM   12  C   UNL     1      -7.883   7.285  64.638  1.00  0.00    -0.123 A  
HETATM   13  N   UNL     1      -8.643   7.495  67.019  1.00  0.00    -0.120 NA 
HETATM   14  C   UNL     1      -8.894   4.730  64.431  1.00  0.00    -0.142 A  
HETATM   15  C   UNL     1      -7.746   6.558  63.441  1.00  0.00    -0.106 A  
HETATM   16  C   UNL     1      -8.250   5.273  63.343  1.00  0.00    -0.117 A  
BRANCH  13  17
HETATM   17  C   UNL     1      -7.965   8.813  67.122  1.00  0.00    -0.096 C  
HETATM   18  C   UNL     1     -10.000  10.078  66.208  1.00  0.00    -0.245 C  
HETATM   19  C   UNL     1      -8.467   9.871  66.094  1.00  0.00    -0.130 C  
HETATM   20  C   UNL     1      -7.666  11.164  66.317  1.00  0.00    -0.097 C  
BRANCH  18  21
HETATM   21  N   UNL     1     -10.725  10.873  65.187  1.00  0.00    -0.197 NA 
HETATM   22  C   UNL     1     -10.803  12.296  65.532  1.00  0.00    -0.282 C  
HETATM   23  C   UNL     1      -9.986  10.740  63.917  1.00  0.00    -0.343 C  
ENDBRANCH  18  21
ENDBRANCH  13  17
ENDBRANCH   2   3
TORSDOF 3
ENDMDL
MODEL      152
REMARK 921   NORMALIZED FREE ENERGY PREDICTED BY IDOCK:   -3.22 KCAL/MOL
REMARK 922        TOTAL FREE ENERGY PREDICTED BY IDOCK:   -3.99 KCAL/MOL
REMARK 923 INTER-LIGAND FREE ENERGY PREDICTED BY IDOCK:   -3.88 KCAL/MOL
REMARK 924 INTRA-LIGAND FREE ENERGY PREDICTED BY IDOCK:   -0.11 KCAL/MOL
REMARK 927      BINDING AFFINITY PREDICTED BY RF-SCORE:    0.00 PKD
ROOT
HETATM    1  C   UNL     1     -11.595  11.582  70.200  1.00  0.00    -0.249 C  
HETATM    2  O   UNL     1     -11.683  11.636  68.780  1.00  0.00    -0.281 OA 
ENDROOT
BRANCH   2   3
HETATM    3  C   UNL     1     -10.991  10.658  68.116  1.00  0.00    -0.269 A  
HETATM    4  C   UNL     1     -10.104   9.900  68.898  1.00  0.00    -0.194 A  
HETATM    5  C   UNL     1      -9.328   8.837  68.376  1.00  0.00    -0.137 A  
HETATM    6  C   UNL     1      -9.478   8.600  66.993  1.00  0.00    -0.171 A  
HETATM    7  C   UNL     1     -10.342   9.381  66.205  1.00  0.00    -0.211 A  
HETATM    8  S   UNL     1      -8.646   7.322  66.099  1.00  0.00    -0.153 SA 
HETATM    9  C   UNL     1      -7.621   6.584  67.342  1.00  0.00    -0.100 A  
HETATM   10  C   UNL     1     -11.093  10.409  66.758  1.00  0.00    -0.023 A  
HETATM   11  C   UNL     1      -7.598   7.000  68.691  1.00  0.00    -0.108 A  
HETATM   12  C   UNL     1      -6.705   6.275  69.521  1.00  0.00    -0.056 A  
HETATM   13  N   UNL     1      -8.433   8.060  69.181  1.00  0.00    -0.135 NA 
HETATM   14  C   UNL     1      -6.816   5.517  66.875  1.00  0.00    -0.063 A  
HETATM   15  C   UNL     1      -5.908   5.216  69.048  1.00  0.00    -0.020 A  
HETATM   16  C   UNL     1      -5.970   4.835  67.720  1.00  0.00    -0.023 A  
BRANCH  13  17
HETATM   17  C   UNL     1      -8.435   8.340  70.641  1.00  0.00    -0.130 C  
HETATM   18  C   UNL     1      -9.941   6.331  71.159  1.00  0.00    -0.181 C  
HETATM   19  C   UNL     1      -9.712   7.848  71.384  1.00  0.00    -0.199 C  
HETATM   20  C   UNL     1      -9.570   8.223  72.868  1.00  0.00    -0.320 C  
BRANCH  18  21
HETATM   21  N   UNL     1     -11.209   5.694  71.590  1.00  0.00    -0.190 NA 
HETATM   22  C   UNL     1     -11.169   5.244  72.985  1.00  0.00    -0.324 C  
HETATM   23  C   UNL     1     -12.278   6.703  71.455  1.00  0.00    -0.340 C  
ENDBRANCH  18  21
ENDBRANCH  13  17
ENDBRANCH   2   3
TORSDOF 3
ENDMDL
MODEL      153
REMARK 921   NORMALIZED FREE ENERGY PREDICTED BY IDOCK:   -3.22 KCAL/MOL
REMARK 922        TOTAL FREE ENERGY PREDICTED BY IDOCK:   -3.98 KCAL/MOL
REMARK 923 INTER-LIGAND FREE ENERGY PREDICTED BY IDOCK:   -3.65 KCAL/MOL
REMARK 924 INTRA-LIGAND FREE ENERGY PREDICTED BY IDOCK:   -0.34 KCAL/MOL
REMARK 927      BINDING AFFINITY PREDICTED BY RF-SCORE:    0.00 PKD
ROOT
HETATM    1  C   UNL     1      -8.665   3.609  63.155  1.00  0.00    -0.095 C  
HETATM    2  O   UNL     1      -8.426   4.893  63.721  1.00  0.00    -0.125 OA 
ENDROOT
BRANCH   2   3
HETATM    3  C   UNL     1      -9.068   5.135  64.906  1.00  0.00    -0.035 A  
HETATM    4  C   UNL     1      -8.493   6.124  65.721  1.00  0.00    -0.147 A  
HETATM    5  C   UNL     1      -9.039   6.513  66.968  1.00  0.00    -0.128 A  
HETATM    6  C   UNL     1     -10.200   5.815  67.365  1.00  0.00    -0.200 A  
HETATM    7  C   UNL     1     -10.756   4.803  66.562  1.00  0.00     0.001 A  
HETATM    8  S   UNL     1     -11.092   6.122  68.859  1.00  0.00    -0.247 SA 
HETATM    9  C   UNL     1     -10.117   7.379  69.641  1.00  0.00    -0.186 A  
HETATM   10  C   UNL     1     -10.194   4.458  65.342  1.00  0.00    -0.247 A  
HETATM   11  C   UNL     1      -8.948   7.932  69.076  1.00  0.00    -0.145 A  
HETATM   12  C   UNL     1      -8.319   8.926  69.868  1.00  0.00    -0.128 A  
HETATM   13  N   UNL     1      -8.454   7.530  67.789  1.00  0.00    -0.118 NA 
HETATM   14  C   UNL     1     -10.614   7.803  70.897  1.00  0.00    -0.220 A  
HETATM   15  C   UNL     1      -8.819   9.342  71.117  1.00  0.00    -0.139 A  
HETATM   16  C   UNL     1      -9.975   8.779  71.627  1.00  0.00    -0.381 A  
BRANCH  13  17
HETATM   17  C   UNL     1      -7.290   8.260  67.220  1.00  0.00    -0.089 C  
HETATM   18  C   UNL     1      -8.752  10.179  66.352  1.00  0.00    -0.130 C  
HETATM   19  C   UNL     1      -7.638   9.160  65.998  1.00  0.00    -0.095 C  
HETATM   20  C   UNL     1      -6.339   9.829  65.519  1.00  0.00    -0.079 C  
BRANCH  18  21
HETATM   21  N   UNL     1      -9.391  10.989  65.286  1.00  0.00    -0.211 NA 
HETATM   22  C   UNL     1      -9.759  10.188  64.115  1.00  0.00    -0.233 C  
HETATM   23  C   UNL     1     -10.619  11.577  65.855  1.00  0.00    -0.268 C  
ENDBRANCH  18  21
ENDBRANCH  13  17
ENDBRANCH   2   3
TORSDOF 3
ENDMDL
MODEL      154
REMARK 921   NORMALIZED FREE ENERGY PREDICTED BY IDOCK:   -3.11 KCAL/MOL
REMARK 922        TOTAL FREE ENERGY PREDICTED BY IDOCK:   -3.86 KCAL/MOL
REMARK 923 INTER-LIGAND FREE ENERGY PREDICTED BY IDOCK:   -3.81 KCAL/MOL
REMARK 924 INTRA-LIGAND FREE ENERGY PREDICTED BY IDOCK:   -0.05 KCAL/MOL
REMARK 927      BINDING AFFINITY PREDICTED BY RF-SCORE:    0.00 PKD
ROOT
HETATM    1  C   UNL     1     -13.203  11.215  71.546  1.00  0.00    -0.279 C  
HETATM    2  O   UNL     1     -12.240  10.982  70.524  1.00  0.00    -0.320 OA 
ENDROOT
BRANCH   2   3
HETATM    3  C   UNL     1     -11.625   9.760  70.571  1.00  0.00    -0.292 A  
HETATM    4  C   UNL     1     -10.397   9.667  69.896  1.00  0.00    -0.282 A  
HETATM    5  C   UNL     1      -9.619   8.484  69.863  1.00  0.00    -0.171 A  
HETATM    6  C   UNL     1     -10.176   7.374  70.535  1.00  0.00    -0.193 A  
HETATM    7  C   UNL     1     -11.422   7.460  71.183  1.00  0.00    -0.303 A  
HETATM    8  S   UNL     1      -9.403   5.791  70.666  1.00  0.00    -0.161 SA 
HETATM    9  C   UNL     1      -7.921   6.004  69.717  1.00  0.00    -0.106 A  
HETATM   10  C   UNL     1     -12.147   8.642  71.199  1.00  0.00    -0.297 A  
HETATM   11  C   UNL     1      -7.558   7.214  69.087  1.00  0.00    -0.099 A  
HETATM   12  C   UNL     1      -6.330   7.169  68.378  1.00  0.00    -0.036 A  
HETATM   13  N   UNL     1      -8.362   8.400  69.182  1.00  0.00    -0.120 NA 
HETATM   14  C   UNL     1      -7.106   4.849  69.644  1.00  0.00    -0.055 A  
HETATM   15  C   UNL     1      -5.526   6.016  68.309  1.00  0.00    -0.004 A  
HETATM   16  C   UNL     1      -5.916   4.854  68.951  1.00  0.00    -0.025 A  
BRANCH  13  17
HETATM   17  C   UNL     1      -7.835   9.659  68.595  1.00  0.00    -0.081 C  
HETATM   18  C   UNL     1      -9.447   9.560  66.604  1.00  0.00    -0.170 C  
HETATM   19  C   UNL     1      -7.973   9.748  67.046  1.00  0.00    -0.105 C  
HETATM   20  C   UNL     1      -7.374  11.090  66.595  1.00  0.00    -0.143 C  
BRANCH  18  21
HETATM   21  N   UNL     1      -9.781   9.391  65.168  1.00  0.00    -0.151 NA 
HETATM   22  C   UNL     1     -10.000  10.670  64.485  1.00  0.00    -0.345 C  
HETATM   23  C   UNL     1      -8.641   8.707  64.527  1.00  0.00    -0.070 C  
ENDBRANCH  18  21
ENDBRANCH  13  17
ENDBRANCH   2   3
TORSDOF 3
ENDMDL
MODEL      155
REMARK 921   NORMALIZED FREE ENERGY PREDICTED BY IDOCK:   -3.11 KCAL/MOL
REMARK 922        TOTAL FREE ENERGY PREDICTED BY IDOCK:   -3.86 KCAL/MOL
REMARK 923 INTER-LIGAND FREE ENERGY PREDICTED BY IDOCK:   -3.82 KCAL/MOL
REMARK 924 INTRA-LIGAND FREE ENERGY PREDICTED BY IDOCK:   -0.04 KCAL/MOL
REMARK 927      BINDING AFFINITY PREDICTED BY RF-SCORE:    0.00 PKD
ROOT
HETATM    1  C   UNL     1     -10.232  14.145  65.852  1.00  0.00    -0.319 C  
HETATM    2  O   UNL     1     -11.414  13.719  66.522  1.00  0.00    -0.324 OA 
ENDROOT
BRANCH   2   3
HETATM    3  C   UNL     1     -11.226  12.755  67.475  1.00  0.00    -0.289 A  
HETATM    4  C   UNL     1     -10.013  12.051  67.402  1.00  0.00    -0.200 A  
HETATM    5  C   UNL     1      -9.650  11.037  68.322  1.00  0.00    -0.171 A  
HETATM    6  C   UNL     1     -10.610  10.749  69.316  1.00  0.00    -0.229 A  
HETATM    7  C   UNL     1     -11.838  11.433  69.368  1.00  0.00    -0.419 A  
HETATM    8  S   UNL     1     -10.397   9.550  70.596  1.00  0.00    -0.304 SA 
HETATM    9  C   UNL     1      -8.814   8.850  70.213  1.00  0.00    -0.175 A  
HETATM   10  C   UNL     1     -12.151  12.427  68.453  1.00  0.00    -0.114 A  
HETATM   11  C   UNL     1      -8.011   9.270  69.131  1.00  0.00    -0.097 A  
HETATM   12  C   UNL     1      -6.779   8.578  69.003  1.00  0.00    -0.052 A  
HETATM   13  N   UNL     1      -8.406  10.330  68.247  1.00  0.00    -0.114 NA 
HETATM   14  C   UNL     1      -8.402   7.825  71.098  1.00  0.00    -0.112 A  
HETATM   15  C   UNL     1      -6.377   7.559  69.887  1.00  0.00    -0.027 A  
HETATM   16  C   UNL     1      -7.192   7.188  70.940  1.00  0.00    -0.070 A  
BRANCH  13  17
HETATM   17  C   UNL     1      -7.439  10.789  67.217  1.00  0.00    -0.101 C  
HETATM   18  C   UNL     1      -8.338   9.156  65.457  1.00  0.00    -0.133 C  
HETATM   19  C   UNL     1      -7.070   9.706  66.160  1.00  0.00    -0.094 C  
HETATM   20  C   UNL     1      -6.058  10.324  65.182  1.00  0.00    -0.130 C  
BRANCH  18  21
HETATM   21  N   UNL     1      -8.247   7.968  64.573  1.00  0.00    -0.130 NA 
HETATM   22  C   UNL     1      -7.623   8.271  63.282  1.00  0.00    -0.130 C  
HETATM   23  C   UNL     1      -7.419   6.963  65.268  1.00  0.00    -0.089 C  
ENDBRANCH  18  21
ENDBRANCH  13  17
ENDBRANCH   2   3
TORSDOF 3
ENDMDL
MODEL      156
REMARK 921   NORMALIZED FREE ENERGY PREDICTED BY IDOCK:   -3.11 KCAL/MOL
REMARK 922        TOTAL FREE ENERGY PREDICTED BY IDOCK:   -3.85 KCAL/MOL
REMARK 923 INTER-LIGAND FREE ENERGY PREDICTED BY IDOCK:   -3.85 KCAL/MOL
REMARK 924 INTRA-LIGAND FREE ENERGY PREDICTED BY IDOCK:   -0.00 KCAL/MOL
REMARK 927      BINDING AFFINITY PREDICTED BY RF-SCORE:    0.00 PKD
ROOT
HETATM    1  C   UNL     1     -10.962  11.455  69.263  1.00  0.00    -0.229 C  
HETATM    2  O   UNL     1      -9.863  10.558  69.391  1.00  0.00    -0.221 OA 
ENDROOT
BRANCH   2   3
HETATM    3  C   UNL     1      -9.973   9.397  68.674  1.00  0.00    -0.173 A  
HETATM    4  C   UNL     1      -9.251   8.301  69.173  1.00  0.00    -0.151 A  
HETATM    5  C   UNL     1      -9.269   7.021  68.566  1.00  0.00    -0.137 A  
HETATM    6  C   UNL     1     -10.047   6.919  67.393  1.00  0.00    -0.183 A  
HETATM    7  C   UNL     1     -10.744   8.026  66.877  1.00  0.00    -0.201 A  
HETATM    8  S   UNL     1     -10.260   5.434  66.458  1.00  0.00    -0.254 SA 
HETATM    9  C   UNL     1      -9.230   4.280  67.324  1.00  0.00    -0.150 A  
HETATM   10  C   UNL     1     -10.706   9.261  67.508  1.00  0.00    -0.272 A  
HETATM   11  C   UNL     1      -8.496   4.600  68.486  1.00  0.00    -0.089 A  
HETATM   12  C   UNL     1      -7.735   3.529  69.023  1.00  0.00    -0.052 A  
HETATM   13  N   UNL     1      -8.539   5.904  69.087  1.00  0.00    -0.115 NA 
HETATM   14  C   UNL     1      -9.205   2.983  66.758  1.00  0.00    -0.164 A  
HETATM   15  C   UNL     1      -7.716   2.243  68.452  1.00  0.00    -0.054 A  
HETATM   16  C   UNL     1      -8.459   1.971  67.318  1.00  0.00    -0.099 A  
BRANCH  13  17
HETATM   17  C   UNL     1      -7.836   6.110  70.380  1.00  0.00    -0.106 C  
HETATM   18  C   UNL     1      -9.750   5.074  71.735  1.00  0.00    -0.163 C  
HETATM   19  C   UNL     1      -8.786   6.282  71.602  1.00  0.00    -0.138 C  
HETATM   20  C   UNL     1      -7.916   6.499  72.850  1.00  0.00    -0.105 C  
BRANCH  18  21
HETATM   21  N   UNL     1     -10.882   5.123  72.693  1.00  0.00    -0.238 NA 
HETATM   22  C   UNL     1     -10.440   5.100  74.090  1.00  0.00    -0.285 C  
HETATM   23  C   UNL     1     -11.608   6.386  72.454  1.00  0.00    -0.269 C  
ENDBRANCH  18  21
ENDBRANCH  13  17
ENDBRANCH   2   3
TORSDOF 3
ENDMDL
MODEL      157
REMARK 921   NORMALIZED FREE ENERGY PREDICTED BY IDOCK:   -3.07 KCAL/MOL
REMARK 922        TOTAL FREE ENERGY PREDICTED BY IDOCK:   -3.81 KCAL/MOL
REMARK 923 INTER-LIGAND FREE ENERGY PREDICTED BY IDOCK:   -3.51 KCAL/MOL
REMARK 924 INTRA-LIGAND FREE ENERGY PREDICTED BY IDOCK:   -0.29 KCAL/MOL
REMARK 927      BINDING AFFINITY PREDICTED BY RF-SCORE:    0.00 PKD
ROOT
HETATM    1  C   UNL     1      -7.300   7.939  74.053  1.00  0.00    -0.150 C  
HETATM    2  O   UNL     1      -6.792   6.626  74.265  1.00  0.00    -0.083 OA 
ENDROOT
BRANCH   2   3
HETATM    3  C   UNL     1      -7.140   5.706  73.313  1.00  0.00    -0.086 A  
HETATM    4  C   UNL     1      -7.585   6.232  72.089  1.00  0.00    -0.095 A  
HETATM    5  C   UNL     1      -7.963   5.422  70.990  1.00  0.00    -0.105 A  
HETATM    6  C   UNL     1      -7.896   4.030  71.213  1.00  0.00    -0.070 A  
HETATM    7  C   UNL     1      -7.482   3.505  72.450  1.00  0.00    -0.053 A  
HETATM    8  S   UNL     1      -8.288   2.802  70.004  1.00  0.00    -0.046 SA 
HETATM    9  C   UNL     1      -8.814   3.775  68.619  1.00  0.00    -0.111 A  
HETATM   10  C   UNL     1      -7.110   4.334  73.499  1.00  0.00    -0.069 A  
HETATM   11  C   UNL     1      -8.836   5.187  68.614  1.00  0.00    -0.096 A  
HETATM   12  C   UNL     1      -9.292   5.769  67.403  1.00  0.00    -0.112 A  
HETATM   13  N   UNL     1      -8.405   5.965  69.741  1.00  0.00    -0.122 NA 
HETATM   14  C   UNL     1      -9.211   3.017  67.492  1.00  0.00    -0.233 A  
HETATM   15  C   UNL     1      -9.686   5.007  66.287  1.00  0.00    -0.195 A  
HETATM   16  C   UNL     1      -9.639   3.625  66.334  1.00  0.00    -0.152 A  
BRANCH  13  17
HETATM   17  C   UNL     1      -8.341   7.443  69.595  1.00  0.00    -0.132 C  
HETATM   18  C   UNL     1     -10.563   7.792  70.826  1.00  0.00    -0.218 C  
HETATM   19  C   UNL     1      -9.732   8.142  69.564  1.00  0.00    -0.170 C  
HETATM   20  C   UNL     1      -9.499   9.652  69.396  1.00  0.00    -0.201 C  
BRANCH  18  21
HETATM   21  N   UNL     1     -11.996   8.169  70.906  1.00  0.00    -0.237 NA 
HETATM   22  C   UNL     1     -12.814   7.140  71.553  1.00  0.00    -0.391 C  
HETATM   23  C   UNL     1     -12.083   9.407  71.705  1.00  0.00    -0.388 C  
ENDBRANCH  18  21
ENDBRANCH  13  17
ENDBRANCH   2   3
TORSDOF 3
ENDMDL
MODEL      158
REMARK 921   NORMALIZED FREE ENERGY PREDICTED BY IDOCK:   -3.05 KCAL/MOL
REMARK 922        TOTAL FREE ENERGY PREDICTED BY IDOCK:   -3.79 KCAL/MOL
REMARK 923 INTER-LIGAND FREE ENERGY PREDICTED BY IDOCK:   -3.44 KCAL/MOL
REMARK 924 INTRA-LIGAND FREE ENERGY PREDICTED BY IDOCK:   -0.35 KCAL/MOL
REMARK 927      BINDING AFFINITY PREDICTED BY RF-SCORE:    0.00 PKD
ROOT
HETATM    1  C   UNL     1      -6.054   9.786  70.597  1.00  0.00    -0.088 C  
HETATM    2  O   UNL     1      -7.332   9.507  71.159  1.00  0.00    -0.318 OA 
ENDROOT
BRANCH   2   3
HETATM    3  C   UNL     1      -8.042   8.521  70.528  1.00  0.00    -0.112 A  
HETATM    4  C   UNL     1      -7.694   8.279  69.189  1.00  0.00    -0.097 A  
HETATM    5  C   UNL     1      -8.313   7.281  68.397  1.00  0.00    -0.125 A  
HETATM    6  C   UNL     1      -9.340   6.552  69.034  1.00  0.00    -0.128 A  
HETATM    7  C   UNL     1      -9.709   6.818  70.365  1.00  0.00    -0.183 A  
HETATM    8  S   UNL     1     -10.253   5.240  68.281  1.00  0.00    -0.099 SA 
HETATM    9  C   UNL     1      -9.596   5.205  66.635  1.00  0.00    -0.154 A  
HETATM   10  C   UNL     1      -9.070   7.799  71.110  1.00  0.00    -0.152 A  
HETATM   11  C   UNL     1      -8.569   6.060  66.181  1.00  0.00    -0.142 A  
HETATM   12  C   UNL     1      -8.190   5.867  64.828  1.00  0.00    -0.129 A  
HETATM   13  N   UNL     1      -7.945   7.032  67.035  1.00  0.00    -0.114 NA 
HETATM   14  C   UNL     1     -10.183   4.229  65.795  1.00  0.00    -0.207 A  
HETATM   15  C   UNL     1      -8.780   4.894  63.999  1.00  0.00    -0.119 A  
HETATM   16  C   UNL     1      -9.777   4.071  64.490  1.00  0.00    -0.182 A  
BRANCH  13  17
HETATM   17  C   UNL     1      -6.786   7.797  66.506  1.00  0.00    -0.066 C  
HETATM   18  C   UNL     1      -8.178   9.922  66.161  1.00  0.00    -0.118 C  
HETATM   19  C   UNL     1      -7.171   8.935  65.515  1.00  0.00    -0.084 C  
HETATM   20  C   UNL     1      -5.873   9.616  65.050  1.00  0.00    -0.070 C  
BRANCH  18  21
HETATM   21  N   UNL     1      -8.847  10.956  65.334  1.00  0.00    -0.194 NA 
HETATM   22  C   UNL     1      -9.866  10.393  64.443  1.00  0.00    -0.328 C  
HETATM   23  C   UNL     1      -9.503  11.903  66.256  1.00  0.00    -0.227 C  
ENDBRANCH  18  21
ENDBRANCH  13  17
ENDBRANCH   2   3
TORSDOF 3
ENDMDL
MODEL      159
REMARK 921   NORMALIZED FREE ENERGY PREDICTED BY IDOCK:   -3.03 KCAL/MOL
REMARK 922        TOTAL FREE ENERGY PREDICTED BY IDOCK:   -3.76 KCAL/MOL
REMARK 923 INTER-LIGAND FREE ENERGY PREDICTED BY IDOCK:   -3.46 KCAL/MOL
REMARK 924 INTRA-LIGAND FREE ENERGY PREDICTED BY IDOCK:   -0.30 KCAL/MOL
REMARK 927      BINDING AFFINITY PREDICTED BY RF-SCORE:    0.00 PKD
ROOT
HETATM    1  C   UNL     1      -7.753   8.314  74.429  1.00  0.00    -0.237 C  
HETATM    2  O   UNL     1      -6.451   7.919  74.009  1.00  0.00    -0.089 OA 
ENDROOT
BRANCH   2   3
HETATM    3  C   UNL     1      -6.365   7.484  72.714  1.00  0.00    -0.059 A  
HETATM    4  C   UNL     1      -7.588   7.309  72.045  1.00  0.00    -0.088 A  
HETATM    5  C   UNL     1      -7.679   6.886  70.697  1.00  0.00    -0.096 A  
HETATM    6  C   UNL     1      -6.447   6.617  70.062  1.00  0.00    -0.040 A  
HETATM    7  C   UNL     1      -5.225   6.762  70.743  1.00  0.00    -0.023 A  
HETATM    8  S   UNL     1      -6.278   6.101  68.381  1.00  0.00    -0.029 SA 
HETATM    9  C   UNL     1      -7.963   5.963  67.846  1.00  0.00    -0.105 A  
HETATM   10  C   UNL     1      -5.180   7.188  72.063  1.00  0.00    -0.036 A  
HETATM   11  C   UNL     1      -9.074   6.257  68.666  1.00  0.00    -0.126 A  
HETATM   12  C   UNL     1     -10.335   6.081  68.042  1.00  0.00    -0.250 A  
HETATM   13  N   UNL     1      -8.929   6.720  70.018  1.00  0.00    -0.141 NA 
HETATM   14  C   UNL     1      -8.115   5.537  66.505  1.00  0.00    -0.105 A  
HETATM   15  C   UNL     1     -10.478   5.656  66.708  1.00  0.00    -0.353 A  
HETATM   16  C   UNL     1      -9.360   5.389  65.938  1.00  0.00    -0.155 A  
BRANCH  13  17
HETATM   17  C   UNL     1     -10.151   7.127  70.760  1.00  0.00    -0.190 C  
HETATM   18  C   UNL     1     -10.111   5.031  72.237  1.00  0.00    -0.192 C  
HETATM   19  C   UNL     1     -10.980   5.936  71.325  1.00  0.00    -0.325 C  
HETATM   20  C   UNL     1     -12.208   6.515  72.046  1.00  0.00    -0.343 C  
BRANCH  18  21
HETATM   21  N   UNL     1     -10.631   3.724  72.708  1.00  0.00    -0.150 NA 
HETATM   22  C   UNL     1      -9.744   2.608  72.366  1.00  0.00    -0.136 C  
HETATM   23  C   UNL     1     -10.746   3.798  74.177  1.00  0.00    -0.192 C  
ENDBRANCH  18  21
ENDBRANCH  13  17
ENDBRANCH   2   3
TORSDOF 3
ENDMDL
MODEL      160
REMARK 921   NORMALIZED FREE ENERGY PREDICTED BY IDOCK:   -3.01 KCAL/MOL
REMARK 922        TOTAL FREE ENERGY PREDICTED BY IDOCK:   -3.74 KCAL/MOL
REMARK 923 INTER-LIGAND FREE ENERGY PREDICTED BY IDOCK:   -3.64 KCAL/MOL
REMARK 924 INTRA-LIGAND FREE ENERGY PREDICTED BY IDOCK:   -0.10 KCAL/MOL
REMARK 927      BINDING AFFINITY PREDICTED BY RF-SCORE:    0.00 PKD
ROOT
HETATM    1  C   UNL     1     -10.302   7.287  73.777  1.00  0.00    -0.313 C  
HETATM    2  O   UNL     1     -11.240   7.860  72.872  1.00  0.00    -0.398 OA 
ENDROOT
BRANCH   2   3
HETATM    3  C   UNL     1     -10.724   8.241  71.663  1.00  0.00    -0.256 A  
HETATM    4  C   UNL     1     -10.486   7.204  70.746  1.00  0.00    -0.227 A  
HETATM    5  C   UNL     1      -9.975   7.425  69.443  1.00  0.00    -0.176 A  
HETATM    6  C   UNL     1      -9.686   8.769  69.126  1.00  0.00    -0.175 A  
HETATM    7  C   UNL     1      -9.894   9.803  70.057  1.00  0.00    -0.295 A  
HETATM    8  S   UNL     1      -9.065   9.319  67.566  1.00  0.00    -0.120 SA 
HETATM    9  C   UNL     1      -8.866   7.802  66.671  1.00  0.00    -0.148 A  
HETATM   10  C   UNL     1     -10.406   9.544  71.320  1.00  0.00    -0.287 A  
HETATM   11  C   UNL     1      -9.194   6.532  67.195  1.00  0.00    -0.128 A  
HETATM   12  C   UNL     1      -8.957   5.447  66.312  1.00  0.00    -0.137 A  
HETATM   13  N   UNL     1      -9.745   6.363  68.509  1.00  0.00    -0.131 NA 
HETATM   14  C   UNL     1      -8.351   7.961  65.362  1.00  0.00    -0.146 A  
HETATM   15  C   UNL     1      -8.444   5.614  65.012  1.00  0.00    -0.135 A  
HETATM   16  C   UNL     1      -8.147   6.879  64.537  1.00  0.00    -0.069 A  
BRANCH  13  17
HETATM   17  C   UNL     1     -10.179   5.004  68.924  1.00  0.00    -0.114 C  
HETATM   18  C   UNL     1      -8.095   4.636  70.372  1.00  0.00    -0.071 C  
HETATM   19  C   UNL     1      -9.008   4.037  69.270  1.00  0.00    -0.170 C  
HETATM   20  C   UNL     1      -9.615   2.680  69.662  1.00  0.00    -0.055 C  
BRANCH  18  21
HETATM   21  N   UNL     1      -6.801   3.991  70.704  1.00  0.00    -0.032 NA 
HETATM   22  C   UNL     1      -6.930   2.977  71.754  1.00  0.00    -0.031 C  
HETATM   23  C   UNL     1      -6.308   3.335  69.477  1.00  0.00    -0.029 C  
ENDBRANCH  18  21
ENDBRANCH  13  17
ENDBRANCH   2   3
TORSDOF 3
ENDMDL
MODEL      161
REMARK 921   NORMALIZED FREE ENERGY PREDICTED BY IDOCK:   -2.97 KCAL/MOL
REMARK 922        TOTAL FREE ENERGY PREDICTED BY IDOCK:   -3.69 KCAL/MOL
REMARK 923 INTER-LIGAND FREE ENERGY PREDICTED BY IDOCK:   -3.79 KCAL/MOL
REMARK 924 INTRA-LIGAND FREE ENERGY PREDICTED BY IDOCK:    0.11 KCAL/MOL
REMARK 927      BINDING AFFINITY PREDICTED BY RF-SCORE:    0.00 PKD
ROOT
HETATM    1  C   UNL     1     -10.873   8.085  71.111  1.00  0.00    -0.238 C  
HETATM    2  O   UNL     1     -11.632   9.154  70.556  1.00  0.00    -0.263 OA 
ENDROOT
BRANCH   2   3
HETATM    3  C   UNL     1     -10.900  10.111  69.907  1.00  0.00    -0.299 A  
HETATM    4  C   UNL     1     -11.535  11.352  69.731  1.00  0.00    -0.376 A  
HETATM    5  C   UNL     1     -10.914  12.457  69.100  1.00  0.00    -0.152 A  
HETATM    6  C   UNL     1      -9.607  12.225  68.622  1.00  0.00    -0.043 A  
HETATM    7  C   UNL     1      -8.984  10.972  68.769  1.00  0.00    -0.153 A  
HETATM    8  S   UNL     1      -8.603  13.438  67.820  1.00  0.00    -0.209 SA 
HETATM    9  C   UNL     1      -9.680  14.844  67.745  1.00  0.00    -0.212 A  
HETATM   10  C   UNL     1      -9.625   9.917  69.403  1.00  0.00    -0.229 A  
HETATM   11  C   UNL     1     -10.991  14.858  68.268  1.00  0.00    -0.264 A  
HETATM   12  C   UNL     1     -11.683  16.086  68.103  1.00  0.00    -0.077 A  
HETATM   13  N   UNL     1     -11.564  13.723  68.934  1.00  0.00    -0.295 NA 
HETATM   14  C   UNL     1      -9.113  15.979  67.118  1.00  0.00    -0.224 A  
HETATM   15  C   UNL     1     -11.112  17.209  67.477  1.00  0.00     0.016 A  
HETATM   16  C   UNL     1      -9.819  17.153  66.988  1.00  0.00    -0.276 A  
BRANCH  13  17
HETATM   17  C   UNL     1     -12.901  13.874  69.565  1.00  0.00     0.557 C  
HETATM   18  C   UNL     1     -12.027  15.515  71.331  1.00  0.00    -0.394 C  
HETATM   19  C   UNL     1     -12.855  14.228  71.082  1.00  0.00    -0.429 C  
HETATM   20  C   UNL     1     -14.303  14.334  71.587  1.00  0.00    -0.458 C  
BRANCH  18  21
HETATM   21  N   UNL     1     -11.668  15.917  72.713  1.00  0.00    -0.437 NA 
HETATM   22  C   UNL     1     -12.680  16.781  73.330  1.00  0.00     0.249 C  
HETATM   23  C   UNL     1     -11.554  14.684  73.516  1.00  0.00     0.411 C  
ENDBRANCH  18  21
ENDBRANCH  13  17
ENDBRANCH   2   3
TORSDOF 3
ENDMDL
MODEL      162
REMARK 921   NORMALIZED FREE ENERGY PREDICTED BY IDOCK:   -2.96 KCAL/MOL
REMARK 922        TOTAL FREE ENERGY PREDICTED BY IDOCK:   -3.68 KCAL/MOL
REMARK 923 INTER-LIGAND FREE ENERGY PREDICTED BY IDOCK:   -3.30 KCAL/MOL
REMARK 924 INTRA-LIGAND FREE ENERGY PREDICTED BY IDOCK:   -0.37 KCAL/MOL
REMARK 927      BINDING AFFINITY PREDICTED BY RF-SCORE:    0.00 PKD
ROOT
HETATM    1  C   UNL     1      -8.000   5.815  73.219  1.00  0.00    -0.110 C  
HETATM    2  O   UNL     1      -7.171   5.864  72.063  1.00  0.00    -0.087 OA 
ENDROOT
BRANCH   2   3
HETATM    3  C   UNL     1      -7.172   7.059  71.396  1.00  0.00    -0.078 A  
HETATM    4  C   UNL     1      -8.027   7.138  70.284  1.00  0.00    -0.116 A  
HETATM    5  C   UNL     1      -8.166   8.306  69.496  1.00  0.00    -0.119 A  
HETATM    6  C   UNL     1      -7.358   9.398  69.883  1.00  0.00    -0.088 A  
HETATM    7  C   UNL     1      -6.479   9.307  70.978  1.00  0.00    -0.086 A  
HETATM    8  S   UNL     1      -7.357  10.975  69.088  1.00  0.00    -0.109 SA 
HETATM    9  C   UNL     1      -8.499  10.737  67.752  1.00  0.00    -0.120 A  
HETATM   10  C   UNL     1      -6.380   8.145  71.729  1.00  0.00    -0.047 A  
HETATM   11  C   UNL     1      -9.193   9.530  67.519  1.00  0.00    -0.126 A  
HETATM   12  C   UNL     1     -10.060   9.552  66.395  1.00  0.00    -0.328 A  
HETATM   13  N   UNL     1      -9.047   8.383  68.369  1.00  0.00    -0.136 NA 
HETATM   14  C   UNL     1      -8.673  11.873  66.926  1.00  0.00    -0.191 A  
HETATM   15  C   UNL     1     -10.227  10.686  65.578  1.00  0.00    -0.329 A  
HETATM   16  C   UNL     1      -9.533  11.851  65.851  1.00  0.00    -0.227 A  
BRANCH  13  17
HETATM   17  C   UNL     1      -9.916   7.203  68.120  1.00  0.00    -0.151 C  
HETATM   18  C   UNL     1      -8.143   6.038  66.680  1.00  0.00    -0.106 C  
HETATM   19  C   UNL     1      -9.629   6.472  66.775  1.00  0.00    -0.198 C  
HETATM   20  C   UNL     1     -10.611   5.295  66.658  1.00  0.00    -0.334 C  
BRANCH  18  21
HETATM   21  N   UNL     1      -7.596   5.520  65.402  1.00  0.00    -0.077 NA 
HETATM   22  C   UNL     1      -7.711   6.488  64.307  1.00  0.00    -0.105 C  
HETATM   23  C   UNL     1      -6.166   5.228  65.620  1.00  0.00    -0.034 C  
ENDBRANCH  18  21
ENDBRANCH  13  17
ENDBRANCH   2   3
TORSDOF 3
ENDMDL
MODEL      163
REMARK 921   NORMALIZED FREE ENERGY PREDICTED BY IDOCK:   -2.96 KCAL/MOL
REMARK 922        TOTAL FREE ENERGY PREDICTED BY IDOCK:   -3.67 KCAL/MOL
REMARK 923 INTER-LIGAND FREE ENERGY PREDICTED BY IDOCK:   -3.57 KCAL/MOL
REMARK 924 INTRA-LIGAND FREE ENERGY PREDICTED BY IDOCK:   -0.10 KCAL/MOL
REMARK 927      BINDING AFFINITY PREDICTED BY RF-SCORE:    0.00 PKD
ROOT
HETATM    1  C   UNL     1     -13.494  10.583  71.866  1.00  0.00    -0.256 C  
HETATM    2  O   UNL     1     -12.353  10.146  71.136  1.00  0.00    -0.322 OA 
ENDROOT
BRANCH   2   3
HETATM    3  C   UNL     1     -11.919   8.882  71.437  1.00  0.00    -0.311 A  
HETATM    4  C   UNL     1     -10.526   8.703  71.456  1.00  0.00    -0.344 A  
HETATM    5  C   UNL     1      -9.908   7.468  71.769  1.00  0.00    -0.164 A  
HETATM    6  C   UNL     1     -10.792   6.400  72.036  1.00  0.00    -0.239 A  
HETATM    7  C   UNL     1     -12.187   6.573  71.984  1.00  0.00    -0.343 A  
HETATM    8  S   UNL     1     -10.285   4.765  72.475  1.00  0.00    -0.195 SA 
HETATM    9  C   UNL     1      -8.517   4.873  72.393  1.00  0.00    -0.120 A  
HETATM   10  C   UNL     1     -12.751   7.804  71.682  1.00  0.00    -0.358 A  
HETATM   11  C   UNL     1      -7.816   6.055  72.070  1.00  0.00    -0.106 A  
HETATM   12  C   UNL     1      -6.403   5.924  72.061  1.00  0.00    -0.049 A  
HETATM   13  N   UNL     1      -8.487   7.295  71.797  1.00  0.00    -0.111 NA 
HETATM   14  C   UNL     1      -7.846   3.663  72.691  1.00  0.00    -0.072 A  
HETATM   15  C   UNL     1      -5.744   4.716  72.358  1.00  0.00    -0.012 A  
HETATM   16  C   UNL     1      -6.472   3.585  72.679  1.00  0.00    -0.014 A  
BRANCH  13  17
HETATM   17  C   UNL     1      -7.662   8.515  71.595  1.00  0.00    -0.117 C  
HETATM   18  C   UNL     1      -7.944   8.442  69.047  1.00  0.00    -0.111 C  
HETATM   19  C   UNL     1      -6.935   8.572  70.219  1.00  0.00    -0.040 C  
HETATM   20  C   UNL     1      -6.119   9.874  70.169  1.00  0.00    -0.063 C  
BRANCH  18  21
HETATM   21  N   UNL     1      -7.456   8.253  67.659  1.00  0.00    -0.093 NA 
HETATM   22  C   UNL     1      -7.245   9.523  66.958  1.00  0.00    -0.087 C  
HETATM   23  C   UNL     1      -6.166   7.541  67.737  1.00  0.00    -0.048 C  
ENDBRANCH  18  21
ENDBRANCH  13  17
ENDBRANCH   2   3
TORSDOF 3
ENDMDL
MODEL      164
REMARK 921   NORMALIZED FREE ENERGY PREDICTED BY IDOCK:   -2.84 KCAL/MOL
REMARK 922        TOTAL FREE ENERGY PREDICTED BY IDOCK:   -3.53 KCAL/MOL
REMARK 923 INTER-LIGAND FREE ENERGY PREDICTED BY IDOCK:   -3.71 KCAL/MOL
REMARK 924 INTRA-LIGAND FREE ENERGY PREDICTED BY IDOCK:    0.18 KCAL/MOL
REMARK 927      BINDING AFFINITY PREDICTED BY RF-SCORE:    0.00 PKD
ROOT
HETATM    1  C   UNL     1      -9.605   9.982  62.782  1.00  0.00    -0.074 C  
HETATM    2  O   UNL     1      -9.071  10.772  63.839  1.00  0.00    -0.190 OA 
ENDROOT
BRANCH   2   3
HETATM    3  C   UNL     1      -9.457  10.397  65.098  1.00  0.00    -0.249 A  
HETATM    4  C   UNL     1      -8.885   9.211  65.585  1.00  0.00    -0.222 A  
HETATM    5  C   UNL     1      -9.159   8.692  66.874  1.00  0.00    -0.144 A  
HETATM    6  C   UNL     1     -10.081   9.435  67.643  1.00  0.00    -0.211 A  
HETATM    7  C   UNL     1     -10.677  10.606  67.141  1.00  0.00    -0.327 A  
HETATM    8  S   UNL     1     -10.576   9.022  69.288  1.00  0.00    -0.181 SA 
HETATM    9  C   UNL     1      -9.709   7.505  69.585  1.00  0.00    -0.167 A  
HETATM   10  C   UNL     1     -10.374  11.085  65.875  1.00  0.00    -0.315 A  
HETATM   11  C   UNL     1      -8.839   6.901  68.651  1.00  0.00    -0.124 A  
HETATM   12  C   UNL     1      -8.246   5.689  69.089  1.00  0.00    -0.100 A  
HETATM   13  N   UNL     1      -8.564   7.486  67.369  1.00  0.00    -0.118 NA 
HETATM   14  C   UNL     1      -9.950   6.936  70.858  1.00  0.00    -0.200 A  
HETATM   15  C   UNL     1      -8.492   5.130  70.357  1.00  0.00    -0.112 A  
HETATM   16  C   UNL     1      -9.344   5.762  71.244  1.00  0.00    -0.166 A  
BRANCH  13  17
HETATM   17  C   UNL     1      -7.537   6.847  66.506  1.00  0.00    -0.089 C  
HETATM   18  C   UNL     1      -9.247   5.287  65.402  1.00  0.00    -0.080 C  
HETATM   19  C   UNL     1      -7.866   5.379  66.103  1.00  0.00    -0.103 C  
HETATM   20  C   UNL     1      -6.712   4.857  65.232  1.00  0.00    -0.052 C  
BRANCH  18  21
HETATM   21  N   UNL     1      -9.860   3.965  65.128  1.00  0.00    -0.188 NA 
HETATM   22  C   UNL     1      -9.901   3.648  63.697  1.00  0.00    -0.166 C  
HETATM   23  C   UNL     1      -9.037   2.947  65.809  1.00  0.00    -0.137 C  
ENDBRANCH  18  21
ENDBRANCH  13  17
ENDBRANCH   2   3
TORSDOF 3
ENDMDL
MODEL      165
REMARK 921   NORMALIZED FREE ENERGY PREDICTED BY IDOCK:   -2.82 KCAL/MOL
REMARK 922        TOTAL FREE ENERGY PREDICTED BY IDOCK:   -3.51 KCAL/MOL
REMARK 923 INTER-LIGAND FREE ENERGY PREDICTED BY IDOCK:   -3.18 KCAL/MOL
REMARK 924 INTRA-LIGAND FREE ENERGY PREDICTED BY IDOCK:   -0.33 KCAL/MOL
REMARK 927      BINDING AFFINITY PREDICTED BY RF-SCORE:    0.00 PKD
ROOT
HETATM    1  C   UNL     1      -9.975  12.414  67.364  1.00  0.00    -0.202 C  
HETATM    2  O   UNL     1      -8.860  11.642  66.931  1.00  0.00    -0.176 OA 
ENDROOT
BRANCH   2   3
HETATM    3  C   UNL     1      -9.052  10.286  66.940  1.00  0.00    -0.143 A  
HETATM    4  C   UNL     1      -8.162   9.548  67.737  1.00  0.00    -0.114 A  
HETATM    5  C   UNL     1      -8.233   8.140  67.876  1.00  0.00    -0.129 A  
HETATM    6  C   UNL     1      -9.250   7.509  67.129  1.00  0.00    -0.136 A  
HETATM    7  C   UNL     1     -10.120   8.246  66.306  1.00  0.00    -0.101 A  
HETATM    8  S   UNL     1      -9.571   5.771  67.142  1.00  0.00    -0.135 SA 
HETATM    9  C   UNL     1      -8.294   5.149  68.203  1.00  0.00    -0.097 A  
HETATM   10  C   UNL     1     -10.022   9.626  66.205  1.00  0.00    -0.346 A  
HETATM   11  C   UNL     1      -7.336   5.966  68.842  1.00  0.00    -0.084 A  
HETATM   12  C   UNL     1      -6.403   5.266  69.649  1.00  0.00    -0.030 A  
HETATM   13  N   UNL     1      -7.329   7.395  68.700  1.00  0.00    -0.093 NA 
HETATM   14  C   UNL     1      -8.313   3.744  68.374  1.00  0.00    -0.098 A  
HETATM   15  C   UNL     1      -6.428   3.868  69.812  1.00  0.00    -0.033 A  
HETATM   16  C   UNL     1      -7.391   3.109  69.175  1.00  0.00    -0.048 A  
BRANCH  13  17
HETATM   17  C   UNL     1      -6.364   8.180  69.512  1.00  0.00    -0.034 C  
HETATM   18  C   UNL     1      -7.847   8.088  71.602  1.00  0.00    -0.103 C  
HETATM   19  C   UNL     1      -7.019   9.002  70.662  1.00  0.00    -0.076 C  
HETATM   20  C   UNL     1      -5.902   9.765  71.393  1.00  0.00    -0.024 C  
BRANCH  18  21
HETATM   21  N   UNL     1      -8.731   8.682  72.635  1.00  0.00    -0.408 NA 
HETATM   22  C   UNL     1     -10.139   8.698  72.230  1.00  0.00    -0.292 C  
HETATM   23  C   UNL     1      -8.604   7.857  73.852  1.00  0.00    -0.274 C  
ENDBRANCH  18  21
ENDBRANCH  13  17
ENDBRANCH   2   3
TORSDOF 3
ENDMDL
MODEL      166
REMARK 921   NORMALIZED FREE ENERGY PREDICTED BY IDOCK:   -2.79 KCAL/MOL
REMARK 922        TOTAL FREE ENERGY PREDICTED BY IDOCK:   -3.48 KCAL/MOL
REMARK 923 INTER-LIGAND FREE ENERGY PREDICTED BY IDOCK:   -3.14 KCAL/MOL
REMARK 924 INTRA-LIGAND FREE ENERGY PREDICTED BY IDOCK:   -0.34 KCAL/MOL
REMARK 927      BINDING AFFINITY PREDICTED BY RF-SCORE:    0.00 PKD
ROOT
HETATM    1  C   UNL     1      -5.770  10.500  66.528  1.00  0.00    -0.069 C  
HETATM    2  O   UNL     1      -6.003  11.166  67.765  1.00  0.00    -0.046 OA 
ENDROOT
BRANCH   2   3
HETATM    3  C   UNL     1      -7.218  10.910  68.343  1.00  0.00    -0.087 A  
HETATM    4  C   UNL     1      -7.390   9.614  68.855  1.00  0.00    -0.073 A  
HETATM    5  C   UNL     1      -8.576   9.189  69.504  1.00  0.00    -0.138 A  
HETATM    6  C   UNL     1      -9.603  10.154  69.579  1.00  0.00    -0.221 A  
HETATM    7  C   UNL     1      -9.441  11.441  69.037  1.00  0.00     0.020 A  
HETATM    8  S   UNL     1     -11.169   9.891  70.356  1.00  0.00    -0.334 SA 
HETATM    9  C   UNL     1     -11.069   8.197  70.867  1.00  0.00    -0.258 A  
HETATM   10  C   UNL     1      -8.259  11.820  68.418  1.00  0.00    -0.154 A  
HETATM   11  C   UNL     1      -9.935   7.380  70.663  1.00  0.00    -0.186 A  
HETATM   12  C   UNL     1     -10.064   6.054  71.150  1.00  0.00    -0.241 A  
HETATM   13  N   UNL     1      -8.741   7.868  70.034  1.00  0.00    -0.139 NA 
HETATM   14  C   UNL     1     -12.230   7.715  71.516  1.00  0.00    -0.351 A  
HETATM   15  C   UNL     1     -11.223   5.583  71.794  1.00  0.00    -0.165 A  
HETATM   16  C   UNL     1     -12.307   6.422  71.981  1.00  0.00    -0.268 A  
BRANCH  13  17
HETATM   17  C   UNL     1      -7.555   6.975  69.980  1.00  0.00    -0.099 C  
HETATM   18  C   UNL     1      -7.906   6.439  67.497  1.00  0.00    -0.105 C  
HETATM   19  C   UNL     1      -7.652   5.849  68.908  1.00  0.00    -0.090 C  
HETATM   20  C   UNL     1      -6.367   5.009  68.988  1.00  0.00    -0.031 C  
BRANCH  18  21
HETATM   21  N   UNL     1      -8.249   5.546  66.363  1.00  0.00    -0.105 NA 
HETATM   22  C   UNL     1      -9.505   5.922  65.708  1.00  0.00     0.065 C  
HETATM   23  C   UNL     1      -7.157   5.649  65.375  1.00  0.00    -0.066 C  
ENDBRANCH  18  21
ENDBRANCH  13  17
ENDBRANCH   2   3
TORSDOF 3
ENDMDL
MODEL      167
REMARK 921   NORMALIZED FREE ENERGY PREDICTED BY IDOCK:   -2.79 KCAL/MOL
REMARK 922        TOTAL FREE ENERGY PREDICTED BY IDOCK:   -3.48 KCAL/MOL
REMARK 923 INTER-LIGAND FREE ENERGY PREDICTED BY IDOCK:   -3.42 KCAL/MOL
REMARK 924 INTRA-LIGAND FREE ENERGY PREDICTED BY IDOCK:   -0.06 KCAL/MOL
REMARK 927      BINDING AFFINITY PREDICTED BY RF-SCORE:    0.00 PKD
ROOT
HETATM    1  C   UNL     1      -9.706  10.112  62.813  1.00  0.00    -0.039 C  
HETATM    2  O   UNL     1      -8.684   9.315  63.402  1.00  0.00    -0.217 OA 
ENDROOT
BRANCH   2   3
HETATM    3  C   UNL     1      -7.861   9.976  64.274  1.00  0.00    -0.144 A  
HETATM    4  C   UNL     1      -8.498  10.846  65.175  1.00  0.00    -0.038 A  
HETATM    5  C   UNL     1      -7.799  11.590  66.156  1.00  0.00     0.125 A  
HETATM    6  C   UNL     1      -6.397  11.426  66.157  1.00  0.00     0.090 A  
HETATM    7  C   UNL     1      -5.759  10.579  65.233  1.00  0.00    -0.141 A  
HETATM    8  S   UNL     1      -5.296  12.217  67.290  1.00  0.00    -0.091 SA 
HETATM    9  C   UNL     1      -6.389  13.229  68.250  1.00  0.00    -0.099 A  
HETATM   10  C   UNL     1      -6.482   9.860  64.293  1.00  0.00    -0.126 A  
HETATM   11  C   UNL     1      -7.788  13.271  68.064  1.00  0.00    -0.148 A  
HETATM   12  C   UNL     1      -8.478  14.148  68.940  1.00  0.00     0.002 A  
HETATM   13  N   UNL     1      -8.456  12.468  67.079  1.00  0.00    -0.180 NA 
HETATM   14  C   UNL     1      -5.744  14.002  69.245  1.00  0.00    -0.084 A  
HETATM   15  C   UNL     1      -7.828  14.914  69.926  1.00  0.00     0.164 A  
HETATM   16  C   UNL     1      -6.456  14.833  70.080  1.00  0.00    -0.169 A  
BRANCH  13  17
HETATM   17  C   UNL     1      -9.941  12.482  67.044  1.00  0.00    -0.214 C  
HETATM   18  C   UNL     1     -10.013  14.389  65.332  1.00  0.00    -0.311 C  
HETATM   19  C   UNL     1     -10.558  13.867  66.687  1.00  0.00    -0.274 C  
HETATM   20  C   UNL     1     -12.088  13.722  66.706  1.00  0.00    -0.460 C  
BRANCH  18  21
HETATM   21  N   UNL     1     -10.295  15.780  64.899  1.00  0.00    -0.479 NA 
HETATM   22  C   UNL     1     -11.647  15.939  64.356  1.00  0.00    -0.234 C  
HETATM   23  C   UNL     1     -10.163  16.647  66.086  1.00  0.00    -0.348 C  
ENDBRANCH  18  21
ENDBRANCH  13  17
ENDBRANCH   2   3
TORSDOF 3
ENDMDL
MODEL      168
REMARK 921   NORMALIZED FREE ENERGY PREDICTED BY IDOCK:   -2.72 KCAL/MOL
REMARK 922        TOTAL FREE ENERGY PREDICTED BY IDOCK:   -3.39 KCAL/MOL
REMARK 923 INTER-LIGAND FREE ENERGY PREDICTED BY IDOCK:   -3.00 KCAL/MOL
REMARK 924 INTRA-LIGAND FREE ENERGY PREDICTED BY IDOCK:   -0.39 KCAL/MOL
REMARK 927      BINDING AFFINITY PREDICTED BY RF-SCORE:    0.00 PKD
ROOT
HETATM    1  C   UNL     1     -10.544   3.355  62.780  1.00  0.00    -0.200 C  
HETATM    2  O   UNL     1     -10.958   3.940  64.010  1.00  0.00    -0.267 OA 
ENDROOT
BRANCH   2   3
HETATM    3  C   UNL     1     -10.033   3.888  65.019  1.00  0.00    -0.184 A  
HETATM    4  C   UNL     1     -10.021   4.987  65.893  1.00  0.00    -0.189 A  
HETATM    5  C   UNL     1      -9.144   5.084  67.001  1.00  0.00    -0.117 A  
HETATM    6  C   UNL     1      -8.246   4.007  67.160  1.00  0.00    -0.099 A  
HETATM    7  C   UNL     1      -8.238   2.922  66.264  1.00  0.00    -0.088 A  
HETATM    8  S   UNL     1      -7.068   3.868  68.469  1.00  0.00    -0.051 SA 
HETATM    9  C   UNL     1      -7.296   5.385  69.358  1.00  0.00    -0.065 A  
HETATM   10  C   UNL     1      -9.121   2.862  65.195  1.00  0.00    -0.148 A  
HETATM   11  C   UNL     1      -8.250   6.365  69.007  1.00  0.00    -0.115 A  
HETATM   12  C   UNL     1      -8.268   7.505  69.852  1.00  0.00    -0.131 A  
HETATM   13  N   UNL     1      -9.144   6.203  67.896  1.00  0.00    -0.118 NA 
HETATM   14  C   UNL     1      -6.440   5.540  70.474  1.00  0.00    -0.035 A  
HETATM   15  C   UNL     1      -7.412   7.651  70.960  1.00  0.00    -0.075 A  
HETATM   16  C   UNL     1      -6.500   6.660  71.272  1.00  0.00    -0.049 A  
BRANCH  13  17
HETATM   17  C   UNL     1     -10.199   7.228  67.683  1.00  0.00    -0.200 C  
HETATM   18  C   UNL     1      -8.842   8.439  65.876  1.00  0.00    -0.175 C  
HETATM   19  C   UNL     1      -9.663   8.601  67.182  1.00  0.00    -0.248 C  
HETATM   20  C   UNL     1     -10.864   9.549  67.026  1.00  0.00    -0.125 C  
BRANCH  18  21
HETATM   21  N   UNL     1      -8.058   9.578  65.340  1.00  0.00    -0.121 NA 
HETATM   22  C   UNL     1      -7.308  10.286  66.381  1.00  0.00    -0.114 C  
HETATM   23  C   UNL     1      -7.097   9.032  64.362  1.00  0.00    -0.090 C  
ENDBRANCH  18  21
ENDBRANCH  13  17
ENDBRANCH   2   3
TORSDOF 3
ENDMDL
MODEL      169
REMARK 921   NORMALIZED FREE ENERGY PREDICTED BY IDOCK:   -2.71 KCAL/MOL
REMARK 922        TOTAL FREE ENERGY PREDICTED BY IDOCK:   -3.38 KCAL/MOL
REMARK 923 INTER-LIGAND FREE ENERGY PREDICTED BY IDOCK:   -4.55 KCAL/MOL
REMARK 924 INTRA-LIGAND FREE ENERGY PREDICTED BY IDOCK:    1.16 KCAL/MOL
REMARK 927      BINDING AFFINITY PREDICTED BY RF-SCORE:    0.00 PKD
ROOT
HETATM    1  C   UNL     1      -9.986  15.591  67.478  1.00  0.00    -0.230 C  
HETATM    2  O   UNL     1      -9.861  14.452  68.323  1.00  0.00    -0.216 OA 
ENDROOT
BRANCH   2   3
HETATM    3  C   UNL     1      -9.612  13.272  67.674  1.00  0.00    -0.213 A  
HETATM    4  C   UNL     1     -10.086  12.113  68.312  1.00  0.00    -0.210 A  
HETATM    5  C   UNL     1      -9.933  10.814  67.769  1.00  0.00    -0.171 A  
HETATM    6  C   UNL     1      -9.238  10.748  66.542  1.00  0.00    -0.168 A  
HETATM    7  C   UNL     1      -8.737  11.906  65.921  1.00  0.00     0.131 A  
HETATM    8  S   UNL     1      -8.934   9.258  65.642  1.00  0.00    -0.213 SA 
HETATM    9  C   UNL     1      -9.625   8.017  66.701  1.00  0.00    -0.230 A  
HETATM   10  C   UNL     1      -8.916  13.162  66.483  1.00  0.00    -0.072 A  
HETATM   11  C   UNL     1     -10.264   8.298  67.929  1.00  0.00    -0.220 A  
HETATM   12  C   UNL     1     -10.748   7.158  68.621  1.00  0.00    -0.198 A  
HETATM   13  N   UNL     1     -10.428   9.637  68.419  1.00  0.00    -0.214 NA 
HETATM   14  C   UNL     1      -9.496   6.695  66.211  1.00  0.00    -0.120 A  
HETATM   15  C   UNL     1     -10.614   5.847  68.126  1.00  0.00    -0.312 A  
HETATM   16  C   UNL     1      -9.990   5.620  66.914  1.00  0.00    -0.202 A  
BRANCH  13  17
HETATM   17  C   UNL     1     -11.226   9.844  69.656  1.00  0.00    -0.208 C  
HETATM   18  C   UNL     1      -9.367   8.930  71.166  1.00  0.00    -0.257 C  
HETATM   19  C   UNL     1     -10.876   8.863  70.813  1.00  0.00    -0.294 C  
HETATM   20  C   UNL     1     -11.789   9.192  72.005  1.00  0.00    -0.407 C  
BRANCH  18  21
HETATM   21  N   UNL     1      -8.769   7.931  72.086  1.00  0.00    -0.129 NA 
HETATM   22  C   UNL     1      -7.400   8.277  72.481  1.00  0.00    -0.109 C  
HETATM   23  C   UNL     1      -9.609   7.889  73.299  1.00  0.00    -0.285 C  
ENDBRANCH  18  21
ENDBRANCH  13  17
ENDBRANCH   2   3
TORSDOF 3
ENDMDL
MODEL      170
REMARK 921   NORMALIZED FREE ENERGY PREDICTED BY IDOCK:   -2.61 KCAL/MOL
REMARK 922        TOTAL FREE ENERGY PREDICTED BY IDOCK:   -3.26 KCAL/MOL
REMARK 923 INTER-LIGAND FREE ENERGY PREDICTED BY IDOCK:   -4.33 KCAL/MOL
REMARK 924 INTRA-LIGAND FREE ENERGY PREDICTED BY IDOCK:    1.07 KCAL/MOL
REMARK 927      BINDING AFFINITY PREDICTED BY RF-SCORE:    0.00 PKD
ROOT
HETATM    1  C   UNL     1     -12.723  12.688  70.949  1.00  0.00    -0.188 C  
HETATM    2  O   UNL     1     -11.961  12.591  69.751  1.00  0.00    -0.314 OA 
ENDROOT
BRANCH   2   3
HETATM    3  C   UNL     1     -11.546  13.786  69.226  1.00  0.00    -0.312 A  
HETATM    4  C   UNL     1     -10.214  13.829  68.782  1.00  0.00    -0.168 A  
HETATM    5  C   UNL     1      -9.632  14.978  68.194  1.00  0.00    -0.207 A  
HETATM    6  C   UNL     1     -10.474  16.107  68.107  1.00  0.00    -0.279 A  
HETATM    7  C   UNL     1     -11.798  16.072  68.582  1.00  0.00    -0.174 A  
HETATM    8  S   UNL     1     -10.005  17.655  67.396  1.00  0.00    -0.335 SA 
HETATM    9  C   UNL     1      -8.307  17.384  66.963  1.00  0.00    -0.217 A  
HETATM   10  C   UNL     1     -12.333  14.922  69.143  1.00  0.00    -0.098 A  
HETATM   11  C   UNL     1      -7.630  16.162  67.168  1.00  0.00    -0.202 A  
HETATM   12  C   UNL     1      -6.274  16.158  66.750  1.00  0.00     0.254 A  
HETATM   13  N   UNL     1      -8.276  15.012  67.734  1.00  0.00    -0.144 NA 
HETATM   14  C   UNL     1      -7.670  18.503  66.376  1.00  0.00    -0.291 A  
HETATM   15  C   UNL     1      -5.648  17.276  66.167  1.00  0.00    -0.079 A  
HETATM   16  C   UNL     1      -6.354  18.450  65.976  1.00  0.00    -0.263 A  
BRANCH  13  17
HETATM   17  C   UNL     1      -7.520  13.734  67.791  1.00  0.00    -0.163 C  
HETATM   18  C   UNL     1      -9.123  12.561  66.169  1.00  0.00    -0.005 C  
HETATM   19  C   UNL     1      -8.388  12.467  67.531  1.00  0.00    -0.173 C  
HETATM   20  C   UNL     1      -7.472  11.236  67.638  1.00  0.00    -0.101 C  
BRANCH  18  21
HETATM   21  N   UNL     1     -10.169  11.572  65.814  1.00  0.00    -0.239 NA 
HETATM   22  C   UNL     1     -11.489  12.185  65.640  1.00  0.00    -0.355 C  
HETATM   23  C   UNL     1      -9.772  10.948  64.537  1.00  0.00    -0.282 C  
ENDBRANCH  18  21
ENDBRANCH  13  17
ENDBRANCH   2   3
TORSDOF 3
ENDMDL
MODEL      171
REMARK 921   NORMALIZED FREE ENERGY PREDICTED BY IDOCK:   -2.53 KCAL/MOL
REMARK 922        TOTAL FREE ENERGY PREDICTED BY IDOCK:   -3.17 KCAL/MOL
REMARK 923 INTER-LIGAND FREE ENERGY PREDICTED BY IDOCK:   -2.78 KCAL/MOL
REMARK 924 INTRA-LIGAND FREE ENERGY PREDICTED BY IDOCK:   -0.39 KCAL/MOL
REMARK 927      BINDING AFFINITY PREDICTED BY RF-SCORE:    0.00 PKD
ROOT
HETATM    1  C   UNL     1     -11.029   2.573  63.108  1.00  0.00    -0.230 C  
HETATM    2  O   UNL     1     -10.837   3.508  64.165  1.00  0.00    -0.231 OA 
ENDROOT
BRANCH   2   3
HETATM    3  C   UNL     1      -9.682   3.345  64.883  1.00  0.00    -0.135 A  
HETATM    4  C   UNL     1      -9.729   3.771  66.220  1.00  0.00    -0.138 A  
HETATM    5  C   UNL     1      -8.631   3.656  67.108  1.00  0.00    -0.108 A  
HETATM    6  C   UNL     1      -7.456   3.106  66.550  1.00  0.00    -0.076 A  
HETATM    7  C   UNL     1      -7.401   2.710  65.202  1.00  0.00    -0.067 A  
HETATM    8  S   UNL     1      -5.957   2.831  67.444  1.00  0.00    -0.024 SA 
HETATM    9  C   UNL     1      -6.339   3.477  69.050  1.00  0.00    -0.029 A  
HETATM   10  C   UNL     1      -8.504   2.832  64.368  1.00  0.00    -0.090 A  
HETATM   11  C   UNL     1      -7.593   4.022  69.400  1.00  0.00    -0.053 A  
HETATM   12  C   UNL     1      -7.688   4.482  70.738  1.00  0.00    -0.053 A  
HETATM   13  N   UNL     1      -8.689   4.082  68.474  1.00  0.00    -0.095 NA 
HETATM   14  C   UNL     1      -5.274   3.393  69.979  1.00  0.00    -0.008 A  
HETATM   15  C   UNL     1      -6.623   4.397  71.655  1.00  0.00    -0.026 A  
HETATM   16  C   UNL     1      -5.415   3.844  71.272  1.00  0.00    -0.008 A  
BRANCH  13  17
HETATM   17  C   UNL     1     -10.008   4.554  68.971  1.00  0.00    -0.081 C  
HETATM   18  C   UNL     1      -9.634   6.934  68.093  1.00  0.00    -0.124 C  
HETATM   19  C   UNL     1     -10.055   6.073  69.312  1.00  0.00    -0.235 C  
HETATM   20  C   UNL     1     -11.468   6.400  69.822  1.00  0.00    -0.468 C  
BRANCH  18  21
HETATM   21  N   UNL     1      -9.397   8.390  68.252  1.00  0.00    -0.135 NA 
HETATM   22  C   UNL     1      -8.057   8.794  67.814  1.00  0.00    -0.107 C  
HETATM   23  C   UNL     1     -10.393   9.093  67.420  1.00  0.00    -0.264 C  
ENDBRANCH  18  21
ENDBRANCH  13  17
ENDBRANCH   2   3
TORSDOF 3
ENDMDL
MODEL      172
REMARK 921   NORMALIZED FREE ENERGY PREDICTED BY IDOCK:   -2.50 KCAL/MOL
REMARK 922        TOTAL FREE ENERGY PREDICTED BY IDOCK:   -3.14 KCAL/MOL
REMARK 923 INTER-LIGAND FREE ENERGY PREDICTED BY IDOCK:   -2.75 KCAL/MOL
REMARK 924 INTRA-LIGAND FREE ENERGY PREDICTED BY IDOCK:   -0.39 KCAL/MOL
REMARK 927      BINDING AFFINITY PREDICTED BY RF-SCORE:    0.00 PKD
ROOT
HETATM    1  C   UNL     1      -9.042   8.088  71.747  1.00  0.00    -0.158 C  
HETATM    2  O   UNL     1      -9.377   9.267  71.023  1.00  0.00    -0.259 OA 
ENDROOT
BRANCH   2   3
HETATM    3  C   UNL     1      -8.586   9.527  69.936  1.00  0.00    -0.204 A  
HETATM    4  C   UNL     1      -8.851   8.760  68.790  1.00  0.00    -0.134 A  
HETATM    5  C   UNL     1      -8.141   8.915  67.574  1.00  0.00    -0.109 A  
HETATM    6  C   UNL     1      -7.114   9.883  67.592  1.00  0.00    -0.087 A  
HETATM    7  C   UNL     1      -6.830  10.628  68.750  1.00  0.00    -0.062 A  
HETATM    8  S   UNL     1      -6.098  10.291  66.205  1.00  0.00    -0.096 SA 
HETATM    9  C   UNL     1      -6.664   9.160  64.963  1.00  0.00    -0.073 A  
HETATM   10  C   UNL     1      -7.555  10.451  69.919  1.00  0.00    -0.112 A  
HETATM   11  C   UNL     1      -7.708   8.230  65.164  1.00  0.00    -0.102 A  
HETATM   12  C   UNL     1      -8.004   7.418  64.040  1.00  0.00    -0.091 A  
HETATM   13  N   UNL     1      -8.423   8.136  66.405  1.00  0.00    -0.124 NA 
HETATM   14  C   UNL     1      -5.985   9.266  63.726  1.00  0.00    -0.088 A  
HETATM   15  C   UNL     1      -7.323   7.530  62.813  1.00  0.00    -0.095 A  
HETATM   16  C   UNL     1      -6.314   8.462  62.658  1.00  0.00    -0.088 A  
BRANCH  13  17
HETATM   17  C   UNL     1      -9.590   7.219  66.481  1.00  0.00    -0.149 C  
HETATM   18  C   UNL     1      -8.195   5.317  67.487  1.00  0.00    -0.100 C  
HETATM   19  C   UNL     1      -9.221   5.708  66.391  1.00  0.00    -0.160 C  
HETATM   20  C   UNL     1     -10.524   4.897  66.467  1.00  0.00    -0.299 C  
BRANCH  18  21
HETATM   21  N   UNL     1      -7.540   3.986  67.456  1.00  0.00    -0.068 NA 
HETATM   22  C   UNL     1      -6.896   3.705  66.169  1.00  0.00    -0.057 C  
HETATM   23  C   UNL     1      -6.504   3.980  68.508  1.00  0.00    -0.037 C  
ENDBRANCH  18  21
ENDBRANCH  13  17
ENDBRANCH   2   3
TORSDOF 3
ENDMDL
MODEL      173
REMARK 921   NORMALIZED FREE ENERGY PREDICTED BY IDOCK:   -2.50 KCAL/MOL
REMARK 922        TOTAL FREE ENERGY PREDICTED BY IDOCK:   -3.13 KCAL/MOL
REMARK 923 INTER-LIGAND FREE ENERGY PREDICTED BY IDOCK:   -3.04 KCAL/MOL
REMARK 924 INTRA-LIGAND FREE ENERGY PREDICTED BY IDOCK:   -0.10 KCAL/MOL
REMARK 927      BINDING AFFINITY PREDICTED BY RF-SCORE:    0.00 PKD
ROOT
HETATM    1  C   UNL     1     -10.197  11.265  65.104  1.00  0.00    -0.289 C  
HETATM    2  O   UNL     1     -10.148  10.146  65.982  1.00  0.00    -0.246 OA 
ENDROOT
BRANCH   2   3
HETATM    3  C   UNL     1      -9.178  10.203  66.946  1.00  0.00    -0.146 A  
HETATM    4  C   UNL     1      -9.413   9.434  68.097  1.00  0.00    -0.146 A  
HETATM    5  C   UNL     1      -8.504   9.363  69.180  1.00  0.00    -0.134 A  
HETATM    6  C   UNL     1      -7.339  10.149  69.045  1.00  0.00    -0.087 A  
HETATM    7  C   UNL     1      -7.120  10.945  67.906  1.00  0.00    -0.081 A  
HETATM    8  S   UNL     1      -6.036  10.222  70.236  1.00  0.00    -0.112 SA 
HETATM    9  C   UNL     1      -6.640   9.180  71.536  1.00  0.00    -0.029 A  
HETATM   10  C   UNL     1      -8.034  10.978  66.862  1.00  0.00    -0.143 A  
HETATM   11  C   UNL     1      -7.873   8.493  71.484  1.00  0.00    -0.125 A  
HETATM   12  C   UNL     1      -8.166   7.712  72.632  1.00  0.00    -0.153 A  
HETATM   13  N   UNL     1      -8.745   8.567  70.346  1.00  0.00    -0.141 NA 
HETATM   14  C   UNL     1      -5.773   9.076  72.650  1.00  0.00    -0.064 A  
HETATM   15  C   UNL     1      -7.298   7.615  73.735  1.00  0.00    -0.139 A  
HETATM   16  C   UNL     1      -6.095   8.297  73.738  1.00  0.00    -0.117 A  
BRANCH  13  17
HETATM   17  C   UNL     1      -9.958   7.709  70.329  1.00  0.00    -0.189 C  
HETATM   18  C   UNL     1      -8.636   5.628  69.625  1.00  0.00    -0.110 C  
HETATM   19  C   UNL     1      -9.878   6.511  69.337  1.00  0.00    -0.161 C  
HETATM   20  C   UNL     1     -11.202   5.735  69.425  1.00  0.00    -0.110 C  
BRANCH  18  21
HETATM   21  N   UNL     1      -8.241   4.560  68.674  1.00  0.00    -0.081 NA 
HETATM   22  C   UNL     1      -8.968   3.307  68.898  1.00  0.00    -0.130 C  
HETATM   23  C   UNL     1      -8.549   5.044  67.314  1.00  0.00    -0.104 C  
ENDBRANCH  18  21
ENDBRANCH  13  17
ENDBRANCH   2   3
TORSDOF 3
ENDMDL
MODEL      174
REMARK 921   NORMALIZED FREE ENERGY PREDICTED BY IDOCK:   -2.41 KCAL/MOL
REMARK 922        TOTAL FREE ENERGY PREDICTED BY IDOCK:   -3.03 KCAL/MOL
REMARK 923 INTER-LIGAND FREE ENERGY PREDICTED BY IDOCK:   -2.83 KCAL/MOL
REMARK 924 INTRA-LIGAND FREE ENERGY PREDICTED BY IDOCK:   -0.21 KCAL/MOL
REMARK 927      BINDING AFFINITY PREDICTED BY RF-SCORE:    0.00 PKD
ROOT
HETATM    1  C   UNL     1     -10.084  10.086  69.800  1.00  0.00    -0.248 C  
HETATM    2  O   UNL     1      -9.283   8.911  69.870  1.00  0.00    -0.154 OA 
ENDROOT
BRANCH   2   3
HETATM    3  C   UNL     1      -9.557   7.963  68.921  1.00  0.00    -0.155 A  
HETATM    4  C   UNL     1      -8.611   6.932  68.797  1.00  0.00    -0.124 A  
HETATM    5  C   UNL     1      -8.749   5.861  67.881  1.00  0.00    -0.104 A  
HETATM    6  C   UNL     1      -9.899   5.907  67.064  1.00  0.00    -0.149 A  
HETATM    7  C   UNL     1     -10.829   6.957  67.167  1.00  0.00    -0.447 A  
HETATM    8  S   UNL     1     -10.322   4.686  65.859  1.00  0.00    -0.235 SA 
HETATM    9  C   UNL     1      -8.950   3.568  65.942  1.00  0.00    -0.142 A  
HETATM   10  C   UNL     1     -10.660   7.984  68.086  1.00  0.00    -0.174 A  
HETATM   11  C   UNL     1      -7.862   3.723  66.828  1.00  0.00    -0.088 A  
HETATM   12  C   UNL     1      -6.869   2.715  66.732  1.00  0.00    -0.044 A  
HETATM   13  N   UNL     1      -7.785   4.807  67.767  1.00  0.00    -0.082 NA 
HETATM   14  C   UNL     1      -9.031   2.478  65.042  1.00  0.00    -0.128 A  
HETATM   15  C   UNL     1      -6.957   1.635  65.833  1.00  0.00    -0.042 A  
HETATM   16  C   UNL     1      -8.047   1.517  64.990  1.00  0.00    -0.074 A  
BRANCH  13  17
HETATM   17  C   UNL     1      -6.668   4.816  68.746  1.00  0.00    -0.050 C  
HETATM   18  C   UNL     1      -7.755   3.006  70.201  1.00  0.00    -0.043 C  
HETATM   19  C   UNL     1      -7.082   4.403  70.190  1.00  0.00    -0.045 C  
HETATM   20  C   UNL     1      -5.830   4.476  71.080  1.00  0.00    -0.017 C  
BRANCH  18  21
HETATM   21  N   UNL     1      -8.422   2.507  71.429  1.00  0.00    -0.061 NA 
HETATM   22  C   UNL     1      -8.891   3.592  72.296  1.00  0.00    -0.092 C  
HETATM   23  C   UNL     1      -9.589   1.710  71.004  1.00  0.00    -0.128 C  
ENDBRANCH  18  21
ENDBRANCH  13  17
ENDBRANCH   2   3
TORSDOF 3
ENDMDL
MODEL      175
REMARK 921   NORMALIZED FREE ENERGY PREDICTED BY IDOCK:   -2.35 KCAL/MOL
REMARK 922        TOTAL FREE ENERGY PREDICTED BY IDOCK:   -2.96 KCAL/MOL
REMARK 923 INTER-LIGAND FREE ENERGY PREDICTED BY IDOCK:   -4.26 KCAL/MOL
REMARK 924 INTRA-LIGAND FREE ENERGY PREDICTED BY IDOCK:    1.30 KCAL/MOL
REMARK 927      BINDING AFFINITY PREDICTED BY RF-SCORE:    0.00 PKD
ROOT
HETATM    1  C   UNL     1     -12.481  13.267  70.913  1.00  0.00    -0.342 C  
HETATM    2  O   UNL     1     -11.692  13.255  69.727  1.00  0.00    -0.298 OA 
ENDROOT
BRANCH   2   3
HETATM    3  C   UNL     1     -11.261  14.483  69.302  1.00  0.00    -0.281 A  
HETATM    4  C   UNL     1      -9.886  14.730  69.443  1.00  0.00    -0.072 A  
HETATM    5  C   UNL     1      -9.271  15.939  69.035  1.00  0.00    -0.242 A  
HETATM    6  C   UNL     1     -10.142  16.910  68.497  1.00  0.00    -0.297 A  
HETATM    7  C   UNL     1     -11.525  16.673  68.387  1.00  0.00    -0.023 A  
HETATM    8  S   UNL     1      -9.631  18.489  67.891  1.00  0.00    -0.312 SA 
HETATM    9  C   UNL     1      -7.890  18.487  68.222  1.00  0.00    -0.303 A  
HETATM   10  C   UNL     1     -12.086  15.471  68.791  1.00  0.00    -0.166 A  
HETATM   11  C   UNL     1      -7.203  17.401  68.808  1.00  0.00    -0.249 A  
HETATM   12  C   UNL     1      -5.811  17.606  68.986  1.00  0.00    -0.193 A  
HETATM   13  N   UNL     1      -7.865  16.180  69.170  1.00  0.00    -0.231 NA 
HETATM   14  C   UNL     1      -7.223  19.675  67.840  1.00  0.00    -0.308 A  
HETATM   15  C   UNL     1      -5.156  18.791  68.603  1.00  0.00    -0.185 A  
HETATM   16  C   UNL     1      -5.867  19.826  68.023  1.00  0.00    -0.236 A  
BRANCH  13  17
HETATM   17  C   UNL     1      -7.038  15.046  69.660  1.00  0.00    -0.193 C  
HETATM   18  C   UNL     1      -7.525  13.623  67.583  1.00  0.00    -0.183 C  
HETATM   19  C   UNL     1      -7.491  13.652  69.134  1.00  0.00     0.098 C  
HETATM   20  C   UNL     1      -6.555  12.592  69.736  1.00  0.00     0.066 C  
BRANCH  18  21
HETATM   21  N   UNL     1      -8.131  12.472  66.870  1.00  0.00    -0.095 NA 
HETATM   22  C   UNL     1      -8.585  11.419  67.783  1.00  0.00    -0.129 C  
HETATM   23  C   UNL     1      -9.300  12.981  66.126  1.00  0.00    -0.080 C  
ENDBRANCH  18  21
ENDBRANCH  13  17
ENDBRANCH   2   3
TORSDOF 3
ENDMDL
MODEL      176
REMARK 921   NORMALIZED FREE ENERGY PREDICTED BY IDOCK:   -2.02 KCAL/MOL
REMARK 922        TOTAL FREE ENERGY PREDICTED BY IDOCK:   -2.58 KCAL/MOL
REMARK 923 INTER-LIGAND FREE ENERGY PREDICTED BY IDOCK:   -2.33 KCAL/MOL
REMARK 924 INTRA-LIGAND FREE ENERGY PREDICTED BY IDOCK:   -0.25 KCAL/MOL
REMARK 927      BINDING AFFINITY PREDICTED BY RF-SCORE:    0.00 PKD
ROOT
HETATM    1  C   UNL     1      -5.126  15.341  72.905  1.00  0.00     0.382 C  
HETATM    2  O   UNL     1      -5.779  15.476  71.646  1.00  0.00     0.279 OA 
ENDROOT
BRANCH   2   3
HETATM    3  C   UNL     1      -5.953  14.308  70.953  1.00  0.00    -0.200 A  
HETATM    4  C   UNL     1      -6.820  14.376  69.850  1.00  0.00    -0.060 A  
HETATM    5  C   UNL     1      -7.096  13.267  69.013  1.00  0.00    -0.044 A  
HETATM    6  C   UNL     1      -6.459  12.061  69.377  1.00  0.00    -0.115 A  
HETATM    7  C   UNL     1      -5.617  11.987  70.501  1.00  0.00    -0.165 A  
HETATM    8  S   UNL     1      -6.613  10.540  68.491  1.00  0.00    -0.056 SA 
HETATM    9  C   UNL     1      -7.758  10.955  67.203  1.00  0.00    -0.123 A  
HETATM   10  C   UNL     1      -5.366  13.100  71.290  1.00  0.00    -0.185 A  
HETATM   11  C   UNL     1      -8.313  12.242  67.030  1.00  0.00    -0.168 A  
HETATM   12  C   UNL     1      -9.209  12.360  65.937  1.00  0.00     0.007 A  
HETATM   13  N   UNL     1      -7.973  13.346  67.883  1.00  0.00    -0.140 NA 
HETATM   14  C   UNL     1      -8.076   9.881  66.338  1.00  0.00    -0.118 A  
HETATM   15  C   UNL     1      -9.520  11.287  65.081  1.00  0.00    -0.242 A  
HETATM   16  C   UNL     1      -8.945  10.045  65.283  1.00  0.00    -0.220 A  
BRANCH  13  17
HETATM   17  C   UNL     1      -8.506  14.691  67.545  1.00  0.00    -0.188 C  
HETATM   18  C   UNL     1     -10.654  14.324  68.895  1.00  0.00    -0.245 C  
HETATM   19  C   UNL     1     -10.060  14.778  67.536  1.00  0.00    -0.224 C  
HETATM   20  C   UNL     1     -10.452  16.215  67.157  1.00  0.00    -0.305 C  
BRANCH  18  21
HETATM   21  N   UNL     1     -12.116  14.119  69.041  1.00  0.00    -0.339 NA 
HETATM   22  C   UNL     1     -12.529  12.750  68.715  1.00  0.00     0.494 C  
HETATM   23  C   UNL     1     -12.462  14.388  70.450  1.00  0.00    -0.357 C  
ENDBRANCH  18  21
ENDBRANCH  13  17
ENDBRANCH   2   3
TORSDOF 3
ENDMDL
MODEL      177
REMARK 921   NORMALIZED FREE ENERGY PREDICTED BY IDOCK:   -1.95 KCAL/MOL
REMARK 922        TOTAL FREE ENERGY PREDICTED BY IDOCK:   -2.49 KCAL/MOL
REMARK 923 INTER-LIGAND FREE ENERGY PREDICTED BY IDOCK:   -2.40 KCAL/MOL
REMARK 924 INTRA-LIGAND FREE ENERGY PREDICTED BY IDOCK:   -0.09 KCAL/MOL
REMARK 927      BINDING AFFINITY PREDICTED BY RF-SCORE:    0.00 PKD
ROOT
HETATM    1  C   UNL     1      -8.158   3.788  71.899  1.00  0.00    -0.071 C  
HETATM    2  O   UNL     1      -9.195   4.697  71.541  1.00  0.00    -0.131 OA 
ENDROOT
BRANCH   2   3
HETATM    3  C   UNL     1      -8.778   5.827  70.891  1.00  0.00    -0.134 A  
HETATM    4  C   UNL     1      -8.915   5.814  69.494  1.00  0.00    -0.130 A  
HETATM    5  C   UNL     1      -8.554   6.908  68.670  1.00  0.00    -0.123 A  
HETATM    6  C   UNL     1      -8.010   8.021  69.346  1.00  0.00    -0.116 A  
HETATM    7  C   UNL     1      -7.844   8.021  70.743  1.00  0.00    -0.091 A  
HETATM    8  S   UNL     1      -7.503   9.521  68.561  1.00  0.00    -0.080 SA 
HETATM    9  C   UNL     1      -7.784   9.174  66.845  1.00  0.00    -0.098 A  
HETATM   10  C   UNL     1      -8.220   6.931  71.514  1.00  0.00    -0.110 A  
HETATM   11  C   UNL     1      -8.319   7.959  66.367  1.00  0.00    -0.129 A  
HETATM   12  C   UNL     1      -8.463   7.888  64.957  1.00  0.00    -0.072 A  
HETATM   13  N   UNL     1      -8.706   6.892  67.246  1.00  0.00    -0.119 NA 
HETATM   14  C   UNL     1      -7.435  10.233  65.973  1.00  0.00    -0.128 A  
HETATM   15  C   UNL     1      -8.112   8.945  64.097  1.00  0.00    -0.160 A  
HETATM   16  C   UNL     1      -7.601  10.123  64.611  1.00  0.00    -0.135 A  
BRANCH  13  17
HETATM   17  C   UNL     1      -9.378   5.703  66.660  1.00  0.00    -0.144 C  
HETATM   18  C   UNL     1      -7.189   4.379  66.500  1.00  0.00    -0.079 C  
HETATM   19  C   UNL     1      -8.463   4.838  65.745  1.00  0.00    -0.119 C  
HETATM   20  C   UNL     1      -9.301   3.666  65.209  1.00  0.00    -0.158 C  
BRANCH  18  21
HETATM   21  N   UNL     1      -6.076   3.730  65.765  1.00  0.00    -0.027 NA 
HETATM   22  C   UNL     1      -6.152   2.267  65.802  1.00  0.00    -0.023 C  
HETATM   23  C   UNL     1      -6.162   4.167  64.358  1.00  0.00    -0.026 C  
ENDBRANCH  18  21
ENDBRANCH  13  17
ENDBRANCH   2   3
TORSDOF 3
ENDMDL
MODEL      178
REMARK 921   NORMALIZED FREE ENERGY PREDICTED BY IDOCK:   -1.73 KCAL/MOL
REMARK 922        TOTAL FREE ENERGY PREDICTED BY IDOCK:   -2.23 KCAL/MOL
REMARK 923 INTER-LIGAND FREE ENERGY PREDICTED BY IDOCK:   -3.01 KCAL/MOL
REMARK 924 INTRA-LIGAND FREE ENERGY PREDICTED BY IDOCK:    0.78 KCAL/MOL
REMARK 927      BINDING AFFINITY PREDICTED BY RF-SCORE:    0.00 PKD
ROOT
HETATM    1  C   UNL     1      -6.119  10.159  66.897  1.00  0.00    -0.056 C  
HETATM    2  O   UNL     1      -6.573  10.780  68.095  1.00  0.00    -0.061 OA 
ENDROOT
BRANCH   2   3
HETATM    3  C   UNL     1      -7.733  10.269  68.612  1.00  0.00    -0.094 A  
HETATM    4  C   UNL     1      -7.590   9.134  69.427  1.00  0.00    -0.079 A  
HETATM    5  C   UNL     1      -8.684   8.492  70.059  1.00  0.00    -0.136 A  
HETATM    6  C   UNL     1      -9.951   9.053  69.791  1.00  0.00    -0.196 A  
HETATM    7  C   UNL     1     -10.096  10.169  68.949  1.00  0.00    -0.211 A  
HETATM    8  S   UNL     1     -11.472   8.461  70.470  1.00  0.00    -0.113 SA 
HETATM    9  C   UNL     1     -10.953   7.052  71.412  1.00  0.00    -0.240 A  
HETATM   10  C   UNL     1      -8.996  10.774  68.357  1.00  0.00    -0.153 A  
HETATM   11  C   UNL     1      -9.610   6.635  71.527  1.00  0.00    -0.164 A  
HETATM   12  C   UNL     1      -9.413   5.481  72.329  1.00  0.00    -0.163 A  
HETATM   13  N   UNL     1      -8.530   7.341  70.898  1.00  0.00    -0.127 NA 
HETATM   14  C   UNL     1     -12.008   6.366  72.061  1.00  0.00    -0.375 A  
HETATM   15  C   UNL     1     -10.467   4.805  72.971  1.00  0.00    -0.258 A  
HETATM   16  C   UNL     1     -11.768   5.255  72.838  1.00  0.00    -0.228 A  
BRANCH  13  17
HETATM   17  C   UNL     1      -7.138   6.904  71.182  1.00  0.00    -0.075 C  
HETATM   18  C   UNL     1      -7.426   4.707  69.891  1.00  0.00    -0.054 C  
HETATM   19  C   UNL     1      -6.950   5.358  71.216  1.00  0.00    -0.058 C  
HETATM   20  C   UNL     1      -5.474   5.069  71.533  1.00  0.00    -0.005 C  
BRANCH  18  21
HETATM   21  N   UNL     1      -7.542   3.232  69.783  1.00  0.00    -0.044 NA 
HETATM   22  C   UNL     1      -8.049   2.614  71.012  1.00  0.00    -0.050 C  
HETATM   23  C   UNL     1      -8.490   2.943  68.689  1.00  0.00    -0.068 C  
ENDBRANCH  18  21
ENDBRANCH  13  17
ENDBRANCH   2   3
TORSDOF 3
ENDMDL
MODEL      179
REMARK 921   NORMALIZED FREE ENERGY PREDICTED BY IDOCK:   -1.54 KCAL/MOL
REMARK 922        TOTAL FREE ENERGY PREDICTED BY IDOCK:   -2.00 KCAL/MOL
REMARK 923 INTER-LIGAND FREE ENERGY PREDICTED BY IDOCK:   -1.65 KCAL/MOL
REMARK 924 INTRA-LIGAND FREE ENERGY PREDICTED BY IDOCK:   -0.36 KCAL/MOL
REMARK 927      BINDING AFFINITY PREDICTED BY RF-SCORE:    0.00 PKD
ROOT
HETATM    1  C   UNL     1      -9.872  10.286  63.068  1.00  0.00    -0.030 C  
HETATM    2  O   UNL     1      -8.933   9.423  63.702  1.00  0.00    -0.218 OA 
ENDROOT
BRANCH   2   3
HETATM    3  C   UNL     1      -8.027  10.047  64.518  1.00  0.00    -0.148 A  
HETATM    4  C   UNL     1      -8.571  10.868  65.519  1.00  0.00    -0.149 A  
HETATM    5  C   UNL     1      -7.778  11.569  66.460  1.00  0.00    -0.052 A  
HETATM    6  C   UNL     1      -6.383  11.416  66.311  1.00  0.00     0.013 A  
HETATM    7  C   UNL     1      -5.840  10.619  65.287  1.00  0.00    -0.107 A  
HETATM    8  S   UNL     1      -5.175  12.159  67.364  1.00  0.00    -0.105 SA 
HETATM    9  C   UNL     1      -6.168  13.116  68.478  1.00  0.00    -0.079 A  
HETATM   10  C   UNL     1      -6.653   9.941  64.391  1.00  0.00    -0.125 A  
HETATM   11  C   UNL     1      -7.578  13.156  68.437  1.00  0.00    -0.133 A  
HETATM   12  C   UNL     1      -8.178  13.984  69.420  1.00  0.00     0.464 A  
HETATM   13  N   UNL     1      -8.340  12.396  67.486  1.00  0.00    -0.162 NA 
HETATM   14  C   UNL     1      -5.426  13.844  69.439  1.00  0.00    -0.084 A  
HETATM   15  C   UNL     1      -7.433  14.706  70.372  1.00  0.00     0.677 A  
HETATM   16  C   UNL     1      -6.052  14.629  70.381  1.00  0.00    -0.173 A  
BRANCH  13  17
HETATM   17  C   UNL     1      -9.822  12.401  67.603  1.00  0.00    -0.198 C  
HETATM   18  C   UNL     1      -9.808  10.692  69.515  1.00  0.00    -0.084 C  
HETATM   19  C   UNL     1     -10.424  11.070  68.142  1.00  0.00    -0.216 C  
HETATM   20  C   UNL     1     -11.952  11.227  68.189  1.00  0.00    -0.182 C  
BRANCH  18  21
HETATM   21  N   UNL     1     -10.072   9.360  70.111  1.00  0.00    -0.216 NA 
HETATM   22  C   UNL     1      -9.845   8.264  69.165  1.00  0.00    -0.179 C  
HETATM   23  C   UNL     1      -9.146   9.195  71.249  1.00  0.00    -0.162 C  
ENDBRANCH  18  21
ENDBRANCH  13  17
ENDBRANCH   2   3
TORSDOF 3
ENDMDL
MODEL      180
REMARK 921   NORMALIZED FREE ENERGY PREDICTED BY IDOCK:   -1.43 KCAL/MOL
REMARK 922        TOTAL FREE ENERGY PREDICTED BY IDOCK:   -1.88 KCAL/MOL
REMARK 923 INTER-LIGAND FREE ENERGY PREDICTED BY IDOCK:   -2.58 KCAL/MOL
REMARK 924 INTRA-LIGAND FREE ENERGY PREDICTED BY IDOCK:    0.70 KCAL/MOL
REMARK 927      BINDING AFFINITY PREDICTED BY RF-SCORE:    0.00 PKD
ROOT
HETATM    1  C   UNL     1      -6.534  14.948  69.165  1.00  0.00    -0.112 C  
HETATM    2  O   UNL     1      -7.182  14.069  68.252  1.00  0.00    -0.092 OA 
ENDROOT
BRANCH   2   3
HETATM    3  C   UNL     1      -7.116  12.740  68.578  1.00  0.00    -0.101 A  
HETATM    4  C   UNL     1      -8.308  12.168  69.052  1.00  0.00     0.319 A  
HETATM    5  C   UNL     1      -8.421  10.804  69.413  1.00  0.00     0.016 A  
HETATM    6  C   UNL     1      -7.236  10.046  69.295  1.00  0.00    -0.078 A  
HETATM    7  C   UNL     1      -6.035  10.628  68.852  1.00  0.00    -0.040 A  
HETATM    8  S   UNL     1      -7.110   8.321  69.657  1.00  0.00    -0.057 SA 
HETATM    9  C   UNL     1      -8.740   7.924  70.230  1.00  0.00    -0.138 A  
HETATM   10  C   UNL     1      -5.970  11.968  68.499  1.00  0.00    -0.050 A  
HETATM   11  C   UNL     1      -9.797   8.858  70.299  1.00  0.00    -0.183 A  
HETATM   12  C   UNL     1     -11.022   8.333  70.787  1.00  0.00    -0.266 A  
HETATM   13  N   UNL     1      -9.643  10.224  69.885  1.00  0.00    -0.123 NA 
HETATM   14  C   UNL     1      -8.910   6.572  70.611  1.00  0.00    -0.144 A  
HETATM   15  C   UNL     1     -11.182   6.986  71.165  1.00  0.00    -0.304 A  
HETATM   16  C   UNL     1     -10.121   6.105  71.070  1.00  0.00    -0.231 A  
BRANCH  13  17
HETATM   17  C   UNL     1     -10.845  11.098  69.873  1.00  0.00    -0.006 C  
HETATM   18  C   UNL     1     -11.235  10.750  67.363  1.00  0.00    -0.241 C  
HETATM   19  C   UNL     1     -11.115  11.792  68.505  1.00  0.00    -0.288 C  
HETATM   20  C   UNL     1     -12.371  12.665  68.658  1.00  0.00     0.251 C  
BRANCH  18  21
HETATM   21  N   UNL     1     -11.275  11.193  65.948  1.00  0.00    -0.042 NA 
HETATM   22  C   UNL     1     -11.744  12.575  65.802  1.00  0.00    -0.426 C  
HETATM   23  C   UNL     1      -9.899  11.109  65.419  1.00  0.00    -0.242 C  
ENDBRANCH  18  21
ENDBRANCH  13  17
ENDBRANCH   2   3
TORSDOF 3
ENDMDL
MODEL      181
REMARK 921   NORMALIZED FREE ENERGY PREDICTED BY IDOCK:   -1.08 KCAL/MOL
REMARK 922        TOTAL FREE ENERGY PREDICTED BY IDOCK:   -1.47 KCAL/MOL
REMARK 923 INTER-LIGAND FREE ENERGY PREDICTED BY IDOCK:   -2.36 KCAL/MOL
REMARK 924 INTRA-LIGAND FREE ENERGY PREDICTED BY IDOCK:    0.89 KCAL/MOL
REMARK 927      BINDING AFFINITY PREDICTED BY RF-SCORE:    0.00 PKD
ROOT
HETATM    1  C   UNL     1     -10.703  19.103  65.906  1.00  0.00    -0.351 C  
HETATM    2  O   UNL     1     -10.098  17.925  66.429  1.00  0.00    -0.337 OA 
ENDROOT
BRANCH   2   3
HETATM    3  C   UNL     1     -10.379  16.773  65.744  1.00  0.00    -0.305 A  
HETATM    4  C   UNL     1      -9.603  15.653  66.087  1.00  0.00    -0.362 A  
HETATM    5  C   UNL     1      -9.776  14.380  65.492  1.00  0.00    -0.179 A  
HETATM    6  C   UNL     1     -10.771  14.308  64.494  1.00  0.00    -0.259 A  
HETATM    7  C   UNL     1     -11.525  15.438  64.128  1.00  0.00    -0.039 A  
HETATM    8  S   UNL     1     -11.205  12.838  63.614  1.00  0.00    -0.369 SA 
HETATM    9  C   UNL     1     -10.057  11.650  64.258  1.00  0.00    -0.287 A  
HETATM   10  C   UNL     1     -11.330  16.666  64.743  1.00  0.00     0.021 A  
HETATM   11  C   UNL     1      -9.101  11.940  65.254  1.00  0.00     0.200 A  
HETATM   12  C   UNL     1      -8.280  10.845  65.627  1.00  0.00    -0.083 A  
HETATM   13  N   UNL     1      -8.989  13.239  65.855  1.00  0.00     0.338 NA 
HETATM   14  C   UNL     1     -10.181  10.357  63.693  1.00  0.00     0.052 A  
HETATM   15  C   UNL     1      -8.409   9.563  65.060  1.00  0.00    -0.148 A  
HETATM   16  C   UNL     1      -9.368   9.321  64.093  1.00  0.00     0.213 A  
BRANCH  13  17
HETATM   17  C   UNL     1      -8.041  13.416  66.986  1.00  0.00    -0.001 C  
HETATM   18  C   UNL     1      -8.934  11.358  68.228  1.00  0.00    -0.175 C  
HETATM   19  C   UNL     1      -8.558  12.858  68.345  1.00  0.00    -0.120 C  
HETATM   20  C   UNL     1      -7.480  13.128  69.408  1.00  0.00     0.423 C  
BRANCH  18  21
HETATM   21  N   UNL     1      -9.650  10.677  69.335  1.00  0.00    -0.150 NA 
HETATM   22  C   UNL     1     -10.863   9.989  68.883  1.00  0.00    -0.220 C  
HETATM   23  C   UNL     1      -8.729   9.675  69.906  1.00  0.00    -0.219 C  
ENDBRANCH  18  21
ENDBRANCH  13  17
ENDBRANCH   2   3
TORSDOF 3
ENDMDL
MODEL      182
REMARK 921   NORMALIZED FREE ENERGY PREDICTED BY IDOCK:    0.93 KCAL/MOL
REMARK 922        TOTAL FREE ENERGY PREDICTED BY IDOCK:    0.90 KCAL/MOL
REMARK 923 INTER-LIGAND FREE ENERGY PREDICTED BY IDOCK:   -1.26 KCAL/MOL
REMARK 924 INTRA-LIGAND FREE ENERGY PREDICTED BY IDOCK:    2.16 KCAL/MOL
REMARK 927      BINDING AFFINITY PREDICTED BY RF-SCORE:    0.00 PKD
ROOT
HETATM    1  C   UNL     1     -11.055  16.365  71.167  1.00  0.00     0.120 C  
HETATM    2  O   UNL     1     -10.762  15.905  69.852  1.00  0.00    -0.282 OA 
ENDROOT
BRANCH   2   3
HETATM    3  C   UNL     1     -10.516  16.889  68.932  1.00  0.00    -0.346 A  
HETATM    4  C   UNL     1      -9.197  16.965  68.456  1.00  0.00    -0.260 A  
HETATM    5  C   UNL     1      -8.776  17.909  67.488  1.00  0.00    -0.243 A  
HETATM    6  C   UNL     1      -9.772  18.805  67.044  1.00  0.00    -0.311 A  
HETATM    7  C   UNL     1     -11.085  18.749  67.546  1.00  0.00    -0.085 A  
HETATM    8  S   UNL     1      -9.520  20.060  65.826  1.00  0.00     0.124 SA 
HETATM    9  C   UNL     1      -7.793  19.900  65.457  1.00  0.00     0.026 A  
HETATM   10  C   UNL     1     -11.458  17.801  68.488  1.00  0.00     1.198 A  
HETATM   11  C   UNL     1      -6.949  18.935  66.048  1.00  0.00    -0.262 A  
HETATM   12  C   UNL     1      -5.600  18.979  65.612  1.00  0.00    -0.199 A  
HETATM   13  N   UNL     1      -7.431  17.973  66.999  1.00  0.00    -0.202 NA 
HETATM   14  C   UNL     1      -7.315  20.825  64.497  1.00  0.00     0.599 A  
HETATM   15  C   UNL     1      -5.133  19.903  64.658  1.00  0.00    -0.188 A  
HETATM   16  C   UNL     1      -5.998  20.824  64.097  1.00  0.00    -0.338 A  
BRANCH  13  17
HETATM   17  C   UNL     1      -6.499  16.916  67.469  1.00  0.00    -0.146 C  
HETATM   18  C   UNL     1      -8.000  15.025  66.606  1.00  0.00     0.199 C  
HETATM   19  C   UNL     1      -7.190  15.563  67.813  1.00  0.00    -0.177 C  
HETATM   20  C   UNL     1      -6.104  14.587  68.294  1.00  0.00    -0.118 C  
BRANCH  18  21
HETATM   21  N   UNL     1      -8.912  13.867  66.774  1.00  0.00    -0.222 NA 
HETATM   22  C   UNL     1      -9.723  13.609  65.580  1.00  0.00    -0.059 C  
HETATM   23  C   UNL     1      -8.075  12.680  67.036  1.00  0.00    -0.085 C  
ENDBRANCH  18  21
ENDBRANCH  13  17
ENDBRANCH   2   3
TORSDOF 3
ENDMDL
MODEL      183
REMARK 921   NORMALIZED FREE ENERGY PREDICTED BY IDOCK:    3.74 KCAL/MOL
REMARK 922        TOTAL FREE ENERGY PREDICTED BY IDOCK:    4.20 KCAL/MOL
REMARK 923 INTER-LIGAND FREE ENERGY PREDICTED BY IDOCK:    3.17 KCAL/MOL
REMARK 924 INTRA-LIGAND FREE ENERGY PREDICTED BY IDOCK:    1.04 KCAL/MOL
REMARK 927      BINDING AFFINITY PREDICTED BY RF-SCORE:    0.00 PKD
ROOT
HETATM    1  C   UNL     1     -11.908   9.628  67.772  1.00  0.00     2.213 C  
HETATM    2  O   UNL     1     -12.727  10.601  68.411  1.00  0.00     0.661 OA 
ENDROOT
BRANCH   2   3
HETATM    3  C   UNL     1     -12.068  11.719  68.850  1.00  0.00    -0.178 A  
HETATM    4  C   UNL     1     -10.684  11.744  68.614  1.00  0.00    -0.252 A  
HETATM    5  C   UNL     1      -9.856  12.832  68.983  1.00  0.00     0.306 A  
HETATM    6  C   UNL     1     -10.510  13.895  69.641  1.00  0.00     0.349 A  
HETATM    7  C   UNL     1     -11.891  13.854  69.905  1.00  0.00    -0.394 A  
HETATM    8  S   UNL     1      -9.717  15.378  70.184  1.00  0.00     0.331 SA 
HETATM    9  C   UNL     1      -8.020  15.086  69.761  1.00  0.00     0.025 A  
HETATM   10  C   UNL     1     -12.669  12.772  69.518  1.00  0.00     0.634 A  
HETATM   11  C   UNL     1      -7.560  13.916  69.120  1.00  0.00     0.064 A  
HETATM   12  C   UNL     1      -6.163  13.884  68.872  1.00  0.00    -0.090 A  
HETATM   13  N   UNL     1      -8.446  12.855  68.730  1.00  0.00     0.068 NA 
HETATM   14  C   UNL     1      -7.143  16.140  70.113  1.00  0.00     0.616 A  
HETATM   15  C   UNL     1      -5.298  14.937  69.226  1.00  0.00    -0.090 A  
HETATM   16  C   UNL     1      -5.795  16.070  69.844  1.00  0.00    -0.170 A  
BRANCH  13  17
HETATM   17  C   UNL     1      -7.890  11.722  67.945  1.00  0.00    -0.135 C  
HETATM   18  C   UNL     1      -8.991  12.517  65.770  1.00  0.00     0.358 C  
HETATM   19  C   UNL     1      -8.755  11.312  66.717  1.00  0.00    -0.166 C  
HETATM   20  C   UNL     1      -8.061  10.128  66.024  1.00  0.00    -0.129 C  
BRANCH  18  21
HETATM   21  N   UNL     1      -9.964  12.413  64.655  1.00  0.00    -0.218 NA 
HETATM   22  C   UNL     1     -10.060  11.052  64.117  1.00  0.00    -0.344 C  
HETATM   23  C   UNL     1     -11.286  12.801  65.184  1.00  0.00    -0.292 C  
ENDBRANCH  18  21
ENDBRANCH  13  17
ENDBRANCH   2   3
TORSDOF 3
ENDMDL
MODEL      184
REMARK 921   NORMALIZED FREE ENERGY PREDICTED BY IDOCK:    4.16 KCAL/MOL
REMARK 922        TOTAL FREE ENERGY PREDICTED BY IDOCK:    4.69 KCAL/MOL
REMARK 923 INTER-LIGAND FREE ENERGY PREDICTED BY IDOCK:    4.55 KCAL/MOL
REMARK 924 INTRA-LIGAND FREE ENERGY PREDICTED BY IDOCK:    0.14 KCAL/MOL
REMARK 927      BINDING AFFINITY PREDICTED BY RF-SCORE:    0.00 PKD
ROOT
HETATM    1  C   UNL     1     -11.342  12.939  70.905  1.00  0.00     1.664 C  
HETATM    2  O   UNL     1     -11.710  12.442  69.623  1.00  0.00    -0.300 OA 
ENDROOT
BRANCH   2   3
HETATM    3  C   UNL     1     -11.672  13.362  68.609  1.00  0.00    -0.349 A  
HETATM    4  C   UNL     1     -10.848  14.478  68.828  1.00  0.00    -0.256 A  
HETATM    5  C   UNL     1     -10.677  15.513  67.876  1.00  0.00    -0.294 A  
HETATM    6  C   UNL     1     -11.420  15.368  66.685  1.00  0.00    -0.019 A  
HETATM    7  C   UNL     1     -12.270  14.266  66.481  1.00  0.00    -0.419 A  
HETATM    8  S   UNL     1     -11.370  16.500  65.329  1.00  0.00     0.363 SA 
HETATM    9  C   UNL     1     -10.281  17.766  65.921  1.00  0.00    -0.225 A  
HETATM   10  C   UNL     1     -12.402  13.269  67.437  1.00  0.00    -0.082 A  
HETATM   11  C   UNL     1      -9.651  17.734  67.184  1.00  0.00    -0.276 A  
HETATM   12  C   UNL     1      -8.817  18.848  67.461  1.00  0.00    -0.300 A  
HETATM   13  N   UNL     1      -9.826  16.643  68.101  1.00  0.00    -0.244 NA 
HETATM   14  C   UNL     1     -10.077  18.831  65.011  1.00  0.00     2.003 A  
HETATM   15  C   UNL     1      -8.621  19.903  66.550  1.00  0.00    -0.390 A  
HETATM   16  C   UNL     1      -9.251  19.888  65.319  1.00  0.00     0.965 A  
BRANCH  13  17
HETATM   17  C   UNL     1      -9.022  16.634  69.350  1.00  0.00     0.090 C  
HETATM   18  C   UNL     1      -7.295  15.003  68.383  1.00  0.00    -0.112 C  
HETATM   19  C   UNL     1      -8.223  15.318  69.586  1.00  0.00    -0.115 C  
HETATM   20  C   UNL     1      -7.462  15.458  70.914  1.00  0.00     1.767 C  
BRANCH  18  21
HETATM   21  N   UNL     1      -6.607  13.692  68.293  1.00  0.00    -0.095 NA 
HETATM   22  C   UNL     1      -7.390  12.602  68.881  1.00  0.00    -0.016 C  
HETATM   23  C   UNL     1      -6.399  13.400  66.862  1.00  0.00     1.189 C  
ENDBRANCH  18  21
ENDBRANCH  13  17
ENDBRANCH   2   3
TORSDOF 3
ENDMDL
MODEL      185
REMARK 921   NORMALIZED FREE ENERGY PREDICTED BY IDOCK:    4.40 KCAL/MOL
REMARK 922        TOTAL FREE ENERGY PREDICTED BY IDOCK:    4.97 KCAL/MOL
REMARK 923 INTER-LIGAND FREE ENERGY PREDICTED BY IDOCK:    4.87 KCAL/MOL
REMARK 924 INTRA-LIGAND FREE ENERGY PREDICTED BY IDOCK:    0.10 KCAL/MOL
REMARK 927      BINDING AFFINITY PREDICTED BY RF-SCORE:    0.00 PKD
ROOT
HETATM    1  C   UNL     1     -11.089  19.438  71.191  1.00  0.00     4.948 C  
HETATM    2  O   UNL     1     -10.300  18.619  70.334  1.00  0.00     1.034 OA 
ENDROOT
BRANCH   2   3
HETATM    3  C   UNL     1      -9.865  19.227  69.187  1.00  0.00    -0.334 A  
HETATM    4  C   UNL     1      -8.873  18.539  68.469  1.00  0.00    -0.351 A  
HETATM    5  C   UNL     1      -8.328  19.015  67.251  1.00  0.00    -0.276 A  
HETATM    6  C   UNL     1      -8.828  20.259  66.810  1.00  0.00    -0.270 A  
HETATM    7  C   UNL     1      -9.798  20.962  67.547  1.00  0.00    -0.295 A  
HETATM    8  S   UNL     1      -8.336  21.062  65.315  1.00  0.00     2.171 SA 
HETATM    9  C   UNL     1      -7.096  19.968  64.676  1.00  0.00     0.379 A  
HETATM   10  C   UNL     1     -10.312  20.455  68.731  1.00  0.00    -0.052 A  
HETATM   11  C   UNL     1      -6.715  18.762  65.303  1.00  0.00    -0.145 A  
HETATM   12  C   UNL     1      -5.703  18.035  64.624  1.00  0.00     0.349 A  
HETATM   13  N   UNL     1      -7.325  18.302  66.518  1.00  0.00    -0.219 NA 
HETATM   14  C   UNL     1      -6.511  20.398  63.461  1.00  0.00     0.107 A  
HETATM   15  C   UNL     1      -5.126  18.470  63.416  1.00  0.00     0.014 A  
HETATM   16  C   UNL     1      -5.538  19.654  62.833  1.00  0.00    -0.337 A  
BRANCH  13  17
HETATM   17  C   UNL     1      -6.950  16.959  67.033  1.00  0.00    -0.200 C  
HETATM   18  C   UNL     1      -9.055  15.858  66.069  1.00  0.00    -0.328 C  
HETATM   19  C   UNL     1      -8.162  16.027  67.326  1.00  0.00    -0.209 C  
HETATM   20  C   UNL     1      -7.615  14.694  67.862  1.00  0.00    -0.151 C  
BRANCH  18  21
HETATM   21  N   UNL     1     -10.376  15.192  66.175  1.00  0.00    -0.286 NA 
HETATM   22  C   UNL     1     -11.144  15.644  67.339  1.00  0.00    -0.260 C  
HETATM   23  C   UNL     1     -11.137  15.524  64.954  1.00  0.00    -0.416 C  
ENDBRANCH  18  21
ENDBRANCH  13  17
ENDBRANCH   2   3
TORSDOF 3
ENDMDL
MODEL      186
REMARK 921   NORMALIZED FREE ENERGY PREDICTED BY IDOCK:    4.44 KCAL/MOL
REMARK 922        TOTAL FREE ENERGY PREDICTED BY IDOCK:    5.02 KCAL/MOL
REMARK 923 INTER-LIGAND FREE ENERGY PREDICTED BY IDOCK:    1.29 KCAL/MOL
REMARK 924 INTRA-LIGAND FREE ENERGY PREDICTED BY IDOCK:    3.74 KCAL/MOL
REMARK 927      BINDING AFFINITY PREDICTED BY RF-SCORE:    0.00 PKD
ROOT
HETATM    1  C   UNL     1     -13.362  15.040  63.557  1.00  0.00     3.074 C  
HETATM    2  O   UNL     1     -12.841  15.185  64.874  1.00  0.00    -0.038 OA 
ENDROOT
BRANCH   2   3
HETATM    3  C   UNL     1     -12.033  14.163  65.296  1.00  0.00    -0.381 A  
HETATM    4  C   UNL     1     -10.743  14.534  65.709  1.00  0.00    -0.320 A  
HETATM    5  C   UNL     1      -9.789  13.607  66.194  1.00  0.00    -0.293 A  
HETATM    6  C   UNL     1     -10.208  12.259  66.210  1.00  0.00    -0.229 A  
HETATM    7  C   UNL     1     -11.489  11.885  65.766  1.00  0.00    -0.326 A  
HETATM    8  S   UNL     1      -9.224  10.911  66.789  1.00  0.00    -0.161 SA 
HETATM    9  C   UNL     1      -7.693  11.700  67.207  1.00  0.00    -0.154 A  
HETATM   10  C   UNL     1     -12.398  12.827  65.306  1.00  0.00    -0.546 A  
HETATM   11  C   UNL     1      -7.465  13.088  67.085  1.00  0.00     0.009 A  
HETATM   12  C   UNL     1      -6.169  13.514  67.475  1.00  0.00    -0.073 A  
HETATM   13  N   UNL     1      -8.478  13.994  66.623  1.00  0.00     0.026 NA 
HETATM   14  C   UNL     1      -6.698  10.819  67.693  1.00  0.00    -0.069 A  
HETATM   15  C   UNL     1      -5.185  12.630  67.957  1.00  0.00    -0.082 A  
HETATM   16  C   UNL     1      -5.456  11.278  68.070  1.00  0.00    -0.042 A  
BRANCH  13  17
HETATM   17  C   UNL     1      -8.189  15.451  66.651  1.00  0.00    -0.164 C  
HETATM   18  C   UNL     1      -6.650  15.240  68.691  1.00  0.00    -0.097 C  
HETATM   19  C   UNL     1      -7.844  16.007  68.065  1.00  0.00    -0.142 C  
HETATM   20  C   UNL     1      -7.587  17.517  67.930  1.00  0.00    -0.204 C  
BRANCH  18  21
HETATM   21  N   UNL     1      -6.290  15.453  70.114  1.00  0.00    -0.128 NA 
HETATM   22  C   UNL     1      -5.806  16.811  70.377  1.00  0.00    -0.032 C  
HETATM   23  C   UNL     1      -7.507  15.226  70.917  1.00  0.00     1.658 C  
ENDBRANCH  18  21
ENDBRANCH  13  17
ENDBRANCH   2   3
TORSDOF 3
ENDMDL
MODEL      187
REMARK 921   NORMALIZED FREE ENERGY PREDICTED BY IDOCK:    7.21 KCAL/MOL
REMARK 922        TOTAL FREE ENERGY PREDICTED BY IDOCK:    8.27 KCAL/MOL
REMARK 923 INTER-LIGAND FREE ENERGY PREDICTED BY IDOCK:    7.14 KCAL/MOL
REMARK 924 INTRA-LIGAND FREE ENERGY PREDICTED BY IDOCK:    1.13 KCAL/MOL
REMARK 927      BINDING AFFINITY PREDICTED BY RF-SCORE:    0.00 PKD
ROOT
HETATM    1  C   UNL     1      -5.923  19.546  72.801  1.00  0.00     2.029 C  
HETATM    2  O   UNL     1      -5.773  19.193  71.430  1.00  0.00    -0.176 OA 
ENDROOT
BRANCH   2   3
HETATM    3  C   UNL     1      -6.934  19.160  70.706  1.00  0.00     1.248 A  
HETATM    4  C   UNL     1      -6.946  18.283  69.609  1.00  0.00     0.112 A  
HETATM    5  C   UNL     1      -8.072  18.110  68.768  1.00  0.00    -0.236 A  
HETATM    6  C   UNL     1      -9.193  18.907  69.086  1.00  0.00    -0.077 A  
HETATM    7  C   UNL     1      -9.169  19.808  70.166  1.00  0.00     0.975 A  
HETATM    8  S   UNL     1     -10.730  18.867  68.215  1.00  0.00     0.147 SA 
HETATM    9  C   UNL     1     -10.410  17.704  66.916  1.00  0.00    -0.329 A  
HETATM   10  C   UNL     1      -8.047  19.940  70.971  1.00  0.00     1.978 A  
HETATM   11  C   UNL     1      -9.183  17.025  66.755  1.00  0.00    -0.252 A  
HETATM   12  C   UNL     1      -9.136  16.137  65.649  1.00  0.00     0.042 A  
HETATM   13  N   UNL     1      -8.081  17.206  67.657  1.00  0.00    -0.177 NA 
HETATM   14  C   UNL     1     -11.501  17.495  66.040  1.00  0.00     1.499 A  
HETATM   15  C   UNL     1     -10.227  15.936  64.782  1.00  0.00     0.348 A  
HETATM   16  C   UNL     1     -11.414  16.616  64.984  1.00  0.00     0.290 A  
BRANCH  13  17
HETATM   17  C   UNL     1      -6.877  16.352  67.482  1.00  0.00    -0.152 C  
HETATM   18  C   UNL     1      -8.266  14.207  67.280  1.00  0.00    -0.181 C  
HETATM   19  C   UNL     1      -7.058  14.886  67.975  1.00  0.00    -0.145 C  
HETATM   20  C   UNL     1      -5.733  14.142  67.743  1.00  0.00    -0.065 C  
BRANCH  18  21
HETATM   21  N   UNL     1      -8.757  12.889  67.751  1.00  0.00    -0.176 NA 
HETATM   22  C   UNL     1      -8.478  12.659  69.172  1.00  0.00     0.655 C  
HETATM   23  C   UNL     1     -10.219  12.864  67.551  1.00  0.00    -0.213 C  
ENDBRANCH  18  21
ENDBRANCH  13  17
ENDBRANCH   2   3
TORSDOF 3
ENDMDL
MODEL      188
REMARK 921   NORMALIZED FREE ENERGY PREDICTED BY IDOCK:    7.30 KCAL/MOL
REMARK 922        TOTAL FREE ENERGY PREDICTED BY IDOCK:    8.39 KCAL/MOL
REMARK 923 INTER-LIGAND FREE ENERGY PREDICTED BY IDOCK:    8.40 KCAL/MOL
REMARK 924 INTRA-LIGAND FREE ENERGY PREDICTED BY IDOCK:   -0.01 KCAL/MOL
REMARK 927      BINDING AFFINITY PREDICTED BY RF-SCORE:    0.00 PKD
ROOT
HETATM    1  C   UNL     1      -6.622   9.717  66.565  1.00  0.00    -0.072 C  
HETATM    2  O   UNL     1      -7.225  10.964  66.893  1.00  0.00    -0.109 OA 
ENDROOT
BRANCH   2   3
HETATM    3  C   UNL     1      -6.967  11.421  68.157  1.00  0.00    -0.069 A  
HETATM    4  C   UNL     1      -6.661  12.788  68.263  1.00  0.00    -0.087 A  
HETATM    5  C   UNL     1      -6.390  13.427  69.497  1.00  0.00    -0.106 A  
HETATM    6  C   UNL     1      -6.416  12.588  70.632  1.00  0.00     0.898 A  
HETATM    7  C   UNL     1      -6.690  11.213  70.521  1.00  0.00     0.527 A  
HETATM    8  S   UNL     1      -6.137  13.135  72.289  1.00  0.00     2.199 SA 
HETATM    9  C   UNL     1      -5.772  14.856  72.073  1.00  0.00     0.313 A  
HETATM   10  C   UNL     1      -6.960  10.628  69.292  1.00  0.00    -0.096 A  
HETATM   11  C   UNL     1      -5.770  15.508  70.820  1.00  0.00     0.003 A  
HETATM   12  C   UNL     1      -5.452  16.889  70.870  1.00  0.00    -0.024 A  
HETATM   13  N   UNL     1      -6.090  14.824  69.599  1.00  0.00    -0.112 NA 
HETATM   14  C   UNL     1      -5.487  15.546  73.275  1.00  0.00     1.121 A  
HETATM   15  C   UNL     1      -5.168  17.567  72.071  1.00  0.00     0.846 A  
HETATM   16  C   UNL     1      -5.192  16.891  73.276  1.00  0.00     4.834 A  
BRANCH  13  17
HETATM   17  C   UNL     1      -6.188  15.620  68.348  1.00  0.00    -0.102 C  
HETATM   18  C   UNL     1      -8.591  16.361  68.853  1.00  0.00    -0.250 C  
HETATM   19  C   UNL     1      -7.636  15.756  67.791  1.00  0.00    -0.157 C  
HETATM   20  C   UNL     1      -7.569  16.587  66.499  1.00  0.00    -0.304 C  
BRANCH  18  21
HETATM   21  N   UNL     1     -10.055  16.379  68.618  1.00  0.00    -0.232 NA 
HETATM   22  C   UNL     1     -10.537  17.688  68.167  1.00  0.00    -0.356 C  
HETATM   23  C   UNL     1     -10.346  15.386  67.566  1.00  0.00    -0.264 C  
ENDBRANCH  18  21
ENDBRANCH  13  17
ENDBRANCH   2   3
TORSDOF 3
ENDMDL
MODEL      189
REMARK 921   NORMALIZED FREE ENERGY PREDICTED BY IDOCK:   16.77 KCAL/MOL
REMARK 922        TOTAL FREE ENERGY PREDICTED BY IDOCK:   19.51 KCAL/MOL
REMARK 923 INTER-LIGAND FREE ENERGY PREDICTED BY IDOCK:   19.71 KCAL/MOL
REMARK 924 INTRA-LIGAND FREE ENERGY PREDICTED BY IDOCK:   -0.20 KCAL/MOL
REMARK 927      BINDING AFFINITY PREDICTED BY RF-SCORE:    0.00 PKD
ROOT
HETATM    1  C   UNL     1     -12.527   9.520  70.863  1.00  0.00    -0.202 C  
HETATM    2  O   UNL     1     -11.163   9.889  70.689  1.00  0.00    -0.292 OA 
ENDROOT
BRANCH   2   3
HETATM    3  C   UNL     1     -10.864  10.458  69.480  1.00  0.00    -0.255 A  
HETATM    4  C   UNL     1     -10.353  11.766  69.530  1.00  0.00     0.354 A  
HETATM    5  C   UNL     1      -9.973  12.493  68.376  1.00  0.00    -0.212 A  
HETATM    6  C   UNL     1     -10.169  11.825  67.148  1.00  0.00    -0.212 A  
HETATM    7  C   UNL     1     -10.711  10.528  67.097  1.00  0.00    -0.323 A  
HETATM    8  S   UNL     1      -9.756  12.495  65.566  1.00  0.00    -0.046 SA 
HETATM    9  C   UNL     1      -9.169  14.118  65.973  1.00  0.00     0.030 A  
HETATM   10  C   UNL     1     -11.063   9.847  68.254  1.00  0.00    -0.207 A  
HETATM   11  C   UNL     1      -9.079  14.612  67.293  1.00  0.00    -0.206 A  
HETATM   12  C   UNL     1      -8.582  15.937  67.398  1.00  0.00    -0.189 A  
HETATM   13  N   UNL     1      -9.442  13.822  68.435  1.00  0.00    -0.210 NA 
HETATM   14  C   UNL     1      -8.779  14.893  64.855  1.00  0.00     4.093 A  
HETATM   15  C   UNL     1      -8.198  16.702  66.280  1.00  0.00    -0.365 A  
HETATM   16  C   UNL     1      -8.293  16.172  65.006  1.00  0.00     4.192 A  
BRANCH  13  17
HETATM   17  C   UNL     1      -9.191  14.381  69.789  1.00  0.00     0.752 C  
HETATM   18  C   UNL     1     -11.436  15.618  69.838  1.00  0.00    -0.338 C  
HETATM   19  C   UNL     1      -9.906  15.737  70.062  1.00  0.00    -0.044 C  
HETATM   20  C   UNL     1      -9.539  16.187  71.486  1.00  0.00     4.428 C  
BRANCH  18  21
HETATM   21  N   UNL     1     -12.287  16.833  69.829  1.00  0.00     1.258 NA 
HETATM   22  C   UNL     1     -11.701  17.926  69.048  1.00  0.00     2.985 C  
HETATM   23  C   UNL     1     -13.579  16.463  69.219  1.00  0.00     4.725 C  
ENDBRANCH  18  21
ENDBRANCH  13  17
ENDBRANCH   2   3
TORSDOF 3
ENDMDL
MODEL      190
REMARK 921   NORMALIZED FREE ENERGY PREDICTED BY IDOCK:   22.20 KCAL/MOL
REMARK 922        TOTAL FREE ENERGY PREDICTED BY IDOCK:   25.89 KCAL/MOL
REMARK 923 INTER-LIGAND FREE ENERGY PREDICTED BY IDOCK:   25.94 KCAL/MOL
REMARK 924 INTRA-LIGAND FREE ENERGY PREDICTED BY IDOCK:   -0.05 KCAL/MOL
REMARK 927      BINDING AFFINITY PREDICTED BY RF-SCORE:    0.00 PKD
ROOT
HETATM    1  C   UNL     1     -12.243  20.043  72.008  1.00  0.00    17.324 C  
HETATM    2  O   UNL     1     -11.241  19.086  71.681  1.00  0.00     3.458 OA 
ENDROOT
BRANCH   2   3
HETATM    3  C   UNL     1     -10.531  19.354  70.541  1.00  0.00     1.741 A  
HETATM    4  C   UNL     1      -9.610  18.368  70.149  1.00  0.00     1.589 A  
HETATM    5  C   UNL     1      -8.811  18.475  68.985  1.00  0.00    -0.051 A  
HETATM    6  C   UNL     1      -8.974  19.666  68.245  1.00  0.00    -0.323 A  
HETATM    7  C   UNL     1      -9.873  20.666  68.657  1.00  0.00     0.246 A  
HETATM    8  S   UNL     1      -8.119  20.039  66.744  1.00  0.00    -0.315 SA 
HETATM    9  C   UNL     1      -7.054  18.636  66.547  1.00  0.00    -0.220 A  
HETATM   10  C   UNL     1     -10.645  20.518  69.800  1.00  0.00     0.670 A  
HETATM   11  C   UNL     1      -7.023  17.541  67.437  1.00  0.00    -0.164 A  
HETATM   12  C   UNL     1      -6.097  16.522  67.094  1.00  0.00    -0.196 A  
HETATM   13  N   UNL     1      -7.882  17.461  68.585  1.00  0.00    -0.271 NA 
HETATM   14  C   UNL     1      -6.225  18.692  65.400  1.00  0.00    -0.314 A  
HETATM   15  C   UNL     1      -5.276  16.586  65.952  1.00  0.00     1.716 A  
HETATM   16  C   UNL     1      -5.347  17.674  65.102  1.00  0.00     0.368 A  
BRANCH  13  17
HETATM   17  C   UNL     1      -7.869  16.212  69.390  1.00  0.00    -0.126 C  
HETATM   18  C   UNL     1      -8.784  14.799  67.456  1.00  0.00    -0.186 C  
HETATM   19  C   UNL     1      -8.935  15.162  68.956  1.00  0.00    -0.219 C  
HETATM   20  C   UNL     1      -8.806  13.945  69.887  1.00  0.00     1.763 C  
BRANCH  18  21
HETATM   21  N   UNL     1      -9.823  13.987  66.775  1.00  0.00    -0.265 NA 
HETATM   22  C   UNL     1     -10.485  14.715  65.688  1.00  0.00    -0.342 C  
HETATM   23  C   UNL     1      -9.153  12.802  66.205  1.00  0.00     0.059 C  
ENDBRANCH  18  21
ENDBRANCH  13  17
ENDBRANCH   2   3
TORSDOF 3
ENDMDL
MODEL      191
REMARK 921   NORMALIZED FREE ENERGY PREDICTED BY IDOCK:   30.79 KCAL/MOL
REMARK 922        TOTAL FREE ENERGY PREDICTED BY IDOCK:   36.00 KCAL/MOL
REMARK 923 INTER-LIGAND FREE ENERGY PREDICTED BY IDOCK:   16.30 KCAL/MOL
REMARK 924 INTRA-LIGAND FREE ENERGY PREDICTED BY IDOCK:   19.70 KCAL/MOL
REMARK 927      BINDING AFFINITY PREDICTED BY RF-SCORE:    0.00 PKD
ROOT
HETATM    1  C   UNL     1      -8.675  16.695  65.334  1.00  0.00     1.274 C  
HETATM    2  O   UNL     1      -8.534  16.067  66.604  1.00  0.00    -0.230 OA 
ENDROOT
BRANCH   2   3
HETATM    3  C   UNL     1      -9.497  15.142  66.907  1.00  0.00    -0.238 A  
HETATM    4  C   UNL     1      -9.781  14.979  68.273  1.00  0.00    -0.215 A  
HETATM    5  C   UNL     1     -10.763  14.081  68.758  1.00  0.00    -0.259 A  
HETATM    6  C   UNL     1     -11.431  13.324  67.771  1.00  0.00    -0.317 A  
HETATM    7  C   UNL     1     -11.123  13.465  66.406  1.00  0.00    -0.312 A  
HETATM    8  S   UNL     1     -12.712  12.154  68.104  1.00  0.00     2.559 SA 
HETATM    9  C   UNL     1     -12.809  12.177  69.874  1.00  0.00     0.619 A  
HETATM   10  C   UNL     1     -10.159  14.364  65.972  1.00  0.00    -0.338 A  
HETATM   11  C   UNL     1     -12.011  13.005  70.693  1.00  0.00    -0.138 A  
HETATM   12  C   UNL     1     -12.248  12.867  72.085  1.00  0.00     0.961 A  
HETATM   13  N   UNL     1     -11.054  13.928  70.152  1.00  0.00     0.102 NA 
HETATM   14  C   UNL     1     -13.772  11.293  70.416  1.00  0.00     1.875 A  
HETATM   15  C   UNL     1     -13.207  11.984  72.616  1.00  0.00     0.796 A  
HETATM   16  C   UNL     1     -13.974  11.199  71.774  1.00  0.00     0.713 A  
BRANCH  13  17
HETATM   17  C   UNL     1     -10.355  14.849  71.085  1.00  0.00     0.979 C  
HETATM   18  C   UNL     1     -10.122  16.684  69.309  1.00  0.00    -0.257 C  
HETATM   19  C   UNL     1      -9.385  15.848  70.388  1.00  0.00     1.107 C  
HETATM   20  C   UNL     1      -8.733  16.714  71.478  1.00  0.00     8.458 C  
BRANCH  18  21
HETATM   21  N   UNL     1      -9.355  17.541  68.373  1.00  0.00    -0.279 NA 
HETATM   22  C   UNL     1      -8.250  16.824  67.728  1.00  0.00    -0.183 C  
HETATM   23  C   UNL     1     -10.289  17.998  67.326  1.00  0.00    -0.378 C  
ENDBRANCH  18  21
ENDBRANCH  13  17
ENDBRANCH   2   3
TORSDOF 3
ENDMDL
MODEL      192
REMARK 921   NORMALIZED FREE ENERGY PREDICTED BY IDOCK:   32.83 KCAL/MOL
REMARK 922        TOTAL FREE ENERGY PREDICTED BY IDOCK:   38.38 KCAL/MOL
REMARK 923 INTER-LIGAND FREE ENERGY PREDICTED BY IDOCK:   37.55 KCAL/MOL
REMARK 924 INTRA-LIGAND FREE ENERGY PREDICTED BY IDOCK:    0.83 KCAL/MOL
REMARK 927      BINDING AFFINITY PREDICTED BY RF-SCORE:    0.00 PKD
ROOT
HETATM    1  C   UNL     1      -7.561  17.036  73.766  1.00  0.00    14.489 C  
HETATM    2  O   UNL     1      -6.602  18.087  73.815  1.00  0.00     5.371 OA 
ENDROOT
BRANCH   2   3
HETATM    3  C   UNL     1      -6.348  18.699  72.617  1.00  0.00     3.075 A  
HETATM    4  C   UNL     1      -6.603  17.929  71.471  1.00  0.00     3.485 A  
HETATM    5  C   UNL     1      -6.415  18.415  70.154  1.00  0.00     0.234 A  
HETATM    6  C   UNL     1      -5.919  19.733  70.060  1.00  0.00    -0.302 A  
HETATM    7  C   UNL     1      -5.633  20.492  71.210  1.00  0.00    -0.222 A  
HETATM    8  S   UNL     1      -5.620  20.585  68.542  1.00  0.00    -0.315 SA 
HETATM    9  C   UNL     1      -6.015  19.359  67.324  1.00  0.00    -0.178 A  
HETATM   10  C   UNL     1      -5.840  19.980  72.482  1.00  0.00     0.836 A  
HETATM   11  C   UNL     1      -6.477  18.062  67.637  1.00  0.00    -0.181 A  
HETATM   12  C   UNL     1      -6.736  17.237  66.512  1.00  0.00    -0.286 A  
HETATM   13  N   UNL     1      -6.688  17.628  68.989  1.00  0.00    -0.242 NA 
HETATM   14  C   UNL     1      -5.840  19.789  65.987  1.00  0.00    -0.182 A  
HETATM   15  C   UNL     1      -6.558  17.672  65.185  1.00  0.00     0.969 A  
HETATM   16  C   UNL     1      -6.113  18.956  64.926  1.00  0.00    -0.301 A  
BRANCH  13  17
HETATM   17  C   UNL     1      -7.298  16.291  69.214  1.00  0.00    -0.221 C  
HETATM   18  C   UNL     1      -9.590  17.289  69.785  1.00  0.00     0.709 C  
HETATM   19  C   UNL     1      -8.484  16.294  70.224  1.00  0.00     1.848 C  
HETATM   20  C   UNL     1      -8.993  14.849  70.360  1.00  0.00     1.189 C  
BRANCH  18  21
HETATM   21  N   UNL     1     -10.709  17.616  70.703  1.00  0.00     1.208 NA 
HETATM   22  C   UNL     1     -11.838  16.691  70.568  1.00  0.00     0.686 C  
HETATM   23  C   UNL     1     -10.190  17.522  72.082  1.00  0.00     5.880 C  
ENDBRANCH  18  21
ENDBRANCH  13  17
ENDBRANCH   2   3
TORSDOF 3
ENDMDL
MODEL      193
REMARK 921   NORMALIZED FREE ENERGY PREDICTED BY IDOCK:   37.46 KCAL/MOL
REMARK 922        TOTAL FREE ENERGY PREDICTED BY IDOCK:   43.83 KCAL/MOL
REMARK 923 INTER-LIGAND FREE ENERGY PREDICTED BY IDOCK:   37.77 KCAL/MOL
REMARK 924 INTRA-LIGAND FREE ENERGY PREDICTED BY IDOCK:    6.06 KCAL/MOL
REMARK 927      BINDING AFFINITY PREDICTED BY RF-SCORE:    0.00 PKD
ROOT
HETATM    1  C   UNL     1      -6.153  10.141  66.851  1.00  0.00    -0.056 C  
HETATM    2  O   UNL     1      -7.161  10.577  67.757  1.00  0.00    -0.083 OA 
ENDROOT
BRANCH   2   3
HETATM    3  C   UNL     1      -8.299   9.816  67.771  1.00  0.00    -0.114 A  
HETATM    4  C   UNL     1      -8.255   8.667  68.578  1.00  0.00    -0.122 A  
HETATM    5  C   UNL     1      -9.350   7.781  68.724  1.00  0.00    -0.146 A  
HETATM    6  C   UNL     1     -10.499   8.110  67.974  1.00  0.00    -0.183 A  
HETATM    7  C   UNL     1     -10.531   9.243  67.141  1.00  0.00    -0.319 A  
HETATM    8  S   UNL     1     -12.007   7.189  67.994  1.00  0.00     2.841 SA 
HETATM    9  C   UNL     1     -11.618   5.832  69.067  1.00  0.00     1.024 A  
HETATM   10  C   UNL     1      -9.438  10.091  67.034  1.00  0.00    -0.197 A  
HETATM   11  C   UNL     1     -10.370   5.669  69.707  1.00  0.00    -0.282 A  
HETATM   12  C   UNL     1     -10.268   4.514  70.523  1.00  0.00    -0.152 A  
HETATM   13  N   UNL     1      -9.302   6.616  69.557  1.00  0.00    -0.146 NA 
HETATM   14  C   UNL     1     -12.676   4.909  69.245  1.00  0.00    14.067 A  
HETATM   15  C   UNL     1     -11.326   3.600  70.694  1.00  0.00     5.184 A  
HETATM   16  C   UNL     1     -12.535   3.806  70.055  1.00  0.00    17.574 A  
BRANCH  13  17
HETATM   17  C   UNL     1      -8.073   6.429  70.371  1.00  0.00    -0.117 C  
HETATM   18  C   UNL     1      -9.310   5.083  72.169  1.00  0.00    -0.136 C  
HETATM   19  C   UNL     1      -8.337   6.260  71.897  1.00  0.00    -0.117 C  
HETATM   20  C   UNL     1      -6.979   6.093  72.597  1.00  0.00    -0.075 C  
BRANCH  18  21
HETATM   21  N   UNL     1      -9.872   4.876  73.526  1.00  0.00    -0.143 NA 
HETATM   22  C   UNL     1     -10.336   6.124  74.141  1.00  0.00    -0.294 C  
HETATM   23  C   UNL     1     -11.024   3.964  73.393  1.00  0.00    -0.233 C  
ENDBRANCH  18  21
ENDBRANCH  13  17
ENDBRANCH   2   3
TORSDOF 3
ENDMDL
MODEL      194
REMARK 921   NORMALIZED FREE ENERGY PREDICTED BY IDOCK:   38.29 KCAL/MOL
REMARK 922        TOTAL FREE ENERGY PREDICTED BY IDOCK:   44.80 KCAL/MOL
REMARK 923 INTER-LIGAND FREE ENERGY PREDICTED BY IDOCK:   43.75 KCAL/MOL
REMARK 924 INTRA-LIGAND FREE ENERGY PREDICTED BY IDOCK:    1.05 KCAL/MOL
REMARK 927      BINDING AFFINITY PREDICTED BY RF-SCORE:    0.00 PKD
ROOT
HETATM    1  C   UNL     1     -13.967  14.828  62.603  1.00  0.00     8.478 C  
HETATM    2  O   UNL     1     -13.773  15.056  63.995  1.00  0.00     1.594 OA 
ENDROOT
BRANCH   2   3
HETATM    3  C   UNL     1     -13.163  14.034  64.672  1.00  0.00     0.720 A  
HETATM    4  C   UNL     1     -12.226  14.420  65.645  1.00  0.00    -0.352 A  
HETATM    5  C   UNL     1     -11.520  13.494  66.450  1.00  0.00    -0.331 A  
HETATM    6  C   UNL     1     -11.796  12.134  66.192  1.00  0.00    -0.254 A  
HETATM    7  C   UNL     1     -12.709  11.748  65.194  1.00  0.00     1.268 A  
HETATM    8  S   UNL     1     -11.072  10.781  67.068  1.00  0.00    -0.079 SA 
HETATM    9  C   UNL     1      -9.957  11.592  68.181  1.00  0.00    -0.192 A  
HETATM   10  C   UNL     1     -13.387  12.689  64.433  1.00  0.00     0.453 A  
HETATM   11  C   UNL     1      -9.807  12.993  68.261  1.00  0.00    -0.225 A  
HETATM   12  C   UNL     1      -8.861  13.436  69.221  1.00  0.00     0.798 A  
HETATM   13  N   UNL     1     -10.575  13.895  67.449  1.00  0.00    -0.266 NA 
HETATM   14  C   UNL     1      -9.218  10.712  69.009  1.00  0.00    -0.177 A  
HETATM   15  C   UNL     1      -8.129  12.554  70.039  1.00  0.00     2.808 A  
HETATM   16  C   UNL     1      -8.316  11.188  69.933  1.00  0.00     1.078 A  
BRANCH  13  17
HETATM   17  C   UNL     1     -10.443  15.354  67.695  1.00  0.00    -0.272 C  
HETATM   18  C   UNL     1      -9.871  15.849  65.245  1.00  0.00     0.004 C  
HETATM   19  C   UNL     1      -9.465  16.079  66.723  1.00  0.00    -0.250 C  
HETATM   20  C   UNL     1      -9.427  17.566  67.113  1.00  0.00    -0.259 C  
BRANCH  18  21
HETATM   21  N   UNL     1      -8.964  16.262  64.146  1.00  0.00     6.200 NA 
HETATM   22  C   UNL     1      -9.402  17.496  63.487  1.00  0.00    15.981 C  
HETATM   23  C   UNL     1      -7.632  16.495  64.738  1.00  0.00     7.026 C  
ENDBRANCH  18  21
ENDBRANCH  13  17
ENDBRANCH   2   3
TORSDOF 3
ENDMDL
