MODEL        1
REMARK 921   NORMALIZED FREE ENERGY PREDICTED BY IDOCK:   -7.47 KCAL/MOL
REMARK 922        TOTAL FREE ENERGY PREDICTED BY IDOCK:   -9.05 KCAL/MOL
REMARK 923 INTER-LIGAND FREE ENERGY PREDICTED BY IDOCK:   -8.35 KCAL/MOL
REMARK 924 INTRA-LIGAND FREE ENERGY PREDICTED BY IDOCK:   -0.70 KCAL/MOL
REMARK 927      BINDING AFFINITY PREDICTED BY RF-SCORE:    0.00 PKD
ROOT
HETATM    1 BR   UNL     1      -5.805  11.692  70.202  1.00  0.00    -0.163 Br 
HETATM    2  C   UNL     2     -11.948  14.080  66.272  1.00  0.00    -0.432 C  
HETATM    3  C   UNL     2     -11.706  12.774  67.077  1.00  0.00    -0.440 C  
HETATM    4  C   UNL     2     -10.873  11.673  66.356  1.00  0.00    -0.287 C  
HETATM    5  C   UNL     2     -10.115  12.146  65.080  1.00  0.00    -0.288 C  
HETATM    6  C   UNL     2      -9.393  14.566  66.597  1.00  0.00    -0.281 C  
HETATM    7  C   UNL     2     -10.543  13.516  64.502  1.00  0.00    -0.424 C  
HETATM    8  C   UNL     2     -12.865  13.756  65.088  1.00  0.00    -0.340 C  
HETATM    9  O   UNL     2     -12.765  14.558  63.898  1.00  0.00    -0.782 OA 
HETATM   10  N   UNL     2     -10.602  14.550  65.665  1.00  0.00    -0.313 N  
HETATM   11  C   UNL     2     -10.700  16.007  65.150  1.00  0.00    -0.409 C  
HETATM   12  C   UNL     2     -11.963  13.378  63.965  1.00  0.00    -0.464 C  
ENDROOT
BRANCH   4  13
HETATM   13  O   UNL     2      -9.882  11.037  67.258  1.00  0.00    -0.175 OA 
BRANCH  13  14
HETATM   14  C   UNL     2     -10.264   9.950  68.010  1.00  0.00    -0.182 C  
HETATM   15  C   UNL     2     -10.862   9.743  70.522  1.00  0.00    -0.387 A  
HETATM   16  O   UNL     2     -10.898   9.035  67.524  1.00  0.00    -0.232 OA 
HETATM   17  C   UNL     2      -8.704   8.818  69.558  1.00  0.00    -0.138 C  
HETATM   18  C   UNL     2      -9.745   9.952  69.477  1.00  0.00    -0.238 C  
HETATM   19  O   UNL     2      -7.678   8.926  68.572  1.00  0.00    -0.095 OA 
HETATM   20  C   UNL     2     -10.774   8.814  71.586  1.00  0.00    -0.397 A  
HETATM   21  C   UNL     2     -11.858   8.557  72.439  1.00  0.00    -0.437 A  
HETATM   22  H   UNL     2      -7.037   8.227  68.622  1.00  0.00     0.000 HD 
HETATM   23  C   UNL     2     -13.042   9.263  72.269  1.00  0.00    -0.517 A  
HETATM   24  C   UNL     2     -13.113  10.268  71.308  1.00  0.00    -0.492 A  
HETATM   25  C   UNL     2     -12.027  10.517  70.458  1.00  0.00    -0.436 A  
ENDBRANCH  13  14
ENDBRANCH   4  13
TORSDOF 2
ENDMDL
MODEL        2
REMARK 921   NORMALIZED FREE ENERGY PREDICTED BY IDOCK:   -7.45 KCAL/MOL
REMARK 922        TOTAL FREE ENERGY PREDICTED BY IDOCK:   -9.03 KCAL/MOL
REMARK 923 INTER-LIGAND FREE ENERGY PREDICTED BY IDOCK:   -8.21 KCAL/MOL
REMARK 924 INTRA-LIGAND FREE ENERGY PREDICTED BY IDOCK:   -0.81 KCAL/MOL
REMARK 927      BINDING AFFINITY PREDICTED BY RF-SCORE:    0.00 PKD
ROOT
HETATM    1 BR   UNL     1      -7.270  11.201  69.073  1.00  0.00    -0.121 Br 
HETATM    2  C   UNL     2     -10.066  18.322  68.458  1.00  0.00    -0.398 C  
HETATM    3  C   UNL     2     -10.759  16.942  68.282  1.00  0.00    -0.377 C  
HETATM    4  C   UNL     2     -10.521  16.229  66.919  1.00  0.00    -0.302 C  
HETATM    5  C   UNL     2      -9.365  16.817  66.057  1.00  0.00    -0.245 C  
HETATM    6  C   UNL     2      -7.806  16.996  68.551  1.00  0.00    -0.251 C  
HETATM    7  C   UNL     2      -8.838  18.209  66.482  1.00  0.00    -0.271 C  
HETATM    8  C   UNL     2     -10.718  19.318  67.495  1.00  0.00    -0.463 C  
HETATM    9  O   UNL     2      -9.936  20.424  67.010  1.00  0.00    -0.450 OA 
HETATM   10  N   UNL     2      -8.585  18.196  68.019  1.00  0.00    -0.259 N  
HETATM   11  C   UNL     2      -7.758  19.420  68.487  1.00  0.00    -0.345 C  
HETATM   12  C   UNL     2      -9.942  19.228  66.227  1.00  0.00    -0.413 C  
ENDROOT
BRANCH   4  13
HETATM   13  O   UNL     2     -10.266  14.777  67.082  1.00  0.00    -0.243 OA 
BRANCH  13  14
HETATM   14  C   UNL     2     -11.270  13.973  67.568  1.00  0.00    -0.309 C  
HETATM   15  C   UNL     2     -11.679  13.003  69.935  1.00  0.00    -0.326 A  
HETATM   16  O   UNL     2     -12.399  14.026  67.120  1.00  0.00    -0.373 OA 
HETATM   17  C   UNL     2     -10.927  11.559  67.987  1.00  0.00    -0.231 C  
HETATM   18  C   UNL     2     -10.825  12.947  68.651  1.00  0.00    -0.288 C  
HETATM   19  O   UNL     2     -10.204  11.471  66.760  1.00  0.00    -0.210 OA 
HETATM   20  C   UNL     2     -12.228  11.856  70.559  1.00  0.00    -0.426 A  
HETATM   21  C   UNL     2     -13.107  11.953  71.649  1.00  0.00    -0.433 A  
HETATM   22  H   UNL     2     -10.268  10.616  66.350  1.00  0.00     0.000 HD 
HETATM   23  C   UNL     2     -13.418  13.205  72.165  1.00  0.00    -0.653 A  
HETATM   24  C   UNL     2     -12.795  14.337  71.647  1.00  0.00    -0.424 A  
HETATM   25  C   UNL     2     -11.921  14.233  70.557  1.00  0.00    -0.402 A  
ENDBRANCH  13  14
ENDBRANCH   4  13
TORSDOF 2
ENDMDL
MODEL        3
REMARK 921   NORMALIZED FREE ENERGY PREDICTED BY IDOCK:   -7.26 KCAL/MOL
REMARK 922        TOTAL FREE ENERGY PREDICTED BY IDOCK:   -8.80 KCAL/MOL
REMARK 923 INTER-LIGAND FREE ENERGY PREDICTED BY IDOCK:   -8.25 KCAL/MOL
REMARK 924 INTRA-LIGAND FREE ENERGY PREDICTED BY IDOCK:   -0.56 KCAL/MOL
REMARK 927      BINDING AFFINITY PREDICTED BY RF-SCORE:    0.00 PKD
ROOT
HETATM    1 BR   UNL     1      -5.759  16.651  69.837  1.00  0.00    -0.216 Br 
HETATM    2  C   UNL     2     -10.598  13.710  64.657  1.00  0.00    -0.430 C  
HETATM    3  C   UNL     2     -10.208  15.184  64.958  1.00  0.00    -0.332 C  
HETATM    4  C   UNL     2     -10.907  15.836  66.187  1.00  0.00    -0.240 C  
HETATM    5  C   UNL     2     -11.631  14.842  67.142  1.00  0.00    -0.373 C  
HETATM    6  C   UNL     2      -9.285  13.085  66.838  1.00  0.00    -0.236 C  
HETATM    7  C   UNL     2     -11.863  13.414  66.590  1.00  0.00    -0.395 C  
HETATM    8  C   UNL     2     -12.062  13.678  64.207  1.00  0.00    -0.434 C  
HETATM    9  O   UNL     2     -12.832  12.488  64.447  1.00  0.00    -0.714 OA 
HETATM   10  N   UNL     2     -10.529  12.897  65.974  1.00  0.00    -0.272 N  
HETATM   11  C   UNL     2     -10.565  11.374  65.692  1.00  0.00    -0.258 C  
HETATM   12  C   UNL     2     -12.867  13.508  65.447  1.00  0.00    -0.363 C  
ENDROOT
BRANCH   4  13
HETATM   13  O   UNL     2      -9.967  16.641  67.006  1.00  0.00    -0.256 OA 
BRANCH  13  14
HETATM   14  C   UNL     2      -9.680  17.929  66.621  1.00  0.00    -0.319 C  
HETATM   15  C   UNL     2      -7.448  19.244  66.600  1.00  0.00    -0.246 A  
HETATM   16  O   UNL     2     -10.304  18.480  65.735  1.00  0.00    -0.590 OA 
HETATM   17  C   UNL     2      -9.298  19.734  68.268  1.00  0.00    -0.329 C  
HETATM   18  C   UNL     2      -8.577  18.636  67.460  1.00  0.00    -0.284 C  
HETATM   19  O   UNL     2     -10.393  19.236  69.036  1.00  0.00    -0.543 OA 
HETATM   20  C   UNL     2      -6.964  20.564  66.766  1.00  0.00    -0.330 A  
HETATM   21  C   UNL     2      -6.030  21.128  65.884  1.00  0.00    -0.284 A  
HETATM   22  H   UNL     2     -10.838  19.912  69.533  1.00  0.00     0.000 HD 
HETATM   23  C   UNL     2      -5.527  20.361  64.841  1.00  0.00    -0.211 A  
HETATM   24  C   UNL     2      -5.894  19.023  64.731  1.00  0.00    -0.317 A  
HETATM   25  C   UNL     2      -6.830  18.467  65.613  1.00  0.00    -0.279 A  
ENDBRANCH  13  14
ENDBRANCH   4  13
TORSDOF 2
ENDMDL
MODEL        4
REMARK 921   NORMALIZED FREE ENERGY PREDICTED BY IDOCK:   -7.15 KCAL/MOL
REMARK 922        TOTAL FREE ENERGY PREDICTED BY IDOCK:   -8.68 KCAL/MOL
REMARK 923 INTER-LIGAND FREE ENERGY PREDICTED BY IDOCK:   -8.20 KCAL/MOL
REMARK 924 INTRA-LIGAND FREE ENERGY PREDICTED BY IDOCK:   -0.48 KCAL/MOL
REMARK 927      BINDING AFFINITY PREDICTED BY RF-SCORE:    0.00 PKD
ROOT
HETATM    1 BR   UNL     1     -12.410  12.078  63.460  1.00  0.00    -0.583 Br 
HETATM    2  C   UNL     2      -8.636  17.790  66.927  1.00  0.00    -0.244 C  
HETATM    3  C   UNL     2      -8.610  16.258  67.181  1.00  0.00    -0.207 C  
HETATM    4  C   UNL     2      -9.800  15.684  68.006  1.00  0.00    -0.209 C  
HETATM    5  C   UNL     2     -11.014  16.645  68.174  1.00  0.00    -0.327 C  
HETATM    6  C   UNL     2     -10.663  17.331  65.330  1.00  0.00    -0.066 C  
HETATM    7  C   UNL     2     -10.763  18.129  67.813  1.00  0.00    -0.335 C  
HETATM    8  C   UNL     2      -8.430  18.507  68.265  1.00  0.00    -0.318 C  
HETATM    9  O   UNL     2      -8.991  19.820  68.439  1.00  0.00    -0.327 OA 
HETATM   10  N   UNL     2     -10.048  18.191  66.431  1.00  0.00    -0.373 N  
HETATM   11  C   UNL     2     -10.046  19.620  65.835  1.00  0.00    -0.397 C  
HETATM   12  C   UNL     2      -9.790  18.704  68.836  1.00  0.00    -0.351 C  
ENDROOT
BRANCH   4  13
HETATM   13  O   UNL     2     -10.310  14.409  67.445  1.00  0.00    -0.250 OA 
BRANCH  13  14
HETATM   14  C   UNL     2     -11.414  13.822  68.016  1.00  0.00    -0.310 C  
HETATM   15  C   UNL     2     -12.174  13.668  70.489  1.00  0.00    -0.438 A  
HETATM   16  O   UNL     2     -12.473  13.751  67.424  1.00  0.00    -0.208 OA 
HETATM   17  C   UNL     2     -11.276  11.663  69.215  1.00  0.00    -0.265 C  
HETATM   18  C   UNL     2     -11.171  13.188  69.417  1.00  0.00    -0.210 C  
HETATM   19  O   UNL     2     -10.413  11.173  68.190  1.00  0.00    -0.176 OA 
HETATM   20  C   UNL     2     -12.866  12.791  71.359  1.00  0.00    -0.371 A  
HETATM   21  C   UNL     2     -13.865  13.249  72.231  1.00  0.00    -0.637 A  
HETATM   22  H   UNL     2     -10.478  10.234  68.066  1.00  0.00     0.000 HD 
HETATM   23  C   UNL     2     -14.161  14.605  72.280  1.00  0.00    -0.588 A  
HETATM   24  C   UNL     2     -13.409  15.501  71.524  1.00  0.00    -0.593 A  
HETATM   25  C   UNL     2     -12.415  15.037  70.653  1.00  0.00    -0.422 A  
ENDBRANCH  13  14
ENDBRANCH   4  13
TORSDOF 2
ENDMDL
MODEL        5
REMARK 921   NORMALIZED FREE ENERGY PREDICTED BY IDOCK:   -6.71 KCAL/MOL
REMARK 922        TOTAL FREE ENERGY PREDICTED BY IDOCK:   -8.20 KCAL/MOL
REMARK 923 INTER-LIGAND FREE ENERGY PREDICTED BY IDOCK:   -7.79 KCAL/MOL
REMARK 924 INTRA-LIGAND FREE ENERGY PREDICTED BY IDOCK:   -0.41 KCAL/MOL
REMARK 927      BINDING AFFINITY PREDICTED BY RF-SCORE:    0.00 PKD
ROOT
HETATM    1 BR   UNL     1      -5.562  12.588  70.300  1.00  0.00    -0.167 Br 
HETATM    2  C   UNL     2     -10.491  13.497  64.488  1.00  0.00    -0.407 C  
HETATM    3  C   UNL     2     -10.009  14.498  65.574  1.00  0.00    -0.373 C  
HETATM    4  C   UNL     2     -10.685  14.366  66.971  1.00  0.00    -0.285 C  
HETATM    5  C   UNL     2     -11.492  13.053  67.195  1.00  0.00    -0.379 C  
HETATM    6  C   UNL     2      -9.264  11.645  65.878  1.00  0.00    -0.196 C  
HETATM    7  C   UNL     2     -11.809  12.224  65.926  1.00  0.00    -0.354 C  
HETATM    8  C   UNL     2     -11.946  13.827  64.137  1.00  0.00    -0.432 C  
HETATM    9  O   UNL     2     -12.799  12.769  63.665  1.00  0.00    -0.701 OA 
HETATM   10  N   UNL     2     -10.502  12.071  65.093  1.00  0.00    -0.278 N  
HETATM   11  C   UNL     2     -10.634  10.996  63.986  1.00  0.00    -0.324 C  
HETATM   12  C   UNL     2     -12.783  13.025  65.071  1.00  0.00    -0.410 C  
ENDROOT
BRANCH   4  13
HETATM   13  O   UNL     2      -9.709  14.488  68.081  1.00  0.00    -0.208 OA 
BRANCH  13  14
HETATM   14  C   UNL     2      -9.454  15.730  68.614  1.00  0.00    -0.208 C  
HETATM   15  C   UNL     2      -8.910  17.992  67.475  1.00  0.00    -0.252 A  
HETATM   16  O   UNL     2      -9.966  16.090  69.656  1.00  0.00    -0.263 OA 
HETATM   17  C   UNL     2      -7.164  16.654  68.742  1.00  0.00    -0.206 C  
HETATM   18  C   UNL     2      -8.408  16.577  67.834  1.00  0.00    -0.175 C  
HETATM   19  O   UNL     2      -6.692  15.373  69.157  1.00  0.00    -0.120 OA 
HETATM   20  C   UNL     2      -8.159  19.170  67.704  1.00  0.00    -0.299 A  
HETATM   21  C   UNL     2      -8.697  20.447  67.487  1.00  0.00    -0.370 A  
HETATM   22  H   UNL     2      -5.927  15.421  69.717  1.00  0.00     0.000 HD 
HETATM   23  C   UNL     2      -9.989  20.568  66.991  1.00  0.00    -0.489 A  
HETATM   24  C   UNL     2     -10.702  19.425  66.642  1.00  0.00    -0.529 A  
HETATM   25  C   UNL     2     -10.160  18.152  66.865  1.00  0.00    -0.362 A  
ENDBRANCH  13  14
ENDBRANCH   4  13
TORSDOF 2
ENDMDL
MODEL        6
REMARK 921   NORMALIZED FREE ENERGY PREDICTED BY IDOCK:   -6.65 KCAL/MOL
REMARK 922        TOTAL FREE ENERGY PREDICTED BY IDOCK:   -8.13 KCAL/MOL
REMARK 923 INTER-LIGAND FREE ENERGY PREDICTED BY IDOCK:   -7.66 KCAL/MOL
REMARK 924 INTRA-LIGAND FREE ENERGY PREDICTED BY IDOCK:   -0.46 KCAL/MOL
REMARK 927      BINDING AFFINITY PREDICTED BY RF-SCORE:    0.00 PKD
ROOT
HETATM    1 BR   UNL     1     -12.103  15.852  71.902  1.00  0.00    -0.617 Br 
HETATM    2  C   UNL     2      -8.156  19.721  66.578  1.00  0.00    -0.327 C  
HETATM    3  C   UNL     2      -9.376  18.767  66.442  1.00  0.00    -0.321 C  
HETATM    4  C   UNL     2      -9.058  17.244  66.492  1.00  0.00    -0.265 C  
HETATM    5  C   UNL     2      -7.633  16.881  67.005  1.00  0.00    -0.230 C  
HETATM    6  C   UNL     2      -8.026  18.939  69.076  1.00  0.00    -0.185 C  
HETATM    7  C   UNL     2      -6.615  18.045  67.070  1.00  0.00    -0.178 C  
HETATM    8  C   UNL     2      -7.280  19.568  65.330  1.00  0.00    -0.089 C  
HETATM    9  O   UNL     2      -5.870  19.828  65.441  1.00  0.00    -0.173 OA 
HETATM   10  N   UNL     2      -7.291  19.257  67.777  1.00  0.00    -0.249 N  
HETATM   11  C   UNL     2      -6.266  20.346  68.180  1.00  0.00    -0.288 C  
HETATM   12  C   UNL     2      -6.310  18.484  65.642  1.00  0.00    -0.273 C  
ENDROOT
BRANCH   4  13
HETATM   13  O   UNL     2     -10.037  16.492  67.315  1.00  0.00    -0.260 OA 
BRANCH  13  14
HETATM   14  C   UNL     2     -10.843  15.558  66.707  1.00  0.00    -0.291 C  
HETATM   15  C   UNL     2     -10.264  13.521  65.216  1.00  0.00    -0.323 A  
HETATM   16  O   UNL     2     -11.900  15.217  67.200  1.00  0.00    -0.233 OA 
HETATM   17  C   UNL     2     -11.329  15.628  64.283  1.00  0.00    -0.171 C  
HETATM   18  C   UNL     2     -10.341  15.059  65.321  1.00  0.00    -0.424 C  
HETATM   19  O   UNL     2     -11.487  17.043  64.377  1.00  0.00    -1.048 OA 
HETATM   20  C   UNL     2     -10.795  12.785  64.129  1.00  0.00    -0.437 A  
HETATM   21  C   UNL     2     -10.824  11.382  64.128  1.00  0.00    -0.431 A  
HETATM   22  H   UNL     2     -12.096  17.394  63.737  1.00  0.00     0.000 HD 
HETATM   23  C   UNL     2     -10.278  10.686  65.199  1.00  0.00    -0.368 A  
HETATM   24  C   UNL     2      -9.640  11.386  66.220  1.00  0.00    -0.237 A  
HETATM   25  C   UNL     2      -9.618  12.786  66.217  1.00  0.00    -0.242 A  
ENDBRANCH  13  14
ENDBRANCH   4  13
TORSDOF 2
ENDMDL
MODEL        7
REMARK 921   NORMALIZED FREE ENERGY PREDICTED BY IDOCK:   -6.63 KCAL/MOL
REMARK 922        TOTAL FREE ENERGY PREDICTED BY IDOCK:   -8.10 KCAL/MOL
REMARK 923 INTER-LIGAND FREE ENERGY PREDICTED BY IDOCK:   -7.43 KCAL/MOL
REMARK 924 INTRA-LIGAND FREE ENERGY PREDICTED BY IDOCK:   -0.67 KCAL/MOL
REMARK 927      BINDING AFFINITY PREDICTED BY RF-SCORE:    0.00 PKD
ROOT
HETATM    1 BR   UNL     1      -5.482  12.469  70.166  1.00  0.00    -0.141 Br 
HETATM    2  C   UNL     2      -9.339  18.926  68.643  1.00  0.00    -0.369 C  
HETATM    3  C   UNL     2      -9.836  17.463  68.805  1.00  0.00    -0.311 C  
HETATM    4  C   UNL     2      -9.633  16.534  67.573  1.00  0.00    -0.231 C  
HETATM    5  C   UNL     2      -8.668  17.083  66.481  1.00  0.00    -0.297 C  
HETATM    6  C   UNL     2      -6.911  17.938  68.687  1.00  0.00    -0.252 C  
HETATM    7  C   UNL     2      -8.311  18.586  66.581  1.00  0.00    -0.272 C  
HETATM    8  C   UNL     2     -10.223  19.626  67.606  1.00  0.00    -0.435 C  
HETATM    9  O   UNL     2      -9.663  20.706  66.837  1.00  0.00    -0.410 OA 
HETATM   10  N   UNL     2      -7.907  18.904  68.051  1.00  0.00    -0.269 N  
HETATM   11  C   UNL     2      -7.226  20.289  68.185  1.00  0.00    -0.231 C  
HETATM   12  C   UNL     2      -9.572  19.390  66.288  1.00  0.00    -0.375 C  
ENDROOT
BRANCH   4  13
HETATM   13  O   UNL     2      -9.153  15.184  67.959  1.00  0.00    -0.176 OA 
BRANCH  13  14
HETATM   14  C   UNL     2      -9.923  14.088  67.650  1.00  0.00    -0.237 C  
HETATM   15  C   UNL     2     -11.311  13.523  65.536  1.00  0.00    -0.310 A  
HETATM   16  O   UNL     2      -9.651  12.982  68.075  1.00  0.00    -0.211 OA 
HETATM   17  C   UNL     2     -12.393  14.154  67.744  1.00  0.00    -0.015 C  
HETATM   18  C   UNL     2     -11.194  14.394  66.805  1.00  0.00    -0.340 C  
HETATM   19  O   UNL     2     -12.306  14.889  68.964  1.00  0.00    -0.565 OA 
HETATM   20  C   UNL     2     -12.493  12.838  65.165  1.00  0.00    -0.565 A  
HETATM   21  C   UNL     2     -12.526  11.951  64.077  1.00  0.00    -0.418 A  
HETATM   22  H   UNL     2     -13.045  14.741  69.542  1.00  0.00     0.000 HD 
HETATM   23  C   UNL     2     -11.382  11.768  63.311  1.00  0.00    -0.347 A  
HETATM   24  C   UNL     2     -10.244  12.523  63.582  1.00  0.00    -0.310 A  
HETATM   25  C   UNL     2     -10.217  13.403  64.671  1.00  0.00    -0.338 A  
ENDBRANCH  13  14
ENDBRANCH   4  13
TORSDOF 2
ENDMDL
MODEL        8
REMARK 921   NORMALIZED FREE ENERGY PREDICTED BY IDOCK:   -6.58 KCAL/MOL
REMARK 922        TOTAL FREE ENERGY PREDICTED BY IDOCK:   -8.05 KCAL/MOL
REMARK 923 INTER-LIGAND FREE ENERGY PREDICTED BY IDOCK:   -7.73 KCAL/MOL
REMARK 924 INTRA-LIGAND FREE ENERGY PREDICTED BY IDOCK:   -0.32 KCAL/MOL
REMARK 927      BINDING AFFINITY PREDICTED BY RF-SCORE:    0.00 PKD
ROOT
HETATM    1 BR   UNL     1     -10.520  12.817  64.284  1.00  0.00    -0.418 Br 
HETATM    2  C   UNL     2      -6.315  17.650  68.509  1.00  0.00    -0.185 C  
HETATM    3  C   UNL     2      -7.260  16.493  68.934  1.00  0.00    -0.208 C  
HETATM    4  C   UNL     2      -8.783  16.816  68.918  1.00  0.00    -0.224 C  
HETATM    5  C   UNL     2      -9.175  18.122  68.165  1.00  0.00    -0.298 C  
HETATM    6  C   UNL     2      -7.252  17.314  66.084  1.00  0.00    -0.269 C  
HETATM    7  C   UNL     2      -8.015  19.093  67.836  1.00  0.00    -0.284 C  
HETATM    8  C   UNL     2      -6.386  18.750  69.573  1.00  0.00    -0.256 C  
HETATM    9  O   UNL     2      -6.132  20.109  69.180  1.00  0.00    -0.283 OA 
HETATM   10  N   UNL     2      -6.852  18.278  67.198  1.00  0.00    -0.191 N  
HETATM   11  C   UNL     2      -5.788  19.192  66.540  1.00  0.00    -0.161 C  
HETATM   12  C   UNL     2      -7.487  19.658  69.149  1.00  0.00    -0.275 C  
ENDROOT
BRANCH   4  13
HETATM   13  O   UNL     2      -9.587  15.709  68.344  1.00  0.00    -0.195 OA 
BRANCH  13  14
HETATM   14  C   UNL     2     -10.899  15.567  68.731  1.00  0.00    -0.256 C  
HETATM   15  C   UNL     2     -11.940  14.751  70.959  1.00  0.00    -0.389 A  
HETATM   16  O   UNL     2     -11.770  16.296  68.299  1.00  0.00    -0.238 OA 
HETATM   17  C   UNL     2     -11.998  13.354  68.840  1.00  0.00    -0.324 C  
HETATM   18  C   UNL     2     -11.180  14.360  69.673  1.00  0.00    -0.274 C  
HETATM   19  O   UNL     2     -11.370  13.004  67.608  1.00  0.00    -0.269 OA 
HETATM   20  C   UNL     2     -13.078  14.057  71.436  1.00  0.00    -0.423 A  
HETATM   21  C   UNL     2     -13.821  14.516  72.533  1.00  0.00    -0.555 A  
HETATM   22  H   UNL     2     -11.874  12.384  67.095  1.00  0.00     0.000 HD 
HETATM   23  C   UNL     2     -13.410  15.661  73.205  1.00  0.00    -0.660 A  
HETATM   24  C   UNL     2     -12.227  16.291  72.831  1.00  0.00    -0.610 A  
HETATM   25  C   UNL     2     -11.491  15.829  71.732  1.00  0.00    -0.484 A  
ENDBRANCH  13  14
ENDBRANCH   4  13
TORSDOF 2
ENDMDL
MODEL        9
REMARK 921   NORMALIZED FREE ENERGY PREDICTED BY IDOCK:   -6.57 KCAL/MOL
REMARK 922        TOTAL FREE ENERGY PREDICTED BY IDOCK:   -8.04 KCAL/MOL
REMARK 923 INTER-LIGAND FREE ENERGY PREDICTED BY IDOCK:   -7.37 KCAL/MOL
REMARK 924 INTRA-LIGAND FREE ENERGY PREDICTED BY IDOCK:   -0.67 KCAL/MOL
REMARK 927      BINDING AFFINITY PREDICTED BY RF-SCORE:    0.00 PKD
ROOT
HETATM    1 BR   UNL     1     -13.504  15.275  71.239  1.00  0.00    -0.597 Br 
HETATM    2  C   UNL     2      -8.633  19.130  66.733  1.00  0.00    -0.309 C  
HETATM    3  C   UNL     2      -9.837  18.215  66.374  1.00  0.00    -0.353 C  
HETATM    4  C   UNL     2      -9.571  16.682  66.440  1.00  0.00    -0.285 C  
HETATM    5  C   UNL     2      -8.260  16.268  67.172  1.00  0.00    -0.219 C  
HETATM    6  C   UNL     2      -8.938  18.297  69.199  1.00  0.00     0.107 C  
HETATM    7  C   UNL     2      -7.238  17.401  67.432  1.00  0.00    -0.168 C  
HETATM    8  C   UNL     2      -7.567  18.977  65.643  1.00  0.00     0.029 C  
HETATM    9  O   UNL     2      -6.189  19.193  65.991  1.00  0.00    -0.172 OA 
HETATM   10  N   UNL     2      -7.991  18.618  68.046  1.00  0.00    -0.266 N  
HETATM   11  C   UNL     2      -7.020  19.670  68.639  1.00  0.00    -0.326 C  
HETATM   12  C   UNL     2      -6.690  17.859  66.085  1.00  0.00    -0.280 C  
ENDROOT
BRANCH   4  13
HETATM   13  O   UNL     2     -10.691  15.944  67.072  1.00  0.00    -0.316 OA 
BRANCH  13  14
HETATM   14  C   UNL     2     -11.247  14.876  66.406  1.00  0.00    -0.331 C  
HETATM   15  C   UNL     2     -10.166  13.028  64.948  1.00  0.00    -0.304 A  
HETATM   16  O   UNL     2     -12.242  14.316  66.824  1.00  0.00    -0.441 OA 
HETATM   17  C   UNL     2     -11.577  14.890  63.955  1.00  0.00     0.123 C  
HETATM   18  C   UNL     2     -10.563  14.516  65.056  1.00  0.00    -0.458 C  
HETATM   19  O   UNL     2     -12.027  16.241  64.044  1.00  0.00    -1.224 OA 
HETATM   20  C   UNL     2     -10.462  12.218  63.825  1.00  0.00    -0.476 A  
HETATM   21  C   UNL     2     -10.202  10.840  63.815  1.00  0.00    -0.354 A  
HETATM   22  H   UNL     2     -12.652  16.471  63.367  1.00  0.00     0.000 HD 
HETATM   23  C   UNL     2      -9.596  10.251  64.918  1.00  0.00    -0.365 A  
HETATM   24  C   UNL     2      -9.183  11.047  65.983  1.00  0.00    -0.213 A  
HETATM   25  C   UNL     2      -9.449  12.423  65.988  1.00  0.00    -0.168 A  
ENDBRANCH  13  14
ENDBRANCH   4  13
TORSDOF 2
ENDMDL
MODEL       10
REMARK 921   NORMALIZED FREE ENERGY PREDICTED BY IDOCK:   -6.54 KCAL/MOL
REMARK 922        TOTAL FREE ENERGY PREDICTED BY IDOCK:   -8.01 KCAL/MOL
REMARK 923 INTER-LIGAND FREE ENERGY PREDICTED BY IDOCK:   -7.34 KCAL/MOL
REMARK 924 INTRA-LIGAND FREE ENERGY PREDICTED BY IDOCK:   -0.67 KCAL/MOL
REMARK 927      BINDING AFFINITY PREDICTED BY RF-SCORE:    0.00 PKD
ROOT
HETATM    1 BR   UNL     1      -6.038  11.818  69.754  1.00  0.00    -0.145 Br 
HETATM    2  C   UNL     2      -9.979  18.289  68.531  1.00  0.00    -0.393 C  
HETATM    3  C   UNL     2     -10.432  16.803  68.488  1.00  0.00    -0.335 C  
HETATM    4  C   UNL     2     -10.073  16.018  67.192  1.00  0.00    -0.270 C  
HETATM    5  C   UNL     2      -9.028  16.709  66.267  1.00  0.00    -0.340 C  
HETATM    6  C   UNL     2      -7.531  17.371  68.717  1.00  0.00    -0.258 C  
HETATM    7  C   UNL     2      -8.742  18.203  66.559  1.00  0.00    -0.268 C  
HETATM    8  C   UNL     2     -10.785  19.071  67.489  1.00  0.00    -0.446 C  
HETATM    9  O   UNL     2     -10.196  20.242  66.898  1.00  0.00    -0.443 OA 
HETATM   10  N   UNL     2      -8.497  18.372  68.088  1.00  0.00    -0.277 N  
HETATM   11  C   UNL     2      -7.887  19.753  68.434  1.00  0.00    -0.294 C  
HETATM   12  C   UNL     2     -10.000  18.997  66.226  1.00  0.00    -0.398 C  
ENDROOT
BRANCH   4  13
HETATM   13  O   UNL     2      -9.580  14.649  67.482  1.00  0.00    -0.203 OA 
BRANCH  13  14
HETATM   14  C   UNL     2     -10.354  13.570  67.122  1.00  0.00    -0.250 C  
HETATM   15  C   UNL     2      -9.781  11.051  66.935  1.00  0.00    -0.215 A  
HETATM   16  O   UNL     2     -11.546  13.540  67.352  1.00  0.00    -0.317 OA 
HETATM   17  C   UNL     2     -10.166  12.511  64.895  1.00  0.00    -0.278 C  
HETATM   18  C   UNL     2      -9.604  12.460  66.330  1.00  0.00    -0.245 C  
HETATM   19  O   UNL     2     -10.085  13.809  64.308  1.00  0.00    -0.744 OA 
HETATM   20  C   UNL     2     -10.133   9.911  66.172  1.00  0.00    -0.315 A  
HETATM   21  C   UNL     2     -10.412   8.674  66.773  1.00  0.00    -0.298 A  
HETATM   22  H   UNL     2     -10.432  13.841  63.424  1.00  0.00     0.000 HD 
HETATM   23  C   UNL     2     -10.300   8.544  68.152  1.00  0.00    -0.258 A  
HETATM   24  C   UNL     2      -9.837   9.616  68.909  1.00  0.00    -0.179 A  
HETATM   25  C   UNL     2      -9.563  10.849  68.303  1.00  0.00    -0.169 A  
ENDBRANCH  13  14
ENDBRANCH   4  13
TORSDOF 2
ENDMDL
MODEL       11
REMARK 921   NORMALIZED FREE ENERGY PREDICTED BY IDOCK:   -6.54 KCAL/MOL
REMARK 922        TOTAL FREE ENERGY PREDICTED BY IDOCK:   -8.00 KCAL/MOL
REMARK 923 INTER-LIGAND FREE ENERGY PREDICTED BY IDOCK:   -7.34 KCAL/MOL
REMARK 924 INTRA-LIGAND FREE ENERGY PREDICTED BY IDOCK:   -0.66 KCAL/MOL
REMARK 927      BINDING AFFINITY PREDICTED BY RF-SCORE:    0.00 PKD
ROOT
HETATM    1 BR   UNL     1     -11.910  16.083  71.547  1.00  0.00    -0.554 Br 
HETATM    2  C   UNL     2      -8.659  10.142  67.936  1.00  0.00    -0.118 C  
HETATM    3  C   UNL     2      -8.442  11.672  67.769  1.00  0.00    -0.144 C  
HETATM    4  C   UNL     2      -9.513  12.424  66.926  1.00  0.00    -0.219 C  
HETATM    5  C   UNL     2     -10.821  11.625  66.652  1.00  0.00    -0.327 C  
HETATM    6  C   UNL     2     -10.697  10.760  69.466  1.00  0.00    -0.226 C  
HETATM    7  C   UNL     2     -10.764  10.105  66.940  1.00  0.00    -0.161 C  
HETATM    8  C   UNL     2      -8.471   9.474  66.571  1.00  0.00    -0.126 C  
HETATM    9  O   UNL     2      -9.173   8.249  66.299  1.00  0.00    -0.181 OA 
HETATM   10  N   UNL     2     -10.132   9.889  68.346  1.00  0.00    -0.161 N  
HETATM   11  C   UNL     2     -10.327   8.441  68.861  1.00  0.00    -0.215 C  
HETATM   12  C   UNL     2      -9.815   9.470  65.930  1.00  0.00    -0.290 C  
ENDROOT
BRANCH   4  13
HETATM   13  O   UNL     2      -9.898  13.721  67.535  1.00  0.00    -0.223 OA 
BRANCH  13  14
HETATM   14  C   UNL     2      -9.498  14.889  66.928  1.00  0.00    -0.237 C  
HETATM   15  C   UNL     2     -10.490  17.280  67.015  1.00  0.00    -0.287 A  
HETATM   16  O   UNL     2      -8.327  15.112  66.691  1.00  0.00    -0.236 OA 
HETATM   17  C   UNL     2     -10.673  15.807  64.955  1.00  0.00    -0.421 C  
HETATM   18  C   UNL     2     -10.656  15.835  66.497  1.00  0.00    -0.306 C  
HETATM   19  O   UNL     2     -10.762  14.488  64.420  1.00  0.00    -0.614 OA 
HETATM   20  C   UNL     2     -10.636  18.426  66.196  1.00  0.00    -0.346 A  
HETATM   21  C   UNL     2     -10.352  19.716  66.668  1.00  0.00    -0.598 A  
HETATM   22  H   UNL     2     -10.773  14.471  63.470  1.00  0.00     0.000 HD 
HETATM   23  C   UNL     2      -9.957  19.888  67.988  1.00  0.00    -0.556 A  
HETATM   24  C   UNL     2      -9.925  18.792  68.846  1.00  0.00    -0.423 A  
HETATM   25  C   UNL     2     -10.207  17.506  68.367  1.00  0.00    -0.372 A  
ENDBRANCH  13  14
ENDBRANCH   4  13
TORSDOF 2
ENDMDL
MODEL       12
REMARK 921   NORMALIZED FREE ENERGY PREDICTED BY IDOCK:   -6.47 KCAL/MOL
REMARK 922        TOTAL FREE ENERGY PREDICTED BY IDOCK:   -7.93 KCAL/MOL
REMARK 923 INTER-LIGAND FREE ENERGY PREDICTED BY IDOCK:   -7.21 KCAL/MOL
REMARK 924 INTRA-LIGAND FREE ENERGY PREDICTED BY IDOCK:   -0.71 KCAL/MOL
REMARK 927      BINDING AFFINITY PREDICTED BY RF-SCORE:    0.00 PKD
ROOT
HETATM    1 BR   UNL     1      -9.410  10.147  62.765  1.00  0.00    -0.295 Br 
HETATM    2  C   UNL     2      -9.082  15.938  67.791  1.00  0.00    -0.196 C  
HETATM    3  C   UNL     2      -8.776  14.425  67.967  1.00  0.00    -0.170 C  
HETATM    4  C   UNL     2     -10.013  13.495  68.142  1.00  0.00    -0.240 C  
HETATM    5  C   UNL     2     -11.383  14.142  67.782  1.00  0.00    -0.330 C  
HETATM    6  C   UNL     2     -10.040  15.307  65.433  1.00  0.00    -0.362 C  
HETATM    7  C   UNL     2     -11.392  15.683  67.634  1.00  0.00    -0.228 C  
HETATM    8  C   UNL     2      -9.659  16.472  69.106  1.00  0.00    -0.228 C  
HETATM    9  O   UNL     2     -10.557  17.595  69.060  1.00  0.00    -0.281 OA 
HETATM   10  N   UNL     2     -10.198  16.101  66.727  1.00  0.00    -0.274 N  
HETATM   11  C   UNL     2     -10.307  17.573  66.255  1.00  0.00    -0.335 C  
HETATM   12  C   UNL     2     -11.133  16.289  69.009  1.00  0.00    -0.331 C  
ENDROOT
BRANCH   4  13
HETATM   13  O   UNL     2      -9.889  12.241  67.360  1.00  0.00    -0.195 OA 
BRANCH  13  14
HETATM   14  C   UNL     2     -10.540  11.112  67.799  1.00  0.00    -0.209 C  
HETATM   15  C   UNL     2     -11.052  10.265  70.193  1.00  0.00    -0.385 A  
HETATM   16  O   UNL     2     -11.440  10.608  67.157  1.00  0.00    -0.359 OA 
HETATM   17  C   UNL     2      -9.314   9.164  68.706  1.00  0.00    -0.139 C  
HETATM   18  C   UNL     2      -9.975  10.497  69.112  1.00  0.00    -0.236 C  
HETATM   19  O   UNL     2      -8.351   9.311  67.663  1.00  0.00    -0.115 OA 
HETATM   20  C   UNL     2     -11.193   9.052  70.909  1.00  0.00    -0.348 A  
HETATM   21  C   UNL     2     -12.263   8.830  71.789  1.00  0.00    -0.415 A  
HETATM   22  H   UNL     2      -7.945   8.490  67.412  1.00  0.00     0.000 HD 
HETATM   23  C   UNL     2     -13.191   9.841  72.005  1.00  0.00    -0.557 A  
HETATM   24  C   UNL     2     -13.005  11.084  71.407  1.00  0.00    -0.517 A  
HETATM   25  C   UNL     2     -11.937  11.298  70.527  1.00  0.00    -0.467 A  
ENDBRANCH  13  14
ENDBRANCH   4  13
TORSDOF 2
ENDMDL
MODEL       13
REMARK 921   NORMALIZED FREE ENERGY PREDICTED BY IDOCK:   -6.37 KCAL/MOL
REMARK 922        TOTAL FREE ENERGY PREDICTED BY IDOCK:   -7.82 KCAL/MOL
REMARK 923 INTER-LIGAND FREE ENERGY PREDICTED BY IDOCK:   -7.65 KCAL/MOL
REMARK 924 INTRA-LIGAND FREE ENERGY PREDICTED BY IDOCK:   -0.17 KCAL/MOL
REMARK 927      BINDING AFFINITY PREDICTED BY RF-SCORE:    0.00 PKD
ROOT
HETATM    1 BR   UNL     1      -7.799  11.255  66.902  1.00  0.00    -0.160 Br 
HETATM    2  C   UNL     2      -8.973  18.715  68.267  1.00  0.00    -0.318 C  
HETATM    3  C   UNL     2      -9.733  17.460  68.778  1.00  0.00    -0.282 C  
HETATM    4  C   UNL     2     -10.747  16.825  67.782  1.00  0.00    -0.321 C  
HETATM    5  C   UNL     2     -10.623  17.313  66.308  1.00  0.00    -0.184 C  
HETATM    6  C   UNL     2      -7.704  17.092  66.647  1.00  0.00    -0.267 C  
HETATM    7  C   UNL     2      -9.769  18.585  66.082  1.00  0.00    -0.232 C  
HETATM    8  C   UNL     2      -9.979  19.860  68.112  1.00  0.00    -0.427 C  
HETATM    9  O   UNL     2      -9.716  20.882  67.134  1.00  0.00    -0.431 OA 
HETATM   10  N   UNL     2      -8.424  18.423  66.848  1.00  0.00    -0.257 N  
HETATM   11  C   UNL     2      -7.377  19.484  66.425  1.00  0.00    -0.253 C  
HETATM   12  C   UNL     2     -10.499  19.761  66.720  1.00  0.00    -0.489 C  
ENDROOT
BRANCH   4  13
HETATM   13  O   UNL     2     -10.673  15.343  67.772  1.00  0.00    -0.274 OA 
BRANCH  13  14
HETATM   14  C   UNL     2     -10.714  14.664  68.967  1.00  0.00    -0.249 C  
HETATM   15  C   UNL     2     -11.848  12.427  69.617  1.00  0.00    -0.380 A  
HETATM   16  O   UNL     2      -9.794  14.719  69.760  1.00  0.00    -0.004 OA 
HETATM   17  C   UNL     2     -12.724  14.675  70.409  1.00  0.00    -0.316 C  
HETATM   18  C   UNL     2     -12.047  13.914  69.251  1.00  0.00    -0.383 C  
HETATM   19  O   UNL     2     -12.877  16.069  70.149  1.00  0.00    -0.617 OA 
HETATM   20  C   UNL     2     -12.467  11.807  70.729  1.00  0.00    -0.405 A  
HETATM   21  C   UNL     2     -12.161  10.490  71.108  1.00  0.00    -0.496 A  
HETATM   22  H   UNL     2     -13.293  16.538  70.862  1.00  0.00     0.000 HD 
HETATM   23  C   UNL     2     -11.260   9.753  70.351  1.00  0.00    -0.362 A  
HETATM   24  C   UNL     2     -10.733  10.300  69.184  1.00  0.00    -0.259 A  
HETATM   25  C   UNL     2     -11.039  11.615  68.813  1.00  0.00    -0.283 A  
ENDBRANCH  13  14
ENDBRANCH   4  13
TORSDOF 2
ENDMDL
MODEL       14
REMARK 921   NORMALIZED FREE ENERGY PREDICTED BY IDOCK:   -6.23 KCAL/MOL
REMARK 922        TOTAL FREE ENERGY PREDICTED BY IDOCK:   -7.66 KCAL/MOL
REMARK 923 INTER-LIGAND FREE ENERGY PREDICTED BY IDOCK:   -6.86 KCAL/MOL
REMARK 924 INTRA-LIGAND FREE ENERGY PREDICTED BY IDOCK:   -0.80 KCAL/MOL
REMARK 927      BINDING AFFINITY PREDICTED BY RF-SCORE:    0.00 PKD
ROOT
HETATM    1 BR   UNL     1     -14.253  15.187  71.826  1.00  0.00    -0.717 Br 
HETATM    2  C   UNL     2      -9.331  18.179  66.755  1.00  0.00    -0.286 C  
HETATM    3  C   UNL     2     -10.400  17.063  66.592  1.00  0.00    -0.299 C  
HETATM    4  C   UNL     2      -9.998  15.653  67.119  1.00  0.00    -0.240 C  
HETATM    5  C   UNL     2      -8.737  15.622  68.031  1.00  0.00    -0.167 C  
HETATM    6  C   UNL     2      -9.808  18.041  69.328  1.00  0.00    -0.041 C  
HETATM    7  C   UNL     2      -7.858  16.896  68.023  1.00  0.00    -0.179 C  
HETATM    8  C   UNL     2      -8.149  17.855  65.835  1.00  0.00     0.018 C  
HETATM    9  O   UNL     2      -6.840  18.324  66.203  1.00  0.00    -0.213 OA 
HETATM   10  N   UNL     2      -8.782  18.137  68.203  1.00  0.00    -0.270 N  
HETATM   11  C   UNL     2      -7.981  19.421  68.533  1.00  0.00    -0.360 C  
HETATM   12  C   UNL     2      -7.220  17.020  66.644  1.00  0.00    -0.258 C  
ENDROOT
BRANCH   4  13
HETATM   13  O   UNL     2     -11.103  14.993  67.856  1.00  0.00    -0.284 OA 
BRANCH  13  14
HETATM   14  C   UNL     2     -11.419  13.688  67.558  1.00  0.00    -0.329 C  
HETATM   15  C   UNL     2     -10.186  11.924  66.114  1.00  0.00    -0.258 A  
HETATM   16  O   UNL     2     -12.029  12.988  68.343  1.00  0.00    -0.336 OA 
HETATM   17  C   UNL     2     -12.341  13.034  65.359  1.00  0.00    -0.486 C  
HETATM   18  C   UNL     2     -11.018  13.225  66.127  1.00  0.00    -0.292 C  
HETATM   19  O   UNL     2     -13.180  14.188  65.391  1.00  0.00    -0.741 OA 
HETATM   20  C   UNL     2     -10.468  10.825  65.269  1.00  0.00    -0.282 A  
HETATM   21  C   UNL     2      -9.773   9.610  65.375  1.00  0.00    -0.365 A  
HETATM   22  H   UNL     2     -13.995  14.070  64.918  1.00  0.00     0.000 HD 
HETATM   23  C   UNL     2      -8.748   9.489  66.304  1.00  0.00    -0.158 A  
HETATM   24  C   UNL     2      -8.371  10.595  67.061  1.00  0.00    -0.126 A  
HETATM   25  C   UNL     2      -9.071  11.804  66.952  1.00  0.00    -0.192 A  
ENDBRANCH  13  14
ENDBRANCH   4  13
TORSDOF 2
ENDMDL
MODEL       15
REMARK 921   NORMALIZED FREE ENERGY PREDICTED BY IDOCK:   -6.18 KCAL/MOL
REMARK 922        TOTAL FREE ENERGY PREDICTED BY IDOCK:   -7.61 KCAL/MOL
REMARK 923 INTER-LIGAND FREE ENERGY PREDICTED BY IDOCK:   -7.11 KCAL/MOL
REMARK 924 INTRA-LIGAND FREE ENERGY PREDICTED BY IDOCK:   -0.49 KCAL/MOL
REMARK 927      BINDING AFFINITY PREDICTED BY RF-SCORE:    0.00 PKD
ROOT
HETATM    1 BR   UNL     1      -6.361  13.468  67.945  1.00  0.00    -0.168 Br 
HETATM    2  C   UNL     2      -9.999   7.082  70.154  1.00  0.00    -0.182 C  
HETATM    3  C   UNL     2     -10.343   8.110  69.041  1.00  0.00    -0.229 C  
HETATM    4  C   UNL     2     -11.019   9.429  69.518  1.00  0.00    -0.173 C  
HETATM    5  C   UNL     2     -10.955   9.691  71.051  1.00  0.00    -0.431 C  
HETATM    6  C   UNL     2      -8.156   8.777  70.930  1.00  0.00    -0.150 C  
HETATM    7  C   UNL     2     -10.549   8.483  71.931  1.00  0.00    -0.322 C  
HETATM    8  C   UNL     2     -11.310   6.540  70.734  1.00  0.00    -0.342 C  
HETATM    9  O   UNL     2     -11.325   6.084  72.098  1.00  0.00    -0.274 OA 
HETATM   10  N   UNL     2      -9.283   7.821  71.313  1.00  0.00    -0.140 N  
HETATM   11  C   UNL     2      -8.612   6.818  72.284  1.00  0.00    -0.120 C  
HETATM   12  C   UNL     2     -11.667   7.449  71.857  1.00  0.00    -0.288 C  
ENDROOT
BRANCH   4  13
HETATM   13  O   UNL     2     -10.465  10.624  68.835  1.00  0.00    -0.187 OA 
BRANCH  13  14
HETATM   14  C   UNL     2     -11.330  11.536  68.276  1.00  0.00    -0.286 C  
HETATM   15  C   UNL     2     -11.138  12.972  66.129  1.00  0.00    -0.311 A  
HETATM   16  O   UNL     2     -12.534  11.423  68.395  1.00  0.00    -0.379 OA 
HETATM   17  C   UNL     2     -10.956  13.974  68.455  1.00  0.00    -0.252 C  
HETATM   18  C   UNL     2     -10.647  12.745  67.575  1.00  0.00    -0.240 C  
HETATM   19  O   UNL     2     -10.579  13.795  69.819  1.00  0.00    -0.402 OA 
HETATM   20  C   UNL     2     -11.537  14.235  65.628  1.00  0.00    -0.346 A  
HETATM   21  C   UNL     2     -12.099  14.382  64.351  1.00  0.00    -0.491 A  
HETATM   22  H   UNL     2     -10.770  14.551  70.361  1.00  0.00     0.000 HD 
HETATM   23  C   UNL     2     -12.232  13.268  63.531  1.00  0.00    -0.513 A  
HETATM   24  C   UNL     2     -11.735  12.039  63.954  1.00  0.00    -0.537 A  
HETATM   25  C   UNL     2     -11.177  11.899  65.231  1.00  0.00    -0.351 A  
ENDBRANCH  13  14
ENDBRANCH   4  13
TORSDOF 2
ENDMDL
MODEL       16
REMARK 921   NORMALIZED FREE ENERGY PREDICTED BY IDOCK:   -6.16 KCAL/MOL
REMARK 922        TOTAL FREE ENERGY PREDICTED BY IDOCK:   -7.58 KCAL/MOL
REMARK 923 INTER-LIGAND FREE ENERGY PREDICTED BY IDOCK:   -7.03 KCAL/MOL
REMARK 924 INTRA-LIGAND FREE ENERGY PREDICTED BY IDOCK:   -0.55 KCAL/MOL
REMARK 927      BINDING AFFINITY PREDICTED BY RF-SCORE:    0.00 PKD
ROOT
HETATM    1 BR   UNL     1      -5.171  12.572  70.998  1.00  0.00    -0.147 Br 
HETATM    2  C   UNL     2     -10.496   7.046  70.944  1.00  0.00    -0.214 C  
HETATM    3  C   UNL     2      -9.967   7.955  69.800  1.00  0.00    -0.186 C  
HETATM    4  C   UNL     2     -10.545   9.400  69.756  1.00  0.00    -0.231 C  
HETATM    5  C   UNL     2     -11.304   9.849  71.040  1.00  0.00    -0.460 C  
HETATM    6  C   UNL     2      -9.134   8.579  72.577  1.00  0.00    -0.214 C  
HETATM    7  C   UNL     2     -11.684   8.726  72.035  1.00  0.00    -0.372 C  
HETATM    8  C   UNL     2     -11.978   6.755  70.687  1.00  0.00    -0.362 C  
HETATM    9  O   UNL     2     -12.835   6.487  71.810  1.00  0.00    -0.293 OA 
HETATM   10  N   UNL     2     -10.432   7.833  72.278  1.00  0.00    -0.228 N  
HETATM   11  C   UNL     2     -10.612   6.888  73.492  1.00  0.00    -0.348 C  
HETATM   12  C   UNL     2     -12.732   7.842  71.369  1.00  0.00    -0.308 C  
ENDROOT
BRANCH   4  13
HETATM   13  O   UNL     2      -9.500  10.414  69.473  1.00  0.00    -0.205 OA 
BRANCH  13  14
HETATM   14  C   UNL     2      -9.442  10.982  68.222  1.00  0.00    -0.172 C  
HETATM   15  C   UNL     2     -11.321  11.760  66.616  1.00  0.00    -0.381 A  
HETATM   16  O   UNL     2      -8.518  11.700  67.893  1.00  0.00    -0.135 OA 
HETATM   17  C   UNL     2      -9.927   9.685  66.173  1.00  0.00    -0.276 C  
HETATM   18  C   UNL     2     -10.588  10.561  67.256  1.00  0.00    -0.317 C  
HETATM   19  O   UNL     2      -9.182   8.594  66.712  1.00  0.00    -0.151 OA 
HETATM   20  C   UNL     2     -11.591  11.861  65.230  1.00  0.00    -0.278 A  
HETATM   21  C   UNL     2     -12.142  13.022  64.665  1.00  0.00    -0.463 A  
HETATM   22  H   UNL     2      -8.774   8.055  66.045  1.00  0.00     0.000 HD 
HETATM   23  C   UNL     2     -12.475  14.090  65.488  1.00  0.00    -0.533 A  
HETATM   24  C   UNL     2     -12.333  13.967  66.867  1.00  0.00    -0.331 A  
HETATM   25  C   UNL     2     -11.779  12.807  67.424  1.00  0.00    -0.425 A  
ENDBRANCH  13  14
ENDBRANCH   4  13
TORSDOF 2
ENDMDL
MODEL       17
REMARK 921   NORMALIZED FREE ENERGY PREDICTED BY IDOCK:   -6.14 KCAL/MOL
REMARK 922        TOTAL FREE ENERGY PREDICTED BY IDOCK:   -7.55 KCAL/MOL
REMARK 923 INTER-LIGAND FREE ENERGY PREDICTED BY IDOCK:   -6.92 KCAL/MOL
REMARK 924 INTRA-LIGAND FREE ENERGY PREDICTED BY IDOCK:   -0.63 KCAL/MOL
REMARK 927      BINDING AFFINITY PREDICTED BY RF-SCORE:    0.00 PKD
ROOT
HETATM    1 BR   UNL     1     -12.361  11.970  63.375  1.00  0.00    -0.513 Br 
HETATM    2  C   UNL     2      -8.587  17.559  67.039  1.00  0.00    -0.235 C  
HETATM    3  C   UNL     2      -8.503  16.014  67.186  1.00  0.00    -0.223 C  
HETATM    4  C   UNL     2      -9.632  15.347  68.026  1.00  0.00    -0.206 C  
HETATM    5  C   UNL     2     -10.864  16.254  68.318  1.00  0.00    -0.340 C  
HETATM    6  C   UNL     2     -10.678  17.141  65.514  1.00  0.00    -0.117 C  
HETATM    7  C   UNL     2     -10.676  17.767  68.049  1.00  0.00    -0.308 C  
HETATM    8  C   UNL     2      -8.335  18.190  68.412  1.00  0.00    -0.299 C  
HETATM    9  O   UNL     2      -8.926  19.469  68.702  1.00  0.00    -0.360 OA 
HETATM   10  N   UNL     2     -10.034  17.945  66.641  1.00  0.00    -0.337 N  
HETATM   11  C   UNL     2     -10.105  19.410  66.145  1.00  0.00    -0.452 C  
HETATM   12  C   UNL     2      -9.670  18.303  69.060  1.00  0.00    -0.206 C  
ENDROOT
BRANCH   4  13
HETATM   13  O   UNL     2     -10.131  14.097  67.404  1.00  0.00    -0.237 OA 
BRANCH  13  14
HETATM   14  C   UNL     2      -9.773  12.888  67.953  1.00  0.00    -0.218 C  
HETATM   15  C   UNL     2     -10.466  10.467  67.343  1.00  0.00    -0.291 A  
HETATM   16  O   UNL     2      -8.677  12.717  68.451  1.00  0.00    -0.178 OA 
HETATM   17  C   UNL     2     -11.290  11.628  69.445  1.00  0.00    -0.278 C  
HETATM   18  C   UNL     2     -10.898  11.812  67.965  1.00  0.00    -0.256 C  
HETATM   19  O   UNL     2     -11.640  12.852  70.089  1.00  0.00    -0.513 OA 
HETATM   20  C   UNL     2     -10.688   9.213  67.961  1.00  0.00    -0.205 A  
HETATM   21  C   UNL     2     -10.167   8.023  67.431  1.00  0.00    -0.330 A  
HETATM   22  H   UNL     2     -11.882  12.738  71.001  1.00  0.00     0.000 HD 
HETATM   23  C   UNL     2      -9.450   8.061  66.242  1.00  0.00    -0.241 A  
HETATM   24  C   UNL     2      -9.323   9.264  65.553  1.00  0.00    -0.303 A  
HETATM   25  C   UNL     2      -9.843  10.449  66.089  1.00  0.00    -0.278 A  
ENDBRANCH  13  14
ENDBRANCH   4  13
TORSDOF 2
ENDMDL
MODEL       18
REMARK 921   NORMALIZED FREE ENERGY PREDICTED BY IDOCK:   -6.11 KCAL/MOL
REMARK 922        TOTAL FREE ENERGY PREDICTED BY IDOCK:   -7.52 KCAL/MOL
REMARK 923 INTER-LIGAND FREE ENERGY PREDICTED BY IDOCK:   -7.20 KCAL/MOL
REMARK 924 INTRA-LIGAND FREE ENERGY PREDICTED BY IDOCK:   -0.32 KCAL/MOL
REMARK 927      BINDING AFFINITY PREDICTED BY RF-SCORE:    0.00 PKD
ROOT
HETATM    1 BR   UNL     1      -7.108   6.639  65.695  1.00  0.00    -0.062 Br 
HETATM    2  C   UNL     2     -10.283  13.606  65.170  1.00  0.00    -0.328 C  
HETATM    3  C   UNL     2      -9.316  13.011  66.231  1.00  0.00    -0.149 C  
HETATM    4  C   UNL     2      -9.967  12.090  67.306  1.00  0.00    -0.194 C  
HETATM    5  C   UNL     2     -11.416  11.619  66.985  1.00  0.00    -0.336 C  
HETATM    6  C   UNL     2     -10.491  11.171  64.223  1.00  0.00    -0.362 C  
HETATM    7  C   UNL     2     -12.142  12.376  65.846  1.00  0.00    -0.281 C  
HETATM    8  C   UNL     2     -11.218  14.598  65.870  1.00  0.00    -0.336 C  
HETATM    9  O   UNL     2     -12.529  14.818  65.319  1.00  0.00    -0.226 OA 
HETATM   10  N   UNL     2     -11.184  12.471  64.622  1.00  0.00    -0.300 N  
HETATM   11  C   UNL     2     -11.920  12.915  63.334  1.00  0.00    -0.537 C  
HETATM   12  C   UNL     2     -12.395  13.804  66.317  1.00  0.00    -0.433 C  
ENDROOT
BRANCH   4  13
HETATM   13  O   UNL     2      -9.152  10.882  67.579  1.00  0.00    -0.140 OA 
BRANCH  13  14
HETATM   14  C   UNL     2      -9.724   9.828  68.253  1.00  0.00    -0.145 C  
HETATM   15  C   UNL     2     -10.605   9.637  70.681  1.00  0.00    -0.386 A  
HETATM   16  O   UNL     2     -10.396   8.996  67.675  1.00  0.00    -0.226 OA 
HETATM   17  C   UNL     2      -8.465   8.503  69.919  1.00  0.00    -0.125 C  
HETATM   18  C   UNL     2      -9.367   9.744  69.765  1.00  0.00    -0.249 C  
HETATM   19  O   UNL     2      -7.335   8.520  69.048  1.00  0.00    -0.077 OA 
HETATM   20  C   UNL     2     -10.729   8.682  71.719  1.00  0.00    -0.392 A  
HETATM   21  C   UNL     2     -11.919   8.527  72.446  1.00  0.00    -0.434 A  
HETATM   22  H   UNL     2      -6.780   7.755  69.143  1.00  0.00     0.000 HD 
HETATM   23  C   UNL     2     -12.997   9.360  72.176  1.00  0.00    -0.503 A  
HETATM   24  C   UNL     2     -12.858  10.386  71.246  1.00  0.00    -0.533 A  
HETATM   25  C   UNL     2     -11.669  10.533  70.521  1.00  0.00    -0.443 A  
ENDBRANCH  13  14
ENDBRANCH   4  13
TORSDOF 2
ENDMDL
MODEL       19
REMARK 921   NORMALIZED FREE ENERGY PREDICTED BY IDOCK:   -6.09 KCAL/MOL
REMARK 922        TOTAL FREE ENERGY PREDICTED BY IDOCK:   -7.50 KCAL/MOL
REMARK 923 INTER-LIGAND FREE ENERGY PREDICTED BY IDOCK:   -6.85 KCAL/MOL
REMARK 924 INTRA-LIGAND FREE ENERGY PREDICTED BY IDOCK:   -0.65 KCAL/MOL
REMARK 927      BINDING AFFINITY PREDICTED BY RF-SCORE:    0.00 PKD
ROOT
HETATM    1 BR   UNL     1     -10.407   5.510  66.586  1.00  0.00    -0.345 Br 
HETATM    2  C   UNL     2      -9.460  13.107  67.126  1.00  0.00    -0.239 C  
HETATM    3  C   UNL     2      -9.279  11.985  68.186  1.00  0.00    -0.195 C  
HETATM    4  C   UNL     2     -10.585  11.455  68.847  1.00  0.00    -0.202 C  
HETATM    5  C   UNL     2     -11.905  11.866  68.130  1.00  0.00    -0.338 C  
HETATM    6  C   UNL     2     -10.529  11.267  65.594  1.00  0.00    -0.261 C  
HETATM    7  C   UNL     2     -11.787  13.002  67.085  1.00  0.00    -0.373 C  
HETATM    8  C   UNL     2      -9.955  14.370  67.837  1.00  0.00    -0.228 C  
HETATM    9  O   UNL     2     -10.756  15.310  67.099  1.00  0.00    -0.303 OA 
HETATM   10  N   UNL     2     -10.585  12.690  66.145  1.00  0.00    -0.254 N  
HETATM   11  C   UNL     2     -10.582  13.584  64.880  1.00  0.00    -0.397 C  
HETATM   12  C   UNL     2     -11.442  14.289  67.825  1.00  0.00    -0.329 C  
ENDROOT
BRANCH   4  13
HETATM   13  O   UNL     2     -10.587   9.977  68.981  1.00  0.00    -0.195 OA 
BRANCH  13  14
HETATM   14  C   UNL     2     -10.427   9.419  70.228  1.00  0.00    -0.251 C  
HETATM   15  C   UNL     2     -11.180   7.130  71.178  1.00  0.00    -0.291 A  
HETATM   16  O   UNL     2      -9.457   9.669  70.915  1.00  0.00    -0.189 OA 
HETATM   17  C   UNL     2     -12.281   9.313  71.861  1.00  0.00    -0.378 C  
HETATM   18  C   UNL     2     -11.614   8.535  70.709  1.00  0.00    -0.257 C  
HETATM   19  O   UNL     2     -12.648  10.644  71.500  1.00  0.00    -0.388 OA 
HETATM   20  C   UNL     2     -11.605   6.546  72.396  1.00  0.00    -0.292 A  
HETATM   21  C   UNL     2     -11.089   5.324  72.852  1.00  0.00    -0.365 A  
HETATM   22  H   UNL     2     -13.059  11.123  72.210  1.00  0.00     0.000 HD 
HETATM   23  C   UNL     2     -10.167   4.638  72.072  1.00  0.00    -0.258 A  
HETATM   24  C   UNL     2      -9.827   5.131  70.815  1.00  0.00    -0.270 A  
HETATM   25  C   UNL     2     -10.343   6.353  70.367  1.00  0.00    -0.251 A  
ENDBRANCH  13  14
ENDBRANCH   4  13
TORSDOF 2
ENDMDL
MODEL       20
REMARK 921   NORMALIZED FREE ENERGY PREDICTED BY IDOCK:   -6.06 KCAL/MOL
REMARK 922        TOTAL FREE ENERGY PREDICTED BY IDOCK:   -7.47 KCAL/MOL
REMARK 923 INTER-LIGAND FREE ENERGY PREDICTED BY IDOCK:   -6.87 KCAL/MOL
REMARK 924 INTRA-LIGAND FREE ENERGY PREDICTED BY IDOCK:   -0.61 KCAL/MOL
REMARK 927      BINDING AFFINITY PREDICTED BY RF-SCORE:    0.00 PKD
ROOT
HETATM    1 BR   UNL     1      -7.850  11.437  68.560  1.00  0.00    -0.144 Br 
HETATM    2  C   UNL     2      -8.376  19.091  68.382  1.00  0.00    -0.348 C  
HETATM    3  C   UNL     2      -9.316  17.997  67.805  1.00  0.00    -0.263 C  
HETATM    4  C   UNL     2      -8.869  17.355  66.458  1.00  0.00    -0.263 C  
HETATM    5  C   UNL     2      -7.395  17.641  66.045  1.00  0.00    -0.301 C  
HETATM    6  C   UNL     2      -6.677  17.153  68.861  1.00  0.00    -0.209 C  
HETATM    7  C   UNL     2      -6.679  18.776  66.817  1.00  0.00    -0.192 C  
HETATM    8  C   UNL     2      -8.422  20.309  67.453  1.00  0.00    -0.339 C  
HETATM    9  O   UNL     2      -7.271  21.168  67.383  1.00  0.00    -0.438 OA 
HETATM   10  N   UNL     2      -6.918  18.568  68.342  1.00  0.00    -0.255 N  
HETATM   11  C   UNL     2      -5.984  19.450  69.207  1.00  0.00    -0.262 C  
HETATM   12  C   UNL     2      -7.349  20.094  66.444  1.00  0.00    -0.281 C  
ENDROOT
BRANCH   4  13
HETATM   13  O   UNL     2      -9.063  15.884  66.445  1.00  0.00    -0.260 OA 
BRANCH  13  14
HETATM   14  C   UNL     2     -10.263  15.365  66.869  1.00  0.00    -0.273 C  
HETATM   15  C   UNL     2     -10.941  14.245  69.105  1.00  0.00    -0.286 A  
HETATM   16  O   UNL     2     -11.322  15.822  66.486  1.00  0.00    -0.076 OA 
HETATM   17  C   UNL     2     -10.679  12.928  66.950  1.00  0.00    -0.257 C  
HETATM   18  C   UNL     2     -10.151  14.112  67.785  1.00  0.00    -0.239 C  
HETATM   19  O   UNL     2     -10.024  12.795  65.689  1.00  0.00    -0.269 OA 
HETATM   20  C   UNL     2     -11.813  13.245  69.597  1.00  0.00    -0.391 A  
HETATM   21  C   UNL     2     -12.614  13.452  70.731  1.00  0.00    -0.369 A  
HETATM   22  H   UNL     2     -10.350  12.066  65.175  1.00  0.00     0.000 HD 
HETATM   23  C   UNL     2     -12.523  14.654  71.421  1.00  0.00    -0.410 A  
HETATM   24  C   UNL     2     -11.584  15.604  71.028  1.00  0.00    -0.434 A  
HETATM   25  C   UNL     2     -10.789  15.392  69.893  1.00  0.00    -0.305 A  
ENDBRANCH  13  14
ENDBRANCH   4  13
TORSDOF 2
ENDMDL
MODEL       21
REMARK 921   NORMALIZED FREE ENERGY PREDICTED BY IDOCK:   -6.02 KCAL/MOL
REMARK 922        TOTAL FREE ENERGY PREDICTED BY IDOCK:   -7.42 KCAL/MOL
REMARK 923 INTER-LIGAND FREE ENERGY PREDICTED BY IDOCK:   -6.79 KCAL/MOL
REMARK 924 INTRA-LIGAND FREE ENERGY PREDICTED BY IDOCK:   -0.63 KCAL/MOL
REMARK 927      BINDING AFFINITY PREDICTED BY RF-SCORE:    0.00 PKD
ROOT
HETATM    1 BR   UNL     1      -6.688   9.501  70.647  1.00  0.00    -0.110 Br 
HETATM    2  C   UNL     2     -10.134  16.145  68.947  1.00  0.00    -0.238 C  
HETATM    3  C   UNL     2     -10.706  14.703  69.049  1.00  0.00    -0.253 C  
HETATM    4  C   UNL     2     -10.452  13.782  67.820  1.00  0.00    -0.240 C  
HETATM    5  C   UNL     2      -9.385  14.301  66.811  1.00  0.00    -0.290 C  
HETATM    6  C   UNL     2      -7.762  15.047  69.154  1.00  0.00    -0.179 C  
HETATM    7  C   UNL     2      -8.971  15.785  66.961  1.00  0.00    -0.224 C  
HETATM    8  C   UNL     2     -10.907  16.897  67.860  1.00  0.00    -0.310 C  
HETATM    9  O   UNL     2     -10.245  17.960  67.152  1.00  0.00    -0.325 OA 
HETATM   10  N   UNL     2      -8.664  16.066  68.462  1.00  0.00    -0.186 N  
HETATM   11  C   UNL     2      -7.935  17.417  68.669  1.00  0.00    -0.271 C  
HETATM   12  C   UNL     2     -10.171  16.648  66.590  1.00  0.00    -0.303 C  
ENDROOT
BRANCH   4  13
HETATM   13  O   UNL     2     -10.062  12.407  68.219  1.00  0.00    -0.217 OA 
BRANCH  13  14
HETATM   14  C   UNL     2     -10.793  11.342  67.747  1.00  0.00    -0.235 C  
HETATM   15  C   UNL     2     -10.290   8.800  67.741  1.00  0.00    -0.297 A  
HETATM   16  O   UNL     2     -12.008  11.357  67.746  1.00  0.00    -0.637 OA 
HETATM   17  C   UNL     2     -10.225  10.203  65.626  1.00  0.00    -0.218 C  
HETATM   18  C   UNL     2      -9.949  10.182  67.143  1.00  0.00    -0.243 C  
HETATM   19  O   UNL     2      -9.986  11.477  65.030  1.00  0.00    -0.244 OA 
HETATM   20  C   UNL     2     -10.532   7.647  66.957  1.00  0.00    -0.419 A  
HETATM   21  C   UNL     2     -10.967   6.441  67.526  1.00  0.00    -0.454 A  
HETATM   22  H   UNL     2     -10.156  11.490  64.096  1.00  0.00     0.000 HD 
HETATM   23  C   UNL     2     -11.124   6.354  68.904  1.00  0.00    -0.420 A  
HETATM   24  C   UNL     2     -10.774   7.436  69.706  1.00  0.00    -0.252 A  
HETATM   25  C   UNL     2     -10.344   8.638  69.131  1.00  0.00    -0.227 A  
ENDBRANCH  13  14
ENDBRANCH   4  13
TORSDOF 2
ENDMDL
MODEL       22
REMARK 921   NORMALIZED FREE ENERGY PREDICTED BY IDOCK:   -6.01 KCAL/MOL
REMARK 922        TOTAL FREE ENERGY PREDICTED BY IDOCK:   -7.41 KCAL/MOL
REMARK 923 INTER-LIGAND FREE ENERGY PREDICTED BY IDOCK:   -6.74 KCAL/MOL
REMARK 924 INTRA-LIGAND FREE ENERGY PREDICTED BY IDOCK:   -0.67 KCAL/MOL
REMARK 927      BINDING AFFINITY PREDICTED BY RF-SCORE:    0.00 PKD
ROOT
HETATM    1 BR   UNL     1     -11.342   8.792  70.761  1.00  0.00    -0.312 Br 
HETATM    2  C   UNL     2     -11.338  15.146  66.457  1.00  0.00    -0.234 C  
HETATM    3  C   UNL     2     -11.341  13.646  66.050  1.00  0.00    -0.322 C  
HETATM    4  C   UNL     2      -9.965  12.920  66.118  1.00  0.00    -0.272 C  
HETATM    5  C   UNL     2      -8.852  13.680  66.897  1.00  0.00    -0.201 C  
HETATM    6  C   UNL     2     -10.911  14.317  68.906  1.00  0.00    -0.257 C  
HETATM    7  C   UNL     2      -9.131  15.173  67.200  1.00  0.00    -0.211 C  
HETATM    8  C   UNL     2     -10.546  15.931  65.407  1.00  0.00    -0.419 C  
HETATM    9  O   UNL     2      -9.882  17.144  65.807  1.00  0.00    -0.530 OA 
HETATM   10  N   UNL     2     -10.566  15.300  67.791  1.00  0.00    -0.260 N  
HETATM   11  C   UNL     2     -10.818  16.691  68.424  1.00  0.00    -0.361 C  
HETATM   12  C   UNL     2      -9.133  15.929  65.877  1.00  0.00    -0.269 C  
ENDROOT
BRANCH   4  13
HETATM   13  O   UNL     2     -10.076  11.561  66.705  1.00  0.00    -0.203 OA 
BRANCH  13  14
HETATM   14  C   UNL     2      -9.874  10.467  65.897  1.00  0.00    -0.235 C  
HETATM   15  C   UNL     2      -9.282   8.011  66.474  1.00  0.00    -0.236 A  
HETATM   16  O   UNL     2     -10.459  10.342  64.839  1.00  0.00    -0.263 OA 
HETATM   17  C   UNL     2      -7.609   9.599  65.412  1.00  0.00    -0.111 C  
HETATM   18  C   UNL     2      -8.787   9.472  66.399  1.00  0.00    -0.164 C  
HETATM   19  O   UNL     2      -7.151  10.941  65.256  1.00  0.00    -0.361 OA 
HETATM   20  C   UNL     2      -8.562   6.914  65.941  1.00  0.00    -0.152 A  
HETATM   21  C   UNL     2      -9.100   5.619  65.911  1.00  0.00    -0.158 A  
HETATM   22  H   UNL     2      -6.426  11.020  64.648  1.00  0.00     0.000 HD 
HETATM   23  C   UNL     2     -10.357   5.389  66.456  1.00  0.00    -0.320 A  
HETATM   24  C   UNL     2     -11.031   6.426  67.095  1.00  0.00    -0.476 A  
HETATM   25  C   UNL     2     -10.489   7.718  67.119  1.00  0.00    -0.413 A  
ENDBRANCH  13  14
ENDBRANCH   4  13
TORSDOF 2
ENDMDL
MODEL       23
REMARK 921   NORMALIZED FREE ENERGY PREDICTED BY IDOCK:   -5.98 KCAL/MOL
REMARK 922        TOTAL FREE ENERGY PREDICTED BY IDOCK:   -7.38 KCAL/MOL
REMARK 923 INTER-LIGAND FREE ENERGY PREDICTED BY IDOCK:   -6.85 KCAL/MOL
REMARK 924 INTRA-LIGAND FREE ENERGY PREDICTED BY IDOCK:   -0.53 KCAL/MOL
REMARK 927      BINDING AFFINITY PREDICTED BY RF-SCORE:    0.00 PKD
ROOT
HETATM    1 BR   UNL     1      -8.512  15.377  68.999  1.00  0.00    -0.245 Br 
HETATM    2  C   UNL     2      -9.239   8.218  66.329  1.00  0.00    -0.203 C  
HETATM    3  C   UNL     2     -10.289   9.179  66.951  1.00  0.00    -0.321 C  
HETATM    4  C   UNL     2     -10.280   9.285  68.505  1.00  0.00    -0.201 C  
HETATM    5  C   UNL     2      -9.021   8.689  69.202  1.00  0.00    -0.142 C  
HETATM    6  C   UNL     2      -7.433   9.966  67.074  1.00  0.00    -0.091 C  
HETATM    7  C   UNL     2      -8.123   7.782  68.326  1.00  0.00    -0.124 C  
HETATM    8  C   UNL     2      -9.606   6.782  66.716  1.00  0.00    -0.166 C  
HETATM    9  O   UNL     2      -8.557   5.804  66.814  1.00  0.00    -0.112 OA 
HETATM   10  N   UNL     2      -7.858   8.504  66.972  1.00  0.00    -0.096 N  
HETATM   11  C   UNL     2      -6.718   7.835  66.164  1.00  0.00    -0.053 C  
HETATM   12  C   UNL     2      -8.906   6.515  68.002  1.00  0.00    -0.114 C  
ENDROOT
BRANCH   4  13
HETATM   13  O   UNL     2     -10.435  10.683  68.974  1.00  0.00    -0.191 OA 
BRANCH  13  14
HETATM   14  C   UNL     2     -11.692  11.151  69.277  1.00  0.00    -0.331 C  
HETATM   15  C   UNL     2     -12.508  12.763  71.134  1.00  0.00    -0.335 A  
HETATM   16  O   UNL     2     -12.531  11.317  68.414  1.00  0.00    -0.403 OA 
HETATM   17  C   UNL     2     -12.991  10.271  71.188  1.00  0.00    -0.409 C  
HETATM   18  C   UNL     2     -11.969  11.357  70.794  1.00  0.00    -0.355 C  
HETATM   19  O   UNL     2     -12.570   8.953  70.840  1.00  0.00    -0.490 OA 
HETATM   20  C   UNL     2     -13.638  12.989  71.956  1.00  0.00    -0.530 A  
HETATM   21  C   UNL     2     -14.178  14.272  72.137  1.00  0.00    -0.632 A  
HETATM   22  H   UNL     2     -13.200   8.284  71.083  1.00  0.00     0.000 HD 
HETATM   23  C   UNL     2     -13.565  15.362  71.533  1.00  0.00    -0.604 A  
HETATM   24  C   UNL     2     -12.382  15.181  70.822  1.00  0.00    -0.415 A  
HETATM   25  C   UNL     2     -11.851  13.897  70.642  1.00  0.00    -0.292 A  
ENDBRANCH  13  14
ENDBRANCH   4  13
TORSDOF 2
ENDMDL
MODEL       24
REMARK 921   NORMALIZED FREE ENERGY PREDICTED BY IDOCK:   -5.97 KCAL/MOL
REMARK 922        TOTAL FREE ENERGY PREDICTED BY IDOCK:   -7.36 KCAL/MOL
REMARK 923 INTER-LIGAND FREE ENERGY PREDICTED BY IDOCK:   -7.09 KCAL/MOL
REMARK 924 INTRA-LIGAND FREE ENERGY PREDICTED BY IDOCK:   -0.27 KCAL/MOL
REMARK 927      BINDING AFFINITY PREDICTED BY RF-SCORE:    0.00 PKD
ROOT
HETATM    1 BR   UNL     1     -13.581  13.247  72.122  1.00  0.00    -0.634 Br 
HETATM    2  C   UNL     2      -8.860   7.643  69.840  1.00  0.00    -0.143 C  
HETATM    3  C   UNL     2      -8.675   9.186  69.840  1.00  0.00    -0.170 C  
HETATM    4  C   UNL     2      -9.366   9.954  68.675  1.00  0.00    -0.149 C  
HETATM    5  C   UNL     2     -10.415   9.133  67.870  1.00  0.00    -0.293 C  
HETATM    6  C   UNL     2     -11.365   8.101  70.461  1.00  0.00    -0.221 C  
HETATM    7  C   UNL     2     -10.396   7.601  68.090  1.00  0.00    -0.204 C  
HETATM    8  C   UNL     2      -8.113   7.066  68.633  1.00  0.00    -0.121 C  
HETATM    9  O   UNL     2      -8.585   5.838  68.052  1.00  0.00    -0.106 OA 
HETATM   10  N   UNL     2     -10.359   7.319  69.621  1.00  0.00    -0.215 N  
HETATM   11  C   UNL     2     -10.664   5.837  69.951  1.00  0.00    -0.342 C  
HETATM   12  C   UNL     2      -9.093   7.059  67.512  1.00  0.00    -0.122 C  
ENDROOT
BRANCH   4  13
HETATM   13  O   UNL     2     -10.027  11.199  69.137  1.00  0.00    -0.179 OA 
BRANCH  13  14
HETATM   14  C   UNL     2     -11.058  11.724  68.393  1.00  0.00    -0.237 C  
HETATM   15  C   UNL     2     -11.071  12.849  66.059  1.00  0.00    -0.308 A  
HETATM   16  O   UNL     2     -12.183  11.270  68.459  1.00  0.00    -0.588 OA 
HETATM   17  C   UNL     2     -11.425  14.162  68.203  1.00  0.00    -0.310 C  
HETATM   18  C   UNL     2     -10.686  12.977  67.549  1.00  0.00    -0.248 C  
HETATM   19  O   UNL     2     -11.153  14.290  69.598  1.00  0.00    -0.338 OA 
HETATM   20  C   UNL     2     -11.766  13.854  65.342  1.00  0.00    -0.347 A  
HETATM   21  C   UNL     2     -12.214  13.651  64.028  1.00  0.00    -0.443 A  
HETATM   22  H   UNL     2     -11.609  15.020  70.001  1.00  0.00     0.000 HD 
HETATM   23  C   UNL     2     -11.935  12.450  63.389  1.00  0.00    -0.595 A  
HETATM   24  C   UNL     2     -11.148  11.496  64.029  1.00  0.00    -0.441 A  
HETATM   25  C   UNL     2     -10.707  11.703  65.343  1.00  0.00    -0.341 A  
ENDBRANCH  13  14
ENDBRANCH   4  13
TORSDOF 2
ENDMDL
MODEL       25
REMARK 921   NORMALIZED FREE ENERGY PREDICTED BY IDOCK:   -5.93 KCAL/MOL
REMARK 922        TOTAL FREE ENERGY PREDICTED BY IDOCK:   -7.33 KCAL/MOL
REMARK 923 INTER-LIGAND FREE ENERGY PREDICTED BY IDOCK:   -6.84 KCAL/MOL
REMARK 924 INTRA-LIGAND FREE ENERGY PREDICTED BY IDOCK:   -0.49 KCAL/MOL
REMARK 927      BINDING AFFINITY PREDICTED BY RF-SCORE:    0.00 PKD
ROOT
HETATM    1 BR   UNL     1      -9.072   9.748  63.918  1.00  0.00    -0.233 Br 
HETATM    2  C   UNL     2     -11.615   8.066  70.960  1.00  0.00    -0.283 C  
HETATM    3  C   UNL     2     -11.517   9.427  70.216  1.00  0.00    -0.223 C  
HETATM    4  C   UNL     2     -10.107  10.088  70.186  1.00  0.00    -0.211 C  
HETATM    5  C   UNL     2      -8.930   9.156  70.600  1.00  0.00    -0.292 C  
HETATM    6  C   UNL     2     -10.224   7.064  68.978  1.00  0.00    -0.187 C  
HETATM    7  C   UNL     2      -9.323   7.834  71.303  1.00  0.00    -0.152 C  
HETATM    8  C   UNL     2     -11.381   8.313  72.454  1.00  0.00    -0.388 C  
HETATM    9  O   UNL     2     -10.826   7.252  73.251  1.00  0.00    -0.350 OA 
HETATM   10  N   UNL     2     -10.458   7.153  70.484  1.00  0.00    -0.210 N  
HETATM   11  C   UNL     2     -10.693   5.684  70.916  1.00  0.00    -0.243 C  
HETATM   12  C   UNL     2      -9.913   8.182  72.665  1.00  0.00    -0.301 C  
ENDROOT
BRANCH   4  13
HETATM   13  O   UNL     2      -9.782  10.659  68.856  1.00  0.00    -0.186 OA 
BRANCH  13  14
HETATM   14  C   UNL     2     -10.248  11.912  68.536  1.00  0.00    -0.215 C  
HETATM   15  C   UNL     2     -10.406  13.140  66.260  1.00  0.00    -0.291 A  
HETATM   16  O   UNL     2     -11.146  12.436  69.166  1.00  0.00    -0.244 OA 
HETATM   17  C   UNL     2      -8.717  13.790  68.040  1.00  0.00    -0.181 C  
HETATM   18  C   UNL     2      -9.481  12.623  67.383  1.00  0.00    -0.189 C  
HETATM   19  O   UNL     2      -7.891  13.377  69.128  1.00  0.00    -0.332 OA 
HETATM   20  C   UNL     2     -10.329  14.449  65.725  1.00  0.00    -0.340 A  
HETATM   21  C   UNL     2     -11.268  14.927  64.798  1.00  0.00    -0.393 A  
HETATM   22  H   UNL     2      -7.421  14.096  69.533  1.00  0.00     0.000 HD 
HETATM   23  C   UNL     2     -12.280  14.085  64.354  1.00  0.00    -0.457 A  
HETATM   24  C   UNL     2     -12.303  12.757  64.772  1.00  0.00    -0.540 A  
HETATM   25  C   UNL     2     -11.365  12.287  65.700  1.00  0.00    -0.394 A  
ENDBRANCH  13  14
ENDBRANCH   4  13
TORSDOF 2
ENDMDL
MODEL       26
REMARK 921   NORMALIZED FREE ENERGY PREDICTED BY IDOCK:   -5.90 KCAL/MOL
REMARK 922        TOTAL FREE ENERGY PREDICTED BY IDOCK:   -7.29 KCAL/MOL
REMARK 923 INTER-LIGAND FREE ENERGY PREDICTED BY IDOCK:   -6.48 KCAL/MOL
REMARK 924 INTRA-LIGAND FREE ENERGY PREDICTED BY IDOCK:   -0.81 KCAL/MOL
REMARK 927      BINDING AFFINITY PREDICTED BY RF-SCORE:    0.00 PKD
ROOT
HETATM    1 BR   UNL     1      -7.091  14.345  67.936  1.00  0.00    -0.189 Br 
HETATM    2  C   UNL     2      -9.762   7.270  66.628  1.00  0.00    -0.183 C  
HETATM    3  C   UNL     2     -10.511   8.591  66.957  1.00  0.00    -0.362 C  
HETATM    4  C   UNL     2     -10.524   9.013  68.456  1.00  0.00    -0.196 C  
HETATM    5  C   UNL     2      -9.514   8.253  69.366  1.00  0.00    -0.159 C  
HETATM    6  C   UNL     2      -7.555   8.568  67.188  1.00  0.00    -0.096 C  
HETATM    7  C   UNL     2      -8.887   6.971  68.766  1.00  0.00    -0.129 C  
HETATM    8  C   UNL     2     -10.541   6.105  67.248  1.00  0.00    -0.290 C  
HETATM    9  O   UNL     2      -9.822   4.918  67.627  1.00  0.00    -0.158 OA 
HETATM   10  N   UNL     2      -8.380   7.292  67.329  1.00  0.00    -0.118 N  
HETATM   11  C   UNL     2      -7.455   6.181  66.772  1.00  0.00    -0.087 C  
HETATM   12  C   UNL     2      -9.991   5.930  68.620  1.00  0.00    -0.148 C  
ENDROOT
BRANCH   4  13
HETATM   13  O   UNL     2     -10.284  10.466  68.633  1.00  0.00    -0.166 OA 
BRANCH  13  14
HETATM   14  C   UNL     2     -11.175  11.361  68.090  1.00  0.00    -0.278 C  
HETATM   15  C   UNL     2     -11.045  12.807  65.945  1.00  0.00    -0.318 A  
HETATM   16  O   UNL     2     -12.375  11.224  68.228  1.00  0.00    -0.542 OA 
HETATM   17  C   UNL     2     -10.848  13.806  68.270  1.00  0.00    -0.250 C  
HETATM   18  C   UNL     2     -10.528  12.586  67.383  1.00  0.00    -0.231 C  
HETATM   19  O   UNL     2     -10.446  13.631  69.628  1.00  0.00    -0.377 OA 
HETATM   20  C   UNL     2     -11.477  14.063  65.454  1.00  0.00    -0.315 A  
HETATM   21  C   UNL     2     -12.062  14.202  64.186  1.00  0.00    -0.437 A  
HETATM   22  H   UNL     2     -10.644  14.382  70.175  1.00  0.00     0.000 HD 
HETATM   23  C   UNL     2     -12.185  13.088  63.365  1.00  0.00    -0.552 A  
HETATM   24  C   UNL     2     -11.656  11.868  63.776  1.00  0.00    -0.555 A  
HETATM   25  C   UNL     2     -11.076  11.735  65.045  1.00  0.00    -0.343 A  
ENDBRANCH  13  14
ENDBRANCH   4  13
TORSDOF 2
ENDMDL
MODEL       27
REMARK 921   NORMALIZED FREE ENERGY PREDICTED BY IDOCK:   -5.90 KCAL/MOL
REMARK 922        TOTAL FREE ENERGY PREDICTED BY IDOCK:   -7.29 KCAL/MOL
REMARK 923 INTER-LIGAND FREE ENERGY PREDICTED BY IDOCK:   -6.74 KCAL/MOL
REMARK 924 INTRA-LIGAND FREE ENERGY PREDICTED BY IDOCK:   -0.55 KCAL/MOL
REMARK 927      BINDING AFFINITY PREDICTED BY RF-SCORE:    0.00 PKD
ROOT
HETATM    1 BR   UNL     1     -13.984  14.265  72.441  1.00  0.00    -0.553 Br 
HETATM    2  C   UNL     2      -9.071  11.041  67.506  1.00  0.00    -0.137 C  
HETATM    3  C   UNL     2      -9.051  12.436  68.189  1.00  0.00    -0.200 C  
HETATM    4  C   UNL     2      -9.976  13.518  67.556  1.00  0.00    -0.230 C  
HETATM    5  C   UNL     2     -11.037  12.977  66.552  1.00  0.00    -0.315 C  
HETATM    6  C   UNL     2     -11.497  10.782  68.463  1.00  0.00    -0.292 C  
HETATM    7  C   UNL     2     -10.825  11.527  66.053  1.00  0.00    -0.276 C  
HETATM    8  C   UNL     2      -8.446  11.175  66.113  1.00  0.00    -0.156 C  
HETATM    9  O   UNL     2      -8.863  10.267  65.079  1.00  0.00    -0.166 OA 
HETATM   10  N   UNL     2     -10.544  10.614  67.283  1.00  0.00    -0.246 N  
HETATM   11  C   UNL     2     -10.641   9.109  66.931  1.00  0.00    -0.167 C  
HETATM   12  C   UNL     2      -9.568  11.504  65.192  1.00  0.00    -0.210 C  
ENDROOT
BRANCH   4  13
HETATM   13  O   UNL     2     -10.693  14.314  68.582  1.00  0.00    -0.235 OA 
BRANCH  13  14
HETATM   14  C   UNL     2     -10.238  15.575  68.888  1.00  0.00    -0.210 C  
HETATM   15  C   UNL     2      -9.148  17.398  67.404  1.00  0.00    -0.236 A  
HETATM   16  O   UNL     2     -10.752  16.240  69.766  1.00  0.00    -0.317 OA 
HETATM   17  C   UNL     2      -7.827  16.074  69.120  1.00  0.00    -0.233 C  
HETATM   18  C   UNL     2      -8.977  16.028  68.095  1.00  0.00    -0.183 C  
HETATM   19  O   UNL     2      -7.663  14.850  69.835  1.00  0.00    -0.386 OA 
HETATM   20  C   UNL     2      -8.195  18.441  67.490  1.00  0.00    -0.255 A  
HETATM   21  C   UNL     2      -8.441  19.717  66.959  1.00  0.00    -0.349 A  
HETATM   22  H   UNL     2      -6.954  14.879  70.467  1.00  0.00     0.000 HD 
HETATM   23  C   UNL     2      -9.634  19.959  66.290  1.00  0.00    -0.526 A  
HETATM   24  C   UNL     2     -10.533  18.916  66.086  1.00  0.00    -0.521 A  
HETATM   25  C   UNL     2     -10.282  17.646  66.622  1.00  0.00    -0.341 A  
ENDBRANCH  13  14
ENDBRANCH   4  13
TORSDOF 2
ENDMDL
MODEL       28
REMARK 921   NORMALIZED FREE ENERGY PREDICTED BY IDOCK:   -5.86 KCAL/MOL
REMARK 922        TOTAL FREE ENERGY PREDICTED BY IDOCK:   -7.25 KCAL/MOL
REMARK 923 INTER-LIGAND FREE ENERGY PREDICTED BY IDOCK:   -6.53 KCAL/MOL
REMARK 924 INTRA-LIGAND FREE ENERGY PREDICTED BY IDOCK:   -0.71 KCAL/MOL
REMARK 927      BINDING AFFINITY PREDICTED BY RF-SCORE:    0.00 PKD
ROOT
HETATM    1 BR   UNL     1      -6.645  10.324  64.232  1.00  0.00    -0.019 Br 
HETATM    2  C   UNL     2      -9.848  15.929  68.383  1.00  0.00    -0.214 C  
HETATM    3  C   UNL     2     -10.495  14.773  67.570  1.00  0.00    -0.245 C  
HETATM    4  C   UNL     2     -10.582  14.988  66.031  1.00  0.00    -0.322 C  
HETATM    5  C   UNL     2      -9.718  16.158  65.475  1.00  0.00    -0.123 C  
HETATM    6  C   UNL     2      -7.579  15.225  67.274  1.00  0.00    -0.210 C  
HETATM    7  C   UNL     2      -9.167  17.155  66.524  1.00  0.00    -0.266 C  
HETATM    8  C   UNL     2     -10.774  17.147  68.314  1.00  0.00    -0.363 C  
HETATM    9  O   UNL     2     -10.198  18.460  68.427  1.00  0.00    -0.371 OA 
HETATM   10  N   UNL     2      -8.527  16.347  67.690  1.00  0.00    -0.168 N  
HETATM   11  C   UNL     2      -7.667  17.240  68.620  1.00  0.00    -0.265 C  
HETATM   12  C   UNL     2     -10.348  17.917  67.114  1.00  0.00    -0.367 C  
ENDROOT
BRANCH   4  13
HETATM   13  O   UNL     2     -10.224  13.765  65.271  1.00  0.00    -0.332 OA 
BRANCH  13  14
HETATM   14  C   UNL     2     -10.857  12.582  65.573  1.00  0.00    -0.278 C  
HETATM   15  C   UNL     2     -10.032  10.489  66.860  1.00  0.00    -0.246 A  
HETATM   16  O   UNL     2     -12.057  12.534  65.759  1.00  0.00    -0.511 OA 
HETATM   17  C   UNL     2     -10.376  10.490  64.344  1.00  0.00    -0.174 C  
HETATM   18  C   UNL     2      -9.939  11.325  65.565  1.00  0.00    -0.293 C  
HETATM   19  O   UNL     2     -10.368  11.233  63.126  1.00  0.00    -0.512 OA 
HETATM   20  C   UNL     2     -10.206   9.084  66.872  1.00  0.00    -0.339 A  
HETATM   21  C   UNL     2     -10.418   8.374  68.064  1.00  0.00    -0.242 A  
HETATM   22  H   UNL     2     -10.638  10.718  62.374  1.00  0.00     0.000 HD 
HETATM   23  C   UNL     2     -10.414   9.055  69.274  1.00  0.00    -0.238 A  
HETATM   24  C   UNL     2     -10.123  10.416  69.298  1.00  0.00    -0.248 A  
HETATM   25  C   UNL     2      -9.916  11.120  68.104  1.00  0.00    -0.189 A  
ENDBRANCH  13  14
ENDBRANCH   4  13
TORSDOF 2
ENDMDL
MODEL       29
REMARK 921   NORMALIZED FREE ENERGY PREDICTED BY IDOCK:   -5.86 KCAL/MOL
REMARK 922        TOTAL FREE ENERGY PREDICTED BY IDOCK:   -7.24 KCAL/MOL
REMARK 923 INTER-LIGAND FREE ENERGY PREDICTED BY IDOCK:   -6.91 KCAL/MOL
REMARK 924 INTRA-LIGAND FREE ENERGY PREDICTED BY IDOCK:   -0.34 KCAL/MOL
REMARK 927      BINDING AFFINITY PREDICTED BY RF-SCORE:    0.00 PKD
ROOT
HETATM    1 BR   UNL     1     -12.606   9.003  71.627  1.00  0.00    -0.445 Br 
HETATM    2  C   UNL     2     -11.990  14.337  66.143  1.00  0.00    -0.407 C  
HETATM    3  C   UNL     2     -12.116  12.791  66.043  1.00  0.00    -0.458 C  
HETATM    4  C   UNL     2     -10.810  11.983  66.299  1.00  0.00    -0.279 C  
HETATM    5  C   UNL     2      -9.647  12.792  66.945  1.00  0.00    -0.235 C  
HETATM    6  C   UNL     2     -11.672  13.986  68.721  1.00  0.00    -0.353 C  
HETATM    7  C   UNL     2      -9.800  14.332  66.935  1.00  0.00    -0.263 C  
HETATM    8  C   UNL     2     -11.117  14.827  64.983  1.00  0.00    -0.405 C  
HETATM    9  O   UNL     2     -10.358  16.036  65.154  1.00  0.00    -0.523 OA 
HETATM   10  N   UNL     2     -11.227  14.693  67.443  1.00  0.00    -0.329 N  
HETATM   11  C   UNL     2     -11.367  16.199  67.778  1.00  0.00    -0.126 C  
HETATM   12  C   UNL     2      -9.717  14.804  65.488  1.00  0.00    -0.226 C  
ENDROOT
BRANCH   4  13
HETATM   13  O   UNL     2     -11.046  10.785  67.141  1.00  0.00    -0.291 OA 
BRANCH  13  14
HETATM   14  C   UNL     2     -10.045   9.850  67.269  1.00  0.00    -0.211 C  
HETATM   15  C   UNL     2     -10.104   7.393  68.088  1.00  0.00    -0.210 A  
HETATM   16  O   UNL     2      -9.085   9.844  66.525  1.00  0.00    -0.147 OA 
HETATM   17  C   UNL     2      -9.079   9.261  69.468  1.00  0.00    -0.160 C  
HETATM   18  C   UNL     2     -10.200   8.883  68.479  1.00  0.00    -0.223 C  
HETATM   19  O   UNL     2      -9.082  10.645  69.817  1.00  0.00    -0.395 OA 
HETATM   20  C   UNL     2      -9.291   6.457  68.771  1.00  0.00    -0.125 A  
HETATM   21  C   UNL     2      -9.127   5.141  68.310  1.00  0.00    -0.128 A  
HETATM   22  H   UNL     2      -8.391  10.877  70.426  1.00  0.00     0.000 HD 
HETATM   23  C   UNL     2      -9.813   4.725  67.176  1.00  0.00    -0.222 A  
HETATM   24  C   UNL     2     -10.712   5.590  66.559  1.00  0.00    -0.309 A  
HETATM   25  C   UNL     2     -10.869   6.903  67.023  1.00  0.00    -0.436 A  
ENDBRANCH  13  14
ENDBRANCH   4  13
TORSDOF 2
ENDMDL
MODEL       30
REMARK 921   NORMALIZED FREE ENERGY PREDICTED BY IDOCK:   -5.81 KCAL/MOL
REMARK 922        TOTAL FREE ENERGY PREDICTED BY IDOCK:   -7.18 KCAL/MOL
REMARK 923 INTER-LIGAND FREE ENERGY PREDICTED BY IDOCK:   -6.52 KCAL/MOL
REMARK 924 INTRA-LIGAND FREE ENERGY PREDICTED BY IDOCK:   -0.66 KCAL/MOL
REMARK 927      BINDING AFFINITY PREDICTED BY RF-SCORE:    0.00 PKD
ROOT
HETATM    1 BR   UNL     1      -5.774   9.298  62.992  1.00  0.00    -0.084 Br 
HETATM    2  C   UNL     2     -10.289   5.987  68.241  1.00  0.00    -0.207 C  
HETATM    3  C   UNL     2     -10.641   6.888  67.024  1.00  0.00    -0.403 C  
HETATM    4  C   UNL     2     -10.438   8.418  67.229  1.00  0.00    -0.303 C  
HETATM    5  C   UNL     2      -9.602   8.814  68.481  1.00  0.00    -0.158 C  
HETATM    6  C   UNL     2      -7.785   6.606  67.772  1.00  0.00    -0.107 C  
HETATM    7  C   UNL     2      -9.376   7.698  69.530  1.00  0.00    -0.153 C  
HETATM    8  C   UNL     2     -11.300   6.264  69.357  1.00  0.00    -0.378 C  
HETATM    9  O   UNL     2     -10.893   6.066  70.722  1.00  0.00    -0.261 OA 
HETATM   10  N   UNL     2      -8.904   6.411  68.792  1.00  0.00    -0.125 N  
HETATM   11  C   UNL     2      -8.342   5.347  69.768  1.00  0.00    -0.100 C  
HETATM   12  C   UNL     2     -10.721   7.371  70.167  1.00  0.00    -0.242 C  
ENDROOT
BRANCH   4  13
HETATM   13  O   UNL     2      -9.814   9.065  66.049  1.00  0.00    -0.277 OA 
BRANCH  13  14
HETATM   14  C   UNL     2      -9.732  10.437  66.005  1.00  0.00    -0.211 C  
HETATM   15  C   UNL     2     -11.432  12.268  66.692  1.00  0.00    -0.431 A  
HETATM   16  O   UNL     2      -8.672  11.014  66.145  1.00  0.00    -0.175 OA 
HETATM   17  C   UNL     2     -10.888  11.762  64.265  1.00  0.00    -0.349 C  
HETATM   18  C   UNL     2     -11.068  11.165  65.675  1.00  0.00    -0.078 C  
HETATM   19  O   UNL     2     -10.489  10.795  63.294  1.00  0.00    -0.573 OA 
HETATM   20  C   UNL     2     -11.831  13.574  66.319  1.00  0.00    -0.431 A  
HETATM   21  C   UNL     2     -12.028  14.589  67.268  1.00  0.00    -0.375 A  
HETATM   22  H   UNL     2     -10.378  11.163  62.425  1.00  0.00     0.000 HD 
HETATM   23  C   UNL     2     -11.872  14.300  68.618  1.00  0.00    -0.379 A  
HETATM   24  C   UNL     2     -11.601  12.994  69.016  1.00  0.00    -0.367 A  
HETATM   25  C   UNL     2     -11.402  11.987  68.063  1.00  0.00    -0.358 A  
ENDBRANCH  13  14
ENDBRANCH   4  13
TORSDOF 2
ENDMDL
MODEL       31
REMARK 921   NORMALIZED FREE ENERGY PREDICTED BY IDOCK:   -5.80 KCAL/MOL
REMARK 922        TOTAL FREE ENERGY PREDICTED BY IDOCK:   -7.17 KCAL/MOL
REMARK 923 INTER-LIGAND FREE ENERGY PREDICTED BY IDOCK:   -6.38 KCAL/MOL
REMARK 924 INTRA-LIGAND FREE ENERGY PREDICTED BY IDOCK:   -0.80 KCAL/MOL
REMARK 927      BINDING AFFINITY PREDICTED BY RF-SCORE:    0.00 PKD
ROOT
HETATM    1 BR   UNL     1      -5.761  12.999  70.379  1.00  0.00    -0.158 Br 
HETATM    2  C   UNL     2     -11.951  13.288  65.851  1.00  0.00    -0.419 C  
HETATM    3  C   UNL     2     -11.431  12.161  66.786  1.00  0.00    -0.418 C  
HETATM    4  C   UNL     2     -10.267  11.292  66.223  1.00  0.00    -0.236 C  
HETATM    5  C   UNL     2      -9.559  11.870  64.963  1.00  0.00    -0.110 C  
HETATM    6  C   UNL     2      -9.668  14.494  66.299  1.00  0.00    -0.309 C  
HETATM    7  C   UNL     2     -10.294  13.022  64.236  1.00  0.00    -0.362 C  
HETATM    8  C   UNL     2     -12.635  12.639  64.643  1.00  0.00    -0.440 C  
HETATM    9  O   UNL     2     -12.654  13.353  63.395  1.00  0.00    -0.738 OA 
HETATM   10  N   UNL     2     -10.738  14.075  65.295  1.00  0.00    -0.336 N  
HETATM   11  C   UNL     2     -11.187  15.407  64.644  1.00  0.00    -0.364 C  
HETATM   12  C   UNL     2     -11.568  12.454  63.622  1.00  0.00    -0.499 C  
ENDROOT
BRANCH   4  13
HETATM   13  O   UNL     2      -9.223  11.024  67.242  1.00  0.00    -0.148 OA 
BRANCH  13  14
HETATM   14  C   UNL     2      -8.802   9.730  67.443  1.00  0.00    -0.132 C  
HETATM   15  C   UNL     2      -9.002   7.623  65.948  1.00  0.00    -0.144 A  
HETATM   16  O   UNL     2      -7.809   9.480  68.097  1.00  0.00    -0.083 OA 
HETATM   17  C   UNL     2     -10.374   7.924  68.062  1.00  0.00    -0.209 C  
HETATM   18  C   UNL     2      -9.738   8.636  66.851  1.00  0.00    -0.278 C  
HETATM   19  O   UNL     2     -11.017   8.821  68.966  1.00  0.00    -0.426 OA 
HETATM   20  C   UNL     2      -9.151   6.220  66.063  1.00  0.00    -0.126 A  
HETATM   21  C   UNL     2      -8.370   5.327  65.314  1.00  0.00    -0.139 A  
HETATM   22  H   UNL     2     -11.408   8.383  69.712  1.00  0.00     0.000 HD 
HETATM   23  C   UNL     2      -7.452   5.826  64.398  1.00  0.00    -0.075 A  
HETATM   24  C   UNL     2      -7.375   7.199  64.178  1.00  0.00    -0.083 A  
HETATM   25  C   UNL     2      -8.156   8.084  64.932  1.00  0.00    -0.147 A  
ENDBRANCH  13  14
ENDBRANCH   4  13
TORSDOF 2
ENDMDL
MODEL       32
REMARK 921   NORMALIZED FREE ENERGY PREDICTED BY IDOCK:   -5.78 KCAL/MOL
REMARK 922        TOTAL FREE ENERGY PREDICTED BY IDOCK:   -7.15 KCAL/MOL
REMARK 923 INTER-LIGAND FREE ENERGY PREDICTED BY IDOCK:   -6.63 KCAL/MOL
REMARK 924 INTRA-LIGAND FREE ENERGY PREDICTED BY IDOCK:   -0.52 KCAL/MOL
REMARK 927      BINDING AFFINITY PREDICTED BY RF-SCORE:    0.00 PKD
ROOT
HETATM    1 BR   UNL     1      -5.663  11.781  70.243  1.00  0.00    -0.163 Br 
HETATM    2  C   UNL     2     -11.887  13.185  65.979  1.00  0.00    -0.407 C  
HETATM    3  C   UNL     2     -11.514  11.956  66.853  1.00  0.00    -0.390 C  
HETATM    4  C   UNL     2     -10.516  10.944  66.215  1.00  0.00    -0.245 C  
HETATM    5  C   UNL     2      -9.771  11.458  64.948  1.00  0.00    -0.283 C  
HETATM    6  C   UNL     2      -9.432  14.013  66.376  1.00  0.00    -0.259 C  
HETATM    7  C   UNL     2     -10.347  12.737  64.291  1.00  0.00    -0.377 C  
HETATM    8  C   UNL     2     -12.703  12.696  64.778  1.00  0.00    -0.379 C  
HETATM    9  O   UNL     2     -12.656  13.454  63.557  1.00  0.00    -0.733 OA 
HETATM   10  N   UNL     2     -10.588  13.801  65.401  1.00  0.00    -0.307 N  
HETATM   11  C   UNL     2     -10.850  15.211  64.816  1.00  0.00    -0.357 C  
HETATM   12  C   UNL     2     -11.713  12.393  63.708  1.00  0.00    -0.483 C  
ENDROOT
BRANCH   4  13
HETATM   13  O   UNL     2      -9.492  10.480  67.182  1.00  0.00    -0.156 OA 
BRANCH  13  14
HETATM   14  C   UNL     2      -9.407   9.139  67.473  1.00  0.00    -0.135 C  
HETATM   15  C   UNL     2      -9.542   7.874  69.730  1.00  0.00    -0.167 A  
HETATM   16  O   UNL     2      -9.792   8.294  66.689  1.00  0.00    -0.227 OA 
HETATM   17  C   UNL     2      -7.367   8.137  68.448  1.00  0.00    -0.094 C  
HETATM   18  C   UNL     2      -8.707   8.802  68.821  1.00  0.00    -0.137 C  
HETATM   19  O   UNL     2      -6.579   8.926  67.557  1.00  0.00    -0.060 OA 
HETATM   20  C   UNL     2      -9.018   6.720  70.361  1.00  0.00    -0.152 A  
HETATM   21  C   UNL     2      -9.835   5.829  71.073  1.00  0.00    -0.227 A  
HETATM   22  H   UNL     2      -5.754   8.517  67.327  1.00  0.00     0.000 HD 
HETATM   23  C   UNL     2     -11.190   6.102  71.205  1.00  0.00    -0.348 A  
HETATM   24  C   UNL     2     -11.705   7.292  70.699  1.00  0.00    -0.310 A  
HETATM   25  C   UNL     2     -10.885   8.176  69.986  1.00  0.00    -0.233 A  
ENDBRANCH  13  14
ENDBRANCH   4  13
TORSDOF 2
ENDMDL
MODEL       33
REMARK 921   NORMALIZED FREE ENERGY PREDICTED BY IDOCK:   -5.74 KCAL/MOL
REMARK 922        TOTAL FREE ENERGY PREDICTED BY IDOCK:   -7.12 KCAL/MOL
REMARK 923 INTER-LIGAND FREE ENERGY PREDICTED BY IDOCK:   -6.74 KCAL/MOL
REMARK 924 INTRA-LIGAND FREE ENERGY PREDICTED BY IDOCK:   -0.37 KCAL/MOL
REMARK 927      BINDING AFFINITY PREDICTED BY RF-SCORE:    0.00 PKD
ROOT
HETATM    1 BR   UNL     1     -10.465   7.552  73.287  1.00  0.00    -0.410 Br 
HETATM    2  C   UNL     2      -7.575  10.249  66.709  1.00  0.00    -0.107 C  
HETATM    3  C   UNL     2      -8.470  10.933  67.778  1.00  0.00    -0.124 C  
HETATM    4  C   UNL     2      -9.988  10.590  67.717  1.00  0.00    -0.171 C  
HETATM    5  C   UNL     2     -10.355   9.366  66.828  1.00  0.00    -0.303 C  
HETATM    6  C   UNL     2      -8.016   8.011  68.001  1.00  0.00    -0.128 C  
HETATM    7  C   UNL     2      -9.249   8.867  65.866  1.00  0.00    -0.229 C  
HETATM    8  C   UNL     2      -7.942  10.816  65.334  1.00  0.00    -0.027 C  
HETATM    9  O   UNL     2      -7.747   9.991  64.172  1.00  0.00    -0.138 OA 
HETATM   10  N   UNL     2      -7.918   8.738  66.663  1.00  0.00    -0.099 N  
HETATM   11  C   UNL     2      -6.841   7.945  65.882  1.00  0.00    -0.057 C  
HETATM   12  C   UNL     2      -9.026   9.941  64.808  1.00  0.00    -0.217 C  
ENDROOT
BRANCH   4  13
HETATM   13  O   UNL     2     -10.566  10.358  69.063  1.00  0.00    -0.194 OA 
BRANCH  13  14
HETATM   14  C   UNL     2     -11.801  10.885  69.359  1.00  0.00    -0.328 C  
HETATM   15  C   UNL     2     -12.539  12.577  71.177  1.00  0.00    -0.349 A  
HETATM   16  O   UNL     2     -12.639  11.062  68.497  1.00  0.00    -0.202 OA 
HETATM   17  C   UNL     2     -13.123  10.110  71.301  1.00  0.00    -0.396 C  
HETATM   18  C   UNL     2     -12.060  11.142  70.872  1.00  0.00    -0.427 C  
HETATM   19  O   UNL     2     -12.759   8.767  70.986  1.00  0.00    -0.482 OA 
HETATM   20  C   UNL     2     -13.654  12.872  71.998  1.00  0.00    -0.499 A  
HETATM   21  C   UNL     2     -14.140  14.180  72.148  1.00  0.00    -0.643 A  
HETATM   22  H   UNL     2     -13.414   8.131  71.250  1.00  0.00     0.000 HD 
HETATM   23  C   UNL     2     -13.488  15.228  71.511  1.00  0.00    -0.577 A  
HETATM   24  C   UNL     2     -12.317  14.979  70.799  1.00  0.00    -0.400 A  
HETATM   25  C   UNL     2     -11.840  13.670  70.651  1.00  0.00    -0.232 A  
ENDBRANCH  13  14
ENDBRANCH   4  13
TORSDOF 2
ENDMDL
MODEL       34
REMARK 921   NORMALIZED FREE ENERGY PREDICTED BY IDOCK:   -5.73 KCAL/MOL
REMARK 922        TOTAL FREE ENERGY PREDICTED BY IDOCK:   -7.10 KCAL/MOL
REMARK 923 INTER-LIGAND FREE ENERGY PREDICTED BY IDOCK:   -6.73 KCAL/MOL
REMARK 924 INTRA-LIGAND FREE ENERGY PREDICTED BY IDOCK:   -0.36 KCAL/MOL
REMARK 927      BINDING AFFINITY PREDICTED BY RF-SCORE:    0.00 PKD
ROOT
HETATM    1 BR   UNL     1     -13.381  15.266  71.195  1.00  0.00    -0.568 Br 
HETATM    2  C   UNL     2      -8.221  18.234  66.351  1.00  0.00    -0.251 C  
HETATM    3  C   UNL     2      -8.623  16.758  66.624  1.00  0.00    -0.287 C  
HETATM    4  C   UNL     2      -8.005  16.107  67.897  1.00  0.00    -0.141 C  
HETATM    5  C   UNL     2      -7.350  17.104  68.898  1.00  0.00    -0.241 C  
HETATM    6  C   UNL     2      -9.679  18.850  68.440  1.00  0.00    -0.379 C  
HETATM    7  C   UNL     2      -7.089  18.533  68.364  1.00  0.00    -0.272 C  
HETATM    8  C   UNL     2      -6.731  18.272  65.999  1.00  0.00    -0.266 C  
HETATM    9  O   UNL     2      -5.983  19.466  66.291  1.00  0.00    -0.165 OA 
HETATM   10  N   UNL     2      -8.381  19.045  67.661  1.00  0.00    -0.283 N  
HETATM   11  C   UNL     2      -8.333  20.568  67.383  1.00  0.00    -0.283 C  
HETATM   12  C   UNL     2      -6.011  18.445  67.290  1.00  0.00    -0.156 C  
ENDROOT
BRANCH   4  13
HETATM   13  O   UNL     2      -8.994  15.298  68.650  1.00  0.00    -0.174 OA 
BRANCH  13  14
HETATM   14  C   UNL     2      -9.398  14.088  68.135  1.00  0.00    -0.201 C  
HETATM   15  C   UNL     2     -11.214  13.506  66.381  1.00  0.00    -0.322 A  
HETATM   16  O   UNL     2      -8.623  13.160  68.012  1.00  0.00    -0.164 OA 
HETATM   17  C   UNL     2     -11.499  12.998  68.852  1.00  0.00    -0.299 C  
HETATM   18  C   UNL     2     -10.919  13.984  67.819  1.00  0.00    -0.271 C  
HETATM   19  O   UNL     2     -11.202  13.359  70.200  1.00  0.00    -0.480 OA 
HETATM   20  C   UNL     2     -12.136  12.476  66.074  1.00  0.00    -0.390 A  
HETATM   21  C   UNL     2     -12.284  11.978  64.771  1.00  0.00    -0.236 A  
HETATM   22  H   UNL     2     -11.559  12.751  70.836  1.00  0.00     0.000 HD 
HETATM   23  C   UNL     2     -11.539  12.534  63.738  1.00  0.00    -0.552 A  
HETATM   24  C   UNL     2     -10.718  13.628  63.994  1.00  0.00     0.034 A  
HETATM   25  C   UNL     2     -10.572  14.119  65.298  1.00  0.00    -0.387 A  
ENDBRANCH  13  14
ENDBRANCH   4  13
TORSDOF 2
ENDMDL
MODEL       35
REMARK 921   NORMALIZED FREE ENERGY PREDICTED BY IDOCK:   -5.72 KCAL/MOL
REMARK 922        TOTAL FREE ENERGY PREDICTED BY IDOCK:   -7.09 KCAL/MOL
REMARK 923 INTER-LIGAND FREE ENERGY PREDICTED BY IDOCK:   -6.49 KCAL/MOL
REMARK 924 INTRA-LIGAND FREE ENERGY PREDICTED BY IDOCK:   -0.60 KCAL/MOL
REMARK 927      BINDING AFFINITY PREDICTED BY RF-SCORE:    0.00 PKD
ROOT
HETATM    1 BR   UNL     1      -6.156  13.472  69.800  1.00  0.00    -0.120 Br 
HETATM    2  C   UNL     2     -10.541   7.213  70.502  1.00  0.00    -0.225 C  
HETATM    3  C   UNL     2     -10.591   8.375  69.471  1.00  0.00    -0.217 C  
HETATM    4  C   UNL     2     -11.269   9.689  69.957  1.00  0.00    -0.231 C  
HETATM    5  C   UNL     2     -11.501   9.786  71.494  1.00  0.00    -0.393 C  
HETATM    6  C   UNL     2      -8.795   8.663  71.813  1.00  0.00    -0.211 C  
HETATM    7  C   UNL     2     -11.354   8.466  72.290  1.00  0.00    -0.378 C  
HETATM    8  C   UNL     2     -11.972   6.724  70.749  1.00  0.00    -0.378 C  
HETATM    9  O   UNL     2     -12.290   6.134  72.022  1.00  0.00    -0.290 OA 
HETATM   10  N   UNL     2     -10.031   7.769  71.856  1.00  0.00    -0.169 N  
HETATM   11  C   UNL     2      -9.632   6.620  72.816  1.00  0.00    -0.145 C  
HETATM   12  C   UNL     2     -12.494   7.540  71.879  1.00  0.00    -0.303 C  
ENDROOT
BRANCH   4  13
HETATM   13  O   UNL     2     -10.518  10.898  69.538  1.00  0.00    -0.215 OA 
BRANCH  13  14
HETATM   14  C   UNL     2     -11.190  11.916  68.904  1.00  0.00    -0.254 C  
HETATM   15  C   UNL     2     -10.471  14.340  68.340  1.00  0.00    -0.249 A  
HETATM   16  O   UNL     2     -12.012  11.690  68.037  1.00  0.00    -0.577 OA 
HETATM   17  C   UNL     2     -12.170  13.813  70.151  1.00  0.00    -0.356 C  
HETATM   18  C   UNL     2     -10.883  13.343  69.444  1.00  0.00    -0.007 C  
HETATM   19  O   UNL     2     -12.632  12.897  71.142  1.00  0.00    -0.370 OA 
HETATM   20  C   UNL     2     -11.028  15.635  68.209  1.00  0.00    -0.315 A  
HETATM   21  C   UNL     2     -10.726  16.465  67.118  1.00  0.00    -0.233 A  
HETATM   22  H   UNL     2     -13.425  13.186  71.577  1.00  0.00     0.000 HD 
HETATM   23  C   UNL     2      -9.822  16.029  66.158  1.00  0.00    -0.351 A  
HETATM   24  C   UNL     2      -9.169  14.812  66.330  1.00  0.00    -0.278 A  
HETATM   25  C   UNL     2      -9.478  13.986  67.419  1.00  0.00    -0.225 A  
ENDBRANCH  13  14
ENDBRANCH   4  13
TORSDOF 2
ENDMDL
MODEL       36
REMARK 921   NORMALIZED FREE ENERGY PREDICTED BY IDOCK:   -5.69 KCAL/MOL
REMARK 922        TOTAL FREE ENERGY PREDICTED BY IDOCK:   -7.05 KCAL/MOL
REMARK 923 INTER-LIGAND FREE ENERGY PREDICTED BY IDOCK:   -7.00 KCAL/MOL
REMARK 924 INTRA-LIGAND FREE ENERGY PREDICTED BY IDOCK:   -0.06 KCAL/MOL
REMARK 927      BINDING AFFINITY PREDICTED BY RF-SCORE:    0.00 PKD
ROOT
HETATM    1 BR   UNL     1      -8.876   9.614  64.422  1.00  0.00    -0.270 Br 
HETATM    2  C   UNL     2     -11.303   7.252  71.309  1.00  0.00    -0.264 C  
HETATM    3  C   UNL     2     -11.659   8.525  70.491  1.00  0.00    -0.145 C  
HETATM    4  C   UNL     2     -10.617   9.681  70.542  1.00  0.00    -0.306 C  
HETATM    5  C   UNL     2      -9.223   9.291  71.115  1.00  0.00    -0.225 C  
HETATM    6  C   UNL     2      -9.433   6.821  69.524  1.00  0.00    -0.148 C  
HETATM    7  C   UNL     2      -9.148   7.939  71.865  1.00  0.00    -0.146 C  
HETATM    8  C   UNL     2     -11.341   7.608  72.798  1.00  0.00    -0.367 C  
HETATM    9  O   UNL     2     -10.508   6.867  73.707  1.00  0.00    -0.342 OA 
HETATM   10  N   UNL     2      -9.840   6.849  70.995  1.00  0.00    -0.178 N  
HETATM   11  C   UNL     2      -9.536   5.416  71.498  1.00  0.00    -0.152 C  
HETATM   12  C   UNL     2      -9.967   8.064  73.145  1.00  0.00    -0.246 C  
ENDROOT
BRANCH   4  13
HETATM   13  O   UNL     2     -10.399  10.300  69.211  1.00  0.00    -0.203 OA 
BRANCH  13  14
HETATM   14  C   UNL     2     -11.406  11.049  68.649  1.00  0.00    -0.281 C  
HETATM   15  C   UNL     2     -11.349  12.873  66.811  1.00  0.00    -0.367 A  
HETATM   16  O   UNL     2     -12.533  10.609  68.533  1.00  0.00    -0.169 OA 
HETATM   17  C   UNL     2     -11.768  13.419  69.255  1.00  0.00    -0.330 C  
HETATM   18  C   UNL     2     -11.009  12.505  68.271  1.00  0.00    -0.270 C  
HETATM   19  O   UNL     2     -11.538  13.083  70.623  1.00  0.00    -0.464 OA 
HETATM   20  C   UNL     2     -12.022  14.063  66.441  1.00  0.00    -0.462 A  
HETATM   21  C   UNL     2     -12.430  14.304  65.121  1.00  0.00    -0.423 A  
HETATM   22  H   UNL     2     -12.006  13.646  71.228  1.00  0.00     0.000 HD 
HETATM   23  C   UNL     2     -12.132  13.374  64.133  1.00  0.00    -0.491 A  
HETATM   24  C   UNL     2     -11.365  12.256  64.450  1.00  0.00    -0.396 A  
HETATM   25  C   UNL     2     -10.963  12.020  65.771  1.00  0.00    -0.351 A  
ENDBRANCH  13  14
ENDBRANCH   4  13
TORSDOF 2
ENDMDL
MODEL       37
REMARK 921   NORMALIZED FREE ENERGY PREDICTED BY IDOCK:   -5.68 KCAL/MOL
REMARK 922        TOTAL FREE ENERGY PREDICTED BY IDOCK:   -7.04 KCAL/MOL
REMARK 923 INTER-LIGAND FREE ENERGY PREDICTED BY IDOCK:   -6.47 KCAL/MOL
REMARK 924 INTRA-LIGAND FREE ENERGY PREDICTED BY IDOCK:   -0.57 KCAL/MOL
REMARK 927      BINDING AFFINITY PREDICTED BY RF-SCORE:    0.00 PKD
ROOT
HETATM    1 BR   UNL     1     -13.467  13.092  72.088  1.00  0.00    -0.614 Br 
HETATM    2  C   UNL     2      -9.169   6.735  71.978  1.00  0.00    -0.141 C  
HETATM    3  C   UNL     2      -9.041   8.059  71.175  1.00  0.00    -0.172 C  
HETATM    4  C   UNL     2      -9.992   8.209  69.951  1.00  0.00    -0.190 C  
HETATM    5  C   UNL     2     -11.163   7.185  69.893  1.00  0.00    -0.241 C  
HETATM    6  C   UNL     2     -11.494   7.636  72.786  1.00  0.00    -0.332 C  
HETATM    7  C   UNL     2     -11.046   5.961  70.835  1.00  0.00    -0.242 C  
HETATM    8  C   UNL     2      -8.683   5.583  71.093  1.00  0.00    -0.130 C  
HETATM    9  O   UNL     2      -9.229   4.269  71.308  1.00  0.00    -0.121 OA 
HETATM   10  N   UNL     2     -10.669   6.465  72.259  1.00  0.00    -0.214 N  
HETATM   11  C   UNL     2     -10.846   5.366  73.336  1.00  0.00    -0.297 C  
HETATM   12  C   UNL     2      -9.882   5.105  70.350  1.00  0.00    -0.218 C  
ENDROOT
BRANCH   4  13
HETATM   13  O   UNL     2     -10.579   9.569  69.859  1.00  0.00    -0.212 OA 
BRANCH  13  14
HETATM   14  C   UNL     2     -10.127  10.427  68.885  1.00  0.00    -0.201 C  
HETATM   15  C   UNL     2     -11.381  12.168  67.433  1.00  0.00    -0.393 A  
HETATM   16  O   UNL     2      -9.004  10.891  68.920  1.00  0.00    -0.167 OA 
HETATM   17  C   UNL     2     -10.497   9.987  66.479  1.00  0.00    -0.153 C  
HETATM   18  C   UNL     2     -11.120  10.672  67.712  1.00  0.00    -0.385 C  
HETATM   19  O   UNL     2     -10.178   8.614  66.703  1.00  0.00    -0.282 OA 
HETATM   20  C   UNL     2     -11.330  12.741  66.139  1.00  0.00    -0.371 A  
HETATM   21  C   UNL     2     -11.443  14.125  65.937  1.00  0.00    -0.338 A  
HETATM   22  H   UNL     2      -9.793   8.193  65.943  1.00  0.00     0.000 HD 
HETATM   23  C   UNL     2     -11.655  14.959  67.027  1.00  0.00    -0.314 A  
HETATM   24  C   UNL     2     -11.832  14.407  68.293  1.00  0.00    -0.361 A  
HETATM   25  C   UNL     2     -11.714  13.025  68.488  1.00  0.00    -0.377 A  
ENDBRANCH  13  14
ENDBRANCH   4  13
TORSDOF 2
ENDMDL
MODEL       38
REMARK 921   NORMALIZED FREE ENERGY PREDICTED BY IDOCK:   -5.66 KCAL/MOL
REMARK 922        TOTAL FREE ENERGY PREDICTED BY IDOCK:   -7.02 KCAL/MOL
REMARK 923 INTER-LIGAND FREE ENERGY PREDICTED BY IDOCK:   -6.28 KCAL/MOL
REMARK 924 INTRA-LIGAND FREE ENERGY PREDICTED BY IDOCK:   -0.74 KCAL/MOL
REMARK 927      BINDING AFFINITY PREDICTED BY RF-SCORE:    0.00 PKD
ROOT
HETATM    1 BR   UNL     1     -13.760   8.976  72.215  1.00  0.00    -0.560 Br 
HETATM    2  C   UNL     2      -6.767   9.308  69.069  1.00  0.00    -0.051 C  
HETATM    3  C   UNL     2      -7.775  10.438  69.420  1.00  0.00    -0.158 C  
HETATM    4  C   UNL     2      -8.942  10.649  68.410  1.00  0.00    -0.149 C  
HETATM    5  C   UNL     2      -9.139   9.500  67.377  1.00  0.00    -0.144 C  
HETATM    6  C   UNL     2      -8.705   7.628  69.611  1.00  0.00    -0.136 C  
HETATM    7  C   UNL     2      -7.976   8.486  67.256  1.00  0.00    -0.102 C  
HETATM    8  C   UNL     2      -5.991   9.725  67.816  1.00  0.00    -0.050 C  
HETATM    9  O   UNL     2      -5.476   8.699  66.949  1.00  0.00    -0.036 OA 
HETATM   10  N   UNL     2      -7.560   8.033  68.686  1.00  0.00    -0.098 N  
HETATM   11  C   UNL     2      -6.638   6.789  68.663  1.00  0.00    -0.051 C  
HETATM   12  C   UNL     2      -6.777   9.214  66.660  1.00  0.00    -0.076 C  
ENDROOT
BRANCH   4  13
HETATM   13  O   UNL     2     -10.241  10.870  69.091  1.00  0.00    -0.213 OA 
BRANCH  13  14
HETATM   14  C   UNL     2     -11.244  11.528  68.418  1.00  0.00    -0.255 C  
HETATM   15  C   UNL     2     -11.192  12.962  66.261  1.00  0.00    -0.337 A  
HETATM   16  O   UNL     2     -12.385  11.110  68.414  1.00  0.00    -0.556 OA 
HETATM   17  C   UNL     2     -11.525  13.981  68.563  1.00  0.00    -0.302 C  
HETATM   18  C   UNL     2     -10.820  12.871  67.757  1.00  0.00    -0.248 C  
HETATM   19  O   UNL     2     -11.265  13.907  69.964  1.00  0.00    -0.466 OA 
HETATM   20  C   UNL     2     -11.842  14.079  65.684  1.00  0.00    -0.384 A  
HETATM   21  C   UNL     2     -12.282  14.074  64.351  1.00  0.00    -0.457 A  
HETATM   22  H   UNL     2     -11.700  14.590  70.460  1.00  0.00     0.000 HD 
HETATM   23  C   UNL     2     -12.037  12.962  63.556  1.00  0.00    -0.633 A  
HETATM   24  C   UNL     2     -11.291  11.903  64.064  1.00  0.00    -0.475 A  
HETATM   25  C   UNL     2     -10.858  11.912  65.397  1.00  0.00    -0.343 A  
ENDBRANCH  13  14
ENDBRANCH   4  13
TORSDOF 2
ENDMDL
MODEL       39
REMARK 921   NORMALIZED FREE ENERGY PREDICTED BY IDOCK:   -5.65 KCAL/MOL
REMARK 922        TOTAL FREE ENERGY PREDICTED BY IDOCK:   -7.01 KCAL/MOL
REMARK 923 INTER-LIGAND FREE ENERGY PREDICTED BY IDOCK:   -6.24 KCAL/MOL
REMARK 924 INTRA-LIGAND FREE ENERGY PREDICTED BY IDOCK:   -0.77 KCAL/MOL
REMARK 927      BINDING AFFINITY PREDICTED BY RF-SCORE:    0.00 PKD
ROOT
HETATM    1 BR   UNL     1     -11.913  11.416  69.947  1.00  0.00    -0.444 Br 
HETATM    2  C   UNL     2      -9.060  17.495  66.232  1.00  0.00    -0.193 C  
HETATM    3  C   UNL     2      -8.505  16.052  66.390  1.00  0.00    -0.363 C  
HETATM    4  C   UNL     2      -7.798  15.738  67.741  1.00  0.00    -0.141 C  
HETATM    5  C   UNL     2      -8.034  16.784  68.871  1.00  0.00    -0.237 C  
HETATM    6  C   UNL     2     -10.855  16.831  68.023  1.00  0.00    -0.341 C  
HETATM    7  C   UNL     2      -8.634  18.141  68.429  1.00  0.00    -0.299 C  
HETATM    8  C   UNL     2      -7.876  18.465  66.168  1.00  0.00    -0.207 C  
HETATM    9  O   UNL     2      -8.065  19.816  66.624  1.00  0.00    -0.286 OA 
HETATM   10  N   UNL     2      -9.858  17.865  67.507  1.00  0.00    -0.298 N  
HETATM   11  C   UNL     2     -10.717  19.134  67.278  1.00  0.00    -0.488 C  
HETATM   12  C   UNL     2      -7.595  18.860  67.576  1.00  0.00    -0.228 C  
ENDROOT
BRANCH   4  13
HETATM   13  O   UNL     2      -8.172  14.407  68.276  1.00  0.00    -0.134 OA 
BRANCH  13  14
HETATM   14  C   UNL     2      -7.964  13.292  67.498  1.00  0.00    -0.184 C  
HETATM   15  C   UNL     2      -9.622  11.806  66.172  1.00  0.00    -0.250 A  
HETATM   16  O   UNL     2      -6.934  13.138  66.872  1.00  0.00     0.082 OA 
HETATM   17  C   UNL     2      -8.496  11.015  68.306  1.00  0.00    -0.138 C  
HETATM   18  C   UNL     2      -9.096  12.225  67.562  1.00  0.00    -0.182 C  
HETATM   19  O   UNL     2      -7.938  11.357  69.574  1.00  0.00    -0.355 OA 
HETATM   20  C   UNL     2      -9.793  10.458  65.776  1.00  0.00    -0.300 A  
HETATM   21  C   UNL     2     -10.149  10.111  64.463  1.00  0.00    -0.158 A  
HETATM   22  H   UNL     2      -7.568  10.612  70.031  1.00  0.00     0.000 HD 
HETATM   23  C   UNL     2     -10.383  11.114  63.531  1.00  0.00    -0.446 A  
HETATM   24  C   UNL     2     -10.341  12.447  63.929  1.00  0.00    -0.450 A  
HETATM   25  C   UNL     2      -9.983  12.787  65.241  1.00  0.00    -0.202 A  
ENDBRANCH  13  14
ENDBRANCH   4  13
TORSDOF 2
ENDMDL
MODEL       40
REMARK 921   NORMALIZED FREE ENERGY PREDICTED BY IDOCK:   -5.63 KCAL/MOL
REMARK 922        TOTAL FREE ENERGY PREDICTED BY IDOCK:   -6.99 KCAL/MOL
REMARK 923 INTER-LIGAND FREE ENERGY PREDICTED BY IDOCK:   -6.45 KCAL/MOL
REMARK 924 INTRA-LIGAND FREE ENERGY PREDICTED BY IDOCK:   -0.54 KCAL/MOL
REMARK 927      BINDING AFFINITY PREDICTED BY RF-SCORE:    0.00 PKD
ROOT
HETATM    1 BR   UNL     1      -6.404   9.181  70.781  1.00  0.00    -0.072 Br 
HETATM    2  C   UNL     2     -10.340  15.451  68.756  1.00  0.00    -0.229 C  
HETATM    3  C   UNL     2     -10.790  13.969  68.883  1.00  0.00    -0.278 C  
HETATM    4  C   UNL     2     -10.413  13.038  67.692  1.00  0.00    -0.225 C  
HETATM    5  C   UNL     2      -9.357  13.620  66.706  1.00  0.00    -0.269 C  
HETATM    6  C   UNL     2      -7.893  14.569  69.080  1.00  0.00    -0.106 C  
HETATM    7  C   UNL     2      -9.078  15.138  66.824  1.00  0.00    -0.256 C  
HETATM    8  C   UNL     2     -11.134  16.102  67.619  1.00  0.00    -0.212 C  
HETATM    9  O   UNL     2     -10.539  17.198  66.902  1.00  0.00    -0.297 OA 
HETATM   10  N   UNL     2      -8.852  15.486  68.325  1.00  0.00    -0.176 N  
HETATM   11  C   UNL     2      -8.249  16.900  68.515  1.00  0.00    -0.249 C  
HETATM   12  C   UNL     2     -10.332  15.883  66.384  1.00  0.00    -0.306 C  
ENDROOT
BRANCH   4  13
HETATM   13  O   UNL     2      -9.922  11.715  68.147  1.00  0.00    -0.182 OA 
BRANCH  13  14
HETATM   14  C   UNL     2     -10.826  10.696  68.337  1.00  0.00    -0.237 C  
HETATM   15  C   UNL     2     -10.726   8.587  69.839  1.00  0.00    -0.224 A  
HETATM   16  O   UNL     2     -12.023  10.886  68.251  1.00  0.00    -0.561 OA 
HETATM   17  C   UNL     2     -10.519   8.466  67.311  1.00  0.00    -0.303 C  
HETATM   18  C   UNL     2     -10.195   9.293  68.572  1.00  0.00    -0.225 C  
HETATM   19  O   UNL     2     -10.105   9.102  66.103  1.00  0.00    -0.290 OA 
HETATM   20  C   UNL     2     -11.173   7.244  69.856  1.00  0.00    -0.195 A  
HETATM   21  C   UNL     2     -11.770   6.675  70.991  1.00  0.00    -0.415 A  
HETATM   22  H   UNL     2     -10.305   8.593  65.326  1.00  0.00     0.000 HD 
HETATM   23  C   UNL     2     -11.889   7.431  72.151  1.00  0.00    -0.323 A  
HETATM   24  C   UNL     2     -11.346   8.712  72.196  1.00  0.00    -0.434 A  
HETATM   25  C   UNL     2     -10.754   9.275  71.058  1.00  0.00    -0.387 A  
ENDBRANCH  13  14
ENDBRANCH   4  13
TORSDOF 2
ENDMDL
MODEL       41
REMARK 921   NORMALIZED FREE ENERGY PREDICTED BY IDOCK:   -5.61 KCAL/MOL
REMARK 922        TOTAL FREE ENERGY PREDICTED BY IDOCK:   -6.96 KCAL/MOL
REMARK 923 INTER-LIGAND FREE ENERGY PREDICTED BY IDOCK:   -6.66 KCAL/MOL
REMARK 924 INTRA-LIGAND FREE ENERGY PREDICTED BY IDOCK:   -0.31 KCAL/MOL
REMARK 927      BINDING AFFINITY PREDICTED BY RF-SCORE:    0.00 PKD
ROOT
HETATM    1 BR   UNL     1     -13.993  13.802  72.444  1.00  0.00    -0.581 Br 
HETATM    2  C   UNL     2     -10.101  16.971  66.638  1.00  0.00    -0.306 C  
HETATM    3  C   UNL     2     -10.780  15.579  66.762  1.00  0.00    -0.305 C  
HETATM    4  C   UNL     2      -9.982  14.500  67.553  1.00  0.00    -0.224 C  
HETATM    5  C   UNL     2      -8.789  15.042  68.393  1.00  0.00    -0.178 C  
HETATM    6  C   UNL     2     -10.565  17.250  69.203  1.00  0.00    -0.209 C  
HETATM    7  C   UNL     2      -8.335  16.489  68.078  1.00  0.00    -0.180 C  
HETATM    8  C   UNL     2      -8.858  16.827  65.754  1.00  0.00     0.129 C  
HETATM    9  O   UNL     2      -7.759  17.732  65.955  1.00  0.00    -0.501 OA 
HETATM   10  N   UNL     2      -9.593  17.406  68.036  1.00  0.00    -0.268 N  
HETATM   11  C   UNL     2      -9.223  18.910  68.052  1.00  0.00    -0.307 C  
HETATM   12  C   UNL     2      -7.736  16.500  66.677  1.00  0.00    -0.283 C  
ENDROOT
BRANCH   4  13
HETATM   13  O   UNL     2     -10.851  13.713  68.462  1.00  0.00    -0.242 OA 
BRANCH  13  14
HETATM   14  C   UNL     2     -11.059  12.380  68.199  1.00  0.00    -0.247 C  
HETATM   15  C   UNL     2     -10.504  10.263  69.587  1.00  0.00    -0.286 A  
HETATM   16  O   UNL     2     -12.006  12.004  67.537  1.00  0.00    -0.572 OA 
HETATM   17  C   UNL     2      -9.223  10.885  67.485  1.00  0.00    -0.147 C  
HETATM   18  C   UNL     2      -9.952  11.425  68.732  1.00  0.00    -0.188 C  
HETATM   19  O   UNL     2      -8.745  11.918  66.625  1.00  0.00    -0.192 OA 
HETATM   20  C   UNL     2     -10.131   8.910  69.401  1.00  0.00    -0.202 A  
HETATM   21  C   UNL     2     -10.748   7.867  70.107  1.00  0.00    -0.244 A  
HETATM   22  H   UNL     2      -8.296  11.586  65.856  1.00  0.00     0.000 HD 
HETATM   23  C   UNL     2     -11.724   8.165  71.050  1.00  0.00    -0.295 A  
HETATM   24  C   UNL     2     -12.020   9.494  71.338  1.00  0.00    -0.464 A  
HETATM   25  C   UNL     2     -11.402  10.531  70.627  1.00  0.00    -0.363 A  
ENDBRANCH  13  14
ENDBRANCH   4  13
TORSDOF 2
ENDMDL
MODEL       42
REMARK 921   NORMALIZED FREE ENERGY PREDICTED BY IDOCK:   -5.60 KCAL/MOL
REMARK 922        TOTAL FREE ENERGY PREDICTED BY IDOCK:   -6.95 KCAL/MOL
REMARK 923 INTER-LIGAND FREE ENERGY PREDICTED BY IDOCK:   -6.28 KCAL/MOL
REMARK 924 INTRA-LIGAND FREE ENERGY PREDICTED BY IDOCK:   -0.67 KCAL/MOL
REMARK 927      BINDING AFFINITY PREDICTED BY RF-SCORE:    0.00 PKD
ROOT
HETATM    1 BR   UNL     1      -5.153   6.994  65.602  1.00  0.00    -0.024 Br 
HETATM    2  C   UNL     2     -10.825   6.687  70.763  1.00  0.00    -0.252 C  
HETATM    3  C   UNL     2     -10.781   7.313  69.341  1.00  0.00    -0.236 C  
HETATM    4  C   UNL     2     -10.092   8.705  69.230  1.00  0.00    -0.202 C  
HETATM    5  C   UNL     2      -9.249   9.127  70.470  1.00  0.00    -0.286 C  
HETATM    6  C   UNL     2      -8.235   6.361  70.526  1.00  0.00    -0.118 C  
HETATM    7  C   UNL     2      -9.473   8.300  71.759  1.00  0.00    -0.209 C  
HETATM    8  C   UNL     2     -11.752   7.537  71.638  1.00  0.00    -0.282 C  
HETATM    9  O   UNL     2     -11.517   7.576  73.056  1.00  0.00    -0.312 OA 
HETATM   10  N   UNL     2      -9.414   6.787  71.396  1.00  0.00    -0.161 N  
HETATM   11  C   UNL     2      -9.301   5.887  72.651  1.00  0.00    -0.143 C  
HETATM   12  C   UNL     2     -10.886   8.578  72.257  1.00  0.00    -0.348 C  
ENDROOT
BRANCH   4  13
HETATM   13  O   UNL     2      -9.217   8.805  68.036  1.00  0.00    -0.139 OA 
BRANCH  13  14
HETATM   14  C   UNL     2      -9.182   9.986  67.331  1.00  0.00    -0.137 C  
HETATM   15  C   UNL     2     -11.062  11.660  66.718  1.00  0.00    -0.366 A  
HETATM   16  O   UNL     2      -8.202  10.703  67.345  1.00  0.00    -0.114 OA 
HETATM   17  C   UNL     2      -9.981  10.139  64.996  1.00  0.00    -0.305 C  
HETATM   18  C   UNL     2     -10.441  10.269  66.462  1.00  0.00    -0.241 C  
HETATM   19  O   UNL     2      -9.343   8.894  64.718  1.00  0.00    -0.422 OA 
HETATM   20  C   UNL     2     -11.421  12.557  65.684  1.00  0.00    -0.400 A  
HETATM   21  C   UNL     2     -11.861  13.862  65.954  1.00  0.00    -0.399 A  
HETATM   22  H   UNL     2      -9.059   8.814  63.815  1.00  0.00     0.000 HD 
HETATM   23  C   UNL     2     -11.992  14.279  67.273  1.00  0.00    -0.439 A  
HETATM   24  C   UNL     2     -11.763  13.375  68.307  1.00  0.00    -0.391 A  
HETATM   25  C   UNL     2     -11.321  12.075  68.030  1.00  0.00    -0.358 A  
ENDBRANCH  13  14
ENDBRANCH   4  13
TORSDOF 2
ENDMDL
MODEL       43
REMARK 921   NORMALIZED FREE ENERGY PREDICTED BY IDOCK:   -5.59 KCAL/MOL
REMARK 922        TOTAL FREE ENERGY PREDICTED BY IDOCK:   -6.94 KCAL/MOL
REMARK 923 INTER-LIGAND FREE ENERGY PREDICTED BY IDOCK:   -6.47 KCAL/MOL
REMARK 924 INTRA-LIGAND FREE ENERGY PREDICTED BY IDOCK:   -0.47 KCAL/MOL
REMARK 927      BINDING AFFINITY PREDICTED BY RF-SCORE:    0.00 PKD
ROOT
HETATM    1 BR   UNL     1      -8.381  14.606  68.508  1.00  0.00    -0.166 Br 
HETATM    2  C   UNL     2      -9.406   7.005  68.240  1.00  0.00    -0.126 C  
HETATM    3  C   UNL     2     -10.438   8.164  68.319  1.00  0.00    -0.210 C  
HETATM    4  C   UNL     2     -10.654   8.789  69.729  1.00  0.00    -0.224 C  
HETATM    5  C   UNL     2      -9.581   8.412  70.792  1.00  0.00    -0.203 C  
HETATM    6  C   UNL     2      -7.569   8.822  68.679  1.00  0.00    -0.097 C  
HETATM    7  C   UNL     2      -8.655   7.224  70.434  1.00  0.00    -0.144 C  
HETATM    8  C   UNL     2      -9.970   5.803  69.004  1.00  0.00    -0.169 C  
HETATM    9  O   UNL     2      -9.050   4.871  69.600  1.00  0.00    -0.099 OA 
HETATM   10  N   UNL     2      -8.118   7.431  68.987  1.00  0.00    -0.125 N  
HETATM   11  C   UNL     2      -6.940   6.480  68.656  1.00  0.00    -0.080 C  
HETATM   12  C   UNL     2      -9.503   5.957  70.409  1.00  0.00    -0.163 C  
ENDROOT
BRANCH   4  13
HETATM   13  O   UNL     2     -10.737  10.270  69.680  1.00  0.00    -0.228 OA 
BRANCH  13  14
HETATM   14  C   UNL     2     -11.958  10.876  69.858  1.00  0.00    -0.353 C  
HETATM   15  C   UNL     2     -12.668  12.873  71.347  1.00  0.00    -0.366 A  
HETATM   16  O   UNL     2     -12.776  10.930  68.960  1.00  0.00    -0.239 OA 
HETATM   17  C   UNL     2     -13.335  10.481  71.874  1.00  0.00    -0.355 C  
HETATM   18  C   UNL     2     -12.232  11.393  71.300  1.00  0.00    -0.240 C  
HETATM   19  O   UNL     2     -13.011   9.094  71.798  1.00  0.00    -0.332 OA 
HETATM   20  C   UNL     2     -13.786  13.336  72.083  1.00  0.00    -0.619 A  
HETATM   21  C   UNL     2     -14.230  14.664  72.000  1.00  0.00    -0.625 A  
HETATM   22  H   UNL     2     -13.690   8.532  72.151  1.00  0.00     0.000 HD 
HETATM   23  C   UNL     2     -13.534  15.569  71.210  1.00  0.00    -0.560 A  
HETATM   24  C   UNL     2     -12.361  15.168  70.575  1.00  0.00    -0.408 A  
HETATM   25  C   UNL     2     -11.925  13.840  70.659  1.00  0.00    -0.340 A  
ENDBRANCH  13  14
ENDBRANCH   4  13
TORSDOF 2
ENDMDL
MODEL       44
REMARK 921   NORMALIZED FREE ENERGY PREDICTED BY IDOCK:   -5.55 KCAL/MOL
REMARK 922        TOTAL FREE ENERGY PREDICTED BY IDOCK:   -6.90 KCAL/MOL
REMARK 923 INTER-LIGAND FREE ENERGY PREDICTED BY IDOCK:   -6.24 KCAL/MOL
REMARK 924 INTRA-LIGAND FREE ENERGY PREDICTED BY IDOCK:   -0.66 KCAL/MOL
REMARK 927      BINDING AFFINITY PREDICTED BY RF-SCORE:    0.00 PKD
ROOT
HETATM    1 BR   UNL     1      -5.180  16.463  67.601  1.00  0.00    -0.161 Br 
HETATM    2  C   UNL     2      -9.208  10.136  65.975  1.00  0.00    -0.158 C  
HETATM    3  C   UNL     2      -9.527  11.635  65.718  1.00  0.00    -0.244 C  
HETATM    4  C   UNL     2     -10.063  12.437  66.941  1.00  0.00    -0.219 C  
HETATM    5  C   UNL     2      -9.888  11.737  68.320  1.00  0.00    -0.198 C  
HETATM    6  C   UNL     2      -7.188  10.979  67.417  1.00  0.00    -0.103 C  
HETATM    7  C   UNL     2      -9.535  10.230  68.279  1.00  0.00    -0.142 C  
HETATM    8  C   UNL     2     -10.524   9.400  66.248  1.00  0.00    -0.041 C  
HETATM    9  O   UNL     2     -10.498   8.226  67.078  1.00  0.00    -0.310 OA 
HETATM   10  N   UNL     2      -8.367  10.021  67.271  1.00  0.00    -0.121 N  
HETATM   11  C   UNL     2      -7.728   8.615  67.398  1.00  0.00    -0.098 C  
HETATM   12  C   UNL     2     -10.738   9.480  67.719  1.00  0.00    -0.242 C  
ENDROOT
BRANCH   4  13
HETATM   13  O   UNL     2      -9.450  13.785  67.040  1.00  0.00    -0.236 OA 
BRANCH  13  14
HETATM   14  C   UNL     2     -10.225  14.891  66.781  1.00  0.00    -0.259 C  
HETATM   15  C   UNL     2      -9.974  17.359  67.528  1.00  0.00    -0.298 A  
HETATM   16  O   UNL     2     -10.838  15.006  65.737  1.00  0.00    -0.325 OA 
HETATM   17  C   UNL     2     -11.771  15.831  68.467  1.00  0.00    -0.319 C  
HETATM   18  C   UNL     2     -10.321  15.915  67.949  1.00  0.00    -0.269 C  
HETATM   19  O   UNL     2     -12.166  14.504  68.813  1.00  0.00    -0.534 OA 
HETATM   20  C   UNL     2     -10.773  18.481  67.854  1.00  0.00    -0.337 A  
HETATM   21  C   UNL     2     -10.499  19.760  67.346  1.00  0.00    -0.577 A  
HETATM   22  H   UNL     2     -13.059  14.453  69.132  1.00  0.00     0.000 HD 
HETATM   23  C   UNL     2      -9.387  19.948  66.534  1.00  0.00    -0.501 A  
HETATM   24  C   UNL     2      -8.518  18.886  66.300  1.00  0.00    -0.268 A  
HETATM   25  C   UNL     2      -8.800  17.611  66.808  1.00  0.00    -0.275 A  
ENDBRANCH  13  14
ENDBRANCH   4  13
TORSDOF 2
ENDMDL
MODEL       45
REMARK 921   NORMALIZED FREE ENERGY PREDICTED BY IDOCK:   -5.51 KCAL/MOL
REMARK 922        TOTAL FREE ENERGY PREDICTED BY IDOCK:   -6.85 KCAL/MOL
REMARK 923 INTER-LIGAND FREE ENERGY PREDICTED BY IDOCK:   -6.25 KCAL/MOL
REMARK 924 INTRA-LIGAND FREE ENERGY PREDICTED BY IDOCK:   -0.60 KCAL/MOL
REMARK 927      BINDING AFFINITY PREDICTED BY RF-SCORE:    0.00 PKD
ROOT
HETATM    1 BR   UNL     1      -8.069  10.329  62.722  1.00  0.00    -0.170 Br 
HETATM    2  C   UNL     2     -10.219   5.714  68.465  1.00  0.00    -0.193 C  
HETATM    3  C   UNL     2     -10.917   6.958  67.849  1.00  0.00    -0.260 C  
HETATM    4  C   UNL     2     -10.374   8.342  68.310  1.00  0.00    -0.199 C  
HETATM    5  C   UNL     2      -9.005   8.303  69.050  1.00  0.00    -0.147 C  
HETATM    6  C   UNL     2      -8.136   6.362  67.012  1.00  0.00    -0.112 C  
HETATM    7  C   UNL     2      -8.530   6.911  69.533  1.00  0.00    -0.133 C  
HETATM    8  C   UNL     2     -10.545   5.667  69.961  1.00  0.00    -0.318 C  
HETATM    9  O   UNL     2      -9.605   5.043  70.853  1.00  0.00    -0.159 OA 
HETATM   10  N   UNL     2      -8.684   5.900  68.359  1.00  0.00    -0.113 N  
HETATM   11  C   UNL     2      -7.941   4.568  68.632  1.00  0.00    -0.078 C  
HETATM   12  C   UNL     2      -9.474   6.449  70.637  1.00  0.00    -0.165 C  
ENDROOT
BRANCH   4  13
HETATM   13  O   UNL     2     -10.250   9.300  67.185  1.00  0.00    -0.219 OA 
BRANCH  13  14
HETATM   14  C   UNL     2     -10.784  10.561  67.318  1.00  0.00    -0.277 C  
HETATM   15  C   UNL     2     -10.565  12.670  65.829  1.00  0.00    -0.296 A  
HETATM   16  O   UNL     2     -11.862  10.740  67.849  1.00  0.00    -0.553 OA 
HETATM   17  C   UNL     2      -9.430  12.480  68.093  1.00  0.00    -0.214 C  
HETATM   18  C   UNL     2      -9.867  11.718  66.825  1.00  0.00    -0.218 C  
HETATM   19  O   UNL     2      -8.834  11.636  69.076  1.00  0.00    -0.375 OA 
HETATM   20  C   UNL     2     -10.532  14.080  65.943  1.00  0.00    -0.314 A  
HETATM   21  C   UNL     2     -11.284  14.910  65.097  1.00  0.00    -0.389 A  
HETATM   22  H   UNL     2      -8.565  12.105  69.857  1.00  0.00     0.000 HD 
HETATM   23  C   UNL     2     -12.050  14.341  64.088  1.00  0.00    -0.423 A  
HETATM   24  C   UNL     2     -12.001  12.966  63.878  1.00  0.00    -0.550 A  
HETATM   25  C   UNL     2     -11.251  12.143  64.729  1.00  0.00    -0.373 A  
ENDBRANCH  13  14
ENDBRANCH   4  13
TORSDOF 2
ENDMDL
MODEL       46
REMARK 921   NORMALIZED FREE ENERGY PREDICTED BY IDOCK:   -5.50 KCAL/MOL
REMARK 922        TOTAL FREE ENERGY PREDICTED BY IDOCK:   -6.85 KCAL/MOL
REMARK 923 INTER-LIGAND FREE ENERGY PREDICTED BY IDOCK:   -6.27 KCAL/MOL
REMARK 924 INTRA-LIGAND FREE ENERGY PREDICTED BY IDOCK:   -0.58 KCAL/MOL
REMARK 927      BINDING AFFINITY PREDICTED BY RF-SCORE:    0.00 PKD
ROOT
HETATM    1 BR   UNL     1      -6.152  16.802  67.029  1.00  0.00    -0.209 Br 
HETATM    2  C   UNL     2      -9.577  10.008  66.020  1.00  0.00    -0.222 C  
HETATM    3  C   UNL     2     -10.159  11.449  66.002  1.00  0.00    -0.275 C  
HETATM    4  C   UNL     2     -10.419  12.097  67.394  1.00  0.00    -0.213 C  
HETATM    5  C   UNL     2      -9.758  11.365  68.599  1.00  0.00    -0.182 C  
HETATM    6  C   UNL     2      -7.359  11.086  66.910  1.00  0.00    -0.133 C  
HETATM    7  C   UNL     2      -9.230   9.936  68.322  1.00  0.00    -0.129 C  
HETATM    8  C   UNL     2     -10.643   9.063  66.582  1.00  0.00    -0.087 C  
HETATM    9  O   UNL     2     -10.218   7.867  67.260  1.00  0.00    -0.217 OA 
HETATM   10  N   UNL     2      -8.388   9.963  67.013  1.00  0.00    -0.120 N  
HETATM   11  C   UNL     2      -7.554   8.671  66.826  1.00  0.00    -0.086 C  
HETATM   12  C   UNL     2     -10.429   9.035  68.055  1.00  0.00    -0.216 C  
ENDROOT
BRANCH   4  13
HETATM   13  O   UNL     2      -9.994  13.517  67.442  1.00  0.00    -0.228 OA 
BRANCH  13  14
HETATM   14  C   UNL     2     -10.231  14.247  68.583  1.00  0.00    -0.246 C  
HETATM   15  C   UNL     2     -12.366  14.507  70.028  1.00  0.00    -0.376 A  
HETATM   16  O   UNL     2      -9.351  14.456  69.396  1.00  0.00     0.080 OA 
HETATM   17  C   UNL     2     -11.497  16.371  68.539  1.00  0.00    -0.209 C  
HETATM   18  C   UNL     2     -11.663  14.846  68.696  1.00  0.00    -0.358 C  
HETATM   19  O   UNL     2     -10.797  16.740  67.352  1.00  0.00    -0.283 OA 
HETATM   20  C   UNL     2     -13.022  15.469  70.832  1.00  0.00    -0.526 A  
HETATM   21  C   UNL     2     -13.536  15.151  72.098  1.00  0.00    -0.558 A  
HETATM   22  H   UNL     2     -10.694  17.679  67.256  1.00  0.00     0.000 HD 
HETATM   23  C   UNL     2     -13.443  13.846  72.565  1.00  0.00    -0.676 A  
HETATM   24  C   UNL     2     -12.913  12.856  71.741  1.00  0.00    -0.416 A  
HETATM   25  C   UNL     2     -12.398  13.182  70.479  1.00  0.00    -0.380 A  
ENDBRANCH  13  14
ENDBRANCH   4  13
TORSDOF 2
ENDMDL
MODEL       47
REMARK 921   NORMALIZED FREE ENERGY PREDICTED BY IDOCK:   -5.49 KCAL/MOL
REMARK 922        TOTAL FREE ENERGY PREDICTED BY IDOCK:   -6.83 KCAL/MOL
REMARK 923 INTER-LIGAND FREE ENERGY PREDICTED BY IDOCK:   -6.27 KCAL/MOL
REMARK 924 INTRA-LIGAND FREE ENERGY PREDICTED BY IDOCK:   -0.56 KCAL/MOL
REMARK 927      BINDING AFFINITY PREDICTED BY RF-SCORE:    0.00 PKD
ROOT
HETATM    1 BR   UNL     1     -12.104   8.879  71.718  1.00  0.00    -0.460 Br 
HETATM    2  C   UNL     2     -11.986  14.430  66.420  1.00  0.00    -0.385 C  
HETATM    3  C   UNL     2     -12.027  12.884  66.267  1.00  0.00    -0.472 C  
HETATM    4  C   UNL     2     -10.668  12.145  66.450  1.00  0.00    -0.257 C  
HETATM    5  C   UNL     2      -9.531  12.997  67.087  1.00  0.00    -0.230 C  
HETATM    6  C   UNL     2     -11.558  14.007  68.971  1.00  0.00    -0.306 C  
HETATM    7  C   UNL     2      -9.772  14.525  67.140  1.00  0.00    -0.240 C  
HETATM    8  C   UNL     2     -11.183  15.011  65.252  1.00  0.00    -0.367 C  
HETATM    9  O   UNL     2     -10.489  16.256  65.442  1.00  0.00    -0.473 OA 
HETATM   10  N   UNL     2     -11.199  14.784  67.707  1.00  0.00    -0.300 N  
HETATM   11  C   UNL     2     -11.413  16.266  68.102  1.00  0.00    -0.173 C  
HETATM   12  C   UNL     2      -9.767  15.052  65.709  1.00  0.00    -0.340 C  
ENDROOT
BRANCH   4  13
HETATM   13  O   UNL     2     -10.806  10.906  67.254  1.00  0.00    -0.254 OA 
BRANCH  13  14
HETATM   14  C   UNL     2      -9.758  10.016  67.294  1.00  0.00    -0.167 C  
HETATM   15  C   UNL     2      -8.362   8.941  65.395  1.00  0.00    -0.155 A  
HETATM   16  O   UNL     2      -8.972  10.004  68.221  1.00  0.00    -0.118 OA 
HETATM   17  C   UNL     2     -10.053   7.621  66.752  1.00  0.00    -0.255 C  
HETATM   18  C   UNL     2      -9.722   8.990  66.125  1.00  0.00    -0.354 C  
HETATM   19  O   UNL     2     -11.273   7.625  67.493  1.00  0.00    -0.491 OA 
HETATM   20  C   UNL     2      -7.677   7.738  65.099  1.00  0.00    -0.101 A  
HETATM   21  C   UNL     2      -6.385   7.736  64.552  1.00  0.00    -0.048 A  
HETATM   22  H   UNL     2     -11.477   6.782  67.880  1.00  0.00     0.000 HD 
HETATM   23  C   UNL     2      -5.769   8.944  64.250  1.00  0.00    -0.065 A  
HETATM   24  C   UNL     2      -6.470  10.134  64.418  1.00  0.00    -0.122 A  
HETATM   25  C   UNL     2      -7.759  10.130  64.967  1.00  0.00    -0.141 A  
ENDBRANCH  13  14
ENDBRANCH   4  13
TORSDOF 2
ENDMDL
MODEL       48
REMARK 921   NORMALIZED FREE ENERGY PREDICTED BY IDOCK:   -5.45 KCAL/MOL
REMARK 922        TOTAL FREE ENERGY PREDICTED BY IDOCK:   -6.78 KCAL/MOL
REMARK 923 INTER-LIGAND FREE ENERGY PREDICTED BY IDOCK:   -6.27 KCAL/MOL
REMARK 924 INTRA-LIGAND FREE ENERGY PREDICTED BY IDOCK:   -0.51 KCAL/MOL
REMARK 927      BINDING AFFINITY PREDICTED BY RF-SCORE:    0.00 PKD
ROOT
HETATM    1 BR   UNL     1      -6.928   9.933  64.890  1.00  0.00    -0.136 Br 
HETATM    2  C   UNL     2     -10.710   6.635  70.697  1.00  0.00    -0.241 C  
HETATM    3  C   UNL     2     -11.220   7.533  69.535  1.00  0.00     0.027 C  
HETATM    4  C   UNL     2     -10.992   9.064  69.708  1.00  0.00    -0.166 C  
HETATM    5  C   UNL     2      -9.998   9.463  70.838  1.00  0.00    -0.353 C  
HETATM    6  C   UNL     2      -8.290   7.252  69.900  1.00  0.00    -0.135 C  
HETATM    7  C   UNL     2      -9.635   8.349  71.850  1.00  0.00    -0.254 C  
HETATM    8  C   UNL     2     -11.565   6.914  71.936  1.00  0.00    -0.286 C  
HETATM    9  O   UNL     2     -10.981   6.720  73.236  1.00  0.00    -0.273 OA 
HETATM   10  N   UNL     2      -9.265   7.060  71.059  1.00  0.00    -0.155 N  
HETATM   11  C   UNL     2      -8.579   5.999  71.955  1.00  0.00    -0.136 C  
HETATM   12  C   UNL     2     -10.884   8.023  72.660  1.00  0.00    -0.368 C  
ENDROOT
BRANCH   4  13
HETATM   13  O   UNL     2     -10.530   9.708  68.454  1.00  0.00    -0.205 OA 
BRANCH  13  14
HETATM   14  C   UNL     2     -10.717  11.060  68.289  1.00  0.00    -0.196 C  
HETATM   15  C   UNL     2     -10.470  12.572  66.200  1.00  0.00    -0.272 A  
HETATM   16  O   UNL     2     -11.537  11.671  68.946  1.00  0.00    -0.258 OA 
HETATM   17  C   UNL     2      -8.816  12.634  68.125  1.00  0.00    -0.194 C  
HETATM   18  C   UNL     2      -9.747  11.740  67.280  1.00  0.00    -0.188 C  
HETATM   19  O   UNL     2      -8.167  11.927  69.181  1.00  0.00    -0.351 OA 
HETATM   20  C   UNL     2     -10.101  13.894  65.854  1.00  0.00    -0.331 A  
HETATM   21  C   UNL     2     -10.860  14.667  64.962  1.00  0.00    -0.431 A  
HETATM   22  H   UNL     2      -7.594  12.478  69.701  1.00  0.00     0.000 HD 
HETATM   23  C   UNL     2     -11.983  14.111  64.362  1.00  0.00    -0.478 A  
HETATM   24  C   UNL     2     -12.296  12.774  64.592  1.00  0.00    -0.524 A  
HETATM   25  C   UNL     2     -11.535  12.009  65.486  1.00  0.00    -0.368 A  
ENDBRANCH  13  14
ENDBRANCH   4  13
TORSDOF 2
ENDMDL
MODEL       49
REMARK 921   NORMALIZED FREE ENERGY PREDICTED BY IDOCK:   -5.44 KCAL/MOL
REMARK 922        TOTAL FREE ENERGY PREDICTED BY IDOCK:   -6.78 KCAL/MOL
REMARK 923 INTER-LIGAND FREE ENERGY PREDICTED BY IDOCK:   -6.40 KCAL/MOL
REMARK 924 INTRA-LIGAND FREE ENERGY PREDICTED BY IDOCK:   -0.38 KCAL/MOL
REMARK 927      BINDING AFFINITY PREDICTED BY RF-SCORE:    0.00 PKD
ROOT
HETATM    1 BR   UNL     1      -8.256   5.639  66.608  1.00  0.00    -0.105 Br 
HETATM    2  C   UNL     2      -9.597  13.175  67.156  1.00  0.00    -0.235 C  
HETATM    3  C   UNL     2      -9.304  12.115  68.254  1.00  0.00    -0.198 C  
HETATM    4  C   UNL     2     -10.507  11.220  68.674  1.00  0.00    -0.203 C  
HETATM    5  C   UNL     2     -11.735  11.268  67.717  1.00  0.00    -0.254 C  
HETATM    6  C   UNL     2      -9.806  11.161  65.492  1.00  0.00    -0.235 C  
HETATM    7  C   UNL     2     -11.751  12.425  66.688  1.00  0.00    -0.372 C  
HETATM    8  C   UNL     2     -10.548  14.226  67.737  1.00  0.00    -0.253 C  
HETATM    9  O   UNL     2     -11.431  14.927  66.844  1.00  0.00    -0.351 OA 
HETATM   10  N   UNL     2     -10.360  12.492  65.993  1.00  0.00    -0.251 N  
HETATM   11  C   UNL     2     -10.377  13.391  64.732  1.00  0.00    -0.379 C  
HETATM   12  C   UNL     2     -11.924  13.732  67.453  1.00  0.00    -0.388 C  
ENDROOT
BRANCH   4  13
HETATM   13  O   UNL     2     -10.119   9.797  68.835  1.00  0.00    -0.169 OA 
BRANCH  13  14
HETATM   14  C   UNL     2     -10.760   9.033  69.782  1.00  0.00    -0.225 C  
HETATM   15  C   UNL     2      -9.841   7.325  71.500  1.00  0.00    -0.182 A  
HETATM   16  O   UNL     2     -11.772   9.422  70.332  1.00  0.00    -0.239 OA 
HETATM   17  C   UNL     2     -11.169   6.616  69.455  1.00  0.00    -0.326 C  
HETATM   18  C   UNL     2     -10.144   7.623  70.016  1.00  0.00    -0.204 C  
HETATM   19  O   UNL     2     -11.534   6.882  68.102  1.00  0.00    -0.529 OA 
HETATM   20  C   UNL     2     -10.223   6.127  72.150  1.00  0.00    -0.213 A  
HETATM   21  C   UNL     2     -10.047   5.943  73.530  1.00  0.00    -0.204 A  
HETATM   22  H   UNL     2     -12.165   6.262  67.757  1.00  0.00     0.000 HD 
HETATM   23  C   UNL     2      -9.442   6.944  74.280  1.00  0.00    -0.284 A  
HETATM   24  C   UNL     2      -8.948   8.078  73.643  1.00  0.00    -0.313 A  
HETATM   25  C   UNL     2      -9.129   8.256  72.265  1.00  0.00    -0.289 A  
ENDBRANCH  13  14
ENDBRANCH   4  13
TORSDOF 2
ENDMDL
MODEL       50
REMARK 921   NORMALIZED FREE ENERGY PREDICTED BY IDOCK:   -5.44 KCAL/MOL
REMARK 922        TOTAL FREE ENERGY PREDICTED BY IDOCK:   -6.77 KCAL/MOL
REMARK 923 INTER-LIGAND FREE ENERGY PREDICTED BY IDOCK:   -6.19 KCAL/MOL
REMARK 924 INTRA-LIGAND FREE ENERGY PREDICTED BY IDOCK:   -0.58 KCAL/MOL
REMARK 927      BINDING AFFINITY PREDICTED BY RF-SCORE:    0.00 PKD
ROOT
HETATM    1 BR   UNL     1      -8.331  10.693  66.550  1.00  0.00    -0.149 Br 
HETATM    2  C   UNL     2     -13.638  14.499  70.581  1.00  0.00     0.117 C  
HETATM    3  C   UNL     2     -12.755  14.953  69.386  1.00  0.00     0.169 C  
HETATM    4  C   UNL     2     -11.288  15.343  69.732  1.00  0.00    -0.306 C  
HETATM    5  C   UNL     2     -10.804  14.909  71.148  1.00  0.00     0.135 C  
HETATM    6  C   UNL     2     -12.155  12.339  70.650  1.00  0.00    -0.237 C  
HETATM    7  C   UNL     2     -11.908  14.468  72.140  1.00  0.00     0.019 C  
HETATM    8  C   UNL     2     -13.870  15.705  71.498  1.00  0.00    -0.296 C  
HETATM    9  O   UNL     2     -14.099  15.473  72.899  1.00  0.00    -0.459 OA 
HETATM   10  N   UNL     2     -12.850  13.460  71.418  1.00  0.00    -0.355 N  
HETATM   11  C   UNL     2     -13.782  12.718  72.408  1.00  0.00    -0.360 C  
HETATM   12  C   UNL     2     -12.751  15.691  72.480  1.00  0.00    -0.433 C  
ENDROOT
BRANCH   4  13
HETATM   13  O   UNL     2     -10.317  14.813  68.744  1.00  0.00    -0.234 OA 
BRANCH  13  14
HETATM   14  C   UNL     2      -9.734  15.680  67.849  1.00  0.00    -0.211 C  
HETATM   15  C   UNL     2     -10.473  18.018  67.015  1.00  0.00    -0.361 A  
HETATM   16  O   UNL     2      -8.527  15.735  67.715  1.00  0.00    -0.152 OA 
HETATM   17  C   UNL     2     -10.588  15.952  65.545  1.00  0.00    -0.401 C  
HETATM   18  C   UNL     2     -10.733  16.497  66.980  1.00  0.00    -0.191 C  
HETATM   19  O   UNL     2     -10.757  14.538  65.462  1.00  0.00    -0.304 OA 
HETATM   20  C   UNL     2     -10.409  18.827  65.855  1.00  0.00    -0.385 A  
HETATM   21  C   UNL     2     -10.043  20.181  65.914  1.00  0.00    -0.441 A  
HETATM   22  H   UNL     2     -10.667  14.202  64.578  1.00  0.00     0.000 HD 
HETATM   23  C   UNL     2      -9.776  20.763  67.147  1.00  0.00    -0.457 A  
HETATM   24  C   UNL     2      -9.952  20.020  68.311  1.00  0.00    -0.508 A  
HETATM   25  C   UNL     2     -10.315  18.668  68.245  1.00  0.00    -0.388 A  
ENDBRANCH  13  14
ENDBRANCH   4  13
TORSDOF 2
ENDMDL
MODEL       51
REMARK 921   NORMALIZED FREE ENERGY PREDICTED BY IDOCK:   -5.40 KCAL/MOL
REMARK 922        TOTAL FREE ENERGY PREDICTED BY IDOCK:   -6.73 KCAL/MOL
REMARK 923 INTER-LIGAND FREE ENERGY PREDICTED BY IDOCK:   -6.19 KCAL/MOL
REMARK 924 INTRA-LIGAND FREE ENERGY PREDICTED BY IDOCK:   -0.54 KCAL/MOL
REMARK 927      BINDING AFFINITY PREDICTED BY RF-SCORE:    0.00 PKD
ROOT
HETATM    1 BR   UNL     1      -5.937  11.085  71.008  1.00  0.00     0.289 Br 
HETATM    2  C   UNL     2     -11.703  13.720  66.682  1.00  0.00    -0.394 C  
HETATM    3  C   UNL     2     -11.653  12.545  67.698  1.00  0.00    -0.416 C  
HETATM    4  C   UNL     2     -11.017  11.222  67.179  1.00  0.00    -0.291 C  
HETATM    5  C   UNL     2     -10.219  11.349  65.848  1.00  0.00    -0.292 C  
HETATM    6  C   UNL     2      -9.097  13.845  66.941  1.00  0.00    -0.245 C  
HETATM    7  C   UNL     2     -10.437  12.653  65.044  1.00  0.00    -0.308 C  
HETATM    8  C   UNL     2     -12.681  13.351  65.563  1.00  0.00    -0.410 C  
HETATM    9  O   UNL     2     -12.480  13.917  64.256  1.00  0.00    -0.638 OA 
HETATM   10  N   UNL     2     -10.312  13.863  66.016  1.00  0.00    -0.297 N  
HETATM   11  C   UNL     2     -10.190  15.211  65.262  1.00  0.00    -0.368 C  
HETATM   12  C   UNL     2     -11.872  12.653  64.527  1.00  0.00    -0.379 C  
ENDROOT
BRANCH   4  13
HETATM   13  O   UNL     2     -10.121  10.597  68.183  1.00  0.00    -0.152 OA 
BRANCH  13  14
HETATM   14  C   UNL     2     -10.637   9.660  69.047  1.00  0.00    -0.218 C  
HETATM   15  C   UNL     2      -9.467   7.922  70.571  1.00  0.00    -0.162 A  
HETATM   16  O   UNL     2     -11.682   9.849  69.638  1.00  0.00    -0.115 OA 
HETATM   17  C   UNL     2     -10.726   7.257  68.469  1.00  0.00    -0.126 C  
HETATM   18  C   UNL     2      -9.835   8.329  69.127  1.00  0.00    -0.179 C  
HETATM   19  O   UNL     2     -11.148   7.611  67.152  1.00  0.00    -0.518 OA 
HETATM   20  C   UNL     2      -9.673   6.622  71.092  1.00  0.00    -0.184 A  
HETATM   21  C   UNL     2      -9.449   6.322  72.445  1.00  0.00    -0.146 A  
HETATM   22  H   UNL     2     -11.697   6.950  66.747  1.00  0.00     0.000 HD 
HETATM   23  C   UNL     2      -8.969   7.311  73.293  1.00  0.00    -0.192 A  
HETATM   24  C   UNL     2      -8.642   8.562  72.777  1.00  0.00    -0.168 A  
HETATM   25  C   UNL     2      -8.872   8.856  71.426  1.00  0.00    -0.283 A  
ENDBRANCH  13  14
ENDBRANCH   4  13
TORSDOF 2
ENDMDL
MODEL       52
REMARK 921   NORMALIZED FREE ENERGY PREDICTED BY IDOCK:   -5.37 KCAL/MOL
REMARK 922        TOTAL FREE ENERGY PREDICTED BY IDOCK:   -6.70 KCAL/MOL
REMARK 923 INTER-LIGAND FREE ENERGY PREDICTED BY IDOCK:   -6.34 KCAL/MOL
REMARK 924 INTRA-LIGAND FREE ENERGY PREDICTED BY IDOCK:   -0.36 KCAL/MOL
REMARK 927      BINDING AFFINITY PREDICTED BY RF-SCORE:    0.00 PKD
ROOT
HETATM    1 BR   UNL     1     -10.513  19.282  65.955  1.00  0.00    -0.526 Br 
HETATM    2  C   UNL     2     -11.419  11.663  66.132  1.00  0.00    -0.127 C  
HETATM    3  C   UNL     2     -11.301  12.696  67.287  1.00  0.00    -0.372 C  
HETATM    4  C   UNL     2      -9.860  13.177  67.627  1.00  0.00    -0.219 C  
HETATM    5  C   UNL     2      -8.777  12.829  66.563  1.00  0.00     0.015 C  
HETATM    6  C   UNL     2     -10.750  13.621  64.524  1.00  0.00    -0.407 C  
HETATM    7  C   UNL     2      -9.180  11.778  65.500  1.00  0.00    -0.057 C  
HETATM    8  C   UNL     2     -10.778  10.349  66.592  1.00  0.00    -0.128 C  
HETATM    9  O   UNL     2     -10.212   9.473  65.601  1.00  0.00    -0.228 OA 
HETATM   10  N   UNL     2     -10.578  12.160  64.930  1.00  0.00    -0.281 N  
HETATM   11  C   UNL     2     -10.923  11.369  63.643  1.00  0.00    -0.363 C  
HETATM   12  C   UNL     2      -9.344  10.436  66.202  1.00  0.00    -0.172 C  
ENDROOT
BRANCH   4  13
HETATM   13  O   UNL     2      -9.797  14.639  67.869  1.00  0.00    -0.213 OA 
BRANCH  13  14
HETATM   14  C   UNL     2      -9.777  15.102  69.164  1.00  0.00    -0.232 C  
HETATM   15  C   UNL     2     -11.701  15.582  70.831  1.00  0.00    -0.413 A  
HETATM   16  O   UNL     2      -8.853  14.851  69.913  1.00  0.00     0.086 OA 
HETATM   17  C   UNL     2     -10.363  17.437  69.729  1.00  0.00     0.247 C  
HETATM   18  C   UNL     2     -10.966  16.029  69.549  1.00  0.00    -0.326 C  
HETATM   19  O   UNL     2      -9.618  17.876  68.594  1.00  0.00    -0.315 OA 
HETATM   20  C   UNL     2     -12.023  16.460  71.894  1.00  0.00    -0.392 A  
HETATM   21  C   UNL     2     -12.573  15.996  73.099  1.00  0.00    -0.625 A  
HETATM   22  H   UNL     2      -9.246  18.743  68.706  1.00  0.00     0.000 HD 
HETATM   23  C   UNL     2     -12.855  14.644  73.244  1.00  0.00    -0.580 A  
HETATM   24  C   UNL     2     -12.663  13.781  72.169  1.00  0.00    -0.293 A  
HETATM   25  C   UNL     2     -12.109  14.250  70.971  1.00  0.00    -0.416 A  
ENDBRANCH  13  14
ENDBRANCH   4  13
TORSDOF 2
ENDMDL
MODEL       53
REMARK 921   NORMALIZED FREE ENERGY PREDICTED BY IDOCK:   -5.34 KCAL/MOL
REMARK 922        TOTAL FREE ENERGY PREDICTED BY IDOCK:   -6.66 KCAL/MOL
REMARK 923 INTER-LIGAND FREE ENERGY PREDICTED BY IDOCK:   -6.19 KCAL/MOL
REMARK 924 INTRA-LIGAND FREE ENERGY PREDICTED BY IDOCK:   -0.47 KCAL/MOL
REMARK 927      BINDING AFFINITY PREDICTED BY RF-SCORE:    0.00 PKD
ROOT
HETATM    1 BR   UNL     1      -7.973  14.512  68.048  1.00  0.00    -0.154 Br 
HETATM    2  C   UNL     2      -9.454   7.033  67.167  1.00  0.00    -0.145 C  
HETATM    3  C   UNL     2     -10.403   8.224  67.478  1.00  0.00    -0.333 C  
HETATM    4  C   UNL     2     -10.423   8.710  68.957  1.00  0.00    -0.199 C  
HETATM    5  C   UNL     2      -9.262   8.177  69.846  1.00  0.00    -0.151 C  
HETATM    6  C   UNL     2      -7.478   8.710  67.562  1.00  0.00    -0.090 C  
HETATM    7  C   UNL     2      -8.451   6.991  69.269  1.00  0.00    -0.133 C  
HETATM    8  C   UNL     2      -9.996   5.785  67.872  1.00  0.00    -0.137 C  
HETATM    9  O   UNL     2      -9.071   4.756  68.263  1.00  0.00    -0.108 OA 
HETATM   10  N   UNL     2      -8.068   7.321  67.796  1.00  0.00    -0.114 N  
HETATM   11  C   UNL     2      -6.991   6.356  67.240  1.00  0.00    -0.072 C  
HETATM   12  C   UNL     2      -9.367   5.773  69.221  1.00  0.00    -0.124 C  
ENDROOT
BRANCH   4  13
HETATM   13  O   UNL     2     -10.427  10.190  69.062  1.00  0.00    -0.194 OA 
BRANCH  13  14
HETATM   14  C   UNL     2     -11.623  10.844  69.239  1.00  0.00    -0.318 C  
HETATM   15  C   UNL     2     -12.286  12.781  70.827  1.00  0.00    -0.375 A  
HETATM   16  O   UNL     2     -12.408  10.991  68.323  1.00  0.00    -0.479 OA 
HETATM   17  C   UNL     2     -13.083  10.398  71.185  1.00  0.00    -0.383 C  
HETATM   18  C   UNL     2     -11.920  11.287  70.702  1.00  0.00    -0.435 C  
HETATM   19  O   UNL     2     -12.822   9.003  71.034  1.00  0.00    -0.492 OA 
HETATM   20  C   UNL     2     -13.405  13.253  71.556  1.00  0.00    -0.330 A  
HETATM   21  C   UNL     2     -13.783  14.605  71.541  1.00  0.00    -0.495 A  
HETATM   22  H   UNL     2     -13.539   8.455  71.332  1.00  0.00     0.000 HD 
HETATM   23  C   UNL     2     -13.018  15.520  70.829  1.00  0.00    -0.490 A  
HETATM   24  C   UNL     2     -11.846  15.100  70.206  1.00  0.00    -0.352 A  
HETATM   25  C   UNL     2     -11.476  13.749  70.222  1.00  0.00    -0.087 A  
ENDBRANCH  13  14
ENDBRANCH   4  13
TORSDOF 2
ENDMDL
MODEL       54
REMARK 921   NORMALIZED FREE ENERGY PREDICTED BY IDOCK:   -5.32 KCAL/MOL
REMARK 922        TOTAL FREE ENERGY PREDICTED BY IDOCK:   -6.64 KCAL/MOL
REMARK 923 INTER-LIGAND FREE ENERGY PREDICTED BY IDOCK:   -6.48 KCAL/MOL
REMARK 924 INTRA-LIGAND FREE ENERGY PREDICTED BY IDOCK:   -0.16 KCAL/MOL
REMARK 927      BINDING AFFINITY PREDICTED BY RF-SCORE:    0.00 PKD
ROOT
HETATM    1 BR   UNL     1     -12.658  14.573  70.350  1.00  0.00    -0.381 Br 
HETATM    2  C   UNL     2      -8.820   8.017  71.438  1.00  0.00    -0.141 C  
HETATM    3  C   UNL     2      -8.549   9.201  70.469  1.00  0.00    -0.252 C  
HETATM    4  C   UNL     2      -9.409   9.231  69.171  1.00  0.00    -0.157 C  
HETATM    5  C   UNL     2     -10.643   8.282  69.174  1.00  0.00    -0.179 C  
HETATM    6  C   UNL     2     -11.121   9.165  71.943  1.00  0.00    -0.315 C  
HETATM    7  C   UNL     2     -10.671   7.202  70.283  1.00  0.00    -0.238 C  
HETATM    8  C   UNL     2      -8.362   6.722  70.760  1.00  0.00    -0.128 C  
HETATM    9  O   UNL     2      -9.011   5.489  71.117  1.00  0.00    -0.138 OA 
HETATM   10  N   UNL     2     -10.349   7.882  71.646  1.00  0.00    -0.200 N  
HETATM   11  C   UNL     2     -10.670   6.963  72.851  1.00  0.00    -0.277 C  
HETATM   12  C   UNL     2      -9.542   6.215  70.008  1.00  0.00    -0.160 C  
ENDROOT
BRANCH   4  13
HETATM   13  O   UNL     2      -9.892  10.596  68.848  1.00  0.00    -0.185 OA 
BRANCH  13  14
HETATM   14  C   UNL     2      -9.618  11.125  67.609  1.00  0.00    -0.170 C  
HETATM   15  C   UNL     2     -11.172  11.663  65.606  1.00  0.00    -0.275 A  
HETATM   16  O   UNL     2      -8.712  11.918  67.444  1.00  0.00    -0.154 OA 
HETATM   17  C   UNL     2      -9.538   9.720  65.575  1.00  0.00    -0.282 C  
HETATM   18  C   UNL     2     -10.489  10.563  66.448  1.00  0.00    -0.258 C  
HETATM   19  O   UNL     2      -8.832   8.725  66.315  1.00  0.00    -0.139 OA 
HETATM   20  C   UNL     2     -11.148  11.692  64.191  1.00  0.00    -0.435 A  
HETATM   21  C   UNL     2     -11.665  12.774  63.463  1.00  0.00    -0.597 A  
HETATM   22  H   UNL     2      -8.245   8.207  65.778  1.00  0.00     0.000 HD 
HETATM   23  C   UNL     2     -12.259  13.831  64.140  1.00  0.00    -0.443 A  
HETATM   24  C   UNL     2     -12.405  13.768  65.523  1.00  0.00    -0.507 A  
HETATM   25  C   UNL     2     -11.883  12.686  66.244  1.00  0.00    -0.471 A  
ENDBRANCH  13  14
ENDBRANCH   4  13
TORSDOF 2
ENDMDL
MODEL       55
REMARK 921   NORMALIZED FREE ENERGY PREDICTED BY IDOCK:   -5.30 KCAL/MOL
REMARK 922        TOTAL FREE ENERGY PREDICTED BY IDOCK:   -6.62 KCAL/MOL
REMARK 923 INTER-LIGAND FREE ENERGY PREDICTED BY IDOCK:   -6.06 KCAL/MOL
REMARK 924 INTRA-LIGAND FREE ENERGY PREDICTED BY IDOCK:   -0.56 KCAL/MOL
REMARK 927      BINDING AFFINITY PREDICTED BY RF-SCORE:    0.00 PKD
ROOT
HETATM    1 BR   UNL     1     -13.229  15.094  71.323  1.00  0.00    -0.579 Br 
HETATM    2  C   UNL     2      -8.840   8.888  70.267  1.00  0.00    -0.175 C  
HETATM    3  C   UNL     2      -8.684  10.341  69.739  1.00  0.00    -0.069 C  
HETATM    4  C   UNL     2      -9.565  10.718  68.511  1.00  0.00    -0.183 C  
HETATM    5  C   UNL     2     -10.716   9.719  68.190  1.00  0.00    -0.280 C  
HETATM    6  C   UNL     2     -11.221   9.612  71.091  1.00  0.00    -0.384 C  
HETATM    7  C   UNL     2     -10.636   8.339  68.888  1.00  0.00    -0.139 C  
HETATM    8  C   UNL     2      -8.287   7.926  69.210  1.00  0.00    -0.136 C  
HETATM    9  O   UNL     2      -8.825   6.594  69.140  1.00  0.00    -0.129 OA 
HETATM   10  N   UNL     2     -10.350   8.565  70.402  1.00  0.00    -0.198 N  
HETATM   11  C   UNL     2     -10.573   7.280  71.239  1.00  0.00    -0.220 C  
HETATM   12  C   UNL     2      -9.433   7.594  68.321  1.00  0.00    -0.145 C  
ENDROOT
BRANCH   4  13
HETATM   13  O   UNL     2     -10.166  12.068  68.643  1.00  0.00    -0.214 OA 
BRANCH  13  14
HETATM   14  C   UNL     2      -9.906  13.012  67.677  1.00  0.00    -0.212 C  
HETATM   15  C   UNL     2     -10.381  15.558  67.613  1.00  0.00    -0.269 A  
HETATM   16  O   UNL     2      -8.944  12.917  66.941  1.00  0.00    -0.215 OA 
HETATM   17  C   UNL     2     -11.682  13.896  66.201  1.00  0.00    -0.376 C  
HETATM   18  C   UNL     2     -10.976  14.134  67.551  1.00  0.00    -0.292 C  
HETATM   19  O   UNL     2     -12.199  12.573  66.065  1.00  0.00    -0.605 OA 
HETATM   20  C   UNL     2     -10.701  16.579  66.686  1.00  0.00    -0.150 A  
HETATM   21  C   UNL     2     -10.044  17.819  66.694  1.00  0.00    -0.350 A  
HETATM   22  H   UNL     2     -12.633  12.427  65.233  1.00  0.00     0.000 HD 
HETATM   23  C   UNL     2      -9.082  18.076  67.662  1.00  0.00    -0.255 A  
HETATM   24  C   UNL     2      -8.839  17.135  68.658  1.00  0.00    -0.266 A  
HETATM   25  C   UNL     2      -9.495  15.897  68.642  1.00  0.00    -0.214 A  
ENDBRANCH  13  14
ENDBRANCH   4  13
TORSDOF 2
ENDMDL
MODEL       56
REMARK 921   NORMALIZED FREE ENERGY PREDICTED BY IDOCK:   -5.29 KCAL/MOL
REMARK 922        TOTAL FREE ENERGY PREDICTED BY IDOCK:   -6.61 KCAL/MOL
REMARK 923 INTER-LIGAND FREE ENERGY PREDICTED BY IDOCK:   -5.97 KCAL/MOL
REMARK 924 INTRA-LIGAND FREE ENERGY PREDICTED BY IDOCK:   -0.64 KCAL/MOL
REMARK 927      BINDING AFFINITY PREDICTED BY RF-SCORE:    0.00 PKD
ROOT
HETATM    1 BR   UNL     1     -12.282  12.041  63.545  1.00  0.00    -0.600 Br 
HETATM    2  C   UNL     2     -10.465   7.501  69.460  1.00  0.00    -0.226 C  
HETATM    3  C   UNL     2     -10.525   9.050  69.353  1.00  0.00    -0.229 C  
HETATM    4  C   UNL     2      -9.302   9.734  68.672  1.00  0.00    -0.147 C  
HETATM    5  C   UNL     2      -8.354   8.774  67.895  1.00  0.00    -0.118 C  
HETATM    6  C   UNL     2     -10.783   7.467  66.859  1.00  0.00    -0.229 C  
HETATM    7  C   UNL     2      -8.538   7.262  68.174  1.00  0.00    -0.122 C  
HETATM    8  C   UNL     2      -9.345   7.127  70.436  1.00  0.00    -0.159 C  
HETATM    9  O   UNL     2      -8.681   5.861  70.273  1.00  0.00    -0.137 OA 
HETATM   10  N   UNL     2     -10.055   6.921  68.083  1.00  0.00    -0.159 N  
HETATM   11  C   UNL     2     -10.310   5.394  68.023  1.00  0.00    -0.152 C  
HETATM   12  C   UNL     2      -8.113   6.993  69.613  1.00  0.00    -0.130 C  
ENDROOT
BRANCH   4  13
HETATM   13  O   UNL     2      -9.709  10.814  67.740  1.00  0.00    -0.159 OA 
BRANCH  13  14
HETATM   14  C   UNL     2      -9.675  12.119  68.175  1.00  0.00    -0.208 C  
HETATM   15  C   UNL     2     -11.575  13.720  68.909  1.00  0.00    -0.358 A  
HETATM   16  O   UNL     2      -8.725  12.557  68.793  1.00  0.00    -0.010 OA 
HETATM   17  C   UNL     2     -10.333  14.002  66.713  1.00  0.00    -0.271 C  
HETATM   18  C   UNL     2     -10.888  12.990  67.735  1.00  0.00    -0.257 C  
HETATM   19  O   UNL     2      -9.632  13.384  65.636  1.00  0.00    -0.477 OA 
HETATM   20  C   UNL     2     -11.903  15.097  68.888  1.00  0.00    -0.337 A  
HETATM   21  C   UNL     2     -12.408  15.756  70.020  1.00  0.00    -0.248 A  
HETATM   22  H   UNL     2      -9.289  14.008  65.006  1.00  0.00     0.000 HD 
HETATM   23  C   UNL     2     -12.636  15.035  71.185  1.00  0.00    -0.416 A  
HETATM   24  C   UNL     2     -12.437  13.657  71.192  1.00  0.00    -0.442 A  
HETATM   25  C   UNL     2     -11.930  13.006  70.060  1.00  0.00    -0.383 A  
ENDBRANCH  13  14
ENDBRANCH   4  13
TORSDOF 2
ENDMDL
MODEL       57
REMARK 921   NORMALIZED FREE ENERGY PREDICTED BY IDOCK:   -5.28 KCAL/MOL
REMARK 922        TOTAL FREE ENERGY PREDICTED BY IDOCK:   -6.60 KCAL/MOL
REMARK 923 INTER-LIGAND FREE ENERGY PREDICTED BY IDOCK:   -5.94 KCAL/MOL
REMARK 924 INTRA-LIGAND FREE ENERGY PREDICTED BY IDOCK:   -0.66 KCAL/MOL
REMARK 927      BINDING AFFINITY PREDICTED BY RF-SCORE:    0.00 PKD
ROOT
HETATM    1 BR   UNL     1      -5.878  12.880  70.383  1.00  0.00    -0.113 Br 
HETATM    2  C   UNL     2     -12.089  13.882  65.987  1.00  0.00    -0.437 C  
HETATM    3  C   UNL     2     -11.726  12.748  66.985  1.00  0.00    -0.440 C  
HETATM    4  C   UNL     2     -10.737  11.667  66.458  1.00  0.00    -0.272 C  
HETATM    5  C   UNL     2      -9.987  12.040  65.145  1.00  0.00    -0.265 C  
HETATM    6  C   UNL     2      -9.627  14.727  66.299  1.00  0.00    -0.312 C  
HETATM    7  C   UNL     2     -10.551  13.247  64.357  1.00  0.00    -0.419 C  
HETATM    8  C   UNL     2     -12.908  13.277  64.843  1.00  0.00    -0.253 C  
HETATM    9  O   UNL     2     -12.854  13.903  63.549  1.00  0.00    -0.592 OA 
HETATM   10  N   UNL     2     -10.784  14.423  65.351  1.00  0.00    -0.326 N  
HETATM   11  C   UNL     2     -11.035  15.766  64.620  1.00  0.00    -0.314 C  
HETATM   12  C   UNL     2     -11.920  12.855  63.812  1.00  0.00    -0.512 C  
ENDROOT
BRANCH   4  13
HETATM   13  O   UNL     2      -9.716  11.298  67.469  1.00  0.00    -0.175 OA 
BRANCH  13  14
HETATM   14  C   UNL     2      -9.696  10.013  67.960  1.00  0.00    -0.139 C  
HETATM   15  C   UNL     2      -7.805   8.652  69.091  1.00  0.00    -0.099 A  
HETATM   16  O   UNL     2     -10.692   9.498  68.430  1.00  0.00    -0.221 OA 
HETATM   17  C   UNL     2      -8.609   8.161  66.734  1.00  0.00    -0.132 C  
HETATM   18  C   UNL     2      -8.345   9.262  67.780  1.00  0.00    -0.116 C  
HETATM   19  O   UNL     2      -9.168   8.663  65.521  1.00  0.00    -0.356 OA 
HETATM   20  C   UNL     2      -7.343   7.318  69.200  1.00  0.00    -0.087 A  
HETATM   21  C   UNL     2      -6.981   6.756  70.434  1.00  0.00    -0.063 A  
HETATM   22  H   UNL     2      -9.331   7.985  64.876  1.00  0.00     0.000 HD 
HETATM   23  C   UNL     2      -7.033   7.538  71.581  1.00  0.00    -0.061 A  
HETATM   24  C   UNL     2      -7.366   8.886  71.481  1.00  0.00    -0.081 A  
HETATM   25  C   UNL     2      -7.729   9.439  70.246  1.00  0.00    -0.151 A  
ENDBRANCH  13  14
ENDBRANCH   4  13
TORSDOF 2
ENDMDL
MODEL       58
REMARK 921   NORMALIZED FREE ENERGY PREDICTED BY IDOCK:   -5.28 KCAL/MOL
REMARK 922        TOTAL FREE ENERGY PREDICTED BY IDOCK:   -6.60 KCAL/MOL
REMARK 923 INTER-LIGAND FREE ENERGY PREDICTED BY IDOCK:   -6.10 KCAL/MOL
REMARK 924 INTRA-LIGAND FREE ENERGY PREDICTED BY IDOCK:   -0.49 KCAL/MOL
REMARK 927      BINDING AFFINITY PREDICTED BY RF-SCORE:    0.00 PKD
ROOT
HETATM    1 BR   UNL     1     -13.155  10.392  71.746  1.00  0.00    -0.542 Br 
HETATM    2  C   UNL     2      -8.345   5.479  68.336  1.00  0.00    -0.098 C  
HETATM    3  C   UNL     2      -8.538   7.009  68.141  1.00  0.00    -0.128 C  
HETATM    4  C   UNL     2      -9.749   7.436  67.258  1.00  0.00    -0.157 C  
HETATM    5  C   UNL     2     -10.789   6.313  66.973  1.00  0.00    -0.458 C  
HETATM    6  C   UNL     2     -10.514   5.554  69.807  1.00  0.00    -0.319 C  
HETATM    7  C   UNL     2     -10.337   4.867  67.295  1.00  0.00    -0.094 C  
HETATM    8  C   UNL     2      -7.950   4.865  66.989  1.00  0.00    -0.103 C  
HETATM    9  O   UNL     2      -8.293   3.493  66.729  1.00  0.00    -0.097 OA 
HETATM   10  N   UNL     2      -9.708   4.849  68.719  1.00  0.00    -0.156 N  
HETATM   11  C   UNL     2      -9.524   3.409  69.260  1.00  0.00    -0.142 C  
HETATM   12  C   UNL     2      -9.227   4.493  66.319  1.00  0.00    -0.137 C  
ENDROOT
BRANCH   4  13
HETATM   13  O   UNL     2     -10.481   8.592  67.830  1.00  0.00    -0.224 OA 
BRANCH  13  14
HETATM   14  C   UNL     2     -10.041   9.865  67.552  1.00  0.00    -0.197 C  
HETATM   15  C   UNL     2     -11.328  12.104  67.344  1.00  0.00    -0.393 A  
HETATM   16  O   UNL     2      -8.935  10.241  67.888  1.00  0.00    -0.130 OA 
HETATM   17  C   UNL     2     -10.357  10.902  65.329  1.00  0.00    -0.268 C  
HETATM   18  C   UNL     2     -11.023  10.730  66.710  1.00  0.00    -0.214 C  
HETATM   19  O   UNL     2      -9.996   9.662  64.723  1.00  0.00    -0.399 OA 
HETATM   20  C   UNL     2     -11.274  13.324  66.628  1.00  0.00    -0.332 A  
HETATM   21  C   UNL     2     -11.430  14.565  67.265  1.00  0.00    -0.381 A  
HETATM   22  H   UNL     2      -9.586   9.768  63.873  1.00  0.00     0.000 HD 
HETATM   23  C   UNL     2     -11.687  14.604  68.629  1.00  0.00    -0.362 A  
HETATM   24  C   UNL     2     -11.866  13.415  69.331  1.00  0.00    -0.390 A  
HETATM   25  C   UNL     2     -11.706  12.180  68.689  1.00  0.00    -0.382 A  
ENDBRANCH  13  14
ENDBRANCH   4  13
TORSDOF 2
ENDMDL
MODEL       59
REMARK 921   NORMALIZED FREE ENERGY PREDICTED BY IDOCK:   -5.27 KCAL/MOL
REMARK 922        TOTAL FREE ENERGY PREDICTED BY IDOCK:   -6.58 KCAL/MOL
REMARK 923 INTER-LIGAND FREE ENERGY PREDICTED BY IDOCK:   -6.07 KCAL/MOL
REMARK 924 INTRA-LIGAND FREE ENERGY PREDICTED BY IDOCK:   -0.51 KCAL/MOL
REMARK 927      BINDING AFFINITY PREDICTED BY RF-SCORE:    0.00 PKD
ROOT
HETATM    1 BR   UNL     1      -7.041   7.451  64.686  1.00  0.00    -0.061 Br 
HETATM    2  C   UNL     2     -11.082   5.684  70.966  1.00  0.00    -0.131 C  
HETATM    3  C   UNL     2     -11.374   6.699  69.826  1.00  0.00    -0.412 C  
HETATM    4  C   UNL     2     -10.618   8.058  69.913  1.00  0.00    -0.242 C  
HETATM    5  C   UNL     2      -9.432   8.092  70.922  1.00  0.00    -0.186 C  
HETATM    6  C   UNL     2      -8.698   5.424  69.910  1.00  0.00    -0.121 C  
HETATM    7  C   UNL     2      -9.368   6.925  71.938  1.00  0.00    -0.141 C  
HETATM    8  C   UNL     2     -11.652   6.247  72.272  1.00  0.00    -0.309 C  
HETATM    9  O   UNL     2     -11.035   5.867  73.515  1.00  0.00    -0.250 OA 
HETATM   10  N   UNL     2      -9.549   5.585  71.166  1.00  0.00    -0.159 N  
HETATM   11  C   UNL     2      -9.178   4.355  72.032  1.00  0.00    -0.128 C  
HETATM   12  C   UNL     2     -10.559   7.055  72.880  1.00  0.00    -0.272 C  
ENDROOT
BRANCH   4  13
HETATM   13  O   UNL     2     -10.098   8.497  68.595  1.00  0.00    -0.180 OA 
BRANCH  13  14
HETATM   14  C   UNL     2      -9.905   9.840  68.367  1.00  0.00    -0.152 C  
HETATM   15  C   UNL     2     -11.567  11.827  68.383  1.00  0.00    -0.380 A  
HETATM   16  O   UNL     2      -8.858  10.387  68.651  1.00  0.00    -0.127 OA 
HETATM   17  C   UNL     2     -10.561  10.914  66.238  1.00  0.00    -0.214 C  
HETATM   18  C   UNL     2     -11.081  10.560  67.646  1.00  0.00    -0.375 C  
HETATM   19  O   UNL     2     -10.041   9.787  65.534  1.00  0.00    -0.301 OA 
HETATM   20  C   UNL     2     -11.778  13.071  67.741  1.00  0.00    -0.405 A  
HETATM   21  C   UNL     2     -12.094  14.233  68.463  1.00  0.00    -0.295 A  
HETATM   22  H   UNL     2      -9.720  10.005  64.667  1.00  0.00     0.000 HD 
HETATM   23  C   UNL     2     -12.250  14.160  69.841  1.00  0.00    -0.416 A  
HETATM   24  C   UNL     2     -12.169  12.925  70.478  1.00  0.00    -0.395 A  
HETATM   25  C   UNL     2     -11.850  11.769  69.752  1.00  0.00    -0.420 A  
ENDBRANCH  13  14
ENDBRANCH   4  13
TORSDOF 2
ENDMDL
MODEL       60
REMARK 921   NORMALIZED FREE ENERGY PREDICTED BY IDOCK:   -5.25 KCAL/MOL
REMARK 922        TOTAL FREE ENERGY PREDICTED BY IDOCK:   -6.56 KCAL/MOL
REMARK 923 INTER-LIGAND FREE ENERGY PREDICTED BY IDOCK:   -5.87 KCAL/MOL
REMARK 924 INTRA-LIGAND FREE ENERGY PREDICTED BY IDOCK:   -0.69 KCAL/MOL
REMARK 927      BINDING AFFINITY PREDICTED BY RF-SCORE:    0.00 PKD
ROOT
HETATM    1 BR   UNL     1     -13.920   8.504  71.731  1.00  0.00    -0.506 Br 
HETATM    2  C   UNL     2     -11.586  13.873  66.769  1.00  0.00    -0.378 C  
HETATM    3  C   UNL     2     -11.749  12.337  66.597  1.00  0.00    -0.417 C  
HETATM    4  C   UNL     2     -10.601  11.461  67.178  1.00  0.00    -0.243 C  
HETATM    5  C   UNL     2      -9.624  12.201  68.139  1.00  0.00    -0.208 C  
HETATM    6  C   UNL     2     -12.003  13.472  69.325  1.00  0.00    -0.330 C  
HETATM    7  C   UNL     2      -9.699  13.747  68.129  1.00  0.00    -0.227 C  
HETATM    8  C   UNL     2     -10.407  14.334  65.905  1.00  0.00    -0.314 C  
HETATM    9  O   UNL     2      -9.670  15.501  66.309  1.00  0.00    -0.259 OA 
HETATM   10  N   UNL     2     -11.193  14.173  68.237  1.00  0.00    -0.260 N  
HETATM   11  C   UNL     2     -11.352  15.679  68.561  1.00  0.00    -0.360 C  
HETATM   12  C   UNL     2      -9.202  14.234  66.773  1.00  0.00    -0.264 C  
ENDROOT
BRANCH   4  13
HETATM   13  O   UNL     2     -11.112  10.265  67.891  1.00  0.00    -0.291 OA 
BRANCH  13  14
HETATM   14  C   UNL     2     -10.228   9.280  68.263  1.00  0.00    -0.201 C  
HETATM   15  C   UNL     2      -8.065   8.415  67.128  1.00  0.00    -0.104 A  
HETATM   16  O   UNL     2     -10.016   9.026  69.433  1.00  0.00    -0.181 OA 
HETATM   17  C   UNL     2     -10.211   7.058  67.176  1.00  0.00    -0.248 C  
HETATM   18  C   UNL     2      -9.608   8.474  67.085  1.00  0.00    -0.232 C  
HETATM   19  O   UNL     2     -11.637   7.057  67.203  1.00  0.00    -0.542 OA 
HETATM   20  C   UNL     2      -7.325   7.219  66.972  1.00  0.00    -0.093 A  
HETATM   21  C   UNL     2      -5.933   7.180  67.146  1.00  0.00    -0.040 A  
HETATM   22  H   UNL     2     -12.009   6.185  67.260  1.00  0.00     0.000 HD 
HETATM   23  C   UNL     2      -5.249   8.353  67.437  1.00  0.00    -0.034 A  
HETATM   24  C   UNL     2      -5.939   9.562  67.474  1.00  0.00    -0.052 A  
HETATM   25  C   UNL     2      -7.329   9.593  67.302  1.00  0.00    -0.087 A  
ENDBRANCH  13  14
ENDBRANCH   4  13
TORSDOF 2
ENDMDL
MODEL       61
REMARK 921   NORMALIZED FREE ENERGY PREDICTED BY IDOCK:   -5.23 KCAL/MOL
REMARK 922        TOTAL FREE ENERGY PREDICTED BY IDOCK:   -6.54 KCAL/MOL
REMARK 923 INTER-LIGAND FREE ENERGY PREDICTED BY IDOCK:   -6.34 KCAL/MOL
REMARK 924 INTRA-LIGAND FREE ENERGY PREDICTED BY IDOCK:   -0.20 KCAL/MOL
REMARK 927      BINDING AFFINITY PREDICTED BY RF-SCORE:    0.00 PKD
ROOT
HETATM    1 BR   UNL     1     -13.326  12.766  72.133  1.00  0.00    -0.489 Br 
HETATM    2  C   UNL     2      -8.421  10.202  66.817  1.00  0.00    -0.126 C  
HETATM    3  C   UNL     2      -8.658  11.635  67.371  1.00  0.00    -0.149 C  
HETATM    4  C   UNL     2      -9.888  12.394  66.792  1.00  0.00    -0.222 C  
HETATM    5  C   UNL     2     -10.900  11.511  66.004  1.00  0.00    -0.330 C  
HETATM    6  C   UNL     2     -10.575   9.507  68.139  1.00  0.00    -0.217 C  
HETATM    7  C   UNL     2     -10.406  10.100  65.603  1.00  0.00    -0.140 C  
HETATM    8  C   UNL     2      -8.023  10.313  65.342  1.00  0.00    -0.148 C  
HETATM    9  O   UNL     2      -8.331   9.219  64.460  1.00  0.00    -0.145 OA 
HETATM   10  N   UNL     2      -9.762   9.426  66.850  1.00  0.00    -0.173 N  
HETATM   11  C   UNL     2      -9.533   7.908  66.644  1.00  0.00    -0.211 C  
HETATM   12  C   UNL     2      -9.296  10.266  64.571  1.00  0.00    -0.276 C  
ENDROOT
BRANCH   4  13
HETATM   13  O   UNL     2     -10.646  13.118  67.842  1.00  0.00    -0.225 OA 
BRANCH  13  14
HETATM   14  C   UNL     2     -10.967  14.441  67.642  1.00  0.00    -0.286 C  
HETATM   15  C   UNL     2      -9.796  16.615  68.423  1.00  0.00    -0.252 A  
HETATM   16  O   UNL     2     -11.533  14.809  66.632  1.00  0.00    -0.355 OA 
HETATM   17  C   UNL     2     -11.992  15.822  69.419  1.00  0.00    -0.305 C  
HETATM   18  C   UNL     2     -10.634  15.385  68.832  1.00  0.00    -0.244 C  
HETATM   19  O   UNL     2     -12.835  14.722  69.758  1.00  0.00    -0.582 OA 
HETATM   20  C   UNL     2     -10.112  17.940  68.808  1.00  0.00    -0.384 A  
HETATM   21  C   UNL     2      -9.404  19.046  68.312  1.00  0.00    -0.393 A  
HETATM   22  H   UNL     2     -13.672  14.991  70.119  1.00  0.00     0.000 HD 
HETATM   23  C   UNL     2      -8.334  18.841  67.450  1.00  0.00    -0.280 A  
HETATM   24  C   UNL     2      -7.928  17.543  67.154  1.00  0.00    -0.229 A  
HETATM   25  C   UNL     2      -8.640  16.444  67.651  1.00  0.00    -0.181 A  
ENDBRANCH  13  14
ENDBRANCH   4  13
TORSDOF 2
ENDMDL
MODEL       62
REMARK 921   NORMALIZED FREE ENERGY PREDICTED BY IDOCK:   -5.23 KCAL/MOL
REMARK 922        TOTAL FREE ENERGY PREDICTED BY IDOCK:   -6.54 KCAL/MOL
REMARK 923 INTER-LIGAND FREE ENERGY PREDICTED BY IDOCK:   -6.04 KCAL/MOL
REMARK 924 INTRA-LIGAND FREE ENERGY PREDICTED BY IDOCK:   -0.50 KCAL/MOL
REMARK 927      BINDING AFFINITY PREDICTED BY RF-SCORE:    0.00 PKD
ROOT
HETATM    1 BR   UNL     1      -8.888   9.560  62.992  1.00  0.00    -0.216 Br 
HETATM    2  C   UNL     2      -9.115  15.558  67.774  1.00  0.00    -0.178 C  
HETATM    3  C   UNL     2      -8.736  14.073  68.029  1.00  0.00    -0.180 C  
HETATM    4  C   UNL     2      -9.928  13.083  68.188  1.00  0.00    -0.231 C  
HETATM    5  C   UNL     2     -11.312  13.636  67.739  1.00  0.00    -0.336 C  
HETATM    6  C   UNL     2      -9.924  14.780  65.406  1.00  0.00    -0.334 C  
HETATM    7  C   UNL     2     -11.397  15.167  67.525  1.00  0.00    -0.320 C  
HETATM    8  C   UNL     2      -9.782  16.111  69.038  1.00  0.00    -0.248 C  
HETATM    9  O   UNL     2     -10.736  17.179  68.904  1.00  0.00    -0.323 OA 
HETATM   10  N   UNL     2     -10.186  15.615  66.656  1.00  0.00    -0.271 N  
HETATM   11  C   UNL     2     -10.353  17.058  66.116  1.00  0.00    -0.319 C  
HETATM   12  C   UNL     2     -11.238  15.842  68.882  1.00  0.00    -0.343 C  
ENDROOT
BRANCH   4  13
HETATM   13  O   UNL     2      -9.698  11.807  67.467  1.00  0.00    -0.177 OA 
BRANCH  13  14
HETATM   14  C   UNL     2      -9.385  10.679  68.188  1.00  0.00    -0.151 C  
HETATM   15  C   UNL     2     -10.266   8.249  68.016  1.00  0.00    -0.265 A  
HETATM   16  O   UNL     2      -8.275  10.511  68.654  1.00  0.00    -0.115 OA 
HETATM   17  C   UNL     2     -10.888   9.786  69.938  1.00  0.00    -0.272 C  
HETATM   18  C   UNL     2     -10.574   9.704  68.430  1.00  0.00    -0.264 C  
HETATM   19  O   UNL     2     -11.121  11.120  70.389  1.00  0.00    -0.458 OA 
HETATM   20  C   UNL     2     -10.530   7.129  68.841  1.00  0.00    -0.218 A  
HETATM   21  C   UNL     2     -10.119   5.834  68.487  1.00  0.00    -0.226 A  
HETATM   22  H   UNL     2     -11.314  11.171  71.318  1.00  0.00     0.000 HD 
HETATM   23  C   UNL     2      -9.472   5.630  67.275  1.00  0.00    -0.115 A  
HETATM   24  C   UNL     2      -9.311   6.695  66.393  1.00  0.00    -0.175 A  
HETATM   25  C   UNL     2      -9.721   7.985  66.754  1.00  0.00    -0.305 A  
ENDBRANCH  13  14
ENDBRANCH   4  13
TORSDOF 2
ENDMDL
MODEL       63
REMARK 921   NORMALIZED FREE ENERGY PREDICTED BY IDOCK:   -5.22 KCAL/MOL
REMARK 922        TOTAL FREE ENERGY PREDICTED BY IDOCK:   -6.53 KCAL/MOL
REMARK 923 INTER-LIGAND FREE ENERGY PREDICTED BY IDOCK:   -6.05 KCAL/MOL
REMARK 924 INTRA-LIGAND FREE ENERGY PREDICTED BY IDOCK:   -0.49 KCAL/MOL
REMARK 927      BINDING AFFINITY PREDICTED BY RF-SCORE:    0.00 PKD
ROOT
HETATM    1 BR   UNL     1     -12.937   9.966  72.192  1.00  0.00    -0.412 Br 
HETATM    2  C   UNL     2     -11.007  14.834  66.581  1.00  0.00    -0.326 C  
HETATM    3  C   UNL     2     -10.997  13.281  66.623  1.00  0.00    -0.297 C  
HETATM    4  C   UNL     2      -9.784  12.627  67.348  1.00  0.00    -0.199 C  
HETATM    5  C   UNL     2      -8.931  13.596  68.218  1.00  0.00    -0.187 C  
HETATM    6  C   UNL     2     -11.477  14.742  69.158  1.00  0.00    -0.299 C  
HETATM    7  C   UNL     2      -9.172  15.108  67.989  1.00  0.00    -0.185 C  
HETATM    8  C   UNL     2      -9.853  15.302  65.689  1.00  0.00    -0.348 C  
HETATM    9  O   UNL     2      -9.263  16.589  65.943  1.00  0.00    -0.451 OA 
HETATM   10  N   UNL     2     -10.706  15.374  68.002  1.00  0.00    -0.270 N  
HETATM   11  C   UNL     2     -11.040  16.883  68.108  1.00  0.00    -0.205 C  
HETATM   12  C   UNL     2      -8.678  15.457  66.590  1.00  0.00    -0.296 C  
ENDROOT
BRANCH   4  13
HETATM   13  O   UNL     2     -10.190  11.489  68.210  1.00  0.00    -0.183 OA 
BRANCH  13  14
HETATM   14  C   UNL     2      -9.385  10.377  68.271  1.00  0.00    -0.149 C  
HETATM   15  C   UNL     2      -9.434   8.323  69.849  1.00  0.00    -0.167 A  
HETATM   16  O   UNL     2      -8.864   9.915  67.274  1.00  0.00    -0.131 OA 
HETATM   17  C   UNL     2      -7.643  10.116  70.008  1.00  0.00    -0.152 C  
HETATM   18  C   UNL     2      -9.128   9.829  69.705  1.00  0.00    -0.235 C  
HETATM   19  O   UNL     2      -7.289  11.486  69.829  1.00  0.00    -0.356 OA 
HETATM   20  C   UNL     2      -8.550   7.401  70.459  1.00  0.00    -0.139 A  
HETATM   21  C   UNL     2      -8.801   6.020  70.457  1.00  0.00    -0.146 A  
HETATM   22  H   UNL     2      -6.375  11.662  70.015  1.00  0.00     0.000 HD 
HETATM   23  C   UNL     2      -9.970   5.540  69.881  1.00  0.00    -0.282 A  
HETATM   24  C   UNL     2     -10.912   6.437  69.386  1.00  0.00    -0.421 A  
HETATM   25  C   UNL     2     -10.653   7.814  69.388  1.00  0.00    -0.211 A  
ENDBRANCH  13  14
ENDBRANCH   4  13
TORSDOF 2
ENDMDL
MODEL       64
REMARK 921   NORMALIZED FREE ENERGY PREDICTED BY IDOCK:   -5.21 KCAL/MOL
REMARK 922        TOTAL FREE ENERGY PREDICTED BY IDOCK:   -6.52 KCAL/MOL
REMARK 923 INTER-LIGAND FREE ENERGY PREDICTED BY IDOCK:   -5.95 KCAL/MOL
REMARK 924 INTRA-LIGAND FREE ENERGY PREDICTED BY IDOCK:   -0.58 KCAL/MOL
REMARK 927      BINDING AFFINITY PREDICTED BY RF-SCORE:    0.00 PKD
ROOT
HETATM    1 BR   UNL     1      -6.225  14.027  69.404  1.00  0.00    -0.113 Br 
HETATM    2  C   UNL     2      -9.614   7.665  66.769  1.00  0.00    -0.209 C  
HETATM    3  C   UNL     2     -10.051   9.154  66.687  1.00  0.00    -0.343 C  
HETATM    4  C   UNL     2     -10.706   9.743  67.971  1.00  0.00    -0.247 C  
HETATM    5  C   UNL     2     -10.532   8.883  69.258  1.00  0.00    -0.234 C  
HETATM    6  C   UNL     2      -7.739   8.470  68.415  1.00  0.00    -0.101 C  
HETATM    7  C   UNL     2     -10.048   7.428  69.045  1.00  0.00    -0.193 C  
HETATM    8  C   UNL     2     -10.871   6.796  66.874  1.00  0.00    -0.331 C  
HETATM    9  O   UNL     2     -10.780   5.528  67.548  1.00  0.00    -0.219 OA 
HETATM   10  N   UNL     2      -8.823   7.448  68.084  1.00  0.00    -0.128 N  
HETATM   11  C   UNL     2      -8.070   6.094  68.065  1.00  0.00    -0.114 C  
HETATM   12  C   UNL     2     -11.155   6.664  68.329  1.00  0.00    -0.198 C  
ENDROOT
BRANCH   4  13
HETATM   13  O   UNL     2     -10.218  11.110  68.275  1.00  0.00    -0.170 OA 
BRANCH  13  14
HETATM   14  C   UNL     2     -11.014  12.188  67.964  1.00  0.00    -0.229 C  
HETATM   15  C   UNL     2     -10.521  14.731  67.982  1.00  0.00    -0.246 A  
HETATM   16  O   UNL     2     -11.891  12.108  67.126  1.00  0.00    -0.543 OA 
HETATM   17  C   UNL     2     -12.013  13.624  69.712  1.00  0.00    -0.341 C  
HETATM   18  C   UNL     2     -10.763  13.460  68.824  1.00  0.00    -0.257 C  
HETATM   19  O   UNL     2     -12.320  12.454  70.468  1.00  0.00    -0.330 OA 
HETATM   20  C   UNL     2     -11.177  15.963  68.219  1.00  0.00    -0.354 A  
HETATM   21  C   UNL     2     -11.032  17.059  67.355  1.00  0.00    -0.065 A  
HETATM   22  H   UNL     2     -13.091  12.555  71.015  1.00  0.00     0.000 HD 
HETATM   23  C   UNL     2     -10.187  16.956  66.257  1.00  0.00    -0.337 A  
HETATM   24  C   UNL     2      -9.437  15.798  66.072  1.00  0.00    -0.392 A  
HETATM   25  C   UNL     2      -9.589  14.706  66.937  1.00  0.00    -0.253 A  
ENDBRANCH  13  14
ENDBRANCH   4  13
TORSDOF 2
ENDMDL
MODEL       65
REMARK 921   NORMALIZED FREE ENERGY PREDICTED BY IDOCK:   -5.17 KCAL/MOL
REMARK 922        TOTAL FREE ENERGY PREDICTED BY IDOCK:   -6.47 KCAL/MOL
REMARK 923 INTER-LIGAND FREE ENERGY PREDICTED BY IDOCK:   -6.32 KCAL/MOL
REMARK 924 INTRA-LIGAND FREE ENERGY PREDICTED BY IDOCK:   -0.15 KCAL/MOL
REMARK 927      BINDING AFFINITY PREDICTED BY RF-SCORE:    0.00 PKD
ROOT
HETATM    1 BR   UNL     1     -10.629  19.685  65.838  1.00  0.00    -0.469 Br 
HETATM    2  C   UNL     2     -11.649  12.098  66.380  1.00  0.00    -0.364 C  
HETATM    3  C   UNL     2     -11.453  13.176  67.483  1.00  0.00    -0.371 C  
HETATM    4  C   UNL     2      -9.988  13.643  67.726  1.00  0.00    -0.235 C  
HETATM    5  C   UNL     2      -8.970  13.231  66.622  1.00  0.00    -0.137 C  
HETATM    6  C   UNL     2     -11.036  13.977  64.658  1.00  0.00    -0.392 C  
HETATM    7  C   UNL     2      -9.446  12.146  65.626  1.00  0.00    -0.108 C  
HETATM    8  C   UNL     2     -11.007  10.792  66.860  1.00  0.00    -0.190 C  
HETATM    9  O   UNL     2     -10.509   9.867  65.878  1.00  0.00    -0.158 OA 
HETATM   10  N   UNL     2     -10.866  12.530  65.115  1.00  0.00    -0.280 N  
HETATM   11  C   UNL     2     -11.292  11.694  63.882  1.00  0.00    -0.371 C  
HETATM   12  C   UNL     2      -9.595  10.836  66.392  1.00  0.00    -0.189 C  
ENDROOT
BRANCH   4  13
HETATM   13  O   UNL     2      -9.889  15.112  67.903  1.00  0.00    -0.215 OA 
BRANCH  13  14
HETATM   14  C   UNL     2      -9.177  15.610  68.970  1.00  0.00    -0.243 C  
HETATM   15  C   UNL     2      -7.150  17.220  69.061  1.00  0.00    -0.233 A  
HETATM   16  O   UNL     2      -9.703  15.807  70.047  1.00  0.00    -0.192 OA 
HETATM   17  C   UNL     2      -6.940  14.742  69.568  1.00  0.00    -0.176 C  
HETATM   18  C   UNL     2      -7.655  15.805  68.710  1.00  0.00    -0.173 C  
HETATM   19  O   UNL     2      -7.413  13.417  69.329  1.00  0.00    -0.312 OA 
HETATM   20  C   UNL     2      -5.993  17.467  69.840  1.00  0.00    -0.232 A  
HETATM   21  C   UNL     2      -5.637  18.761  70.249  1.00  0.00    -0.233 A  
HETATM   22  H   UNL     2      -6.972  12.763  69.858  1.00  0.00     0.000 HD 
HETATM   23  C   UNL     2      -6.411  19.842  69.847  1.00  0.00    -0.377 A  
HETATM   24  C   UNL     2      -7.481  19.637  68.980  1.00  0.00    -0.345 A  
HETATM   25  C   UNL     2      -7.833  18.342  68.578  1.00  0.00    -0.325 A  
ENDBRANCH  13  14
ENDBRANCH   4  13
TORSDOF 2
ENDMDL
MODEL       66
REMARK 921   NORMALIZED FREE ENERGY PREDICTED BY IDOCK:   -5.15 KCAL/MOL
REMARK 922        TOTAL FREE ENERGY PREDICTED BY IDOCK:   -6.45 KCAL/MOL
REMARK 923 INTER-LIGAND FREE ENERGY PREDICTED BY IDOCK:   -6.33 KCAL/MOL
REMARK 924 INTRA-LIGAND FREE ENERGY PREDICTED BY IDOCK:   -0.12 KCAL/MOL
REMARK 927      BINDING AFFINITY PREDICTED BY RF-SCORE:    0.00 PKD
ROOT
HETATM    1 BR   UNL     1      -6.520  19.734  70.301  1.00  0.00    -0.154 Br 
HETATM    2  C   UNL     2     -10.069  13.145  68.601  1.00  0.00    -0.139 C  
HETATM    3  C   UNL     2      -8.861  13.850  67.923  1.00  0.00    -0.184 C  
HETATM    4  C   UNL     2      -9.209  15.029  66.967  1.00  0.00    -0.230 C  
HETATM    5  C   UNL     2     -10.669  15.561  67.076  1.00  0.00    -0.321 C  
HETATM    6  C   UNL     2     -10.363  15.343  69.999  1.00  0.00    -0.272 C  
HETATM    7  C   UNL     2     -11.667  14.660  67.843  1.00  0.00    -0.351 C  
HETATM    8  C   UNL     2     -10.871  12.412  67.521  1.00  0.00    -0.236 C  
HETATM    9  O   UNL     2     -12.280  12.211  67.725  1.00  0.00    -0.451 OA 
HETATM   10  N   UNL     2     -11.013  14.225  69.187  1.00  0.00    -0.259 N  
HETATM   11  C   UNL     2     -12.039  13.598  70.163  1.00  0.00    -0.361 C  
HETATM   12  C   UNL     2     -11.878  13.390  67.026  1.00  0.00    -0.394 C  
ENDROOT
BRANCH   4  13
HETATM   13  O   UNL     2      -8.296  16.184  67.143  1.00  0.00    -0.171 OA 
BRANCH  13  14
HETATM   14  C   UNL     2      -8.449  17.287  66.336  1.00  0.00    -0.269 C  
HETATM   15  C   UNL     2      -6.792  19.172  65.694  1.00  0.00    -0.308 A  
HETATM   16  O   UNL     2      -9.196  17.271  65.377  1.00  0.00    -0.102 OA 
HETATM   17  C   UNL     2      -8.747  19.558  67.267  1.00  0.00    -0.300 C  
HETATM   18  C   UNL     2      -7.674  18.554  66.800  1.00  0.00    -0.252 C  
HETATM   19  O   UNL     2      -9.632  19.018  68.247  1.00  0.00    -0.317 OA 
HETATM   20  C   UNL     2      -6.787  20.552  65.379  1.00  0.00    -0.233 A  
HETATM   21  C   UNL     2      -6.072  21.059  64.283  1.00  0.00    -0.329 A  
HETATM   22  H   UNL     2     -10.293  19.637  68.534  1.00  0.00     0.000 HD 
HETATM   23  C   UNL     2      -5.309  20.196  63.507  1.00  0.00    -0.265 A  
HETATM   24  C   UNL     2      -5.200  18.857  63.871  1.00  0.00    -0.248 A  
HETATM   25  C   UNL     2      -5.920  18.356  64.964  1.00  0.00    -0.184 A  
ENDBRANCH  13  14
ENDBRANCH   4  13
TORSDOF 2
ENDMDL
MODEL       67
REMARK 921   NORMALIZED FREE ENERGY PREDICTED BY IDOCK:   -5.14 KCAL/MOL
REMARK 922        TOTAL FREE ENERGY PREDICTED BY IDOCK:   -6.44 KCAL/MOL
REMARK 923 INTER-LIGAND FREE ENERGY PREDICTED BY IDOCK:   -5.87 KCAL/MOL
REMARK 924 INTRA-LIGAND FREE ENERGY PREDICTED BY IDOCK:   -0.56 KCAL/MOL
REMARK 927      BINDING AFFINITY PREDICTED BY RF-SCORE:    0.00 PKD
ROOT
HETATM    1 BR   UNL     1     -13.300   8.969  72.419  1.00  0.00    -0.489 Br 
HETATM    2  C   UNL     2     -11.532  13.518  66.496  1.00  0.00    -0.339 C  
HETATM    3  C   UNL     2     -11.463  11.972  66.643  1.00  0.00    -0.411 C  
HETATM    4  C   UNL     2     -10.229  11.416  67.413  1.00  0.00    -0.193 C  
HETATM    5  C   UNL     2      -9.417  12.475  68.217  1.00  0.00    -0.201 C  
HETATM    6  C   UNL     2     -12.010  13.582  69.073  1.00  0.00    -0.335 C  
HETATM    7  C   UNL     2      -9.716  13.957  67.886  1.00  0.00    -0.231 C  
HETATM    8  C   UNL     2     -10.393  13.969  65.577  1.00  0.00    -0.339 C  
HETATM    9  O   UNL     2      -9.854  15.292  65.744  1.00  0.00    -0.319 OA 
HETATM   10  N   UNL     2     -11.259  14.164  67.878  1.00  0.00    -0.268 N  
HETATM   11  C   UNL     2     -11.650  15.662  67.880  1.00  0.00    -0.190 C  
HETATM   12  C   UNL     2      -9.229  14.230  66.467  1.00  0.00    -0.235 C  
ENDROOT
BRANCH   4  13
HETATM   13  O   UNL     2     -10.595  10.325  68.349  1.00  0.00    -0.191 OA 
BRANCH  13  14
HETATM   14  C   UNL     2      -9.849   9.170  68.352  1.00  0.00    -0.164 C  
HETATM   15  C   UNL     2      -9.516   7.352  66.537  1.00  0.00    -0.229 A  
HETATM   16  O   UNL     2      -8.816   9.084  68.986  1.00  0.00    -0.133 OA 
HETATM   17  C   UNL     2     -10.888   6.943  68.633  1.00  0.00    -0.187 C  
HETATM   18  C   UNL     2     -10.477   7.980  67.569  1.00  0.00    -0.331 C  
HETATM   19  O   UNL     2     -11.729   7.486  69.650  1.00  0.00    -0.402 OA 
HETATM   20  C   UNL     2      -9.293   5.958  66.424  1.00  0.00    -0.171 A  
HETATM   21  C   UNL     2      -8.318   5.431  65.564  1.00  0.00    -0.133 A  
HETATM   22  H   UNL     2     -11.981   6.847  70.306  1.00  0.00     0.000 HD 
HETATM   23  C   UNL     2      -7.575   6.290  64.765  1.00  0.00    -0.093 A  
HETATM   24  C   UNL     2      -7.861   7.653  64.769  1.00  0.00    -0.129 A  
HETATM   25  C   UNL     2      -8.834   8.173  65.632  1.00  0.00    -0.160 A  
ENDBRANCH  13  14
ENDBRANCH   4  13
TORSDOF 2
ENDMDL
MODEL       68
REMARK 921   NORMALIZED FREE ENERGY PREDICTED BY IDOCK:   -5.09 KCAL/MOL
REMARK 922        TOTAL FREE ENERGY PREDICTED BY IDOCK:   -6.38 KCAL/MOL
REMARK 923 INTER-LIGAND FREE ENERGY PREDICTED BY IDOCK:   -6.20 KCAL/MOL
REMARK 924 INTRA-LIGAND FREE ENERGY PREDICTED BY IDOCK:   -0.19 KCAL/MOL
REMARK 927      BINDING AFFINITY PREDICTED BY RF-SCORE:    0.00 PKD
ROOT
HETATM    1 BR   UNL     1      -8.337  17.343  68.104  1.00  0.00    -0.247 Br 
HETATM    2  C   UNL     2      -8.511   9.968  65.990  1.00  0.00    -0.131 C  
HETATM    3  C   UNL     2      -9.663  10.946  66.351  1.00  0.00    -0.240 C  
HETATM    4  C   UNL     2      -9.905  11.181  67.872  1.00  0.00    -0.174 C  
HETATM    5  C   UNL     2      -8.765  10.684  68.809  1.00  0.00    -0.157 C  
HETATM    6  C   UNL     2      -6.877  11.825  66.856  1.00  0.00    -0.104 C  
HETATM    7  C   UNL     2      -7.724   9.734  68.169  1.00  0.00    -0.082 C  
HETATM    8  C   UNL     2      -8.913   8.559  66.438  1.00  0.00    -0.165 C  
HETATM    9  O   UNL     2      -7.877   7.624  66.787  1.00  0.00    -0.103 OA 
HETATM   10  N   UNL     2      -7.256  10.347  66.816  1.00  0.00    -0.104 N  
HETATM   11  C   UNL     2      -5.990   9.648  66.262  1.00  0.00    -0.063 C  
HETATM   12  C   UNL     2      -8.424   8.422  67.838  1.00  0.00    -0.131 C  
ENDROOT
BRANCH   4  13
HETATM   13  O   UNL     2     -10.155  12.609  68.186  1.00  0.00    -0.218 OA 
BRANCH  13  14
HETATM   14  C   UNL     2     -11.393  12.983  68.656  1.00  0.00    -0.291 C  
HETATM   15  C   UNL     2     -12.169  13.709  71.019  1.00  0.00    -0.374 A  
HETATM   16  O   UNL     2     -12.198  13.548  67.943  1.00  0.00    -0.305 OA 
HETATM   17  C   UNL     2     -12.790  11.461  70.015  1.00  0.00     0.175 C  
HETATM   18  C   UNL     2     -11.699  12.546  70.118  1.00  0.00    -0.255 C  
HETATM   19  O   UNL     2     -12.434  10.389  69.143  1.00  0.00    -0.705 OA 
HETATM   20  C   UNL     2     -13.308  13.637  71.857  1.00  0.00    -0.510 A  
HETATM   21  C   UNL     2     -13.780  14.754  72.563  1.00  0.00    -0.572 A  
HETATM   22  H   UNL     2     -13.106   9.721  69.080  1.00  0.00     0.000 HD 
HETATM   23  C   UNL     2     -13.092  15.958  72.477  1.00  0.00    -0.536 A  
HETATM   24  C   UNL     2     -11.902  16.020  71.757  1.00  0.00    -0.599 A  
HETATM   25  C   UNL     2     -11.437  14.902  71.053  1.00  0.00    -0.307 A  
ENDBRANCH  13  14
ENDBRANCH   4  13
TORSDOF 2
ENDMDL
MODEL       69
REMARK 921   NORMALIZED FREE ENERGY PREDICTED BY IDOCK:   -5.04 KCAL/MOL
REMARK 922        TOTAL FREE ENERGY PREDICTED BY IDOCK:   -6.33 KCAL/MOL
REMARK 923 INTER-LIGAND FREE ENERGY PREDICTED BY IDOCK:   -5.83 KCAL/MOL
REMARK 924 INTRA-LIGAND FREE ENERGY PREDICTED BY IDOCK:   -0.50 KCAL/MOL
REMARK 927      BINDING AFFINITY PREDICTED BY RF-SCORE:    0.00 PKD
ROOT
HETATM    1 BR   UNL     1     -10.393  11.235  63.305  1.00  0.00    -0.359 Br 
HETATM    2  C   UNL     2     -11.376   8.696  70.480  1.00  0.00    -0.218 C  
HETATM    3  C   UNL     2     -11.314  10.143  69.917  1.00  0.00    -0.335 C  
HETATM    4  C   UNL     2      -9.890  10.700  69.625  1.00  0.00    -0.013 C  
HETATM    5  C   UNL     2      -8.752   9.637  69.612  1.00  0.00    -0.206 C  
HETATM    6  C   UNL     2     -10.601   7.908  68.104  1.00  0.00    -0.120 C  
HETATM    7  C   UNL     2      -9.105   8.255  70.214  1.00  0.00    -0.150 C  
HETATM    8  C   UNL     2     -10.775   8.699  71.889  1.00  0.00    -0.344 C  
HETATM    9  O   UNL     2     -10.162   7.494  72.381  1.00  0.00    -0.191 OA 
HETATM   10  N   UNL     2     -10.465   7.786  69.619  1.00  0.00    -0.226 N  
HETATM   11  C   UNL     2     -10.744   6.289  69.903  1.00  0.00    -0.294 C  
HETATM   12  C   UNL     2      -9.320   8.436  71.713  1.00  0.00    -0.226 C  
ENDROOT
BRANCH   4  13
HETATM   13  O   UNL     2      -9.828  11.441  68.341  1.00  0.00    -0.192 OA 
BRANCH  13  14
HETATM   14  C   UNL     2     -10.077  12.793  68.337  1.00  0.00    -0.226 C  
HETATM   15  C   UNL     2      -9.860  14.559  66.454  1.00  0.00    -0.306 A  
HETATM   16  O   UNL     2     -10.938  13.282  69.042  1.00  0.00    -0.247 OA 
HETATM   17  C   UNL     2      -8.250  14.459  68.414  1.00  0.00    -0.145 C  
HETATM   18  C   UNL     2      -9.120  13.635  67.444  1.00  0.00    -0.222 C  
HETATM   19  O   UNL     2      -7.589  13.659  69.393  1.00  0.00    -0.327 OA 
HETATM   20  C   UNL     2      -9.548  15.929  66.281  1.00  0.00    -0.345 A  
HETATM   21  C   UNL     2     -10.325  16.770  65.470  1.00  0.00    -0.236 A  
HETATM   22  H   UNL     2      -7.054  14.167  69.991  1.00  0.00     0.000 HD 
HETATM   23  C   UNL     2     -11.408  16.242  64.779  1.00  0.00    -0.214 A  
HETATM   24  C   UNL     2     -11.661  14.875  64.836  1.00  0.00    -0.395 A  
HETATM   25  C   UNL     2     -10.883  14.041  65.651  1.00  0.00    -0.295 A  
ENDBRANCH  13  14
ENDBRANCH   4  13
TORSDOF 2
ENDMDL
MODEL       70
REMARK 921   NORMALIZED FREE ENERGY PREDICTED BY IDOCK:   -5.03 KCAL/MOL
REMARK 922        TOTAL FREE ENERGY PREDICTED BY IDOCK:   -6.32 KCAL/MOL
REMARK 923 INTER-LIGAND FREE ENERGY PREDICTED BY IDOCK:   -5.91 KCAL/MOL
REMARK 924 INTRA-LIGAND FREE ENERGY PREDICTED BY IDOCK:   -0.41 KCAL/MOL
REMARK 927      BINDING AFFINITY PREDICTED BY RF-SCORE:    0.00 PKD
ROOT
HETATM    1 BR   UNL     1     -11.870  13.951  69.642  1.00  0.00    -0.405 Br 
HETATM    2  C   UNL     2      -7.356   8.737  66.275  1.00  0.00    -0.087 C  
HETATM    3  C   UNL     2      -8.278   9.827  65.661  1.00  0.00    -0.130 C  
HETATM    4  C   UNL     2      -9.796   9.487  65.610  1.00  0.00    -0.272 C  
HETATM    5  C   UNL     2     -10.231   8.267  66.475  1.00  0.00    -0.263 C  
HETATM    6  C   UNL     2      -8.460   9.327  68.578  1.00  0.00    -0.123 C  
HETATM    7  C   UNL     2      -9.090   7.355  66.988  1.00  0.00    -0.135 C  
HETATM    8  C   UNL     2      -7.348   7.526  65.337  1.00  0.00    -0.071 C  
HETATM    9  O   UNL     2      -7.113   6.221  65.896  1.00  0.00    -0.063 OA 
HETATM   10  N   UNL     2      -7.978   8.251  67.608  1.00  0.00    -0.116 N  
HETATM   11  C   UNL     2      -6.956   7.430  68.434  1.00  0.00    -0.079 C  
HETATM   12  C   UNL     2      -8.470   6.655  65.785  1.00  0.00    -0.148 C  
ENDROOT
BRANCH   4  13
HETATM   13  O   UNL     2     -10.644  10.640  66.001  1.00  0.00    -0.210 OA 
BRANCH  13  14
HETATM   14  C   UNL     2     -10.510  11.828  65.322  1.00  0.00    -0.274 C  
HETATM   15  C   UNL     2     -10.467  14.277  66.166  1.00  0.00    -0.294 A  
HETATM   16  O   UNL     2      -9.858  11.904  64.299  1.00  0.00    -0.250 OA 
HETATM   17  C   UNL     2     -12.440  13.314  64.891  1.00  0.00    -0.409 C  
HETATM   18  C   UNL     2     -11.322  13.017  65.912  1.00  0.00    -0.344 C  
HETATM   19  O   UNL     2     -13.225  12.166  64.571  1.00  0.00    -0.724 OA 
HETATM   20  C   UNL     2     -10.846  15.576  65.749  1.00  0.00    -0.337 A  
HETATM   21  C   UNL     2      -9.986  16.677  65.881  1.00  0.00    -0.320 A  
HETATM   22  H   UNL     2     -13.913  12.349  63.942  1.00  0.00     0.000 HD 
HETATM   23  C   UNL     2      -8.743  16.505  66.476  1.00  0.00    -0.317 A  
HETATM   24  C   UNL     2      -8.398  15.264  67.005  1.00  0.00    -0.267 A  
HETATM   25  C   UNL     2      -9.260  14.168  66.867  1.00  0.00    -0.270 A  
ENDBRANCH  13  14
ENDBRANCH   4  13
TORSDOF 2
ENDMDL
MODEL       71
REMARK 921   NORMALIZED FREE ENERGY PREDICTED BY IDOCK:   -5.01 KCAL/MOL
REMARK 922        TOTAL FREE ENERGY PREDICTED BY IDOCK:   -6.29 KCAL/MOL
REMARK 923 INTER-LIGAND FREE ENERGY PREDICTED BY IDOCK:   -5.75 KCAL/MOL
REMARK 924 INTRA-LIGAND FREE ENERGY PREDICTED BY IDOCK:   -0.54 KCAL/MOL
REMARK 927      BINDING AFFINITY PREDICTED BY RF-SCORE:    0.00 PKD
ROOT
HETATM    1 BR   UNL     1     -12.375  11.181  70.872  1.00  0.00    -0.489 Br 
HETATM    2  C   UNL     2      -9.418  16.701  66.435  1.00  0.00    -0.280 C  
HETATM    3  C   UNL     2      -9.053  15.195  66.558  1.00  0.00    -0.328 C  
HETATM    4  C   UNL     2      -8.163  14.808  67.776  1.00  0.00    -0.159 C  
HETATM    5  C   UNL     2      -8.039  15.899  68.880  1.00  0.00    -0.214 C  
HETATM    6  C   UNL     2     -10.933  16.343  68.544  1.00  0.00    -0.350 C  
HETATM    7  C   UNL     2      -8.513  17.320  68.489  1.00  0.00    -0.267 C  
HETATM    8  C   UNL     2      -8.141  17.484  66.117  1.00  0.00    -0.209 C  
HETATM    9  O   UNL     2      -8.051  18.857  66.537  1.00  0.00    -0.268 OA 
HETATM   10  N   UNL     2      -9.911  17.210  67.813  1.00  0.00    -0.266 N  
HETATM   11  C   UNL     2     -10.609  18.586  67.682  1.00  0.00    -0.414 C  
HETATM   12  C   UNL     2      -7.556  17.862  67.433  1.00  0.00    -0.206 C  
ENDROOT
BRANCH   4  13
HETATM   13  O   UNL     2      -8.618  13.556  68.429  1.00  0.00    -0.171 OA 
BRANCH  13  14
HETATM   14  C   UNL     2      -8.011  12.369  68.094  1.00  0.00    -0.153 C  
HETATM   15  C   UNL     2      -8.845   9.922  68.264  1.00  0.00    -0.119 A  
HETATM   16  O   UNL     2      -7.215  12.300  67.179  1.00  0.00    -0.144 OA 
HETATM   17  C   UNL     2      -7.059  10.858  69.806  1.00  0.00    -0.088 C  
HETATM   18  C   UNL     2      -8.352  11.170  69.027  1.00  0.00    -0.054 C  
HETATM   19  O   UNL     2      -6.523  11.995  70.481  1.00  0.00    -0.513 OA 
HETATM   20  C   UNL     2      -8.345   8.618  68.493  1.00  0.00    -0.123 A  
HETATM   21  C   UNL     2      -8.721   7.528  67.693  1.00  0.00    -0.122 A  
HETATM   22  H   UNL     2      -5.726  11.803  70.961  1.00  0.00     0.000 HD 
HETATM   23  C   UNL     2      -9.643   7.717  66.672  1.00  0.00    -0.271 A  
HETATM   24  C   UNL     2     -10.241   8.963  66.506  1.00  0.00    -0.319 A  
HETATM   25  C   UNL     2      -9.859  10.047  67.306  1.00  0.00    -0.225 A  
ENDBRANCH  13  14
ENDBRANCH   4  13
TORSDOF 2
ENDMDL
MODEL       72
REMARK 921   NORMALIZED FREE ENERGY PREDICTED BY IDOCK:   -4.99 KCAL/MOL
REMARK 922        TOTAL FREE ENERGY PREDICTED BY IDOCK:   -6.28 KCAL/MOL
REMARK 923 INTER-LIGAND FREE ENERGY PREDICTED BY IDOCK:   -5.88 KCAL/MOL
REMARK 924 INTRA-LIGAND FREE ENERGY PREDICTED BY IDOCK:   -0.40 KCAL/MOL
REMARK 927      BINDING AFFINITY PREDICTED BY RF-SCORE:    0.00 PKD
ROOT
HETATM    1 BR   UNL     1      -8.040   6.651  63.212  1.00  0.00     0.047 Br 
HETATM    2  C   UNL     2     -11.127   8.879  69.876  1.00  0.00    -0.136 C  
HETATM    3  C   UNL     2     -10.387   9.694  68.779  1.00  0.00    -0.233 C  
HETATM    4  C   UNL     2      -8.833   9.602  68.794  1.00  0.00    -0.130 C  
HETATM    5  C   UNL     2      -8.245   8.457  69.671  1.00  0.00    -0.117 C  
HETATM    6  C   UNL     2     -10.368   6.736  68.571  1.00  0.00    -0.190 C  
HETATM    7  C   UNL     2      -9.226   7.791  70.667  1.00  0.00    -0.161 C  
HETATM    8  C   UNL     2     -10.814   9.505  71.239  1.00  0.00    -0.343 C  
HETATM    9  O   UNL     2     -10.838   8.666  72.406  1.00  0.00    -0.343 OA 
HETATM   10  N   UNL     2     -10.542   7.444  69.912  1.00  0.00    -0.232 N  
HETATM   11  C   UNL     2     -11.452   6.491  70.726  1.00  0.00    -0.360 C  
HETATM   12  C   UNL     2      -9.588   8.820  71.731  1.00  0.00    -0.301 C  
ENDROOT
BRANCH   4  13
HETATM   13  O   UNL     2      -8.265   9.459  67.430  1.00  0.00    -0.119 OA 
BRANCH  13  14
HETATM   14  C   UNL     2      -8.366  10.511  66.551  1.00  0.00    -0.141 C  
HETATM   15  C   UNL     2     -10.265  11.201  64.930  1.00  0.00    -0.361 A  
HETATM   16  O   UNL     2      -7.827  11.578  66.775  1.00  0.00    -0.155 OA 
HETATM   17  C   UNL     2      -8.073  10.213  64.114  1.00  0.00    -0.158 C  
HETATM   18  C   UNL     2      -9.133  10.197  65.234  1.00  0.00    -0.234 C  
HETATM   19  O   UNL     2      -6.970   9.347  64.373  1.00  0.00    -0.095 OA 
HETATM   20  C   UNL     2     -10.445  11.817  63.668  1.00  0.00    -0.490 A  
HETATM   21  C   UNL     2     -11.403  12.822  63.463  1.00  0.00    -0.480 A  
HETATM   22  H   UNL     2      -6.317   9.358  63.683  1.00  0.00     0.000 HD 
HETATM   23  C   UNL     2     -12.233  13.198  64.511  1.00  0.00    -0.466 A  
HETATM   24  C   UNL     2     -12.158  12.521  65.725  1.00  0.00    -0.443 A  
HETATM   25  C   UNL     2     -11.197  11.521  65.924  1.00  0.00    -0.239 A  
ENDBRANCH  13  14
ENDBRANCH   4  13
TORSDOF 2
ENDMDL
MODEL       73
REMARK 921   NORMALIZED FREE ENERGY PREDICTED BY IDOCK:   -4.98 KCAL/MOL
REMARK 922        TOTAL FREE ENERGY PREDICTED BY IDOCK:   -6.26 KCAL/MOL
REMARK 923 INTER-LIGAND FREE ENERGY PREDICTED BY IDOCK:   -5.77 KCAL/MOL
REMARK 924 INTRA-LIGAND FREE ENERGY PREDICTED BY IDOCK:   -0.49 KCAL/MOL
REMARK 927      BINDING AFFINITY PREDICTED BY RF-SCORE:    0.00 PKD
ROOT
HETATM    1 BR   UNL     1     -10.440  11.020  64.057  1.00  0.00    -0.380 Br 
HETATM    2  C   UNL     2     -10.625   5.188  69.042  1.00  0.00     0.009 C  
HETATM    3  C   UNL     2     -10.927   6.699  69.239  1.00  0.00    -0.346 C  
HETATM    4  C   UNL     2      -9.686   7.629  69.388  1.00  0.00    -0.165 C  
HETATM    5  C   UNL     2      -8.326   6.987  68.986  1.00  0.00    -0.126 C  
HETATM    6  C   UNL     2      -9.733   5.839  66.665  1.00  0.00    -0.157 C  
HETATM    7  C   UNL     2      -8.320   5.447  68.825  1.00  0.00    -0.097 C  
HETATM    8  C   UNL     2     -10.011   4.644  70.337  1.00  0.00    -0.230 C  
HETATM    9  O   UNL     2      -9.115   3.522  70.257  1.00  0.00    -0.104 OA 
HETATM   10  N   UNL     2      -9.539   5.035  67.948  1.00  0.00    -0.134 N  
HETATM   11  C   UNL     2      -9.441   3.567  67.461  1.00  0.00    -0.186 C  
HETATM   12  C   UNL     2      -8.541   4.829  70.201  1.00  0.00    -0.082 C  
ENDROOT
BRANCH   4  13
HETATM   13  O   UNL     2      -9.833   8.889  68.620  1.00  0.00    -0.159 OA 
BRANCH  13  14
HETATM   14  C   UNL     2      -9.819  10.088  69.294  1.00  0.00    -0.214 C  
HETATM   15  C   UNL     2     -11.726  11.749  69.855  1.00  0.00    -0.399 A  
HETATM   16  O   UNL     2      -9.028  10.301  70.192  1.00  0.00     0.003 OA 
HETATM   17  C   UNL     2      -9.952  12.256  68.112  1.00  0.00    -0.210 C  
HETATM   18  C   UNL     2     -10.817  11.155  68.758  1.00  0.00    -0.256 C  
HETATM   19  O   UNL     2      -9.046  11.753  67.131  1.00  0.00    -0.166 OA 
HETATM   20  C   UNL     2     -11.941  13.138  70.025  1.00  0.00    -0.391 A  
HETATM   21  C   UNL     2     -12.668  13.649  71.111  1.00  0.00    -0.432 A  
HETATM   22  H   UNL     2      -8.512  12.431  66.733  1.00  0.00     0.000 HD 
HETATM   23  C   UNL     2     -13.234  12.772  72.027  1.00  0.00    -0.538 A  
HETATM   24  C   UNL     2     -13.140  11.399  71.814  1.00  0.00    -0.523 A  
HETATM   25  C   UNL     2     -12.410  10.896  70.729  1.00  0.00    -0.487 A  
ENDBRANCH  13  14
ENDBRANCH   4  13
TORSDOF 2
ENDMDL
MODEL       74
REMARK 921   NORMALIZED FREE ENERGY PREDICTED BY IDOCK:   -4.97 KCAL/MOL
REMARK 922        TOTAL FREE ENERGY PREDICTED BY IDOCK:   -6.26 KCAL/MOL
REMARK 923 INTER-LIGAND FREE ENERGY PREDICTED BY IDOCK:   -5.71 KCAL/MOL
REMARK 924 INTRA-LIGAND FREE ENERGY PREDICTED BY IDOCK:   -0.54 KCAL/MOL
REMARK 927      BINDING AFFINITY PREDICTED BY RF-SCORE:    0.00 PKD
ROOT
HETATM    1 BR   UNL     1      -6.904  12.539  68.706  1.00  0.00    -0.097 Br 
HETATM    2  C   UNL     2      -9.272   5.978  71.907  1.00  0.00    -0.150 C  
HETATM    3  C   UNL     2      -9.123   6.381  70.414  1.00  0.00    -0.155 C  
HETATM    4  C   UNL     2     -10.270   7.256  69.827  1.00  0.00    -0.210 C  
HETATM    5  C   UNL     2     -11.225   7.889  70.881  1.00  0.00    -0.284 C  
HETATM    6  C   UNL     2      -8.818   8.498  72.468  1.00  0.00    -0.175 C  
HETATM    7  C   UNL     2     -11.138   7.310  72.315  1.00  0.00    -0.260 C  
HETATM    8  C   UNL     2     -10.460   5.018  72.034  1.00  0.00    -0.203 C  
HETATM    9  O   UNL     2     -11.181   4.974  73.278  1.00  0.00    -0.309 OA 
HETATM   10  N   UNL     2      -9.639   7.238  72.731  1.00  0.00    -0.150 N  
HETATM   11  C   UNL     2      -9.463   6.983  74.248  1.00  0.00    -0.232 C  
HETATM   12  C   UNL     2     -11.652   5.876  72.275  1.00  0.00    -0.282 C  
ENDROOT
BRANCH   4  13
HETATM   13  O   UNL     2      -9.757   8.353  68.970  1.00  0.00    -0.165 OA 
BRANCH  13  14
HETATM   14  C   UNL     2     -10.307   8.540  67.724  1.00  0.00    -0.237 C  
HETATM   15  C   UNL     2      -9.453   9.860  65.665  1.00  0.00    -0.295 A  
HETATM   16  O   UNL     2     -11.006   7.692  67.206  1.00  0.00    -0.245 OA 
HETATM   17  C   UNL     2     -11.400  10.664  67.082  1.00  0.00     0.036 C  
HETATM   18  C   UNL     2     -10.041   9.936  67.091  1.00  0.00    -0.270 C  
HETATM   19  O   UNL     2     -12.020  10.709  68.366  1.00  0.00    -0.775 OA 
HETATM   20  C   UNL     2      -9.952  10.610  64.573  1.00  0.00    -0.410 A  
HETATM   21  C   UNL     2      -9.479  10.420  63.265  1.00  0.00    -0.361 A  
HETATM   22  H   UNL     2     -12.858  11.156  68.360  1.00  0.00     0.000 HD 
HETATM   23  C   UNL     2      -8.463   9.503  63.034  1.00  0.00    -0.198 A  
HETATM   24  C   UNL     2      -7.872   8.843  64.108  1.00  0.00    -0.135 A  
HETATM   25  C   UNL     2      -8.351   9.035  65.411  1.00  0.00    -0.151 A  
ENDBRANCH  13  14
ENDBRANCH   4  13
TORSDOF 2
ENDMDL
MODEL       75
REMARK 921   NORMALIZED FREE ENERGY PREDICTED BY IDOCK:   -4.97 KCAL/MOL
REMARK 922        TOTAL FREE ENERGY PREDICTED BY IDOCK:   -6.25 KCAL/MOL
REMARK 923 INTER-LIGAND FREE ENERGY PREDICTED BY IDOCK:   -6.07 KCAL/MOL
REMARK 924 INTRA-LIGAND FREE ENERGY PREDICTED BY IDOCK:   -0.17 KCAL/MOL
REMARK 927      BINDING AFFINITY PREDICTED BY RF-SCORE:    0.00 PKD
ROOT
HETATM    1 BR   UNL     1     -10.165  20.400  66.032  1.00  0.00    -0.064 Br 
HETATM    2  C   UNL     2     -11.726  13.277  68.426  1.00  0.00    -0.354 C  
HETATM    3  C   UNL     2     -11.180  14.510  69.200  1.00  0.00    -0.294 C  
HETATM    4  C   UNL     2      -9.661  14.807  69.023  1.00  0.00    -0.190 C  
HETATM    5  C   UNL     2      -8.971  14.052  67.849  1.00  0.00    -0.188 C  
HETATM    6  C   UNL     2     -11.360  14.684  66.245  1.00  0.00    -0.347 C  
HETATM    7  C   UNL     2      -9.765  12.872  67.237  1.00  0.00    -0.220 C  
HETATM    8  C   UNL     2     -11.113  12.013  69.036  1.00  0.00    -0.239 C  
HETATM    9  O   UNL     2     -10.945  10.855  68.199  1.00  0.00    -0.209 OA 
HETATM   10  N   UNL     2     -11.223  13.344  66.962  1.00  0.00    -0.296 N  
HETATM   11  C   UNL     2     -11.999  12.353  66.060  1.00  0.00    -0.350 C  
HETATM   12  C   UNL     2      -9.850  11.769  68.286  1.00  0.00    -0.198 C  
ENDROOT
BRANCH   4  13
HETATM   13  O   UNL     2      -9.389  16.254  68.849  1.00  0.00    -0.227 OA 
BRANCH  13  14
HETATM   14  C   UNL     2      -8.113  16.661  68.535  1.00  0.00    -0.226 C  
HETATM   15  C   UNL     2      -7.081  19.028  68.330  1.00  0.00    -0.296 A  
HETATM   16  O   UNL     2      -7.143  15.989  68.828  1.00  0.00    -0.130 OA 
HETATM   17  C   UNL     2      -7.540  17.566  66.306  1.00  0.00    -0.308 C  
HETATM   18  C   UNL     2      -8.027  17.977  67.710  1.00  0.00    -0.235 C  
HETATM   19  O   UNL     2      -8.344  16.549  65.710  1.00  0.00    -0.337 OA 
HETATM   20  C   UNL     2      -6.092  19.721  67.592  1.00  0.00    -0.213 A  
HETATM   21  C   UNL     2      -5.164  20.572  68.212  1.00  0.00    -0.261 A  
HETATM   22  H   UNL     2      -8.043  16.296  64.845  1.00  0.00     0.000 HD 
HETATM   23  C   UNL     2      -5.239  20.781  69.583  1.00  0.00    -0.391 A  
HETATM   24  C   UNL     2      -6.279  20.208  70.310  1.00  0.00    -0.388 A  
HETATM   25  C   UNL     2      -7.200  19.357  69.686  1.00  0.00    -0.112 A  
ENDBRANCH  13  14
ENDBRANCH   4  13
TORSDOF 2
ENDMDL
MODEL       76
REMARK 921   NORMALIZED FREE ENERGY PREDICTED BY IDOCK:   -4.95 KCAL/MOL
REMARK 922        TOTAL FREE ENERGY PREDICTED BY IDOCK:   -6.23 KCAL/MOL
REMARK 923 INTER-LIGAND FREE ENERGY PREDICTED BY IDOCK:   -5.94 KCAL/MOL
REMARK 924 INTRA-LIGAND FREE ENERGY PREDICTED BY IDOCK:   -0.29 KCAL/MOL
REMARK 927      BINDING AFFINITY PREDICTED BY RF-SCORE:    0.00 PKD
ROOT
HETATM    1 BR   UNL     1     -11.687  15.561  72.218  1.00  0.00    -0.595 Br 
HETATM    2  C   UNL     2      -9.804  12.411  65.478  1.00  0.00    -0.200 C  
HETATM    3  C   UNL     2      -9.675  13.875  65.984  1.00  0.00    -0.270 C  
HETATM    4  C   UNL     2     -10.979  14.725  65.951  1.00  0.00    -0.335 C  
HETATM    5  C   UNL     2     -12.292  13.914  65.742  1.00  0.00    -0.518 C  
HETATM    6  C   UNL     2     -11.199  11.952  67.649  1.00  0.00    -0.276 C  
HETATM    7  C   UNL     2     -12.122  12.453  65.259  1.00  0.00    -0.391 C  
HETATM    8  C   UNL     2     -10.088  12.442  63.973  1.00  0.00    -0.315 C  
HETATM    9  O   UNL     2     -10.826  11.355  63.388  1.00  0.00    -0.385 OA 
HETATM   10  N   UNL     2     -11.043  11.761  66.142  1.00  0.00    -0.310 N  
HETATM   11  C   UNL     2     -11.032  10.223  65.958  1.00  0.00     0.304 C  
HETATM   12  C   UNL     2     -11.570  12.488  63.839  1.00  0.00    -0.442 C  
ENDROOT
BRANCH   4  13
HETATM   13  O   UNL     2     -11.147  15.545  67.175  1.00  0.00    -0.317 OA 
BRANCH  13  14
HETATM   14  C   UNL     2     -10.627  16.817  67.203  1.00  0.00    -0.256 C  
HETATM   15  C   UNL     2      -8.198  17.657  67.529  1.00  0.00    -0.221 A  
HETATM   16  O   UNL     2     -11.119  17.718  66.552  1.00  0.00     0.121 OA 
HETATM   17  C   UNL     2      -9.978  17.919  69.320  1.00  0.00    -0.102 C  
HETATM   18  C   UNL     2      -9.440  17.020  68.189  1.00  0.00    -0.262 C  
HETATM   19  O   UNL     2     -11.164  17.408  69.926  1.00  0.00     0.022 OA 
HETATM   20  C   UNL     2      -7.493  18.752  68.085  1.00  0.00    -0.289 A  
HETATM   21  C   UNL     2      -6.449  19.389  67.396  1.00  0.00    -0.211 A  
HETATM   22  H   UNL     2     -11.496  17.962  70.622  1.00  0.00     0.000 HD 
HETATM   23  C   UNL     2      -6.061  18.910  66.151  1.00  0.00    -0.207 A  
HETATM   24  C   UNL     2      -6.656  17.760  65.639  1.00  0.00    -0.137 A  
HETATM   25  C   UNL     2      -7.700  17.131  66.331  1.00  0.00    -0.345 A  
ENDBRANCH  13  14
ENDBRANCH   4  13
TORSDOF 2
ENDMDL
MODEL       77
REMARK 921   NORMALIZED FREE ENERGY PREDICTED BY IDOCK:   -4.93 KCAL/MOL
REMARK 922        TOTAL FREE ENERGY PREDICTED BY IDOCK:   -6.20 KCAL/MOL
REMARK 923 INTER-LIGAND FREE ENERGY PREDICTED BY IDOCK:   -5.60 KCAL/MOL
REMARK 924 INTRA-LIGAND FREE ENERGY PREDICTED BY IDOCK:   -0.60 KCAL/MOL
REMARK 927      BINDING AFFINITY PREDICTED BY RF-SCORE:    0.00 PKD
ROOT
HETATM    1 BR   UNL     1     -13.051   9.363  71.852  1.00  0.00    -0.548 Br 
HETATM    2  C   UNL     2      -7.486   9.683  66.578  1.00  0.00    -0.094 C  
HETATM    3  C   UNL     2      -8.080  10.790  67.493  1.00  0.00    -0.111 C  
HETATM    4  C   UNL     2      -9.435  11.401  67.030  1.00  0.00    -0.173 C  
HETATM    5  C   UNL     2     -10.177  10.603  65.917  1.00  0.00    -0.314 C  
HETATM    6  C   UNL     2      -9.455   8.164  67.405  1.00  0.00    -0.155 C  
HETATM    7  C   UNL     2      -9.343   9.526  65.181  1.00  0.00    -0.252 C  
HETATM    8  C   UNL     2      -7.074  10.323  65.248  1.00  0.00    -0.130 C  
HETATM    9  O   UNL     2      -7.078   9.512  64.061  1.00  0.00    -0.100 OA 
HETATM   10  N   UNL     2      -8.601   8.661  66.242  1.00  0.00    -0.130 N  
HETATM   11  C   UNL     2      -8.007   7.367  65.632  1.00  0.00    -0.118 C  
HETATM   12  C   UNL     2      -8.270  10.238  64.366  1.00  0.00    -0.159 C  
ENDROOT
BRANCH   4  13
HETATM   13  O   UNL     2     -10.382  11.587  68.157  1.00  0.00    -0.183 OA 
BRANCH  13  14
HETATM   14  C   UNL     2     -10.487  12.826  68.744  1.00  0.00    -0.156 C  
HETATM   15  C   UNL     2     -12.445  13.947  70.017  1.00  0.00    -0.325 A  
HETATM   16  O   UNL     2      -9.521  13.381  69.230  1.00  0.00     0.407 OA 
HETATM   17  C   UNL     2     -11.747  14.672  67.687  1.00  0.00    -0.363 C  
HETATM   18  C   UNL     2     -11.896  13.479  68.652  1.00  0.00    -0.404 C  
HETATM   19  O   UNL     2     -11.184  14.307  66.428  1.00  0.00    -0.322 OA 
HETATM   20  C   UNL     2     -13.005  15.228  70.237  1.00  0.00    -0.228 A  
HETATM   21  C   UNL     2     -13.374  15.667  71.518  1.00  0.00    -0.535 A  
HETATM   22  H   UNL     2     -11.091  15.043  65.833  1.00  0.00     0.000 HD 
HETATM   23  C   UNL     2     -13.231  14.808  72.601  1.00  0.00    -0.548 A  
HETATM   24  C   UNL     2     -12.798  13.502  72.391  1.00  0.00    -0.292 A  
HETATM   25  C   UNL     2     -12.428  13.072  71.110  1.00  0.00    -0.364 A  
ENDBRANCH  13  14
ENDBRANCH   4  13
TORSDOF 2
ENDMDL
MODEL       78
REMARK 921   NORMALIZED FREE ENERGY PREDICTED BY IDOCK:   -4.90 KCAL/MOL
REMARK 922        TOTAL FREE ENERGY PREDICTED BY IDOCK:   -6.17 KCAL/MOL
REMARK 923 INTER-LIGAND FREE ENERGY PREDICTED BY IDOCK:   -5.56 KCAL/MOL
REMARK 924 INTRA-LIGAND FREE ENERGY PREDICTED BY IDOCK:   -0.61 KCAL/MOL
REMARK 927      BINDING AFFINITY PREDICTED BY RF-SCORE:    0.00 PKD
ROOT
HETATM    1 BR   UNL     1      -7.394   8.727  63.917  1.00  0.00    -0.102 Br 
HETATM    2  C   UNL     2     -11.366   8.161  70.460  1.00  0.00    -0.221 C  
HETATM    3  C   UNL     2     -11.079   9.389  69.551  1.00  0.00    -0.134 C  
HETATM    4  C   UNL     2      -9.674  10.041  69.711  1.00  0.00    -0.226 C  
HETATM    5  C   UNL     2      -8.633   9.189  70.496  1.00  0.00    -0.252 C  
HETATM    6  C   UNL     2      -9.630   6.864  68.984  1.00  0.00    -0.136 C  
HETATM    7  C   UNL     2      -9.199   7.992  71.299  1.00  0.00    -0.150 C  
HETATM    8  C   UNL     2     -11.434   8.640  71.914  1.00  0.00    -0.348 C  
HETATM    9  O   UNL     2     -11.083   7.718  72.961  1.00  0.00    -0.398 OA 
HETATM   10  N   UNL     2     -10.163   7.187  70.378  1.00  0.00    -0.192 N  
HETATM   11  C   UNL     2     -10.524   5.804  70.973  1.00  0.00    -0.244 C  
HETATM   12  C   UNL     2     -10.044   8.548  72.439  1.00  0.00    -0.295 C  
ENDROOT
BRANCH   4  13
HETATM   13  O   UNL     2      -9.069  10.397  68.404  1.00  0.00    -0.137 OA 
BRANCH  13  14
HETATM   14  C   UNL     2      -8.991  11.722  68.043  1.00  0.00    -0.176 C  
HETATM   15  C   UNL     2     -10.811  13.562  67.913  1.00  0.00    -0.262 A  
HETATM   16  O   UNL     2      -7.987  12.377  68.245  1.00  0.00    -0.147 OA 
HETATM   17  C   UNL     2      -9.774  12.526  65.840  1.00  0.00    -0.219 C  
HETATM   18  C   UNL     2     -10.236  12.272  67.289  1.00  0.00    -0.222 C  
HETATM   19  O   UNL     2      -9.177  11.382  65.233  1.00  0.00    -0.297 OA 
HETATM   20  C   UNL     2     -11.135  14.716  67.161  1.00  0.00    -0.328 A  
HETATM   21  C   UNL     2     -11.532  15.914  67.776  1.00  0.00    -0.128 A  
HETATM   22  H   UNL     2      -8.892  11.539  64.340  1.00  0.00     0.000 HD 
HETATM   23  C   UNL     2     -11.655  15.964  69.158  1.00  0.00    -0.382 A  
HETATM   24  C   UNL     2     -11.460  14.808  69.909  1.00  0.00    -0.322 A  
HETATM   25  C   UNL     2     -11.061  13.616  69.289  1.00  0.00    -0.241 A  
ENDBRANCH  13  14
ENDBRANCH   4  13
TORSDOF 2
ENDMDL
MODEL       79
REMARK 921   NORMALIZED FREE ENERGY PREDICTED BY IDOCK:   -4.84 KCAL/MOL
REMARK 922        TOTAL FREE ENERGY PREDICTED BY IDOCK:   -6.10 KCAL/MOL
REMARK 923 INTER-LIGAND FREE ENERGY PREDICTED BY IDOCK:   -5.80 KCAL/MOL
REMARK 924 INTRA-LIGAND FREE ENERGY PREDICTED BY IDOCK:   -0.30 KCAL/MOL
REMARK 927      BINDING AFFINITY PREDICTED BY RF-SCORE:    0.00 PKD
ROOT
HETATM    1 BR   UNL     1      -6.154   9.181  62.330  1.00  0.00    -0.093 Br 
HETATM    2  C   UNL     2     -10.467   8.768  68.665  1.00  0.00    -0.183 C  
HETATM    3  C   UNL     2     -10.865   9.006  67.182  1.00  0.00    -0.079 C  
HETATM    4  C   UNL     2     -10.655  10.452  66.644  1.00  0.00    -0.178 C  
HETATM    5  C   UNL     2      -9.772  11.370  67.540  1.00  0.00    -0.191 C  
HETATM    6  C   UNL     2      -7.983   9.054  67.879  1.00  0.00    -0.102 C  
HETATM    7  C   UNL     2      -9.506  10.866  68.979  1.00  0.00    -0.146 C  
HETATM    8  C   UNL     2     -11.435   9.550  69.558  1.00  0.00     0.104 C  
HETATM    9  O   UNL     2     -10.977  10.002  70.844  1.00  0.00    -0.327 OA 
HETATM   10  N   UNL     2      -9.062   9.375  68.909  1.00  0.00    -0.138 N  
HETATM   11  C   UNL     2      -8.464   8.878  70.248  1.00  0.00    -0.160 C  
HETATM   12  C   UNL     2     -10.826  10.896  69.740  1.00  0.00    -0.187 C  
ENDROOT
BRANCH   4  13
HETATM   13  O   UNL     2     -10.076  10.466  65.278  1.00  0.00    -0.293 OA 
BRANCH  13  14
HETATM   14  C   UNL     2     -10.040  11.649  64.579  1.00  0.00    -0.278 C  
HETATM   15  C   UNL     2     -10.883  14.020  65.200  1.00  0.00    -0.376 A  
HETATM   16  O   UNL     2      -9.142  11.898  63.799  1.00  0.00     0.166 OA 
HETATM   17  C   UNL     2     -12.047  12.574  63.468  1.00  0.00    -0.562 C  
HETATM   18  C   UNL     2     -11.269  12.579  64.799  1.00  0.00    -0.344 C  
HETATM   19  O   UNL     2     -12.377  11.261  63.017  1.00  0.00    -0.856 OA 
HETATM   20  C   UNL     2     -11.426  15.174  64.586  1.00  0.00    -0.363 A  
HETATM   21  C   UNL     2     -10.958  16.462  64.884  1.00  0.00    -0.277 A  
HETATM   22  H   UNL     2     -12.856  11.257  62.197  1.00  0.00     0.000 HD 
HETATM   23  C   UNL     2      -9.963  16.623  65.840  1.00  0.00    -0.320 A  
HETATM   24  C   UNL     2      -9.500  15.515  66.545  1.00  0.00    -0.299 A  
HETATM   25  C   UNL     2      -9.970  14.231  66.240  1.00  0.00    -0.319 A  
ENDBRANCH  13  14
ENDBRANCH   4  13
TORSDOF 2
ENDMDL
MODEL       80
REMARK 921   NORMALIZED FREE ENERGY PREDICTED BY IDOCK:   -4.82 KCAL/MOL
REMARK 922        TOTAL FREE ENERGY PREDICTED BY IDOCK:   -6.08 KCAL/MOL
REMARK 923 INTER-LIGAND FREE ENERGY PREDICTED BY IDOCK:   -5.34 KCAL/MOL
REMARK 924 INTRA-LIGAND FREE ENERGY PREDICTED BY IDOCK:   -0.74 KCAL/MOL
REMARK 927      BINDING AFFINITY PREDICTED BY RF-SCORE:    0.00 PKD
ROOT
HETATM    1 BR   UNL     1      -8.544  10.387  66.128  1.00  0.00    -0.159 Br 
HETATM    2  C   UNL     2     -13.419  14.566  70.330  1.00  0.00     0.301 C  
HETATM    3  C   UNL     2     -12.636  14.921  69.036  1.00  0.00     0.207 C  
HETATM    4  C   UNL     2     -11.138  15.300  69.229  1.00  0.00    -0.274 C  
HETATM    5  C   UNL     2     -10.540  14.951  70.623  1.00  0.00     0.121 C  
HETATM    6  C   UNL     2     -11.971  12.383  70.419  1.00  0.00    -0.257 C  
HETATM    7  C   UNL     2     -11.561  14.601  71.734  1.00  0.00    -0.030 C  
HETATM    8  C   UNL     2     -13.551  15.835  71.179  1.00  0.00     0.045 C  
HETATM    9  O   UNL     2     -13.662  15.701  72.607  1.00  0.00    -0.525 OA 
HETATM   10  N   UNL     2     -12.579  13.568  71.165  1.00  0.00    -0.363 N  
HETATM   11  C   UNL     2     -13.434  12.913  72.279  1.00  0.00    -0.531 C  
HETATM   12  C   UNL     2     -12.352  15.862  72.061  1.00  0.00    -0.475 C  
ENDROOT
BRANCH   4  13
HETATM   13  O   UNL     2     -10.265  14.685  68.199  1.00  0.00    -0.224 OA 
BRANCH  13  14
HETATM   14  C   UNL     2      -9.526  15.501  67.375  1.00  0.00    -0.211 C  
HETATM   15  C   UNL     2      -9.247  18.077  67.335  1.00  0.00    -0.253 A  
HETATM   16  O   UNL     2      -8.478  15.127  66.887  1.00  0.00    -0.219 OA 
HETATM   17  C   UNL     2     -10.570  16.825  65.566  1.00  0.00    -0.230 C  
HETATM   18  C   UNL     2     -10.178  16.878  67.056  1.00  0.00    -0.297 C  
HETATM   19  O   UNL     2     -11.382  15.699  65.239  1.00  0.00    -0.252 OA 
HETATM   20  C   UNL     2      -9.034  19.131  66.414  1.00  0.00    -0.356 A  
HETATM   21  C   UNL     2      -8.082  20.136  66.645  1.00  0.00    -0.330 A  
HETATM   22  H   UNL     2     -11.623  15.667  64.320  1.00  0.00     0.000 HD 
HETATM   23  C   UNL     2      -7.354  20.128  67.828  1.00  0.00    -0.333 A  
HETATM   24  C   UNL     2      -7.633  19.173  68.801  1.00  0.00    -0.388 A  
HETATM   25  C   UNL     2      -8.582  18.170  68.563  1.00  0.00    -0.307 A  
ENDBRANCH  13  14
ENDBRANCH   4  13
TORSDOF 2
ENDMDL
MODEL       81
REMARK 921   NORMALIZED FREE ENERGY PREDICTED BY IDOCK:   -4.81 KCAL/MOL
REMARK 922        TOTAL FREE ENERGY PREDICTED BY IDOCK:   -6.07 KCAL/MOL
REMARK 923 INTER-LIGAND FREE ENERGY PREDICTED BY IDOCK:   -6.06 KCAL/MOL
REMARK 924 INTRA-LIGAND FREE ENERGY PREDICTED BY IDOCK:   -0.02 KCAL/MOL
REMARK 927      BINDING AFFINITY PREDICTED BY RF-SCORE:    0.00 PKD
ROOT
HETATM    1 BR   UNL     1      -8.129   4.991  64.707  1.00  0.00    -0.120 Br 
HETATM    2  C   UNL     2     -11.397   6.632  71.454  1.00  0.00    -0.289 C  
HETATM    3  C   UNL     2     -11.228   7.495  70.173  1.00  0.00    -0.213 C  
HETATM    4  C   UNL     2      -9.827   8.142  69.967  1.00  0.00    -0.182 C  
HETATM    5  C   UNL     2      -8.695   7.574  70.874  1.00  0.00    -0.142 C  
HETATM    6  C   UNL     2      -9.798   4.901  70.306  1.00  0.00    -0.236 C  
HETATM    7  C   UNL     2      -9.153   6.710  72.074  1.00  0.00    -0.139 C  
HETATM    8  C   UNL     2     -11.324   7.556  72.674  1.00  0.00    -0.344 C  
HETATM    9  O   UNL     2     -10.851   7.017  73.921  1.00  0.00    -0.237 OA 
HETATM   10  N   UNL     2     -10.191   5.666  71.567  1.00  0.00    -0.201 N  
HETATM   11  C   UNL     2     -10.462   4.554  72.612  1.00  0.00    -0.195 C  
HETATM   12  C   UNL     2      -9.887   7.618  73.055  1.00  0.00    -0.261 C  
ENDROOT
BRANCH   4  13
HETATM   13  O   UNL     2      -9.365   8.048  68.560  1.00  0.00    -0.142 OA 
BRANCH  13  14
HETATM   14  C   UNL     2     -10.194   8.487  67.555  1.00  0.00    -0.242 C  
HETATM   15  C   UNL     2      -9.812  10.219  65.667  1.00  0.00    -0.332 A  
HETATM   16  O   UNL     2     -11.034   7.760  67.062  1.00  0.00    -0.247 OA 
HETATM   17  C   UNL     2     -11.320  10.687  67.655  1.00  0.00    -0.207 C  
HETATM   18  C   UNL     2     -10.031   9.988  67.177  1.00  0.00    -0.251 C  
HETATM   19  O   UNL     2     -11.606  10.455  69.033  1.00  0.00    -0.416 OA 
HETATM   20  C   UNL     2     -10.529  11.177  64.911  1.00  0.00    -0.372 A  
HETATM   21  C   UNL     2     -10.398  11.271  63.517  1.00  0.00    -0.463 A  
HETATM   22  H   UNL     2     -12.400  10.885  69.327  1.00  0.00     0.000 HD 
HETATM   23  C   UNL     2      -9.508  10.433  62.857  1.00  0.00    -0.354 A  
HETATM   24  C   UNL     2      -8.702   9.569  63.592  1.00  0.00    -0.239 A  
HETATM   25  C   UNL     2      -8.841   9.478  64.983  1.00  0.00    -0.232 A  
ENDBRANCH  13  14
ENDBRANCH   4  13
TORSDOF 2
ENDMDL
MODEL       82
REMARK 921   NORMALIZED FREE ENERGY PREDICTED BY IDOCK:   -4.79 KCAL/MOL
REMARK 922        TOTAL FREE ENERGY PREDICTED BY IDOCK:   -6.05 KCAL/MOL
REMARK 923 INTER-LIGAND FREE ENERGY PREDICTED BY IDOCK:   -5.48 KCAL/MOL
REMARK 924 INTRA-LIGAND FREE ENERGY PREDICTED BY IDOCK:   -0.57 KCAL/MOL
REMARK 927      BINDING AFFINITY PREDICTED BY RF-SCORE:    0.00 PKD
ROOT
HETATM    1 BR   UNL     1      -5.634  12.080  68.983  1.00  0.00    -0.053 Br 
HETATM    2  C   UNL     2      -9.058   5.820  71.810  1.00  0.00    -0.142 C  
HETATM    3  C   UNL     2      -9.418   6.707  70.586  1.00  0.00    -0.174 C  
HETATM    4  C   UNL     2     -10.159   8.040  70.904  1.00  0.00    -0.191 C  
HETATM    5  C   UNL     2     -10.138   8.467  72.402  1.00  0.00    -0.365 C  
HETATM    6  C   UNL     2      -7.303   7.666  72.430  1.00  0.00    -0.078 C  
HETATM    7  C   UNL     2      -9.703   7.381  73.415  1.00  0.00    -0.269 C  
HETATM    8  C   UNL     2     -10.358   5.288  72.422  1.00  0.00    -0.209 C  
HETATM    9  O   UNL     2     -10.384   4.982  73.827  1.00  0.00    -0.189 OA 
HETATM   10  N   UNL     2      -8.398   6.710  72.894  1.00  0.00    -0.118 N  
HETATM   11  C   UNL     2      -7.709   5.847  73.980  1.00  0.00    -0.098 C  
HETATM   12  C   UNL     2     -10.776   6.298  73.433  1.00  0.00    -0.259 C  
ENDROOT
BRANCH   4  13
HETATM   13  O   UNL     2      -9.638   9.176  70.105  1.00  0.00    -0.179 OA 
BRANCH  13  14
HETATM   14  C   UNL     2     -10.444   9.742  69.145  1.00  0.00    -0.215 C  
HETATM   15  C   UNL     2     -10.763  12.211  68.427  1.00  0.00    -0.252 A  
HETATM   16  O   UNL     2     -10.731   9.145  68.126  1.00  0.00    -0.206 OA 
HETATM   17  C   UNL     2     -12.532  10.933  69.725  1.00  0.00    -0.182 C  
HETATM   18  C   UNL     2     -11.019  11.141  69.511  1.00  0.00    -0.276 C  
HETATM   19  O   UNL     2     -12.828   9.910  70.674  1.00  0.00    -0.515 OA 
HETATM   20  C   UNL     2     -11.768  13.076  67.931  1.00  0.00    -0.402 A  
HETATM   21  C   UNL     2     -11.531  13.946  66.855  1.00  0.00    -0.370 A  
HETATM   22  H   UNL     2     -13.760   9.782  70.806  1.00  0.00     0.000 HD 
HETATM   23  C   UNL     2     -10.266  13.998  66.285  1.00  0.00    -0.300 A  
HETATM   24  C   UNL     2      -9.231  13.248  66.836  1.00  0.00    -0.242 A  
HETATM   25  C   UNL     2      -9.474  12.378  67.907  1.00  0.00    -0.198 A  
ENDBRANCH  13  14
ENDBRANCH   4  13
TORSDOF 2
ENDMDL
MODEL       83
REMARK 921   NORMALIZED FREE ENERGY PREDICTED BY IDOCK:   -4.77 KCAL/MOL
REMARK 922        TOTAL FREE ENERGY PREDICTED BY IDOCK:   -6.02 KCAL/MOL
REMARK 923 INTER-LIGAND FREE ENERGY PREDICTED BY IDOCK:   -5.71 KCAL/MOL
REMARK 924 INTRA-LIGAND FREE ENERGY PREDICTED BY IDOCK:   -0.32 KCAL/MOL
REMARK 927      BINDING AFFINITY PREDICTED BY RF-SCORE:    0.00 PKD
ROOT
HETATM    1 BR   UNL     1     -11.097   7.682  72.898  1.00  0.00    -0.419 Br 
HETATM    2  C   UNL     2      -7.999   4.657  66.561  1.00  0.00    -0.103 C  
HETATM    3  C   UNL     2      -8.192   6.139  66.986  1.00  0.00    -0.106 C  
HETATM    4  C   UNL     2      -9.620   6.726  66.783  1.00  0.00    -0.166 C  
HETATM    5  C   UNL     2     -10.735   5.675  66.505  1.00  0.00    -0.296 C  
HETATM    6  C   UNL     2      -9.499   4.037  68.619  1.00  0.00    -0.154 C  
HETATM    7  C   UNL     2     -10.252   4.253  66.129  1.00  0.00    -0.132 C  
HETATM    8  C   UNL     2      -8.131   4.569  65.037  1.00  0.00    -0.100 C  
HETATM    9  O   UNL     2      -8.595   3.339  64.454  1.00  0.00    -0.093 OA 
HETATM   10  N   UNL     2      -9.159   3.814  67.148  1.00  0.00    -0.145 N  
HETATM   11  C   UNL     2      -8.849   2.299  67.058  1.00  0.00    -0.132 C  
HETATM   12  C   UNL     2      -9.575   4.330  64.766  1.00  0.00    -0.166 C  
ENDROOT
BRANCH   4  13
HETATM   13  O   UNL     2     -10.058   7.552  67.935  1.00  0.00    -0.165 OA 
BRANCH  13  14
HETATM   14  C   UNL     2      -9.798   8.902  67.926  1.00  0.00    -0.169 C  
HETATM   15  C   UNL     2     -11.380  10.943  68.137  1.00  0.00    -0.383 A  
HETATM   16  O   UNL     2      -8.752   9.350  68.355  1.00  0.00    -0.123 OA 
HETATM   17  C   UNL     2     -10.262  10.311  65.947  1.00  0.00    -0.223 C  
HETATM   18  C   UNL     2     -10.892   9.777  67.249  1.00  0.00    -0.247 C  
HETATM   19  O   UNL     2      -9.737   9.278  65.114  1.00  0.00    -0.456 OA 
HETATM   20  C   UNL     2     -11.497  12.277  67.680  1.00  0.00    -0.401 A  
HETATM   21  C   UNL     2     -11.819  13.333  68.547  1.00  0.00    -0.384 A  
HETATM   22  H   UNL     2      -9.349   9.606  64.312  1.00  0.00     0.000 HD 
HETATM   23  C   UNL     2     -12.073  13.063  69.885  1.00  0.00    -0.347 A  
HETATM   24  C   UNL     2     -12.084  11.745  70.332  1.00  0.00    -0.440 A  
HETATM   25  C   UNL     2     -11.760  10.696  69.462  1.00  0.00    -0.356 A  
ENDBRANCH  13  14
ENDBRANCH   4  13
TORSDOF 2
ENDMDL
MODEL       84
REMARK 921   NORMALIZED FREE ENERGY PREDICTED BY IDOCK:   -4.75 KCAL/MOL
REMARK 922        TOTAL FREE ENERGY PREDICTED BY IDOCK:   -6.01 KCAL/MOL
REMARK 923 INTER-LIGAND FREE ENERGY PREDICTED BY IDOCK:   -5.59 KCAL/MOL
REMARK 924 INTRA-LIGAND FREE ENERGY PREDICTED BY IDOCK:   -0.42 KCAL/MOL
REMARK 927      BINDING AFFINITY PREDICTED BY RF-SCORE:    0.00 PKD
ROOT
HETATM    1 BR   UNL     1     -12.203   9.278  71.719  1.00  0.00    -0.467 Br 
HETATM    2  C   UNL     2     -11.353  14.844  66.505  1.00  0.00    -0.319 C  
HETATM    3  C   UNL     2     -11.338  13.298  66.348  1.00  0.00    -0.341 C  
HETATM    4  C   UNL     2     -10.011  12.586  66.746  1.00  0.00    -0.228 C  
HETATM    5  C   UNL     2      -9.008  13.459  67.556  1.00  0.00    -0.207 C  
HETATM    6  C   UNL     2     -11.330  14.423  69.092  1.00  0.00    -0.277 C  
HETATM    7  C   UNL     2      -9.285  14.982  67.568  1.00  0.00    -0.188 C  
HETATM    8  C   UNL     2     -10.386  15.444  65.479  1.00  0.00    -0.387 C  
HETATM    9  O   UNL     2      -9.756  16.702  65.777  1.00  0.00    -0.485 OA 
HETATM   10  N   UNL     2     -10.789  15.210  67.901  1.00  0.00    -0.282 N  
HETATM   11  C   UNL     2     -11.093  16.687  68.256  1.00  0.00    -0.295 C  
HETATM   12  C   UNL     2      -9.062  15.512  66.156  1.00  0.00    -0.324 C  
ENDROOT
BRANCH   4  13
HETATM   13  O   UNL     2     -10.251  11.342  67.518  1.00  0.00    -0.181 OA 
BRANCH  13  14
HETATM   14  C   UNL     2      -9.856  10.138  66.984  1.00  0.00    -0.191 C  
HETATM   15  C   UNL     2      -7.537   9.310  66.178  1.00  0.00    -0.096 A  
HETATM   16  O   UNL     2     -10.399   9.097  67.297  1.00  0.00    -0.236 OA 
HETATM   17  C   UNL     2      -9.420   9.859  64.566  1.00  0.00    -0.264 C  
HETATM   18  C   UNL     2      -8.743  10.233  65.900  1.00  0.00    -0.169 C  
HETATM   19  O   UNL     2     -10.580  10.641  64.287  1.00  0.00    -0.393 OA 
HETATM   20  C   UNL     2      -6.968   8.453  65.205  1.00  0.00    -0.074 A  
HETATM   21  C   UNL     2      -5.958   7.534  65.526  1.00  0.00    -0.038 A  
HETATM   22  H   UNL     2     -10.997  10.410  63.466  1.00  0.00     0.000 HD 
HETATM   23  C   UNL     2      -5.465   7.487  66.824  1.00  0.00    -0.024 A  
HETATM   24  C   UNL     2      -5.922   8.403  67.767  1.00  0.00    -0.047 A  
HETATM   25  C   UNL     2      -6.933   9.316  67.441  1.00  0.00    -0.078 A  
ENDBRANCH  13  14
ENDBRANCH   4  13
TORSDOF 2
ENDMDL
MODEL       85
REMARK 921   NORMALIZED FREE ENERGY PREDICTED BY IDOCK:   -4.75 KCAL/MOL
REMARK 922        TOTAL FREE ENERGY PREDICTED BY IDOCK:   -6.00 KCAL/MOL
REMARK 923 INTER-LIGAND FREE ENERGY PREDICTED BY IDOCK:   -5.72 KCAL/MOL
REMARK 924 INTRA-LIGAND FREE ENERGY PREDICTED BY IDOCK:   -0.28 KCAL/MOL
REMARK 927      BINDING AFFINITY PREDICTED BY RF-SCORE:    0.00 PKD
ROOT
HETATM    1 BR   UNL     1      -5.449  13.423  67.758  1.00  0.00    -0.043 Br 
HETATM    2  C   UNL     2      -9.232   6.880  66.426  1.00  0.00    -0.152 C  
HETATM    3  C   UNL     2      -9.524   8.332  65.958  1.00  0.00    -0.189 C  
HETATM    4  C   UNL     2     -10.204   9.262  67.006  1.00  0.00    -0.262 C  
HETATM    5  C   UNL     2     -10.192   8.730  68.469  1.00  0.00    -0.220 C  
HETATM    6  C   UNL     2      -7.401   7.920  67.986  1.00  0.00    -0.096 C  
HETATM    7  C   UNL     2      -9.831   7.235  68.648  1.00  0.00    -0.161 C  
HETATM    8  C   UNL     2     -10.568   6.157  66.627  1.00  0.00    -0.228 C  
HETATM    9  O   UNL     2     -10.637   5.088  67.586  1.00  0.00    -0.074 OA 
HETATM   10  N   UNL     2      -8.551   6.930  67.816  1.00  0.00    -0.122 N  
HETATM   11  C   UNL     2      -7.926   5.561  68.182  1.00  0.00    -0.096 C  
HETATM   12  C   UNL     2     -10.956   6.404  68.043  1.00  0.00    -0.311 C  
ENDROOT
BRANCH   4  13
HETATM   13  O   UNL     2      -9.613  10.622  67.018  1.00  0.00    -0.165 OA 
BRANCH  13  14
HETATM   14  C   UNL     2      -9.695  11.377  68.164  1.00  0.00    -0.192 C  
HETATM   15  C   UNL     2     -11.746  12.202  69.516  1.00  0.00    -0.402 A  
HETATM   16  O   UNL     2      -8.834  11.326  69.021  1.00  0.00    -0.094 OA 
HETATM   17  C   UNL     2     -10.322  13.769  68.115  1.00  0.00    -0.252 C  
HETATM   18  C   UNL     2     -10.910  12.348  68.226  1.00  0.00    -0.264 C  
HETATM   19  O   UNL     2      -9.488  13.942  66.970  1.00  0.00    -0.236 OA 
HETATM   20  C   UNL     2     -12.150  13.300  70.314  1.00  0.00    -0.405 A  
HETATM   21  C   UNL     2     -12.795  13.123  71.547  1.00  0.00    -0.401 A  
HETATM   22  H   UNL     2      -9.125  14.817  66.902  1.00  0.00     0.000 HD 
HETATM   23  C   UNL     2     -13.090  11.838  71.985  1.00  0.00    -0.436 A  
HETATM   24  C   UNL     2     -12.813  10.750  71.162  1.00  0.00    -0.513 A  
HETATM   25  C   UNL     2     -12.165  10.934  69.934  1.00  0.00    -0.408 A  
ENDBRANCH  13  14
ENDBRANCH   4  13
TORSDOF 2
ENDMDL
MODEL       86
REMARK 921   NORMALIZED FREE ENERGY PREDICTED BY IDOCK:   -4.71 KCAL/MOL
REMARK 922        TOTAL FREE ENERGY PREDICTED BY IDOCK:   -5.97 KCAL/MOL
REMARK 923 INTER-LIGAND FREE ENERGY PREDICTED BY IDOCK:   -5.18 KCAL/MOL
REMARK 924 INTRA-LIGAND FREE ENERGY PREDICTED BY IDOCK:   -0.79 KCAL/MOL
REMARK 927      BINDING AFFINITY PREDICTED BY RF-SCORE:    0.00 PKD
ROOT
HETATM    1 BR   UNL     1      -7.619   6.713  73.154  1.00  0.00    -0.087 Br 
HETATM    2  C   UNL     2      -8.721   9.884  66.252  1.00  0.00    -0.139 C  
HETATM    3  C   UNL     2      -9.625   8.937  67.088  1.00  0.00    -0.225 C  
HETATM    4  C   UNL     2      -9.253   7.425  67.045  1.00  0.00    -0.142 C  
HETATM    5  C   UNL     2      -7.846   7.106  66.459  1.00  0.00    -0.106 C  
HETATM    6  C   UNL     2      -6.848   9.397  68.020  1.00  0.00    -0.074 C  
HETATM    7  C   UNL     2      -7.151   8.257  65.692  1.00  0.00    -0.071 C  
HETATM    8  C   UNL     2      -8.938   9.576  64.767  1.00  0.00    -0.218 C  
HETATM    9  O   UNL     2      -7.864   9.828  63.845  1.00  0.00    -0.131 OA 
HETATM   10  N   UNL     2      -7.237   9.552  66.553  1.00  0.00    -0.089 N  
HETATM   11  C   UNL     2      -6.299  10.667  66.030  1.00  0.00    -0.132 C  
HETATM   12  C   UNL     2      -7.946   8.522  64.419  1.00  0.00    -0.147 C  
ENDROOT
BRANCH   4  13
HETATM   13  O   UNL     2      -9.338   6.788  68.382  1.00  0.00    -0.127 OA 
BRANCH  13  14
HETATM   14  C   UNL     2     -10.532   6.820  69.063  1.00  0.00    -0.206 C  
HETATM   15  C   UNL     2     -11.304   8.248  71.082  1.00  0.00    -0.298 A  
HETATM   16  O   UNL     2     -11.586   6.582  68.506  1.00  0.00    -0.074 OA 
HETATM   17  C   UNL     2     -10.800   5.769  71.286  1.00  0.00    -0.247 C  
HETATM   18  C   UNL     2     -10.410   7.089  70.591  1.00  0.00    -0.223 C  
HETATM   19  O   UNL     2     -10.046   4.649  70.824  1.00  0.00    -0.224 OA 
HETATM   20  C   UNL     2     -12.147   8.160  72.216  1.00  0.00    -0.419 A  
HETATM   21  C   UNL     2     -13.042   9.185  72.557  1.00  0.00    -0.445 A  
HETATM   22  H   UNL     2     -10.286   3.835  71.251  1.00  0.00     0.000 HD 
HETATM   23  C   UNL     2     -13.077  10.343  71.790  1.00  0.00    -0.567 A  
HETATM   24  C   UNL     2     -12.172  10.505  70.745  1.00  0.00    -0.468 A  
HETATM   25  C   UNL     2     -11.283   9.475  70.408  1.00  0.00    -0.323 A  
ENDBRANCH  13  14
ENDBRANCH   4  13
TORSDOF 2
ENDMDL
MODEL       87
REMARK 921   NORMALIZED FREE ENERGY PREDICTED BY IDOCK:   -4.70 KCAL/MOL
REMARK 922        TOTAL FREE ENERGY PREDICTED BY IDOCK:   -5.95 KCAL/MOL
REMARK 923 INTER-LIGAND FREE ENERGY PREDICTED BY IDOCK:   -5.37 KCAL/MOL
REMARK 924 INTRA-LIGAND FREE ENERGY PREDICTED BY IDOCK:   -0.58 KCAL/MOL
REMARK 927      BINDING AFFINITY PREDICTED BY RF-SCORE:    0.00 PKD
ROOT
HETATM    1 BR   UNL     1      -5.909   6.700  74.121  1.00  0.00    -0.063 Br 
HETATM    2  C   UNL     2      -8.222   5.233  66.952  1.00  0.00    -0.108 C  
HETATM    3  C   UNL     2      -7.756   6.559  67.615  1.00  0.00    -0.106 C  
HETATM    4  C   UNL     2      -8.814   7.291  68.491  1.00  0.00    -0.129 C  
HETATM    5  C   UNL     2     -10.068   6.445  68.862  1.00  0.00    -0.187 C  
HETATM    6  C   UNL     2      -8.216   4.209  69.365  1.00  0.00    -0.058 C  
HETATM    7  C   UNL     2     -10.272   5.140  68.054  1.00  0.00    -0.115 C  
HETATM    8  C   UNL     2      -9.286   5.565  65.901  1.00  0.00    -0.147 C  
HETATM    9  O   UNL     2     -10.282   4.576  65.590  1.00  0.00    -0.237 OA 
HETATM   10  N   UNL     2      -8.925   4.360  68.022  1.00  0.00    -0.113 N  
HETATM   11  C   UNL     2      -9.103   2.904  67.525  1.00  0.00    -0.181 C  
HETATM   12  C   UNL     2     -10.592   5.524  66.614  1.00  0.00    -0.299 C  
ENDROOT
BRANCH   4  13
HETATM   13  O   UNL     2      -8.235   7.813  69.754  1.00  0.00    -0.125 OA 
BRANCH  13  14
HETATM   14  C   UNL     2      -8.696   9.007  70.257  1.00  0.00    -0.184 C  
HETATM   15  C   UNL     2     -11.054  10.078  70.209  1.00  0.00    -0.381 A  
HETATM   16  O   UNL     2      -8.216   9.500  71.259  1.00  0.00    -0.276 OA 
HETATM   17  C   UNL     2      -9.133  10.958  68.802  1.00  0.00    -0.171 C  
HETATM   18  C   UNL     2      -9.795   9.700  69.400  1.00  0.00    -0.203 C  
HETATM   19  O   UNL     2      -7.928  10.674  68.094  1.00  0.00    -0.107 OA 
HETATM   20  C   UNL     2     -11.667  11.353  70.152  1.00  0.00    -0.414 A  
HETATM   21  C   UNL     2     -12.731  11.704  70.997  1.00  0.00    -0.395 A  
HETATM   22  H   UNL     2      -7.520  11.449  67.726  1.00  0.00     0.000 HD 
HETATM   23  C   UNL     2     -13.233  10.764  71.888  1.00  0.00    -0.524 A  
HETATM   24  C   UNL     2     -12.729   9.466  71.876  1.00  0.00    -0.484 A  
HETATM   25  C   UNL     2     -11.664   9.124  71.032  1.00  0.00    -0.363 A  
ENDBRANCH  13  14
ENDBRANCH   4  13
TORSDOF 2
ENDMDL
MODEL       88
REMARK 921   NORMALIZED FREE ENERGY PREDICTED BY IDOCK:   -4.70 KCAL/MOL
REMARK 922        TOTAL FREE ENERGY PREDICTED BY IDOCK:   -5.95 KCAL/MOL
REMARK 923 INTER-LIGAND FREE ENERGY PREDICTED BY IDOCK:   -5.36 KCAL/MOL
REMARK 924 INTRA-LIGAND FREE ENERGY PREDICTED BY IDOCK:   -0.59 KCAL/MOL
REMARK 927      BINDING AFFINITY PREDICTED BY RF-SCORE:    0.00 PKD
ROOT
HETATM    1 BR   UNL     1      -5.621  13.232  70.850  1.00  0.00    -0.170 Br 
HETATM    2  C   UNL     2      -8.973   6.423  69.710  1.00  0.00    -0.141 C  
HETATM    3  C   UNL     2      -8.769   7.626  68.747  1.00  0.00    -0.128 C  
HETATM    4  C   UNL     2      -9.766   8.810  68.915  1.00  0.00    -0.172 C  
HETATM    5  C   UNL     2     -10.607   8.786  70.225  1.00  0.00    -0.239 C  
HETATM    6  C   UNL     2      -8.129   8.011  71.617  1.00  0.00    -0.114 C  
HETATM    7  C   UNL     2     -10.606   7.453  71.012  1.00  0.00    -0.224 C  
HETATM    8  C   UNL     2     -10.295   5.737  69.354  1.00  0.00    -0.262 C  
HETATM    9  O   UNL     2     -11.010   5.038  70.387  1.00  0.00     0.037 OA 
HETATM   10  N   UNL     2      -9.135   6.961  71.154  1.00  0.00    -0.150 N  
HETATM   11  C   UNL     2      -8.996   5.821  72.193  1.00  0.00    -0.136 C  
HETATM   12  C   UNL     2     -11.339   6.411  70.174  1.00  0.00    -0.420 C  
ENDROOT
BRANCH   4  13
HETATM   13  O   UNL     2      -9.091  10.129  68.838  1.00  0.00    -0.146 OA 
BRANCH  13  14
HETATM   14  C   UNL     2      -9.419  10.988  67.815  1.00  0.00    -0.162 C  
HETATM   15  C   UNL     2      -9.526  13.575  67.732  1.00  0.00    -0.216 A  
HETATM   16  O   UNL     2      -9.189  10.709  66.655  1.00  0.00    -0.160 OA 
HETATM   17  C   UNL     2     -11.612  12.127  67.715  1.00  0.00    -0.342 C  
HETATM   18  C   UNL     2     -10.175  12.275  68.255  1.00  0.00    -0.221 C  
HETATM   19  O   UNL     2     -12.239  10.910  68.117  1.00  0.00    -0.781 OA 
HETATM   20  C   UNL     2     -10.254  14.612  67.100  1.00  0.00    -0.256 A  
HETATM   21  C   UNL     2      -9.615  15.719  66.521  1.00  0.00    -0.288 A  
HETATM   22  H   UNL     2     -13.124  10.819  67.783  1.00  0.00     0.000 HD 
HETATM   23  C   UNL     2      -8.233  15.832  66.606  1.00  0.00    -0.305 A  
HETATM   24  C   UNL     2      -7.509  14.888  67.329  1.00  0.00    -0.193 A  
HETATM   25  C   UNL     2      -8.152  13.783  67.901  1.00  0.00    -0.166 A  
ENDBRANCH  13  14
ENDBRANCH   4  13
TORSDOF 2
ENDMDL
MODEL       89
REMARK 921   NORMALIZED FREE ENERGY PREDICTED BY IDOCK:   -4.68 KCAL/MOL
REMARK 922        TOTAL FREE ENERGY PREDICTED BY IDOCK:   -5.93 KCAL/MOL
REMARK 923 INTER-LIGAND FREE ENERGY PREDICTED BY IDOCK:   -5.72 KCAL/MOL
REMARK 924 INTRA-LIGAND FREE ENERGY PREDICTED BY IDOCK:   -0.21 KCAL/MOL
REMARK 927      BINDING AFFINITY PREDICTED BY RF-SCORE:    0.00 PKD
ROOT
HETATM    1 BR   UNL     1      -8.242  10.201  64.988  1.00  0.00    -0.157 Br 
HETATM    2  C   UNL     2     -11.392   6.944  71.182  1.00  0.00    -0.290 C  
HETATM    3  C   UNL     2     -11.726   8.277  70.458  1.00  0.00    -0.067 C  
HETATM    4  C   UNL     2     -10.788   9.479  70.775  1.00  0.00    -0.318 C  
HETATM    5  C   UNL     2      -9.458   9.109  71.496  1.00  0.00    -0.239 C  
HETATM    6  C   UNL     2      -9.273   6.824  69.644  1.00  0.00    -0.145 C  
HETATM    7  C   UNL     2      -9.386   7.687  72.105  1.00  0.00    -0.145 C  
HETATM    8  C   UNL     2     -11.655   7.127  72.680  1.00  0.00    -0.188 C  
HETATM    9  O   UNL     2     -10.899   6.338  73.616  1.00  0.00    -0.242 OA 
HETATM   10  N   UNL     2      -9.875   6.664  71.037  1.00  0.00    -0.182 N  
HETATM   11  C   UNL     2      -9.537   5.203  71.427  1.00  0.00    -0.161 C  
HETATM   12  C   UNL     2     -10.376   7.620  73.262  1.00  0.00    -0.345 C  
ENDROOT
BRANCH   4  13
HETATM   13  O   UNL     2     -10.439  10.255  69.559  1.00  0.00    -0.214 OA 
BRANCH  13  14
HETATM   14  C   UNL     2     -11.293  11.244  69.131  1.00  0.00    -0.282 C  
HETATM   15  C   UNL     2     -10.996  13.815  69.009  1.00  0.00    -0.277 A  
HETATM   16  O   UNL     2     -12.104  11.043  68.249  1.00  0.00    -0.604 OA 
HETATM   17  C   UNL     2     -12.509  12.701  70.717  1.00  0.00    -0.270 C  
HETATM   18  C   UNL     2     -11.195  12.583  69.918  1.00  0.00     0.088 C  
HETATM   19  O   UNL     2     -12.775  11.558  71.529  1.00  0.00    -0.377 OA 
HETATM   20  C   UNL     2     -11.759  15.002  69.124  1.00  0.00    -0.345 A  
HETATM   21  C   UNL     2     -11.641  16.052  68.200  1.00  0.00    -0.183 A  
HETATM   22  H   UNL     2     -13.585  11.631  72.021  1.00  0.00     0.000 HD 
HETATM   23  C   UNL     2     -10.722  15.949  67.164  1.00  0.00    -0.301 A  
HETATM   24  C   UNL     2      -9.875  14.846  67.102  1.00  0.00    -0.231 A  
HETATM   25  C   UNL     2     -10.000  13.800  68.026  1.00  0.00    -0.246 A  
ENDBRANCH  13  14
ENDBRANCH   4  13
TORSDOF 2
ENDMDL
MODEL       90
REMARK 921   NORMALIZED FREE ENERGY PREDICTED BY IDOCK:   -4.65 KCAL/MOL
REMARK 922        TOTAL FREE ENERGY PREDICTED BY IDOCK:   -5.90 KCAL/MOL
REMARK 923 INTER-LIGAND FREE ENERGY PREDICTED BY IDOCK:   -5.20 KCAL/MOL
REMARK 924 INTRA-LIGAND FREE ENERGY PREDICTED BY IDOCK:   -0.70 KCAL/MOL
REMARK 927      BINDING AFFINITY PREDICTED BY RF-SCORE:    0.00 PKD
ROOT
HETATM    1 BR   UNL     1      -5.631  12.794  70.472  1.00  0.00    -0.172 Br 
HETATM    2  C   UNL     2     -10.600   6.981  71.119  1.00  0.00    -0.217 C  
HETATM    3  C   UNL     2     -10.303   7.932  69.927  1.00  0.00    -0.224 C  
HETATM    4  C   UNL     2     -10.957   9.343  70.002  1.00  0.00    -0.239 C  
HETATM    5  C   UNL     2     -11.531   9.734  71.396  1.00  0.00    -0.435 C  
HETATM    6  C   UNL     2      -9.086   8.567  72.556  1.00  0.00    -0.214 C  
HETATM    7  C   UNL     2     -11.693   8.579  72.414  1.00  0.00    -0.358 C  
HETATM    8  C   UNL     2     -12.086   6.611  71.086  1.00  0.00    -0.335 C  
HETATM    9  O   UNL     2     -12.744   6.282  72.322  1.00  0.00    -0.172 OA 
HETATM   10  N   UNL     2     -10.373   7.753  72.443  1.00  0.00    -0.232 N  
HETATM   11  C   UNL     2     -10.313   6.785  73.651  1.00  0.00    -0.344 C  
HETATM   12  C   UNL     2     -12.783   7.646  71.899  1.00  0.00    -0.293 C  
ENDROOT
BRANCH   4  13
HETATM   13  O   UNL     2     -10.024  10.418  69.584  1.00  0.00    -0.229 OA 
BRANCH  13  14
HETATM   14  C   UNL     2      -9.929  10.738  68.250  1.00  0.00    -0.168 C  
HETATM   15  C   UNL     2      -8.197  10.049  66.451  1.00  0.00    -0.119 A  
HETATM   16  O   UNL     2     -10.919  10.951  67.577  1.00  0.00    -0.254 OA 
HETATM   17  C   UNL     2      -8.294  12.396  67.415  1.00  0.00    -0.180 C  
HETATM   18  C   UNL     2      -8.477  10.894  67.713  1.00  0.00    -0.124 C  
HETATM   19  O   UNL     2      -8.601  13.230  68.532  1.00  0.00    -0.279 OA 
HETATM   20  C   UNL     2      -7.576  10.564  65.288  1.00  0.00    -0.074 A  
HETATM   21  C   UNL     2      -7.455   9.805  64.114  1.00  0.00    -0.135 A  
HETATM   22  H   UNL     2      -8.489  14.155  68.348  1.00  0.00     0.000 HD 
HETATM   23  C   UNL     2      -7.915   8.495  64.098  1.00  0.00    -0.150 A  
HETATM   24  C   UNL     2      -8.416   7.927  65.266  1.00  0.00    -0.119 A  
HETATM   25  C   UNL     2      -8.537   8.692  66.433  1.00  0.00    -0.130 A  
ENDBRANCH  13  14
ENDBRANCH   4  13
TORSDOF 2
ENDMDL
MODEL       91
REMARK 921   NORMALIZED FREE ENERGY PREDICTED BY IDOCK:   -4.62 KCAL/MOL
REMARK 922        TOTAL FREE ENERGY PREDICTED BY IDOCK:   -5.86 KCAL/MOL
REMARK 923 INTER-LIGAND FREE ENERGY PREDICTED BY IDOCK:   -5.44 KCAL/MOL
REMARK 924 INTRA-LIGAND FREE ENERGY PREDICTED BY IDOCK:   -0.43 KCAL/MOL
REMARK 927      BINDING AFFINITY PREDICTED BY RF-SCORE:    0.00 PKD
ROOT
HETATM    1 BR   UNL     1     -12.254  14.007  64.332  1.00  0.00    -0.427 Br 
HETATM    2  C   UNL     2      -8.555   7.369  65.402  1.00  0.00    -0.041 C  
HETATM    3  C   UNL     2      -9.486   8.174  66.350  1.00  0.00    -0.285 C  
HETATM    4  C   UNL     2      -8.836   9.392  67.071  1.00  0.00    -0.127 C  
HETATM    5  C   UNL     2      -7.460   9.843  66.498  1.00  0.00    -0.100 C  
HETATM    6  C   UNL     2      -8.624   9.457  63.819  1.00  0.00    -0.211 C  
HETATM    7  C   UNL     2      -6.760   8.846  65.542  1.00  0.00    -0.072 C  
HETATM    8  C   UNL     2      -7.491   6.666  66.251  1.00  0.00    -0.081 C  
HETATM    9  O   UNL     2      -6.212   6.382  65.657  1.00  0.00    -0.035 OA 
HETATM   10  N   UNL     2      -7.796   8.361  64.486  1.00  0.00    -0.128 N  
HETATM   11  C   UNL     2      -7.124   7.624  63.300  1.00  0.00    -0.071 C  
HETATM   12  C   UNL     2      -6.354   7.621  66.353  1.00  0.00    -0.046 C  
ENDROOT
BRANCH   4  13
HETATM   13  O   UNL     2      -9.727  10.578  67.085  1.00  0.00    -0.165 OA 
BRANCH  13  14
HETATM   14  C   UNL     2      -9.792  11.351  68.220  1.00  0.00    -0.200 C  
HETATM   15  C   UNL     2     -11.822  12.244  69.559  1.00  0.00    -0.380 A  
HETATM   16  O   UNL     2      -8.932  11.293  69.077  1.00  0.00    -0.096 OA 
HETATM   17  C   UNL     2     -10.363  13.756  68.135  1.00  0.00    -0.252 C  
HETATM   18  C   UNL     2     -10.984  12.351  68.267  1.00  0.00    -0.269 C  
HETATM   19  O   UNL     2      -9.525  13.893  66.988  1.00  0.00    -0.236 OA 
HETATM   20  C   UNL     2     -12.201  13.363  70.339  1.00  0.00    -0.415 A  
HETATM   21  C   UNL     2     -12.851  13.219  71.575  1.00  0.00    -0.419 A  
HETATM   22  H   UNL     2      -9.142  14.758  66.907  1.00  0.00     0.000 HD 
HETATM   23  C   UNL     2     -13.175  11.948  72.032  1.00  0.00    -0.461 A  
HETATM   24  C   UNL     2     -12.923  10.842  71.226  1.00  0.00    -0.502 A  
HETATM   25  C   UNL     2     -12.271  10.992  69.995  1.00  0.00    -0.418 A  
ENDBRANCH  13  14
ENDBRANCH   4  13
TORSDOF 2
ENDMDL
MODEL       92
REMARK 921   NORMALIZED FREE ENERGY PREDICTED BY IDOCK:   -4.62 KCAL/MOL
REMARK 922        TOTAL FREE ENERGY PREDICTED BY IDOCK:   -5.86 KCAL/MOL
REMARK 923 INTER-LIGAND FREE ENERGY PREDICTED BY IDOCK:   -5.67 KCAL/MOL
REMARK 924 INTRA-LIGAND FREE ENERGY PREDICTED BY IDOCK:   -0.19 KCAL/MOL
REMARK 927      BINDING AFFINITY PREDICTED BY RF-SCORE:    0.00 PKD
ROOT
HETATM    1 BR   UNL     1      -8.029  12.661  67.831  1.00  0.00    -0.171 Br 
HETATM    2  C   UNL     2     -10.144   6.055  71.114  1.00  0.00    -0.194 C  
HETATM    3  C   UNL     2     -10.985   7.138  70.383  1.00  0.00    -0.290 C  
HETATM    4  C   UNL     2     -11.334   8.406  71.216  1.00  0.00    -0.266 C  
HETATM    5  C   UNL     2     -10.523   8.577  72.534  1.00  0.00    -0.303 C  
HETATM    6  C   UNL     2      -8.149   7.751  70.996  1.00  0.00    -0.098 C  
HETATM    7  C   UNL     2      -9.743   7.331  73.020  1.00  0.00    -0.186 C  
HETATM    8  C   UNL     2     -11.003   5.442  72.225  1.00  0.00    -0.216 C  
HETATM    9  O   UNL     2     -10.349   4.905  73.387  1.00  0.00    -0.164 OA 
HETATM   10  N   UNL     2      -8.947   6.743  71.818  1.00  0.00    -0.140 N  
HETATM   11  C   UNL     2      -7.891   5.702  72.267  1.00  0.00    -0.103 C  
HETATM   12  C   UNL     2     -10.758   6.273  73.435  1.00  0.00    -0.259 C  
ENDROOT
BRANCH   4  13
HETATM   13  O   UNL     2     -11.181   9.655  70.429  1.00  0.00    -0.248 OA 
BRANCH  13  14
HETATM   14  C   UNL     2     -12.244  10.522  70.339  1.00  0.00    -0.328 C  
HETATM   15  C   UNL     2     -12.547  12.942  71.214  1.00  0.00    -0.352 A  
HETATM   16  O   UNL     2     -12.999  10.503  69.388  1.00  0.00     0.015 OA 
HETATM   17  C   UNL     2     -13.741  10.961  72.259  1.00  0.00     0.280 C  
HETATM   18  C   UNL     2     -12.446  11.445  71.576  1.00  0.00    -0.305 C  
HETATM   19  O   UNL     2     -13.727   9.566  72.561  1.00  0.00    -0.658 OA 
HETATM   20  C   UNL     2     -13.559  13.799  71.708  1.00  0.00    -0.450 A  
HETATM   21  C   UNL     2     -13.698  15.121  71.256  1.00  0.00    -0.555 A  
HETATM   22  H   UNL     2     -14.526   9.268  72.981  1.00  0.00     0.000 HD 
HETATM   23  C   UNL     2     -12.793  15.624  70.330  1.00  0.00    -0.252 A  
HETATM   24  C   UNL     2     -11.717  14.840  69.923  1.00  0.00    -0.352 A  
HETATM   25  C   UNL     2     -11.586  13.521  70.375  1.00  0.00    -0.078 A  
ENDBRANCH  13  14
ENDBRANCH   4  13
TORSDOF 2
ENDMDL
MODEL       93
REMARK 921   NORMALIZED FREE ENERGY PREDICTED BY IDOCK:   -4.62 KCAL/MOL
REMARK 922        TOTAL FREE ENERGY PREDICTED BY IDOCK:   -5.86 KCAL/MOL
REMARK 923 INTER-LIGAND FREE ENERGY PREDICTED BY IDOCK:   -5.24 KCAL/MOL
REMARK 924 INTRA-LIGAND FREE ENERGY PREDICTED BY IDOCK:   -0.63 KCAL/MOL
REMARK 927      BINDING AFFINITY PREDICTED BY RF-SCORE:    0.00 PKD
ROOT
HETATM    1 BR   UNL     1     -11.404  12.272  67.759  1.00  0.00    -0.388 Br 
HETATM    2  C   UNL     2      -8.101  19.025  66.216  1.00  0.00    -0.285 C  
HETATM    3  C   UNL     2      -7.546  17.578  66.107  1.00  0.00    -0.320 C  
HETATM    4  C   UNL     2      -7.077  16.927  67.442  1.00  0.00    -0.158 C  
HETATM    5  C   UNL     2      -7.532  17.665  68.735  1.00  0.00    -0.255 C  
HETATM    6  C   UNL     2     -10.163  17.973  67.445  1.00  0.00    -0.363 C  
HETATM    7  C   UNL     2      -8.080  19.100  68.543  1.00  0.00    -0.359 C  
HETATM    8  C   UNL     2      -6.948  19.958  66.601  1.00  0.00    -0.221 C  
HETATM    9  O   UNL     2      -7.247  21.158  67.336  1.00  0.00    -0.438 OA 
HETATM   10  N   UNL     2      -9.118  19.084  67.383  1.00  0.00    -0.291 N  
HETATM   11  C   UNL     2      -9.956  20.386  67.327  1.00  0.00    -0.424 C  
HETATM   12  C   UNL     2      -6.927  19.987  68.089  1.00  0.00    -0.295 C  
ENDROOT
BRANCH   4  13
HETATM   13  O   UNL     2      -7.506  15.511  67.558  1.00  0.00    -0.147 OA 
BRANCH  13  14
HETATM   14  C   UNL     2      -6.552  14.536  67.731  1.00  0.00    -0.172 C  
HETATM   15  C   UNL     2      -6.772  11.973  68.036  1.00  0.00    -0.070 A  
HETATM   16  O   UNL     2      -5.446  14.636  67.237  1.00  0.00    -0.291 OA 
HETATM   17  C   UNL     2      -6.109  13.516  69.940  1.00  0.00    -0.127 C  
HETATM   18  C   UNL     2      -6.970  13.367  68.669  1.00  0.00    -0.101 C  
HETATM   19  O   UNL     2      -6.206  14.810  70.534  1.00  0.00    -0.169 OA 
HETATM   20  C   UNL     2      -6.128  10.899  68.696  1.00  0.00    -0.043 A  
HETATM   21  C   UNL     2      -5.849   9.688  68.045  1.00  0.00    -0.040 A  
HETATM   22  H   UNL     2      -5.675  14.901  71.316  1.00  0.00     0.000 HD 
HETATM   23  C   UNL     2      -6.253   9.513  66.727  1.00  0.00    -0.065 A  
HETATM   24  C   UNL     2      -6.995  10.507  66.097  1.00  0.00    -0.131 A  
HETATM   25  C   UNL     2      -7.267  11.715  66.752  1.00  0.00    -0.082 A  
ENDBRANCH  13  14
ENDBRANCH   4  13
TORSDOF 2
ENDMDL
MODEL       94
REMARK 921   NORMALIZED FREE ENERGY PREDICTED BY IDOCK:   -4.53 KCAL/MOL
REMARK 922        TOTAL FREE ENERGY PREDICTED BY IDOCK:   -5.76 KCAL/MOL
REMARK 923 INTER-LIGAND FREE ENERGY PREDICTED BY IDOCK:   -5.01 KCAL/MOL
REMARK 924 INTRA-LIGAND FREE ENERGY PREDICTED BY IDOCK:   -0.75 KCAL/MOL
REMARK 927      BINDING AFFINITY PREDICTED BY RF-SCORE:    0.00 PKD
ROOT
HETATM    1 BR   UNL     1     -12.771  12.006  63.221  1.00  0.00    -0.155 Br 
HETATM    2  C   UNL     2     -10.710   8.967  69.961  1.00  0.00    -0.229 C  
HETATM    3  C   UNL     2     -11.249  10.382  69.609  1.00  0.00    -0.333 C  
HETATM    4  C   UNL     2     -10.211  11.377  69.012  1.00  0.00    -0.117 C  
HETATM    5  C   UNL     2      -8.876  10.735  68.535  1.00  0.00    -0.149 C  
HETATM    6  C   UNL     2     -10.511   8.575  67.377  1.00  0.00    -0.280 C  
HETATM    7  C   UNL     2      -8.607   9.287  69.014  1.00  0.00    -0.134 C  
HETATM    8  C   UNL     2      -9.732   9.099  71.132  1.00  0.00    -0.290 C  
HETATM    9  O   UNL     2      -8.675   8.132  71.261  1.00  0.00    -0.128 OA 
HETATM   10  N   UNL     2      -9.886   8.435  68.762  1.00  0.00    -0.169 N  
HETATM   11  C   UNL     2      -9.615   6.916  68.901  1.00  0.00    -0.139 C  
HETATM   12  C   UNL     2      -8.393   9.322  70.522  1.00  0.00    -0.205 C  
ENDROOT
BRANCH   4  13
HETATM   13  O   UNL     2     -10.766  12.155  67.878  1.00  0.00    -0.196 OA 
BRANCH  13  14
HETATM   14  C   UNL     2     -10.242  13.395  67.598  1.00  0.00    -0.228 C  
HETATM   15  C   UNL     2      -8.578  14.879  68.919  1.00  0.00    -0.177 A  
HETATM   16  O   UNL     2     -10.049  13.759  66.455  1.00  0.00    -0.279 OA 
HETATM   17  C   UNL     2     -11.047  15.442  68.730  1.00  0.00    -0.283 C  
HETATM   18  C   UNL     2     -10.010  14.306  68.839  1.00  0.00    -0.160 C  
HETATM   19  O   UNL     2     -12.385  14.968  68.590  1.00  0.00    -0.585 OA 
HETATM   20  C   UNL     2      -8.296  16.245  69.158  1.00  0.00    -0.211 A  
HETATM   21  C   UNL     2      -6.990  16.754  69.095  1.00  0.00    -0.231 A  
HETATM   22  H   UNL     2     -13.024  15.668  68.523  1.00  0.00     0.000 HD 
HETATM   23  C   UNL     2      -5.933  15.892  68.835  1.00  0.00    -0.113 A  
HETATM   24  C   UNL     2      -6.172  14.525  68.718  1.00  0.00    -0.087 A  
HETATM   25  C   UNL     2      -7.479  14.024  68.779  1.00  0.00    -0.124 A  
ENDBRANCH  13  14
ENDBRANCH   4  13
TORSDOF 2
ENDMDL
MODEL       95
REMARK 921   NORMALIZED FREE ENERGY PREDICTED BY IDOCK:   -4.51 KCAL/MOL
REMARK 922        TOTAL FREE ENERGY PREDICTED BY IDOCK:   -5.73 KCAL/MOL
REMARK 923 INTER-LIGAND FREE ENERGY PREDICTED BY IDOCK:   -5.59 KCAL/MOL
REMARK 924 INTRA-LIGAND FREE ENERGY PREDICTED BY IDOCK:   -0.14 KCAL/MOL
REMARK 927      BINDING AFFINITY PREDICTED BY RF-SCORE:    0.00 PKD
ROOT
HETATM    1 BR   UNL     1     -12.530  12.038  63.464  1.00  0.00    -0.545 Br 
HETATM    2  C   UNL     2     -11.173   9.074  70.411  1.00  0.00    -0.241 C  
HETATM    3  C   UNL     2     -11.473  10.535  69.974  1.00  0.00    -0.393 C  
HETATM    4  C   UNL     2     -10.274  11.325  69.370  1.00  0.00     0.051 C  
HETATM    5  C   UNL     2      -9.042  10.459  68.974  1.00  0.00    -0.193 C  
HETATM    6  C   UNL     2     -10.961   8.521  67.858  1.00  0.00     0.165 C  
HETATM    7  C   UNL     2      -9.018   9.014  69.530  1.00  0.00    -0.147 C  
HETATM    8  C   UNL     2     -10.221   9.114  71.611  1.00  0.00    -0.301 C  
HETATM    9  O   UNL     2      -9.333   8.003  71.825  1.00  0.00    -0.145 OA 
HETATM   10  N   UNL     2     -10.406   8.359  69.271  1.00  0.00    -0.213 N  
HETATM   11  C   UNL     2     -10.381   6.826  69.491  1.00  0.00    -0.202 C  
HETATM   12  C   UNL     2      -8.846   9.095  71.042  1.00  0.00    -0.202 C  
ENDROOT
BRANCH   4  13
HETATM   13  O   UNL     2     -10.667  12.119  68.180  1.00  0.00    -0.196 OA 
BRANCH  13  14
HETATM   14  C   UNL     2      -9.866  13.163  67.780  1.00  0.00    -0.228 C  
HETATM   15  C   UNL     2     -10.460  15.543  66.946  1.00  0.00    -0.301 A  
HETATM   16  O   UNL     2      -8.760  13.333  68.255  1.00  0.00    -0.176 OA 
HETATM   17  C   UNL     2      -9.567  13.743  65.395  1.00  0.00     0.090 C  
HETATM   18  C   UNL     2     -10.447  14.032  66.627  1.00  0.00    -0.272 C  
HETATM   19  O   UNL     2      -9.468  12.352  65.091  1.00  0.00    -0.450 OA 
HETATM   20  C   UNL     2      -9.978  16.533  66.057  1.00  0.00    -0.359 A  
HETATM   21  C   UNL     2      -9.885  17.883  66.430  1.00  0.00    -0.339 A  
HETATM   22  H   UNL     2      -8.926  12.174  64.332  1.00  0.00     0.000 HD 
HETATM   23  C   UNL     2     -10.317  18.274  67.691  1.00  0.00    -0.414 A  
HETATM   24  C   UNL     2     -10.908  17.339  68.537  1.00  0.00    -0.240 A  
HETATM   25  C   UNL     2     -10.995  15.993  68.159  1.00  0.00    -0.339 A  
ENDBRANCH  13  14
ENDBRANCH   4  13
TORSDOF 2
ENDMDL
MODEL       96
REMARK 921   NORMALIZED FREE ENERGY PREDICTED BY IDOCK:   -4.50 KCAL/MOL
REMARK 922        TOTAL FREE ENERGY PREDICTED BY IDOCK:   -5.73 KCAL/MOL
REMARK 923 INTER-LIGAND FREE ENERGY PREDICTED BY IDOCK:   -5.51 KCAL/MOL
REMARK 924 INTRA-LIGAND FREE ENERGY PREDICTED BY IDOCK:   -0.22 KCAL/MOL
REMARK 927      BINDING AFFINITY PREDICTED BY RF-SCORE:    0.00 PKD
ROOT
HETATM    1 BR   UNL     1     -13.296  15.714  72.456  1.00  0.00    -0.629 Br 
HETATM    2  C   UNL     2      -9.662  19.466  66.834  1.00  0.00    -0.343 C  
HETATM    3  C   UNL     2     -10.659  18.276  66.778  1.00  0.00    -0.338 C  
HETATM    4  C   UNL     2     -10.065  16.873  67.099  1.00  0.00    -0.287 C  
HETATM    5  C   UNL     2      -8.653  16.886  67.756  1.00  0.00    -0.208 C  
HETATM    6  C   UNL     2      -9.626  19.107  69.430  1.00  0.00    -0.044 C  
HETATM    7  C   UNL     2      -7.885  18.229  67.694  1.00  0.00    -0.229 C  
HETATM    8  C   UNL     2      -8.657  19.310  65.688  1.00  0.00     0.468 C  
HETATM    9  O   UNL     2      -7.339  19.864  65.845  1.00  0.00    -0.297 OA 
HETATM   10  N   UNL     2      -8.843  19.370  68.146  1.00  0.00    -0.322 N  
HETATM   11  C   UNL     2      -8.088  20.692  68.430  1.00  0.00     0.465 C  
HETATM   12  C   UNL     2      -7.533  18.503  66.236  1.00  0.00    -0.257 C  
ENDROOT
BRANCH   4  13
HETATM   13  O   UNL     2     -10.958  16.070  67.969  1.00  0.00    -0.325 OA 
BRANCH  13  14
HETATM   14  C   UNL     2     -11.310  14.800  67.575  1.00  0.00    -0.344 C  
HETATM   15  C   UNL     2     -10.961  12.503  68.720  1.00  0.00    -0.294 A  
HETATM   16  O   UNL     2     -12.301  14.597  66.902  1.00  0.00    -0.234 OA 
HETATM   17  C   UNL     2      -9.653  13.207  66.661  1.00  0.00    -0.260 C  
HETATM   18  C   UNL     2     -10.302  13.684  67.976  1.00  0.00    -0.250 C  
HETATM   19  O   UNL     2      -9.081  14.270  65.901  1.00  0.00    -0.498 OA 
HETATM   20  C   UNL     2     -10.737  11.146  68.385  1.00  0.00    -0.234 A  
HETATM   21  C   UNL     2     -11.451  10.103  68.995  1.00  0.00    -0.138 A  
HETATM   22  H   UNL     2      -8.682  13.976  65.091  1.00  0.00     0.000 HD 
HETATM   23  C   UNL     2     -12.376  10.399  69.989  1.00  0.00    -0.229 A  
HETATM   24  C   UNL     2     -12.524  11.714  70.421  1.00  0.00    -0.304 A  
HETATM   25  C   UNL     2     -11.811  12.751  69.805  1.00  0.00    -0.380 A  
ENDBRANCH  13  14
ENDBRANCH   4  13
TORSDOF 2
ENDMDL
MODEL       97
REMARK 921   NORMALIZED FREE ENERGY PREDICTED BY IDOCK:   -4.47 KCAL/MOL
REMARK 922        TOTAL FREE ENERGY PREDICTED BY IDOCK:   -5.69 KCAL/MOL
REMARK 923 INTER-LIGAND FREE ENERGY PREDICTED BY IDOCK:   -5.39 KCAL/MOL
REMARK 924 INTRA-LIGAND FREE ENERGY PREDICTED BY IDOCK:   -0.30 KCAL/MOL
REMARK 927      BINDING AFFINITY PREDICTED BY RF-SCORE:    0.00 PKD
ROOT
HETATM    1 BR   UNL     1      -6.194  10.378  70.534  1.00  0.00    -0.084 Br 
HETATM    2  C   UNL     2     -10.178  16.698  68.777  1.00  0.00    -0.288 C  
HETATM    3  C   UNL     2     -10.604  15.204  68.797  1.00  0.00    -0.236 C  
HETATM    4  C   UNL     2     -10.173  14.357  67.563  1.00  0.00    -0.240 C  
HETATM    5  C   UNL     2      -9.098  15.016  66.650  1.00  0.00    -0.309 C  
HETATM    6  C   UNL     2      -7.726  15.838  69.124  1.00  0.00    -0.220 C  
HETATM    7  C   UNL     2      -8.850  16.528  66.871  1.00  0.00    -0.208 C  
HETATM    8  C   UNL     2     -10.947  17.407  67.658  1.00  0.00    -0.125 C  
HETATM    9  O   UNL     2     -10.350  18.555  67.030  1.00  0.00    -0.361 OA 
HETATM   10  N   UNL     2      -8.678  16.784  68.397  1.00  0.00    -0.227 N  
HETATM   11  C   UNL     2      -8.107  18.194  68.694  1.00  0.00    -0.288 C  
HETATM   12  C   UNL     2     -10.104  17.279  66.438  1.00  0.00    -0.316 C  
ENDROOT
BRANCH   4  13
HETATM   13  O   UNL     2      -9.673  13.015  67.951  1.00  0.00    -0.205 OA 
BRANCH  13  14
HETATM   14  C   UNL     2      -9.280  12.139  66.967  1.00  0.00    -0.202 C  
HETATM   15  C   UNL     2      -8.693   9.617  67.066  1.00  0.00    -0.135 A  
HETATM   16  O   UNL     2      -9.659  12.263  65.819  1.00  0.00    -0.241 OA 
HETATM   17  C   UNL     2      -6.929  11.411  66.725  1.00  0.00    -0.128 C  
HETATM   18  C   UNL     2      -8.259  11.056  67.420  1.00  0.00    -0.122 C  
HETATM   19  O   UNL     2      -6.510  12.753  66.968  1.00  0.00    -0.442 OA 
HETATM   20  C   UNL     2      -7.841   8.675  66.440  1.00  0.00    -0.099 A  
HETATM   21  C   UNL     2      -8.307   7.422  66.015  1.00  0.00    -0.143 A  
HETATM   22  H   UNL     2      -5.691  12.971  66.539  1.00  0.00     0.000 HD 
HETATM   23  C   UNL     2      -9.630   7.070  66.250  1.00  0.00    -0.094 A  
HETATM   24  C   UNL     2     -10.453   7.929  66.973  1.00  0.00    -0.419 A  
HETATM   25  C   UNL     2      -9.983   9.180  67.391  1.00  0.00    -0.262 A  
ENDBRANCH  13  14
ENDBRANCH   4  13
TORSDOF 2
ENDMDL
MODEL       98
REMARK 921   NORMALIZED FREE ENERGY PREDICTED BY IDOCK:   -4.46 KCAL/MOL
REMARK 922        TOTAL FREE ENERGY PREDICTED BY IDOCK:   -5.69 KCAL/MOL
REMARK 923 INTER-LIGAND FREE ENERGY PREDICTED BY IDOCK:   -5.00 KCAL/MOL
REMARK 924 INTRA-LIGAND FREE ENERGY PREDICTED BY IDOCK:   -0.69 KCAL/MOL
REMARK 927      BINDING AFFINITY PREDICTED BY RF-SCORE:    0.00 PKD
ROOT
HETATM    1 BR   UNL     1     -10.980   6.655  67.182  1.00  0.00    -0.422 Br 
HETATM    2  C   UNL     2      -9.900  14.140  65.875  1.00  0.00    -0.289 C  
HETATM    3  C   UNL     2      -9.101  13.140  66.756  1.00  0.00    -0.214 C  
HETATM    4  C   UNL     2      -9.718  12.816  68.149  1.00  0.00    -0.223 C  
HETATM    5  C   UNL     2     -11.198  13.261  68.338  1.00  0.00    -0.314 C  
HETATM    6  C   UNL     2     -11.688  12.241  65.618  1.00  0.00    -0.382 C  
HETATM    7  C   UNL     2     -11.752  14.250  67.283  1.00  0.00    -0.395 C  
HETATM    8  C   UNL     2      -9.848  15.520  66.540  1.00  0.00    -0.264 C  
HETATM    9  O   UNL     2     -10.933  16.436  66.315  1.00  0.00    -0.129 OA 
HETATM   10  N   UNL     2     -11.390  13.717  65.866  1.00  0.00    -0.304 N  
HETATM   11  C   UNL     2     -12.171  14.451  64.747  1.00  0.00    -0.446 C  
HETATM   12  C   UNL     2     -11.022  15.577  67.453  1.00  0.00    -0.306 C  
ENDROOT
BRANCH   4  13
HETATM   13  O   UNL     2      -9.637  11.372  68.478  1.00  0.00    -0.185 OA 
BRANCH  13  14
HETATM   14  C   UNL     2      -8.420  10.737  68.405  1.00  0.00    -0.137 C  
HETATM   15  C   UNL     2      -7.372   9.271  66.543  1.00  0.00    -0.092 A  
HETATM   16  O   UNL     2      -7.434  11.191  68.951  1.00  0.00    -0.109 OA 
HETATM   17  C   UNL     2      -8.194   8.297  68.739  1.00  0.00    -0.117 C  
HETATM   18  C   UNL     2      -8.434   9.371  67.659  1.00  0.00    -0.119 C  
HETATM   19  O   UNL     2      -9.112   8.382  69.828  1.00  0.00    -0.150 OA 
HETATM   20  C   UNL     2      -6.498   8.167  66.393  1.00  0.00    -0.051 A  
HETATM   21  C   UNL     2      -5.459   8.167  65.450  1.00  0.00    -0.036 A  
HETATM   22  H   UNL     2      -8.964   7.721  70.493  1.00  0.00     0.000 HD 
HETATM   23  C   UNL     2      -5.304   9.258  64.605  1.00  0.00    -0.053 A  
HETATM   24  C   UNL     2      -6.225  10.301  64.651  1.00  0.00    -0.116 A  
HETATM   25  C   UNL     2      -7.258  10.296  65.597  1.00  0.00    -0.148 A  
ENDBRANCH  13  14
ENDBRANCH   4  13
TORSDOF 2
ENDMDL
MODEL       99
REMARK 921   NORMALIZED FREE ENERGY PREDICTED BY IDOCK:   -4.46 KCAL/MOL
REMARK 922        TOTAL FREE ENERGY PREDICTED BY IDOCK:   -5.68 KCAL/MOL
REMARK 923 INTER-LIGAND FREE ENERGY PREDICTED BY IDOCK:   -5.05 KCAL/MOL
REMARK 924 INTRA-LIGAND FREE ENERGY PREDICTED BY IDOCK:   -0.64 KCAL/MOL
REMARK 927      BINDING AFFINITY PREDICTED BY RF-SCORE:    0.00 PKD
ROOT
HETATM    1 BR   UNL     1      -5.907   6.826  70.773  1.00  0.00    -0.028 Br 
HETATM    2  C   UNL     2     -10.807  11.750  67.510  1.00  0.00    -0.239 C  
HETATM    3  C   UNL     2     -10.977  10.253  67.891  1.00  0.00    -0.350 C  
HETATM    4  C   UNL     2     -10.353   9.223  66.904  1.00  0.00    -0.246 C  
HETATM    5  C   UNL     2      -9.362   9.821  65.862  1.00  0.00    -0.260 C  
HETATM    6  C   UNL     2      -8.265  11.437  68.068  1.00  0.00    -0.140 C  
HETATM    7  C   UNL     2      -9.381  11.362  65.710  1.00  0.00    -0.228 C  
HETATM    8  C   UNL     2     -11.631  12.025  66.249  1.00  0.00    -0.310 C  
HETATM    9  O   UNL     2     -11.206  13.076  65.362  1.00  0.00    -0.285 OA 
HETATM   10  N   UNL     2      -9.326  12.002  67.128  1.00  0.00    -0.182 N  
HETATM   11  C   UNL     2      -9.014  13.518  67.075  1.00  0.00    -0.231 C  
HETATM   12  C   UNL     2     -10.721  11.758  65.101  1.00  0.00    -0.291 C  
ENDROOT
BRANCH   4  13
HETATM   13  O   UNL     2      -9.654   8.121  67.609  1.00  0.00    -0.145 OA 
BRANCH  13  14
HETATM   14  C   UNL     2     -10.104   6.832  67.447  1.00  0.00    -0.175 C  
HETATM   15  C   UNL     2      -9.167   4.579  68.316  1.00  0.00    -0.174 A  
HETATM   16  O   UNL     2     -11.288   6.584  67.332  1.00  0.00    -0.304 OA 
HETATM   17  C   UNL     2      -9.027   5.258  65.874  1.00  0.00    -0.148 C  
HETATM   18  C   UNL     2      -8.987   5.755  67.333  1.00  0.00    -0.108 C  
HETATM   19  O   UNL     2      -8.927   6.313  64.919  1.00  0.00    -0.359 OA 
HETATM   20  C   UNL     2      -9.080   3.219  67.932  1.00  0.00    -0.213 A  
HETATM   21  C   UNL     2      -9.377   2.176  68.822  1.00  0.00    -0.221 A  
HETATM   22  H   UNL     2      -8.952   6.007  64.020  1.00  0.00     0.000 HD 
HETATM   23  C   UNL     2      -9.726   2.476  70.133  1.00  0.00     0.017 A  
HETATM   24  C   UNL     2      -9.699   3.799  70.567  1.00  0.00    -0.230 A  
HETATM   25  C   UNL     2      -9.404   4.835  69.672  1.00  0.00    -0.198 A  
ENDBRANCH  13  14
ENDBRANCH   4  13
TORSDOF 2
ENDMDL
MODEL      100
REMARK 921   NORMALIZED FREE ENERGY PREDICTED BY IDOCK:   -4.46 KCAL/MOL
REMARK 922        TOTAL FREE ENERGY PREDICTED BY IDOCK:   -5.68 KCAL/MOL
REMARK 923 INTER-LIGAND FREE ENERGY PREDICTED BY IDOCK:   -4.88 KCAL/MOL
REMARK 924 INTRA-LIGAND FREE ENERGY PREDICTED BY IDOCK:   -0.80 KCAL/MOL
REMARK 927      BINDING AFFINITY PREDICTED BY RF-SCORE:    0.00 PKD
ROOT
HETATM    1 BR   UNL     1     -12.916  13.808  71.440  1.00  0.00    -0.424 Br 
HETATM    2  C   UNL     2      -9.891   6.792  72.160  1.00  0.00    -0.148 C  
HETATM    3  C   UNL     2      -9.254   8.125  71.680  1.00  0.00    -0.220 C  
HETATM    4  C   UNL     2      -9.566   8.539  70.212  1.00  0.00    -0.167 C  
HETATM    5  C   UNL     2     -10.730   7.756  69.536  1.00  0.00    -0.200 C  
HETATM    6  C   UNL     2     -12.191   8.045  72.078  1.00  0.00    -0.331 C  
HETATM    7  C   UNL     2     -11.191   6.466  70.256  1.00  0.00    -0.382 C  
HETATM    8  C   UNL     2      -9.238   5.639  71.392  1.00  0.00    -0.146 C  
HETATM    9  O   UNL     2      -9.997   4.436  71.174  1.00  0.00    -0.190 OA 
HETATM   10  N   UNL     2     -11.389   6.784  71.768  1.00  0.00    -0.257 N  
HETATM   11  C   UNL     2     -12.155   5.659  72.508  1.00  0.00     0.017 C  
HETATM   12  C   UNL     2     -10.061   5.447  70.166  1.00  0.00    -0.252 C  
ENDROOT
BRANCH   4  13
HETATM   13  O   UNL     2      -9.867   9.987  70.088  1.00  0.00    -0.241 OA 
BRANCH  13  14
HETATM   14  C   UNL     2      -9.302  10.700  69.057  1.00  0.00    -0.180 C  
HETATM   15  C   UNL     2      -7.982   9.921  66.968  1.00  0.00    -0.109 A  
HETATM   16  O   UNL     2      -9.782  11.749  68.674  1.00  0.00    -0.191 OA 
HETATM   17  C   UNL     2      -6.864  11.096  68.921  1.00  0.00    -0.086 C  
HETATM   18  C   UNL     2      -7.973  10.111  68.500  1.00  0.00    -0.104 C  
HETATM   19  O   UNL     2      -6.850  11.357  70.324  1.00  0.00    -0.475 OA 
HETATM   20  C   UNL     2      -6.935  10.356  66.121  1.00  0.00    -0.126 A  
HETATM   21  C   UNL     2      -7.034  10.285  64.723  1.00  0.00    -0.093 A  
HETATM   22  H   UNL     2      -6.167  11.964  70.583  1.00  0.00     0.000 HD 
HETATM   23  C   UNL     2      -8.171   9.732  64.146  1.00  0.00    -0.158 A  
HETATM   24  C   UNL     2      -9.159   9.186  64.960  1.00  0.00    -0.215 A  
HETATM   25  C   UNL     2      -9.055   9.263  66.355  1.00  0.00    -0.200 A  
ENDBRANCH  13  14
ENDBRANCH   4  13
TORSDOF 2
ENDMDL
MODEL      101
REMARK 921   NORMALIZED FREE ENERGY PREDICTED BY IDOCK:   -4.46 KCAL/MOL
REMARK 922        TOTAL FREE ENERGY PREDICTED BY IDOCK:   -5.68 KCAL/MOL
REMARK 923 INTER-LIGAND FREE ENERGY PREDICTED BY IDOCK:   -5.29 KCAL/MOL
REMARK 924 INTRA-LIGAND FREE ENERGY PREDICTED BY IDOCK:   -0.38 KCAL/MOL
REMARK 927      BINDING AFFINITY PREDICTED BY RF-SCORE:    0.00 PKD
ROOT
HETATM    1 BR   UNL     1     -13.244  12.291  72.062  1.00  0.00    -0.359 Br 
HETATM    2  C   UNL     2     -10.486  17.034  66.696  1.00  0.00    -0.253 C  
HETATM    3  C   UNL     2     -10.815  15.516  66.635  1.00  0.00    -0.285 C  
HETATM    4  C   UNL     2      -9.750  14.563  67.254  1.00  0.00    -0.232 C  
HETATM    5  C   UNL     2      -8.677  15.258  68.143  1.00  0.00    -0.162 C  
HETATM    6  C   UNL     2     -10.877  16.853  69.281  1.00  0.00    -0.214 C  
HETATM    7  C   UNL     2      -8.589  16.799  68.026  1.00  0.00    -0.210 C  
HETATM    8  C   UNL     2      -9.288  17.307  65.780  1.00  0.00     0.154 C  
HETATM    9  O   UNL     2      -8.422  18.413  66.089  1.00  0.00    -0.445 OA 
HETATM   10  N   UNL     2     -10.027  17.388  68.132  1.00  0.00    -0.291 N  
HETATM   11  C   UNL     2     -10.017  18.921  68.353  1.00  0.00    -0.391 C  
HETATM   12  C   UNL     2      -8.078  17.137  66.630  1.00  0.00    -0.257 C  
ENDROOT
BRANCH   4  13
HETATM   13  O   UNL     2     -10.366  13.479  68.058  1.00  0.00    -0.229 OA 
BRANCH  13  14
HETATM   14  C   UNL     2      -9.797  12.227  68.039  1.00  0.00    -0.204 C  
HETATM   15  C   UNL     2      -9.749  10.407  66.195  1.00  0.00    -0.262 A  
HETATM   16  O   UNL     2      -8.782  11.982  68.660  1.00  0.00    -0.121 OA 
HETATM   17  C   UNL     2     -11.148  10.172  68.301  1.00  0.00    -0.227 C  
HETATM   18  C   UNL     2     -10.599  11.154  67.246  1.00  0.00    -0.279 C  
HETATM   19  O   UNL     2     -11.892  10.818  69.334  1.00  0.00    -0.299 OA 
HETATM   20  C   UNL     2      -9.734   8.998  66.062  1.00  0.00    -0.339 A  
HETATM   21  C   UNL     2      -8.853   8.346  65.185  1.00  0.00    -0.075 A  
HETATM   22  H   UNL     2     -12.230  10.213  69.984  1.00  0.00     0.000 HD 
HETATM   23  C   UNL     2      -7.999   9.100  64.390  1.00  0.00    -0.137 A  
HETATM   24  C   UNL     2      -8.083  10.489  64.414  1.00  0.00    -0.042 A  
HETATM   25  C   UNL     2      -8.962  11.133  65.294  1.00  0.00    -0.134 A  
ENDBRANCH  13  14
ENDBRANCH   4  13
TORSDOF 2
ENDMDL
MODEL      102
REMARK 921   NORMALIZED FREE ENERGY PREDICTED BY IDOCK:   -4.45 KCAL/MOL
REMARK 922        TOTAL FREE ENERGY PREDICTED BY IDOCK:   -5.67 KCAL/MOL
REMARK 923 INTER-LIGAND FREE ENERGY PREDICTED BY IDOCK:   -5.08 KCAL/MOL
REMARK 924 INTRA-LIGAND FREE ENERGY PREDICTED BY IDOCK:   -0.59 KCAL/MOL
REMARK 927      BINDING AFFINITY PREDICTED BY RF-SCORE:    0.00 PKD
ROOT
HETATM    1 BR   UNL     1      -5.472   7.289  70.485  1.00  0.00    -0.024 Br 
HETATM    2  C   UNL     2     -10.935  11.843  67.599  1.00  0.00    -0.235 C  
HETATM    3  C   UNL     2     -10.961  10.331  67.959  1.00  0.00    -0.345 C  
HETATM    4  C   UNL     2     -10.313   9.371  66.918  1.00  0.00    -0.238 C  
HETATM    5  C   UNL     2      -9.435  10.065  65.835  1.00  0.00    -0.260 C  
HETATM    6  C   UNL     2      -8.348  11.732  68.008  1.00  0.00    -0.154 C  
HETATM    7  C   UNL     2      -9.588  11.601  65.715  1.00  0.00    -0.232 C  
HETATM    8  C   UNL     2     -11.849  12.069  66.391  1.00  0.00    -0.153 C  
HETATM    9  O   UNL     2     -11.562  13.164  65.504  1.00  0.00    -0.315 OA 
HETATM   10  N   UNL     2      -9.504  12.222  67.140  1.00  0.00    -0.191 N  
HETATM   11  C   UNL     2      -9.320  13.759  67.100  1.00  0.00    -0.240 C  
HETATM   12  C   UNL     2     -10.988  11.894  65.189  1.00  0.00    -0.312 C  
ENDROOT
BRANCH   4  13
HETATM   13  O   UNL     2      -9.487   8.320  67.561  1.00  0.00    -0.144 OA 
BRANCH  13  14
HETATM   14  C   UNL     2     -10.109   7.224  68.110  1.00  0.00    -0.173 C  
HETATM   15  C   UNL     2      -9.845   6.096  70.427  1.00  0.00    -0.214 A  
HETATM   16  O   UNL     2     -11.252   6.931  67.818  1.00  0.00    -0.174 OA 
HETATM   17  C   UNL     2      -8.979   5.032  68.291  1.00  0.00    -0.108 C  
HETATM   18  C   UNL     2      -9.214   6.358  69.043  1.00  0.00    -0.129 C  
HETATM   19  O   UNL     2      -8.453   5.217  66.978  1.00  0.00    -0.108 OA 
HETATM   20  C   UNL     2      -9.913   4.815  71.026  1.00  0.00    -0.279 A  
HETATM   21  C   UNL     2     -10.608   4.593  72.224  1.00  0.00    -0.203 A  
HETATM   22  H   UNL     2      -8.309   4.401  66.515  1.00  0.00     0.000 HD 
HETATM   23  C   UNL     2     -11.212   5.663  72.872  1.00  0.00    -0.338 A  
HETATM   24  C   UNL     2     -11.053   6.951  72.368  1.00  0.00    -0.296 A  
HETATM   25  C   UNL     2     -10.361   7.165  71.169  1.00  0.00    -0.214 A  
ENDBRANCH  13  14
ENDBRANCH   4  13
TORSDOF 2
ENDMDL
MODEL      103
REMARK 921   NORMALIZED FREE ENERGY PREDICTED BY IDOCK:   -4.42 KCAL/MOL
REMARK 922        TOTAL FREE ENERGY PREDICTED BY IDOCK:   -5.64 KCAL/MOL
REMARK 923 INTER-LIGAND FREE ENERGY PREDICTED BY IDOCK:   -5.09 KCAL/MOL
REMARK 924 INTRA-LIGAND FREE ENERGY PREDICTED BY IDOCK:   -0.55 KCAL/MOL
REMARK 927      BINDING AFFINITY PREDICTED BY RF-SCORE:    0.00 PKD
ROOT
HETATM    1 BR   UNL     1     -10.041  11.333  63.585  1.00  0.00    -0.476 Br 
HETATM    2  C   UNL     2      -8.303  18.228  66.472  1.00  0.00    -0.266 C  
HETATM    3  C   UNL     2      -7.550  16.872  66.564  1.00  0.00    -0.328 C  
HETATM    4  C   UNL     2      -8.097  15.859  67.612  1.00  0.00    -0.144 C  
HETATM    5  C   UNL     2      -9.507  16.191  68.182  1.00  0.00    -0.209 C  
HETATM    6  C   UNL     2     -10.287  16.874  65.424  1.00  0.00    -0.104 C  
HETATM    7  C   UNL     2     -10.031  17.623  67.911  1.00  0.00    -0.323 C  
HETATM    8  C   UNL     2      -8.065  19.003  67.772  1.00  0.00    -0.268 C  
HETATM    9  O   UNL     2      -9.065  19.939  68.210  1.00  0.00    -0.319 OA 
HETATM   10  N   UNL     2      -9.826  17.950  66.403  1.00  0.00    -0.334 N  
HETATM   11  C   UNL     2     -10.605  19.216  65.966  1.00  0.00    -0.442 C  
HETATM   12  C   UNL     2      -9.161  18.599  68.695  1.00  0.00    -0.314 C  
ENDROOT
BRANCH   4  13
HETATM   13  O   UNL     2      -8.140  14.473  67.085  1.00  0.00    -0.202 OA 
BRANCH  13  14
HETATM   14  C   UNL     2      -8.014  13.421  67.961  1.00  0.00    -0.148 C  
HETATM   15  C   UNL     2      -7.908  10.865  67.550  1.00  0.00    -0.114 A  
HETATM   16  O   UNL     2      -7.398  13.533  69.003  1.00  0.00    -0.087 OA 
HETATM   17  C   UNL     2      -9.938  11.993  68.577  1.00  0.00    -0.184 C  
HETATM   18  C   UNL     2      -8.789  12.133  67.558  1.00  0.00    -0.175 C  
HETATM   19  O   UNL     2     -10.749  13.163  68.671  1.00  0.00    -0.247 OA 
HETATM   20  C   UNL     2      -8.284   9.649  68.171  1.00  0.00    -0.106 A  
HETATM   21  C   UNL     2      -7.405   8.558  68.257  1.00  0.00    -0.094 A  
HETATM   22  H   UNL     2     -11.456  13.077  69.299  1.00  0.00     0.000 HD 
HETATM   23  C   UNL     2      -6.144   8.650  67.681  1.00  0.00    -0.048 A  
HETATM   24  C   UNL     2      -5.798   9.789  66.960  1.00  0.00    -0.051 A  
HETATM   25  C   UNL     2      -6.679  10.876  66.880  1.00  0.00    -0.106 A  
ENDBRANCH  13  14
ENDBRANCH   4  13
TORSDOF 2
ENDMDL
MODEL      104
REMARK 921   NORMALIZED FREE ENERGY PREDICTED BY IDOCK:   -4.41 KCAL/MOL
REMARK 922        TOTAL FREE ENERGY PREDICTED BY IDOCK:   -5.63 KCAL/MOL
REMARK 923 INTER-LIGAND FREE ENERGY PREDICTED BY IDOCK:   -5.40 KCAL/MOL
REMARK 924 INTRA-LIGAND FREE ENERGY PREDICTED BY IDOCK:   -0.23 KCAL/MOL
REMARK 927      BINDING AFFINITY PREDICTED BY RF-SCORE:    0.00 PKD
ROOT
HETATM    1 BR   UNL     1      -8.481  15.961  66.578  1.00  0.00    -0.345 Br 
HETATM    2  C   UNL     2      -7.605   8.757  64.081  1.00  0.00    -0.122 C  
HETATM    3  C   UNL     2      -8.849   9.687  64.075  1.00  0.00    -0.256 C  
HETATM    4  C   UNL     2      -9.617   9.808  65.425  1.00  0.00    -0.292 C  
HETATM    5  C   UNL     2      -8.857   9.263  66.670  1.00  0.00    -0.146 C  
HETATM    6  C   UNL     2      -6.453  10.573  65.581  1.00  0.00    -0.119 C  
HETATM    7  C   UNL     2      -7.619   8.378  66.379  1.00  0.00    -0.084 C  
HETATM    8  C   UNL     2      -8.080   7.313  64.271  1.00  0.00    -0.049 C  
HETATM    9  O   UNL     2      -7.194   6.372  64.902  1.00  0.00    -0.061 OA 
HETATM   10  N   UNL     2      -6.734   9.096  65.318  1.00  0.00    -0.068 N  
HETATM   11  C   UNL     2      -5.327   8.459  65.201  1.00  0.00    -0.035 C  
HETATM   12  C   UNL     2      -8.106   7.082  65.742  1.00  0.00    -0.123 C  
ENDROOT
BRANCH   4  13
HETATM   13  O   UNL     2     -10.019  11.205  65.720  1.00  0.00    -0.224 OA 
BRANCH  13  14
HETATM   14  C   UNL     2     -10.084  11.619  67.030  1.00  0.00    -0.209 C  
HETATM   15  C   UNL     2     -11.579  10.830  68.993  1.00  0.00    -0.370 A  
HETATM   16  O   UNL     2      -9.102  12.033  67.614  1.00  0.00    -0.168 OA 
HETATM   17  C   UNL     2     -11.905  13.075  67.854  1.00  0.00    -0.343 C  
HETATM   18  C   UNL     2     -11.508  11.598  67.656  1.00  0.00    -0.373 C  
HETATM   19  O   UNL     2     -11.799  13.848  66.659  1.00  0.00    -0.374 OA 
HETATM   20  C   UNL     2     -12.203  11.342  70.156  1.00  0.00    -0.410 A  
HETATM   21  C   UNL     2     -12.135  10.674  71.389  1.00  0.00    -0.342 A  
HETATM   22  H   UNL     2     -12.043  14.758  66.781  1.00  0.00     0.000 HD 
HETATM   23  C   UNL     2     -11.476   9.454  71.469  1.00  0.00    -0.467 A  
HETATM   24  C   UNL     2     -10.962   8.872  70.314  1.00  0.00    -0.266 A  
HETATM   25  C   UNL     2     -11.030   9.545  69.088  1.00  0.00    -0.148 A  
ENDBRANCH  13  14
ENDBRANCH   4  13
TORSDOF 2
ENDMDL
MODEL      105
REMARK 921   NORMALIZED FREE ENERGY PREDICTED BY IDOCK:   -4.41 KCAL/MOL
REMARK 922        TOTAL FREE ENERGY PREDICTED BY IDOCK:   -5.62 KCAL/MOL
REMARK 923 INTER-LIGAND FREE ENERGY PREDICTED BY IDOCK:   -5.10 KCAL/MOL
REMARK 924 INTRA-LIGAND FREE ENERGY PREDICTED BY IDOCK:   -0.52 KCAL/MOL
REMARK 927      BINDING AFFINITY PREDICTED BY RF-SCORE:    0.00 PKD
ROOT
HETATM    1 BR   UNL     1     -11.919  13.779  69.513  1.00  0.00    -0.399 Br 
HETATM    2  C   UNL     2      -8.169   8.417  65.503  1.00  0.00    -0.140 C  
HETATM    3  C   UNL     2      -9.313   8.286  66.546  1.00  0.00    -0.263 C  
HETATM    4  C   UNL     2      -8.887   8.382  68.041  1.00  0.00    -0.142 C  
HETATM    5  C   UNL     2      -7.449   8.928  68.286  1.00  0.00    -0.087 C  
HETATM    6  C   UNL     2      -8.027  10.937  66.209  1.00  0.00    -0.161 C  
HETATM    7  C   UNL     2      -6.520   8.978  67.048  1.00  0.00    -0.061 C  
HETATM    8  C   UNL     2      -7.262   7.187  65.623  1.00  0.00    -0.070 C  
HETATM    9  O   UNL     2      -5.877   7.314  65.258  1.00  0.00    -0.036 OA 
HETATM   10  N   UNL     2      -7.294   9.641  65.872  1.00  0.00    -0.097 N  
HETATM   11  C   UNL     2      -6.359  10.032  64.700  1.00  0.00    -0.125 C  
HETATM   12  C   UNL     2      -6.222   7.544  66.625  1.00  0.00    -0.045 C  
ENDROOT
BRANCH   4  13
HETATM   13  O   UNL     2      -9.823   9.209  68.840  1.00  0.00    -0.166 OA 
BRANCH  13  14
HETATM   14  C   UNL     2     -10.630   8.595  69.770  1.00  0.00    -0.224 C  
HETATM   15  C   UNL     2     -10.095   6.829  71.588  1.00  0.00    -0.197 A  
HETATM   16  O   UNL     2     -11.593   9.162  70.247  1.00  0.00    -0.210 OA 
HETATM   17  C   UNL     2     -11.409   6.265  69.490  1.00  0.00    -0.404 C  
HETATM   18  C   UNL     2     -10.265   7.115  70.080  1.00  0.00    -0.204 C  
HETATM   19  O   UNL     2     -11.652   6.534  68.110  1.00  0.00    -0.570 OA 
HETATM   20  C   UNL     2     -10.701   5.734  72.249  1.00  0.00    -0.282 A  
HETATM   21  C   UNL     2     -10.631   5.578  73.642  1.00  0.00    -0.316 A  
HETATM   22  H   UNL     2     -12.357   6.011  67.747  1.00  0.00     0.000 HD 
HETATM   23  C   UNL     2      -9.912   6.496  74.397  1.00  0.00    -0.374 A  
HETATM   24  C   UNL     2      -9.206   7.510  73.756  1.00  0.00    -0.327 A  
HETATM   25  C   UNL     2      -9.282   7.662  72.366  1.00  0.00    -0.201 A  
ENDBRANCH  13  14
ENDBRANCH   4  13
TORSDOF 2
ENDMDL
MODEL      106
REMARK 921   NORMALIZED FREE ENERGY PREDICTED BY IDOCK:   -4.41 KCAL/MOL
REMARK 922        TOTAL FREE ENERGY PREDICTED BY IDOCK:   -5.62 KCAL/MOL
REMARK 923 INTER-LIGAND FREE ENERGY PREDICTED BY IDOCK:   -5.02 KCAL/MOL
REMARK 924 INTRA-LIGAND FREE ENERGY PREDICTED BY IDOCK:   -0.60 KCAL/MOL
REMARK 927      BINDING AFFINITY PREDICTED BY RF-SCORE:    0.00 PKD
ROOT
HETATM    1 BR   UNL     1     -10.941   5.999  70.297  1.00  0.00    -0.406 Br 
HETATM    2  C   UNL     2     -11.422  12.823  66.817  1.00  0.00    -0.343 C  
HETATM    3  C   UNL     2     -10.900  11.454  66.297  1.00  0.00    -0.318 C  
HETATM    4  C   UNL     2      -9.459  11.062  66.739  1.00  0.00    -0.182 C  
HETATM    5  C   UNL     2      -8.868  11.914  67.901  1.00  0.00    -0.172 C  
HETATM    6  C   UNL     2     -11.510  11.708  69.188  1.00  0.00    -0.300 C  
HETATM    7  C   UNL     2      -9.616  13.228  68.231  1.00  0.00    -0.221 C  
HETATM    8  C   UNL     2     -10.604  13.936  66.154  1.00  0.00    -0.291 C  
HETATM    9  O   UNL     2     -10.439  15.182  66.855  1.00  0.00    -0.271 OA 
HETATM   10  N   UNL     2     -11.139  12.920  68.337  1.00  0.00    -0.247 N  
HETATM   11  C   UNL     2     -11.930  14.087  68.979  1.00  0.00    -0.357 C  
HETATM   12  C   UNL     2      -9.442  14.178  67.052  1.00  0.00    -0.251 C  
ENDROOT
BRANCH   4  13
HETATM   13  O   UNL     2      -9.361   9.635  67.133  1.00  0.00    -0.136 OA 
BRANCH  13  14
HETATM   14  C   UNL     2      -8.827   8.732  66.244  1.00  0.00    -0.157 C  
HETATM   15  C   UNL     2      -8.474   6.171  66.424  1.00  0.00    -0.123 A  
HETATM   16  O   UNL     2      -8.930   8.888  65.043  1.00  0.00    -0.189 OA 
HETATM   17  C   UNL     2      -6.545   7.819  66.518  1.00  0.00    -0.054 C  
HETATM   18  C   UNL     2      -8.020   7.570  66.893  1.00  0.00    -0.115 C  
HETATM   19  O   UNL     2      -6.089   9.124  66.874  1.00  0.00    -0.058 OA 
HETATM   20  C   UNL     2      -7.579   5.166  65.985  1.00  0.00    -0.087 A  
HETATM   21  C   UNL     2      -8.034   3.954  65.443  1.00  0.00    -0.093 A  
HETATM   22  H   UNL     2      -5.181   9.277  66.643  1.00  0.00     0.000 HD 
HETATM   23  C   UNL     2      -9.399   3.708  65.371  1.00  0.00    -0.159 A  
HETATM   24  C   UNL     2     -10.294   4.629  65.908  1.00  0.00    -0.315 A  
HETATM   25  C   UNL     2      -9.833   5.838  66.445  1.00  0.00    -0.174 A  
ENDBRANCH  13  14
ENDBRANCH   4  13
TORSDOF 2
ENDMDL
MODEL      107
REMARK 921   NORMALIZED FREE ENERGY PREDICTED BY IDOCK:   -4.39 KCAL/MOL
REMARK 922        TOTAL FREE ENERGY PREDICTED BY IDOCK:   -5.60 KCAL/MOL
REMARK 923 INTER-LIGAND FREE ENERGY PREDICTED BY IDOCK:   -5.06 KCAL/MOL
REMARK 924 INTRA-LIGAND FREE ENERGY PREDICTED BY IDOCK:   -0.54 KCAL/MOL
REMARK 927      BINDING AFFINITY PREDICTED BY RF-SCORE:    0.00 PKD
ROOT
HETATM    1 BR   UNL     1     -12.245  12.067  64.088  1.00  0.00    -0.434 Br 
HETATM    2  C   UNL     2      -6.553  15.930  67.491  1.00  0.00    -0.182 C  
HETATM    3  C   UNL     2      -6.910  14.418  67.519  1.00  0.00    -0.162 C  
HETATM    4  C   UNL     2      -8.067  14.008  68.477  1.00  0.00    -0.139 C  
HETATM    5  C   UNL     2      -8.928  15.188  69.017  1.00  0.00    -0.219 C  
HETATM    6  C   UNL     2      -8.852  16.287  66.284  1.00  0.00    -0.331 C  
HETATM    7  C   UNL     2      -8.339  16.606  68.824  1.00  0.00    -0.252 C  
HETATM    8  C   UNL     2      -5.951  16.311  68.847  1.00  0.00    -0.129 C  
HETATM    9  O   UNL     2      -6.096  17.664  69.312  1.00  0.00    -0.210 OA 
HETATM   10  N   UNL     2      -7.860  16.749  67.349  1.00  0.00    -0.165 N  
HETATM   11  C   UNL     2      -7.559  18.220  66.970  1.00  0.00    -0.219 C  
HETATM   12  C   UNL     2      -7.098  16.724  69.701  1.00  0.00     0.105 C  
ENDROOT
BRANCH   4  13
HETATM   13  O   UNL     2      -8.988  13.025  67.857  1.00  0.00    -0.182 OA 
BRANCH  13  14
HETATM   14  C   UNL     2      -9.037  11.746  68.360  1.00  0.00    -0.176 C  
HETATM   15  C   UNL     2      -9.977   9.553  67.349  1.00  0.00    -0.241 A  
HETATM   16  O   UNL     2      -8.180  11.328  69.113  1.00  0.00    -0.077 OA 
HETATM   17  C   UNL     2     -11.125  10.772  69.258  1.00  0.00    -0.256 C  
HETATM   18  C   UNL     2     -10.303  10.932  67.963  1.00  0.00    -0.212 C  
HETATM   19  O   UNL     2     -11.403  12.014  69.903  1.00  0.00    -0.482 OA 
HETATM   20  C   UNL     2     -10.600   8.349  67.758  1.00  0.00    -0.238 A  
HETATM   21  C   UNL     2     -10.188   7.099  67.271  1.00  0.00    -0.315 A  
HETATM   22  H   UNL     2     -11.909  11.915  70.701  1.00  0.00     0.000 HD 
HETATM   23  C   UNL     2      -9.170   7.036  66.328  1.00  0.00    -0.166 A  
HETATM   24  C   UNL     2      -8.627   8.213  65.820  1.00  0.00    -0.175 A  
HETATM   25  C   UNL     2      -9.041   9.457  66.313  1.00  0.00    -0.204 A  
ENDBRANCH  13  14
ENDBRANCH   4  13
TORSDOF 2
ENDMDL
MODEL      108
REMARK 921   NORMALIZED FREE ENERGY PREDICTED BY IDOCK:   -4.36 KCAL/MOL
REMARK 922        TOTAL FREE ENERGY PREDICTED BY IDOCK:   -5.57 KCAL/MOL
REMARK 923 INTER-LIGAND FREE ENERGY PREDICTED BY IDOCK:   -5.12 KCAL/MOL
REMARK 924 INTRA-LIGAND FREE ENERGY PREDICTED BY IDOCK:   -0.45 KCAL/MOL
REMARK 927      BINDING AFFINITY PREDICTED BY RF-SCORE:    0.00 PKD
ROOT
HETATM    1 BR   UNL     1      -6.961   6.209  64.798  1.00  0.00    -0.057 Br 
HETATM    2  C   UNL     2     -10.969   6.687  71.325  1.00  0.00    -0.253 C  
HETATM    3  C   UNL     2     -11.054   7.526  70.020  1.00  0.00    -0.219 C  
HETATM    4  C   UNL     2      -9.973   8.635  69.850  1.00  0.00    -0.186 C  
HETATM    5  C   UNL     2      -8.765   8.536  70.827  1.00  0.00    -0.183 C  
HETATM    6  C   UNL     2      -8.791   5.634  70.317  1.00  0.00    -0.139 C  
HETATM    7  C   UNL     2      -8.944   7.590  72.039  1.00  0.00    -0.125 C  
HETATM    8  C   UNL     2     -11.304   7.599  72.509  1.00  0.00    -0.355 C  
HETATM    9  O   UNL     2     -10.737   7.296  73.796  1.00  0.00    -0.353 OA 
HETATM   10  N   UNL     2      -9.503   6.229  71.529  1.00  0.00    -0.152 N  
HETATM   11  C   UNL     2      -9.411   5.117  72.603  1.00  0.00    -0.137 C  
HETATM   12  C   UNL     2     -10.010   8.188  72.950  1.00  0.00    -0.266 C  
ENDROOT
BRANCH   4  13
HETATM   13  O   UNL     2      -9.432   8.685  68.470  1.00  0.00    -0.141 OA 
BRANCH  13  14
HETATM   14  C   UNL     2      -9.548   9.851  67.749  1.00  0.00    -0.141 C  
HETATM   15  C   UNL     2      -8.806  12.272  68.297  1.00  0.00    -0.178 A  
HETATM   16  O   UNL     2      -9.527   9.851  66.534  1.00  0.00    -0.165 OA 
HETATM   17  C   UNL     2     -11.244  11.565  68.299  1.00  0.00    -0.261 C  
HETATM   18  C   UNL     2      -9.797  11.129  68.603  1.00  0.00    -0.207 C  
HETATM   19  O   UNL     2     -12.199  10.525  68.505  1.00  0.00    -0.806 OA 
HETATM   20  C   UNL     2      -9.205  13.610  68.060  1.00  0.00    -0.197 A  
HETATM   21  C   UNL     2      -8.292  14.596  67.657  1.00  0.00    -0.186 A  
HETATM   22  H   UNL     2     -13.090  10.794  68.317  1.00  0.00     0.000 HD 
HETATM   23  C   UNL     2      -6.948  14.269  67.526  1.00  0.00    -0.177 A  
HETATM   24  C   UNL     2      -6.513  12.993  67.872  1.00  0.00    -0.130 A  
HETATM   25  C   UNL     2      -7.431  12.012  68.271  1.00  0.00    -0.106 A  
ENDBRANCH  13  14
ENDBRANCH   4  13
TORSDOF 2
ENDMDL
MODEL      109
REMARK 921   NORMALIZED FREE ENERGY PREDICTED BY IDOCK:   -4.34 KCAL/MOL
REMARK 922        TOTAL FREE ENERGY PREDICTED BY IDOCK:   -5.55 KCAL/MOL
REMARK 923 INTER-LIGAND FREE ENERGY PREDICTED BY IDOCK:   -4.78 KCAL/MOL
REMARK 924 INTRA-LIGAND FREE ENERGY PREDICTED BY IDOCK:   -0.77 KCAL/MOL
REMARK 927      BINDING AFFINITY PREDICTED BY RF-SCORE:    0.00 PKD
ROOT
HETATM    1 BR   UNL     1     -12.650  14.130  70.775  1.00  0.00    -0.435 Br 
HETATM    2  C   UNL     2      -6.928  10.399  67.276  1.00  0.00    -0.086 C  
HETATM    3  C   UNL     2      -7.711  11.675  66.858  1.00  0.00    -0.147 C  
HETATM    4  C   UNL     2      -9.113  11.437  66.223  1.00  0.00    -0.202 C  
HETATM    5  C   UNL     2      -9.684   9.998  66.398  1.00  0.00    -0.266 C  
HETATM    6  C   UNL     2      -8.711  10.120  69.177  1.00  0.00    -0.170 C  
HETATM    7  C   UNL     2      -8.676   8.917  66.861  1.00  0.00    -0.119 C  
HETATM    8  C   UNL     2      -6.542   9.631  66.008  1.00  0.00    -0.079 C  
HETATM    9  O   UNL     2      -6.378   8.204  66.088  1.00  0.00    -0.045 OA 
HETATM   10  N   UNL     2      -7.876   9.471  68.076  1.00  0.00    -0.087 N  
HETATM   11  C   UNL     2      -7.083   8.362  68.811  1.00  0.00    -0.068 C  
HETATM   12  C   UNL     2      -7.671   8.699  65.736  1.00  0.00    -0.090 C  
ENDROOT
BRANCH   4  13
HETATM   13  O   UNL     2     -10.130  12.389  66.732  1.00  0.00    -0.211 OA 
BRANCH  13  14
HETATM   14  C   UNL     2     -10.120  13.685  66.274  1.00  0.00    -0.299 C  
HETATM   15  C   UNL     2      -9.137  15.849  67.306  1.00  0.00    -0.218 A  
HETATM   16  O   UNL     2     -10.089  13.938  65.085  1.00  0.00    -0.346 OA 
HETATM   17  C   UNL     2     -11.635  15.410  67.193  1.00  0.00    -0.056 C  
HETATM   18  C   UNL     2     -10.243  14.774  67.379  1.00  0.00    -0.236 C  
HETATM   19  O   UNL     2     -12.693  14.452  67.191  1.00  0.00    -0.446 OA 
HETATM   20  C   UNL     2      -9.395  17.240  67.360  1.00  0.00    -0.236 A  
HETATM   21  C   UNL     2      -8.382  18.190  67.160  1.00  0.00    -0.244 A  
HETATM   22  H   UNL     2     -13.550  14.844  67.076  1.00  0.00     0.000 HD 
HETATM   23  C   UNL     2      -7.078  17.763  66.945  1.00  0.00    -0.217 A  
HETATM   24  C   UNL     2      -6.779  16.405  67.010  1.00  0.00    -0.239 A  
HETATM   25  C   UNL     2      -7.796  15.461  67.207  1.00  0.00    -0.237 A  
ENDBRANCH  13  14
ENDBRANCH   4  13
TORSDOF 2
ENDMDL
MODEL      110
REMARK 921   NORMALIZED FREE ENERGY PREDICTED BY IDOCK:   -4.32 KCAL/MOL
REMARK 922        TOTAL FREE ENERGY PREDICTED BY IDOCK:   -5.52 KCAL/MOL
REMARK 923 INTER-LIGAND FREE ENERGY PREDICTED BY IDOCK:   -4.84 KCAL/MOL
REMARK 924 INTRA-LIGAND FREE ENERGY PREDICTED BY IDOCK:   -0.68 KCAL/MOL
REMARK 927      BINDING AFFINITY PREDICTED BY RF-SCORE:    0.00 PKD
ROOT
HETATM    1 BR   UNL     1     -12.387  12.766  65.068  1.00  0.00    -0.562 Br 
HETATM    2  C   UNL     2     -10.752   9.261  71.697  1.00  0.00    -0.323 C  
HETATM    3  C   UNL     2      -9.855   9.571  70.466  1.00  0.00    -0.331 C  
HETATM    4  C   UNL     2     -10.005   8.607  69.253  1.00  0.00    -0.195 C  
HETATM    5  C   UNL     2     -11.255   7.679  69.295  1.00  0.00     0.176 C  
HETATM    6  C   UNL     2     -12.774  10.030  70.217  1.00  0.00     0.040 C  
HETATM    7  C   UNL     2     -11.985   7.581  70.657  1.00  0.00    -0.133 C  
HETATM    8  C   UNL     2     -10.283   7.942  72.318  1.00  0.00    -0.241 C  
HETATM    9  O   UNL     2     -11.237   7.135  73.029  1.00  0.00    -0.294 OA 
HETATM   10  N   UNL     2     -12.203   9.020  71.209  1.00  0.00    -0.309 N  
HETATM   11  C   UNL     2     -13.202   9.049  72.392  1.00  0.00    -0.447 C  
HETATM   12  C   UNL     2     -11.059   6.870  71.637  1.00  0.00    -0.240 C  
ENDROOT
BRANCH   4  13
HETATM   13  O   UNL     2     -10.026   9.332  67.959  1.00  0.00    -0.166 OA 
BRANCH  13  14
HETATM   14  C   UNL     2      -9.527   8.711  66.838  1.00  0.00    -0.180 C  
HETATM   15  C   UNL     2      -8.926   6.231  66.389  1.00  0.00    -0.159 A  
HETATM   16  O   UNL     2      -9.791   9.111  65.721  1.00  0.00    -0.286 OA 
HETATM   17  C   UNL     2      -7.156   8.030  66.665  1.00  0.00    -0.076 C  
HETATM   18  C   UNL     2      -8.545   7.537  67.119  1.00  0.00    -0.121 C  
HETATM   19  O   UNL     2      -6.778   9.269  67.263  1.00  0.00    -0.067 OA 
HETATM   20  C   UNL     2      -8.005   5.455  65.644  1.00  0.00    -0.107 A  
HETATM   21  C   UNL     2      -8.412   4.346  64.887  1.00  0.00    -0.126 A  
HETATM   22  H   UNL     2      -5.923   9.573  66.983  1.00  0.00     0.000 HD 
HETATM   23  C   UNL     2      -9.748   3.966  64.897  1.00  0.00    -0.188 A  
HETATM   24  C   UNL     2     -10.649   4.638  65.718  1.00  0.00    -0.264 A  
HETATM   25  C   UNL     2     -10.237   5.747  66.469  1.00  0.00    -0.241 A  
ENDBRANCH  13  14
ENDBRANCH   4  13
TORSDOF 2
ENDMDL
MODEL      111
REMARK 921   NORMALIZED FREE ENERGY PREDICTED BY IDOCK:   -4.29 KCAL/MOL
REMARK 922        TOTAL FREE ENERGY PREDICTED BY IDOCK:   -5.49 KCAL/MOL
REMARK 923 INTER-LIGAND FREE ENERGY PREDICTED BY IDOCK:   -4.73 KCAL/MOL
REMARK 924 INTRA-LIGAND FREE ENERGY PREDICTED BY IDOCK:   -0.76 KCAL/MOL
REMARK 927      BINDING AFFINITY PREDICTED BY RF-SCORE:    0.00 PKD
ROOT
HETATM    1 BR   UNL     1     -11.368  12.758  67.062  1.00  0.00    -0.390 Br 
HETATM    2  C   UNL     2      -9.795   5.299  66.172  1.00  0.00    -0.165 C  
HETATM    3  C   UNL     2     -10.719   6.026  67.189  1.00  0.00    -0.409 C  
HETATM    4  C   UNL     2     -10.007   6.689  68.404  1.00  0.00    -0.145 C  
HETATM    5  C   UNL     2      -8.462   6.831  68.270  1.00  0.00    -0.125 C  
HETATM    6  C   UNL     2      -8.940   7.681  65.489  1.00  0.00     0.088 C  
HETATM    7  C   UNL     2      -7.798   6.010  67.138  1.00  0.00    -0.102 C  
HETATM    8  C   UNL     2      -9.193   4.069  66.859  1.00  0.00    -0.167 C  
HETATM    9  O   UNL     2      -7.911   3.590  66.417  1.00  0.00    -0.083 OA 
HETATM   10  N   UNL     2      -8.606   6.230  65.825  1.00  0.00    -0.150 N  
HETATM   11  C   UNL     2      -7.845   5.720  64.576  1.00  0.00    -0.113 C  
HETATM   12  C   UNL     2      -7.927   4.533  67.491  1.00  0.00    -0.100 C  
ENDROOT
BRANCH   4  13
HETATM   13  O   UNL     2     -10.557   8.031  68.714  1.00  0.00    -0.195 OA 
BRANCH  13  14
HETATM   14  C   UNL     2     -10.680   8.416  70.028  1.00  0.00    -0.236 C  
HETATM   15  C   UNL     2      -9.604   7.470  72.187  1.00  0.00    -0.190 A  
HETATM   16  O   UNL     2     -10.877   9.576  70.334  1.00  0.00    -0.238 OA 
HETATM   17  C   UNL     2     -12.062   7.148  71.639  1.00  0.00    -0.336 C  
HETATM   18  C   UNL     2     -10.637   7.252  71.060  1.00  0.00    -0.235 C  
HETATM   19  O   UNL     2     -13.066   7.008  70.635  1.00  0.00    -0.541 OA 
HETATM   20  C   UNL     2      -9.899   7.298  73.561  1.00  0.00    -0.347 A  
HETATM   21  C   UNL     2      -8.976   7.629  74.565  1.00  0.00     0.017 A  
HETATM   22  H   UNL     2     -13.944   6.944  70.992  1.00  0.00     0.000 HD 
HETATM   23  C   UNL     2      -7.719   8.100  74.207  1.00  0.00    -0.277 A  
HETATM   24  C   UNL     2      -7.363   8.161  72.863  1.00  0.00    -0.154 A  
HETATM   25  C   UNL     2      -8.291   7.832  71.866  1.00  0.00    -0.136 A  
ENDBRANCH  13  14
ENDBRANCH   4  13
TORSDOF 2
ENDMDL
MODEL      112
REMARK 921   NORMALIZED FREE ENERGY PREDICTED BY IDOCK:   -4.29 KCAL/MOL
REMARK 922        TOTAL FREE ENERGY PREDICTED BY IDOCK:   -5.49 KCAL/MOL
REMARK 923 INTER-LIGAND FREE ENERGY PREDICTED BY IDOCK:   -5.09 KCAL/MOL
REMARK 924 INTRA-LIGAND FREE ENERGY PREDICTED BY IDOCK:   -0.40 KCAL/MOL
REMARK 927      BINDING AFFINITY PREDICTED BY RF-SCORE:    0.00 PKD
ROOT
HETATM    1 BR   UNL     1     -12.262  14.914  64.232  1.00  0.00    -0.182 Br 
HETATM    2  C   UNL     2      -9.267   8.002  65.703  1.00  0.00     0.075 C  
HETATM    3  C   UNL     2     -10.007   9.005  66.632  1.00  0.00    -0.349 C  
HETATM    4  C   UNL     2      -9.157  10.196  67.163  1.00  0.00    -0.135 C  
HETATM    5  C   UNL     2      -7.797  10.416  66.436  1.00  0.00    -0.128 C  
HETATM    6  C   UNL     2      -9.243   9.921  63.917  1.00  0.00    -0.248 C  
HETATM    7  C   UNL     2      -7.309   9.253  65.538  1.00  0.00    -0.090 C  
HETATM    8  C   UNL     2      -8.216   7.258  66.533  1.00  0.00    -0.117 C  
HETATM    9  O   UNL     2      -7.039   6.762  65.872  1.00  0.00    -0.066 OA 
HETATM   10  N   UNL     2      -8.488   8.800  64.627  1.00  0.00    -0.169 N  
HETATM   11  C   UNL     2      -8.018   7.875  63.477  1.00  0.00    -0.126 C  
HETATM   12  C   UNL     2      -6.973   8.071  66.440  1.00  0.00    -0.070 C  
ENDROOT
BRANCH   4  13
HETATM   13  O   UNL     2      -9.900  11.479  67.122  1.00  0.00    -0.189 OA 
BRANCH  13  14
HETATM   14  C   UNL     2      -9.649  12.428  68.086  1.00  0.00    -0.218 C  
HETATM   15  C   UNL     2     -11.232  14.074  69.309  1.00  0.00    -0.304 A  
HETATM   16  O   UNL     2      -8.759  12.284  68.900  1.00  0.00     0.071 OA 
HETATM   17  C   UNL     2      -9.566  14.842  67.555  1.00  0.00    -0.208 C  
HETATM   18  C   UNL     2     -10.522  13.712  67.987  1.00  0.00    -0.251 C  
HETATM   19  O   UNL     2      -8.835  14.535  66.369  1.00  0.00    -0.449 OA 
HETATM   20  C   UNL     2     -11.224  15.373  69.871  1.00  0.00    -0.310 A  
HETATM   21  C   UNL     2     -11.768  15.637  71.138  1.00  0.00    -0.461 A  
HETATM   22  H   UNL     2      -8.245  15.230  66.103  1.00  0.00     0.000 HD 
HETATM   23  C   UNL     2     -12.373  14.608  71.849  1.00  0.00    -0.410 A  
HETATM   24  C   UNL     2     -12.502  13.351  71.265  1.00  0.00    -0.368 A  
HETATM   25  C   UNL     2     -11.954  13.094  70.001  1.00  0.00    -0.391 A  
ENDBRANCH  13  14
ENDBRANCH   4  13
TORSDOF 2
ENDMDL
MODEL      113
REMARK 921   NORMALIZED FREE ENERGY PREDICTED BY IDOCK:   -4.26 KCAL/MOL
REMARK 922        TOTAL FREE ENERGY PREDICTED BY IDOCK:   -5.46 KCAL/MOL
REMARK 923 INTER-LIGAND FREE ENERGY PREDICTED BY IDOCK:   -5.29 KCAL/MOL
REMARK 924 INTRA-LIGAND FREE ENERGY PREDICTED BY IDOCK:   -0.18 KCAL/MOL
REMARK 927      BINDING AFFINITY PREDICTED BY RF-SCORE:    0.00 PKD
ROOT
HETATM    1 BR   UNL     1      -7.772  10.407  65.451  1.00  0.00    -0.107 Br 
HETATM    2  C   UNL     2      -9.065  17.376  68.395  1.00  0.00    -0.274 C  
HETATM    3  C   UNL     2      -9.731  16.006  68.703  1.00  0.00    -0.217 C  
HETATM    4  C   UNL     2     -10.812  15.530  67.688  1.00  0.00    -0.306 C  
HETATM    5  C   UNL     2     -10.841  16.308  66.339  1.00  0.00    -0.100 C  
HETATM    6  C   UNL     2      -7.898  16.175  66.379  1.00  0.00    -0.162 C  
HETATM    7  C   UNL     2     -10.056  17.642  66.304  1.00  0.00    -0.341 C  
HETATM    8  C   UNL     2     -10.119  18.475  68.561  1.00  0.00    -0.378 C  
HETATM    9  O   UNL     2      -9.983  19.683  67.793  1.00  0.00    -0.347 OA 
HETATM   10  N   UNL     2      -8.640  17.401  66.906  1.00  0.00    -0.239 N  
HETATM   11  C   UNL     2      -7.674  18.577  66.621  1.00  0.00    -0.245 C  
HETATM   12  C   UNL     2     -10.763  18.628  67.227  1.00  0.00    -0.394 C  
ENDROOT
BRANCH   4  13
HETATM   13  O   UNL     2     -10.689  14.086  67.371  1.00  0.00    -0.278 OA 
BRANCH  13  14
HETATM   14  C   UNL     2     -10.392  13.203  68.383  1.00  0.00    -0.253 C  
HETATM   15  C   UNL     2      -8.406  11.568  68.689  1.00  0.00    -0.123 A  
HETATM   16  O   UNL     2     -10.713  13.427  69.534  1.00  0.00     0.020 OA 
HETATM   17  C   UNL     2     -10.753  10.769  68.143  1.00  0.00    -0.214 C  
HETATM   18  C   UNL     2      -9.710  11.882  67.924  1.00  0.00    -0.192 C  
HETATM   19  O   UNL     2     -12.002  11.038  67.507  1.00  0.00    -0.545 OA 
HETATM   20  C   UNL     2      -8.119  10.303  69.257  1.00  0.00    -0.156 A  
HETATM   21  C   UNL     2      -6.986  10.089  70.057  1.00  0.00    -0.135 A  
HETATM   22  H   UNL     2     -12.645  10.352  67.643  1.00  0.00     0.000 HD 
HETATM   23  C   UNL     2      -6.092  11.131  70.267  1.00  0.00    -0.144 A  
HETATM   24  C   UNL     2      -6.289  12.348  69.619  1.00  0.00    -0.107 A  
HETATM   25  C   UNL     2      -7.424  12.556  68.825  1.00  0.00    -0.049 A  
ENDBRANCH  13  14
ENDBRANCH   4  13
TORSDOF 2
ENDMDL
MODEL      114
REMARK 921   NORMALIZED FREE ENERGY PREDICTED BY IDOCK:   -4.24 KCAL/MOL
REMARK 922        TOTAL FREE ENERGY PREDICTED BY IDOCK:   -5.44 KCAL/MOL
REMARK 923 INTER-LIGAND FREE ENERGY PREDICTED BY IDOCK:   -4.81 KCAL/MOL
REMARK 924 INTRA-LIGAND FREE ENERGY PREDICTED BY IDOCK:   -0.63 KCAL/MOL
REMARK 927      BINDING AFFINITY PREDICTED BY RF-SCORE:    0.00 PKD
ROOT
HETATM    1 BR   UNL     1     -13.123  12.063  71.738  1.00  0.00    -0.334 Br 
HETATM    2  C   UNL     2      -8.362   6.059  72.160  1.00  0.00    -0.110 C  
HETATM    3  C   UNL     2      -8.644   7.048  70.995  1.00  0.00    -0.134 C  
HETATM    4  C   UNL     2      -9.940   6.781  70.173  1.00  0.00    -0.177 C  
HETATM    5  C   UNL     2     -10.943   5.784  70.824  1.00  0.00    -0.312 C  
HETATM    6  C   UNL     2     -10.408   7.155  73.376  1.00  0.00    -0.349 C  
HETATM    7  C   UNL     2     -10.397   4.937  72.000  1.00  0.00    -0.197 C  
HETATM    8  C   UNL     2      -8.044   4.685  71.561  1.00  0.00    -0.102 C  
HETATM    9  O   UNL     2      -8.338   3.510  72.337  1.00  0.00    -0.081 OA 
HETATM   10  N   UNL     2      -9.657   5.883  72.991  1.00  0.00    -0.154 N  
HETATM   11  C   UNL     2      -9.361   5.196  74.347  1.00  0.00    -0.124 C  
HETATM   12  C   UNL     2      -9.349   3.979  71.443  1.00  0.00    -0.144 C  
ENDROOT
BRANCH   4  13
HETATM   13  O   UNL     2     -10.680   8.030  69.870  1.00  0.00    -0.244 OA 
BRANCH  13  14
HETATM   14  C   UNL     2     -10.275   8.806  68.809  1.00  0.00    -0.206 C  
HETATM   15  C   UNL     2      -8.622  10.798  68.690  1.00  0.00    -0.151 A  
HETATM   16  O   UNL     2     -10.206   8.355  67.683  1.00  0.00    -0.204 OA 
HETATM   17  C   UNL     2     -11.133  11.100  68.463  1.00  0.00    -0.244 C  
HETATM   18  C   UNL     2     -10.009  10.300  69.153  1.00  0.00    -0.235 C  
HETATM   19  O   UNL     2     -12.439  10.641  68.808  1.00  0.00    -0.795 OA 
HETATM   20  C   UNL     2      -8.423  12.002  67.973  1.00  0.00    -0.168 A  
HETATM   21  C   UNL     2      -7.169  12.358  67.455  1.00  0.00    -0.148 A  
HETATM   22  H   UNL     2     -13.131  11.133  68.383  1.00  0.00     0.000 HD 
HETATM   23  C   UNL     2      -6.076  11.533  67.686  1.00  0.00    -0.062 A  
HETATM   24  C   UNL     2      -6.221  10.407  68.492  1.00  0.00    -0.047 A  
HETATM   25  C   UNL     2      -7.477  10.055  69.003  1.00  0.00    -0.087 A  
ENDBRANCH  13  14
ENDBRANCH   4  13
TORSDOF 2
ENDMDL
MODEL      115
REMARK 921   NORMALIZED FREE ENERGY PREDICTED BY IDOCK:   -4.24 KCAL/MOL
REMARK 922        TOTAL FREE ENERGY PREDICTED BY IDOCK:   -5.43 KCAL/MOL
REMARK 923 INTER-LIGAND FREE ENERGY PREDICTED BY IDOCK:   -5.31 KCAL/MOL
REMARK 924 INTRA-LIGAND FREE ENERGY PREDICTED BY IDOCK:   -0.13 KCAL/MOL
REMARK 927      BINDING AFFINITY PREDICTED BY RF-SCORE:    0.00 PKD
ROOT
HETATM    1 BR   UNL     1      -6.605  10.424  63.011  1.00  0.00    -0.057 Br 
HETATM    2  C   UNL     2      -9.939   6.911  68.964  1.00  0.00    -0.158 C  
HETATM    3  C   UNL     2     -10.430   8.090  68.079  1.00  0.00    -0.243 C  
HETATM    4  C   UNL     2      -9.833   9.488  68.414  1.00  0.00    -0.158 C  
HETATM    5  C   UNL     2      -8.588   9.470  69.350  1.00  0.00    -0.159 C  
HETATM    6  C   UNL     2      -7.625   7.181  67.764  1.00  0.00    -0.111 C  
HETATM    7  C   UNL     2      -8.314   8.139  70.092  1.00  0.00    -0.125 C  
HETATM    8  C   UNL     2     -10.473   7.118  70.386  1.00  0.00    -0.218 C  
HETATM    9  O   UNL     2      -9.726   6.576  71.489  1.00  0.00    -0.169 OA 
HETATM   10  N   UNL     2      -8.395   6.971  69.066  1.00  0.00    -0.125 N  
HETATM   11  C   UNL     2      -7.820   5.650  69.634  1.00  0.00    -0.091 C  
HETATM   12  C   UNL     2      -9.439   7.919  71.097  1.00  0.00    -0.158 C  
ENDROOT
BRANCH   4  13
HETATM   13  O   UNL     2      -9.467  10.250  67.195  1.00  0.00    -0.155 OA 
BRANCH  13  14
HETATM   14  C   UNL     2     -10.230  11.335  66.832  1.00  0.00    -0.219 C  
HETATM   15  C   UNL     2     -10.107  13.821  67.552  1.00  0.00    -0.241 A  
HETATM   16  O   UNL     2     -10.729  11.418  65.727  1.00  0.00    -0.267 OA 
HETATM   17  C   UNL     2     -11.965  12.273  68.324  1.00  0.00    -0.200 C  
HETATM   18  C   UNL     2     -10.470  12.378  67.962  1.00  0.00    -0.227 C  
HETATM   19  O   UNL     2     -12.371  10.945  68.652  1.00  0.00    -0.805 OA 
HETATM   20  C   UNL     2     -10.957  14.932  67.767  1.00  0.00    -0.294 A  
HETATM   21  C   UNL     2     -10.653  16.207  67.266  1.00  0.00    -0.305 A  
HETATM   22  H   UNL     2     -13.292  10.881  68.874  1.00  0.00     0.000 HD 
HETATM   23  C   UNL     2      -9.465  16.403  66.574  1.00  0.00    -0.296 A  
HETATM   24  C   UNL     2      -8.556  15.355  66.456  1.00  0.00    -0.294 A  
HETATM   25  C   UNL     2      -8.867  14.084  66.956  1.00  0.00    -0.234 A  
ENDBRANCH  13  14
ENDBRANCH   4  13
TORSDOF 2
ENDMDL
MODEL      116
REMARK 921   NORMALIZED FREE ENERGY PREDICTED BY IDOCK:   -4.24 KCAL/MOL
REMARK 922        TOTAL FREE ENERGY PREDICTED BY IDOCK:   -5.43 KCAL/MOL
REMARK 923 INTER-LIGAND FREE ENERGY PREDICTED BY IDOCK:   -5.26 KCAL/MOL
REMARK 924 INTRA-LIGAND FREE ENERGY PREDICTED BY IDOCK:   -0.17 KCAL/MOL
REMARK 927      BINDING AFFINITY PREDICTED BY RF-SCORE:    0.00 PKD
ROOT
HETATM    1 BR   UNL     1     -10.213  10.892  66.822  1.00  0.00    -0.289 Br 
HETATM    2  C   UNL     2      -9.024   3.310  66.854  1.00  0.00    -0.158 C  
HETATM    3  C   UNL     2      -9.661   4.241  67.923  1.00  0.00    -0.207 C  
HETATM    4  C   UNL     2      -8.663   5.048  68.805  1.00  0.00    -0.093 C  
HETATM    5  C   UNL     2      -7.196   5.080  68.285  1.00  0.00    -0.063 C  
HETATM    6  C   UNL     2      -8.324   5.500  65.596  1.00  0.00    -0.133 C  
HETATM    7  C   UNL     2      -6.841   4.052  67.182  1.00  0.00    -0.051 C  
HETATM    8  C   UNL     2      -8.292   2.173  67.575  1.00  0.00    -0.071 C  
HETATM    9  O   UNL     2      -7.165   1.559  66.928  1.00  0.00    -0.045 OA 
HETATM   10  N   UNL     2      -7.941   4.105  66.082  1.00  0.00    -0.098 N  
HETATM   11  C   UNL     2      -7.516   3.360  64.792  1.00  0.00    -0.072 C  
HETATM   12  C   UNL     2      -6.904   2.660  67.799  1.00  0.00    -0.044 C  
ENDROOT
BRANCH   4  13
HETATM   13  O   UNL     2      -9.099   6.452  69.006  1.00  0.00    -0.131 OA 
BRANCH  13  14
HETATM   14  C   UNL     2     -10.367   6.696  69.479  1.00  0.00    -0.202 C  
HETATM   15  C   UNL     2     -11.258   8.500  71.111  1.00  0.00    -0.317 A  
HETATM   16  O   UNL     2     -11.352   6.456  68.808  1.00  0.00    -0.327 OA 
HETATM   17  C   UNL     2     -11.056   6.056  71.766  1.00  0.00    -0.276 C  
HETATM   18  C   UNL     2     -10.434   7.205  70.948  1.00  0.00    -0.225 C  
HETATM   19  O   UNL     2     -10.369   4.816  71.604  1.00  0.00    -0.196 OA 
HETATM   20  C   UNL     2     -12.257   8.671  72.099  1.00  0.00    -0.453 A  
HETATM   21  C   UNL     2     -13.076   9.810  72.136  1.00  0.00    -0.513 A  
HETATM   22  H   UNL     2     -10.752   4.108  72.108  1.00  0.00     0.000 HD 
HETATM   23  C   UNL     2     -12.879  10.823  71.207  1.00  0.00    -0.540 A  
HETATM   24  C   UNL     2     -11.824  10.733  70.303  1.00  0.00    -0.438 A  
HETATM   25  C   UNL     2     -11.012   9.591  70.269  1.00  0.00    -0.317 A  
ENDBRANCH  13  14
ENDBRANCH   4  13
TORSDOF 2
ENDMDL
MODEL      117
REMARK 921   NORMALIZED FREE ENERGY PREDICTED BY IDOCK:   -4.22 KCAL/MOL
REMARK 922        TOTAL FREE ENERGY PREDICTED BY IDOCK:   -5.41 KCAL/MOL
REMARK 923 INTER-LIGAND FREE ENERGY PREDICTED BY IDOCK:   -4.89 KCAL/MOL
REMARK 924 INTRA-LIGAND FREE ENERGY PREDICTED BY IDOCK:   -0.52 KCAL/MOL
REMARK 927      BINDING AFFINITY PREDICTED BY RF-SCORE:    0.00 PKD
ROOT
HETATM    1 BR   UNL     1     -12.300  14.241  72.394  1.00  0.00    -0.113 Br 
HETATM    2  C   UNL     2     -11.826  11.805  65.131  1.00  0.00    -0.003 C  
HETATM    3  C   UNL     2     -11.502  11.079  66.467  1.00  0.00     0.225 C  
HETATM    4  C   UNL     2     -10.129  11.428  67.115  1.00  0.00    -0.198 C  
HETATM    5  C   UNL     2      -9.423  12.688  66.534  1.00  0.00    -0.247 C  
HETATM    6  C   UNL     2     -12.066  13.989  66.560  1.00  0.00    -0.459 C  
HETATM    7  C   UNL     2      -9.980  13.223  65.192  1.00  0.00    -0.153 C  
HETATM    8  C   UNL     2     -10.862  11.294  64.056  1.00  0.00    -0.344 C  
HETATM    9  O   UNL     2     -10.524  12.165  62.962  1.00  0.00    -0.298 OA 
HETATM   10  N   UNL     2     -11.530  13.316  65.299  1.00  0.00    -0.291 N  
HETATM   11  C   UNL     2     -12.150  14.138  64.142  1.00  0.00    -0.406 C  
HETATM   12  C   UNL     2      -9.676  12.191  64.112  1.00  0.00    -0.063 C  
ENDROOT
BRANCH   4  13
HETATM   13  O   UNL     2     -10.231  11.607  68.584  1.00  0.00    -0.209 OA 
BRANCH  13  14
HETATM   14  C   UNL     2      -9.994  10.531  69.407  1.00  0.00    -0.196 C  
HETATM   15  C   UNL     2     -10.766   8.063  69.248  1.00  0.00    -0.140 A  
HETATM   16  O   UNL     2      -8.960  10.430  70.037  1.00  0.00     0.019 OA 
HETATM   17  C   UNL     2     -11.710   9.674  70.968  1.00  0.00    -0.353 C  
HETATM   18  C   UNL     2     -11.175   9.525  69.529  1.00  0.00    -0.105 C  
HETATM   19  O   UNL     2     -12.047  11.019  71.304  1.00  0.00    -0.295 OA 
HETATM   20  C   UNL     2     -11.114   6.978  70.088  1.00  0.00    -0.323 A  
HETATM   21  C   UNL     2     -10.617   5.684  69.872  1.00  0.00    -0.399 A  
HETATM   22  H   UNL     2     -12.376  11.111  72.190  1.00  0.00     0.000 HD 
HETATM   23  C   UNL     2      -9.793   5.442  68.781  1.00  0.00    -0.208 A  
HETATM   24  C   UNL     2      -9.536   6.465  67.872  1.00  0.00    -0.121 A  
HETATM   25  C   UNL     2     -10.034   7.756  68.095  1.00  0.00    -0.207 A  
ENDBRANCH  13  14
ENDBRANCH   4  13
TORSDOF 2
ENDMDL
MODEL      118
REMARK 921   NORMALIZED FREE ENERGY PREDICTED BY IDOCK:   -4.22 KCAL/MOL
REMARK 922        TOTAL FREE ENERGY PREDICTED BY IDOCK:   -5.41 KCAL/MOL
REMARK 923 INTER-LIGAND FREE ENERGY PREDICTED BY IDOCK:   -5.69 KCAL/MOL
REMARK 924 INTRA-LIGAND FREE ENERGY PREDICTED BY IDOCK:    0.28 KCAL/MOL
REMARK 927      BINDING AFFINITY PREDICTED BY RF-SCORE:    0.00 PKD
ROOT
HETATM    1 BR   UNL     1      -6.251   9.587  70.200  1.00  0.00    -0.067 Br 
HETATM    2  C   UNL     2      -9.923  16.203  68.919  1.00  0.00    -0.233 C  
HETATM    3  C   UNL     2     -10.455  14.745  68.980  1.00  0.00    -0.249 C  
HETATM    4  C   UNL     2     -10.227  13.882  67.704  1.00  0.00    -0.242 C  
HETATM    5  C   UNL     2      -9.213  14.472  66.679  1.00  0.00    -0.290 C  
HETATM    6  C   UNL     2      -7.519  15.161  68.989  1.00  0.00    -0.161 C  
HETATM    7  C   UNL     2      -8.830  15.958  66.877  1.00  0.00    -0.236 C  
HETATM    8  C   UNL     2     -10.756  16.980  67.895  1.00  0.00    -0.348 C  
HETATM    9  O   UNL     2     -10.149  18.089  67.209  1.00  0.00    -0.313 OA 
HETATM   10  N   UNL     2      -8.472  16.184  68.376  1.00  0.00    -0.177 N  
HETATM   11  C   UNL     2      -7.769  17.543  68.613  1.00  0.00    -0.275 C  
HETATM   12  C   UNL     2     -10.064  16.805  66.589  1.00  0.00    -0.300 C  
ENDROOT
BRANCH   4  13
HETATM   13  O   UNL     2      -9.788  12.503  68.028  1.00  0.00    -0.201 OA 
BRANCH  13  14
HETATM   14  C   UNL     2     -10.115  11.479  67.171  1.00  0.00    -0.197 C  
HETATM   15  C   UNL     2      -9.212  10.872  64.819  1.00  0.00    -0.227 A  
HETATM   16  O   UNL     2     -10.481  10.397  67.586  1.00  0.00    -0.200 OA 
HETATM   17  C   UNL     2     -11.530  11.844  65.176  1.00  0.00    -0.243 C  
HETATM   18  C   UNL     2     -10.066  11.846  65.659  1.00  0.00    -0.274 C  
HETATM   19  O   UNL     2     -12.380  12.682  65.958  1.00  0.00    -0.587 OA 
HETATM   20  C   UNL     2      -9.652  10.297  63.603  1.00  0.00    -0.334 A  
HETATM   21  C   UNL     2      -8.905   9.316  62.933  1.00  0.00    -0.185 A  
HETATM   22  H   UNL     2     -13.282  12.681  65.661  1.00  0.00     0.000 HD 
HETATM   23  C   UNL     2      -7.676   8.924  63.448  1.00  0.00    -0.124 A  
HETATM   24  C   UNL     2      -7.166   9.563  64.575  1.00  0.00    -0.110 A  
HETATM   25  C   UNL     2      -7.920  10.539  65.241  1.00  0.00    -0.112 A  
ENDBRANCH  13  14
ENDBRANCH   4  13
TORSDOF 2
ENDMDL
MODEL      119
REMARK 921   NORMALIZED FREE ENERGY PREDICTED BY IDOCK:   -4.22 KCAL/MOL
REMARK 922        TOTAL FREE ENERGY PREDICTED BY IDOCK:   -5.41 KCAL/MOL
REMARK 923 INTER-LIGAND FREE ENERGY PREDICTED BY IDOCK:   -5.89 KCAL/MOL
REMARK 924 INTRA-LIGAND FREE ENERGY PREDICTED BY IDOCK:    0.48 KCAL/MOL
REMARK 927      BINDING AFFINITY PREDICTED BY RF-SCORE:    0.00 PKD
ROOT
HETATM    1 BR   UNL     1     -12.860   9.398  72.358  1.00  0.00    -0.324 Br 
HETATM    2  C   UNL     2     -11.955  14.278  66.505  1.00  0.00    -0.427 C  
HETATM    3  C   UNL     2     -12.259  12.754  66.516  1.00  0.00    -0.198 C  
HETATM    4  C   UNL     2     -11.039  11.818  66.763  1.00  0.00    -0.306 C  
HETATM    5  C   UNL     2      -9.759  12.526  67.296  1.00  0.00    -0.202 C  
HETATM    6  C   UNL     2     -11.537  14.052  69.082  1.00  0.00    -0.313 C  
HETATM    7  C   UNL     2      -9.739  14.070  67.190  1.00  0.00    -0.242 C  
HETATM    8  C   UNL     2     -11.098  14.592  65.274  1.00  0.00    -0.360 C  
HETATM    9  O   UNL     2     -10.200  15.715  65.327  1.00  0.00    -0.359 OA 
HETATM   10  N   UNL     2     -11.086  14.623  67.740  1.00  0.00    -0.287 N  
HETATM   11  C   UNL     2     -11.038  16.153  67.979  1.00  0.00    -0.317 C  
HETATM   12  C   UNL     2      -9.684  14.439  65.712  1.00  0.00    -0.252 C  
ENDROOT
BRANCH   4  13
HETATM   13  O   UNL     2     -11.361  10.709  67.694  1.00  0.00    -0.395 OA 
BRANCH  13  14
HETATM   14  C   UNL     2     -10.664  10.605  68.875  1.00  0.00    -0.219 C  
HETATM   15  C   UNL     2      -8.192   9.990  69.345  1.00  0.00    -0.158 A  
HETATM   16  O   UNL     2     -10.938  11.297  69.836  1.00  0.00    -0.177 OA 
HETATM   17  C   UNL     2     -10.110   8.413  69.877  1.00  0.00    -0.195 C  
HETATM   18  C   UNL     2      -9.583   9.486  68.903  1.00  0.00    -0.156 C  
HETATM   19  O   UNL     2     -11.421   7.955  69.551  1.00  0.00    -0.433 OA 
HETATM   20  C   UNL     2      -7.402   9.342  70.325  1.00  0.00    -0.118 A  
HETATM   21  C   UNL     2      -6.203   9.898  70.797  1.00  0.00    -0.093 A  
HETATM   22  H   UNL     2     -11.746   7.295  70.152  1.00  0.00     0.000 HD 
HETATM   23  C   UNL     2      -5.748  11.096  70.260  1.00  0.00    -0.128 A  
HETATM   24  C   UNL     2      -6.444  11.687  69.209  1.00  0.00    -0.105 A  
HETATM   25  C   UNL     2      -7.642  11.129  68.745  1.00  0.00    -0.129 A  
ENDBRANCH  13  14
ENDBRANCH   4  13
TORSDOF 2
ENDMDL
MODEL      120
REMARK 921   NORMALIZED FREE ENERGY PREDICTED BY IDOCK:   -4.20 KCAL/MOL
REMARK 922        TOTAL FREE ENERGY PREDICTED BY IDOCK:   -5.39 KCAL/MOL
REMARK 923 INTER-LIGAND FREE ENERGY PREDICTED BY IDOCK:   -4.82 KCAL/MOL
REMARK 924 INTRA-LIGAND FREE ENERGY PREDICTED BY IDOCK:   -0.57 KCAL/MOL
REMARK 927      BINDING AFFINITY PREDICTED BY RF-SCORE:    0.00 PKD
ROOT
HETATM    1 BR   UNL     1      -7.321   8.703  64.431  1.00  0.00    -0.108 Br 
HETATM    2  C   UNL     2     -10.443   5.540  70.688  1.00  0.00    -0.272 C  
HETATM    3  C   UNL     2     -10.865   6.789  69.866  1.00  0.00    -0.310 C  
HETATM    4  C   UNL     2     -10.056   8.091  70.143  1.00  0.00    -0.194 C  
HETATM    5  C   UNL     2      -8.734   7.893  70.940  1.00  0.00    -0.139 C  
HETATM    6  C   UNL     2      -8.252   5.529  69.248  1.00  0.00    -0.095 C  
HETATM    7  C   UNL     2      -8.560   6.524  71.642  1.00  0.00    -0.128 C  
HETATM    8  C   UNL     2     -10.792   5.787  72.159  1.00  0.00    -0.244 C  
HETATM    9  O   UNL     2     -10.011   5.131  73.173  1.00  0.00    -0.154 OA 
HETATM   10  N   UNL     2      -8.902   5.397  70.623  1.00  0.00    -0.130 N  
HETATM   11  C   UNL     2      -8.449   4.001  71.120  1.00  0.00    -0.076 C  
HETATM   12  C   UNL     2      -9.593   6.433  72.759  1.00  0.00    -0.150 C  
ENDROOT
BRANCH   4  13
HETATM   13  O   UNL     2      -9.724   8.823  68.896  1.00  0.00    -0.166 OA 
BRANCH  13  14
HETATM   14  C   UNL     2      -9.827  10.194  68.878  1.00  0.00    -0.189 C  
HETATM   15  C   UNL     2      -9.830  11.876  66.907  1.00  0.00    -0.217 A  
HETATM   16  O   UNL     2     -10.465  10.793  69.721  1.00  0.00    -0.198 OA 
HETATM   17  C   UNL     2      -7.863  11.648  68.496  1.00  0.00    -0.140 C  
HETATM   18  C   UNL     2      -8.997  10.900  67.766  1.00  0.00    -0.139 C  
HETATM   19  O   UNL     2      -7.097  10.804  69.354  1.00  0.00    -0.096 OA 
HETATM   20  C   UNL     2      -9.421  13.198  66.608  1.00  0.00    -0.260 A  
HETATM   21  C   UNL     2     -10.261  14.099  65.935  1.00  0.00    -0.332 A  
HETATM   22  H   UNL     2      -6.399  11.265  69.804  1.00  0.00     0.000 HD 
HETATM   23  C   UNL     2     -11.513  13.677  65.508  1.00  0.00    -0.317 A  
HETATM   24  C   UNL     2     -11.888  12.348  65.683  1.00  0.00    -0.468 A  
HETATM   25  C   UNL     2     -11.047  11.454  66.358  1.00  0.00    -0.301 A  
ENDBRANCH  13  14
ENDBRANCH   4  13
TORSDOF 2
ENDMDL
MODEL      121
REMARK 921   NORMALIZED FREE ENERGY PREDICTED BY IDOCK:   -4.19 KCAL/MOL
REMARK 922        TOTAL FREE ENERGY PREDICTED BY IDOCK:   -5.38 KCAL/MOL
REMARK 923 INTER-LIGAND FREE ENERGY PREDICTED BY IDOCK:   -4.81 KCAL/MOL
REMARK 924 INTRA-LIGAND FREE ENERGY PREDICTED BY IDOCK:   -0.57 KCAL/MOL
REMARK 927      BINDING AFFINITY PREDICTED BY RF-SCORE:    0.00 PKD
ROOT
HETATM    1 BR   UNL     1      -9.817   5.287  66.448  1.00  0.00    -0.226 Br 
HETATM    2  C   UNL     2      -9.805  12.958  66.196  1.00  0.00    -0.270 C  
HETATM    3  C   UNL     2      -9.559  11.982  67.380  1.00  0.00    -0.176 C  
HETATM    4  C   UNL     2     -10.832  11.366  68.032  1.00  0.00    -0.217 C  
HETATM    5  C   UNL     2     -12.144  11.535  67.210  1.00  0.00     0.451 C  
HETATM    6  C   UNL     2     -10.554  10.852  64.826  1.00  0.00    -0.246 C  
HETATM    7  C   UNL     2     -12.096  12.563  66.054  1.00  0.00    -0.321 C  
HETATM    8  C   UNL     2     -10.489  14.217  66.739  1.00  0.00    -0.277 C  
HETATM    9  O   UNL     2     -11.347  14.969  65.864  1.00  0.00    -0.338 OA 
HETATM   10  N   UNL     2     -10.811  12.306  65.213  1.00  0.00    -0.284 N  
HETATM   11  C   UNL     2     -10.836  13.058  63.859  1.00  0.00    -0.313 C  
HETATM   12  C   UNL     2     -11.952  13.952  66.664  1.00  0.00    -0.442 C  
ENDROOT
BRANCH   4  13
HETATM   13  O   UNL     2     -10.669   9.921  68.326  1.00  0.00    -0.217 OA 
BRANCH  13  14
HETATM   14  C   UNL     2     -10.440   9.526  69.624  1.00  0.00    -0.223 C  
HETATM   15  C   UNL     2      -8.419   8.319  70.705  1.00  0.00    -0.139 A  
HETATM   16  O   UNL     2     -10.896  10.145  70.565  1.00  0.00    -0.298 OA 
HETATM   17  C   UNL     2     -10.647   7.164  70.327  1.00  0.00    -0.227 C  
HETATM   18  C   UNL     2      -9.645   8.197  69.775  1.00  0.00    -0.171 C  
HETATM   19  O   UNL     2     -11.831   7.055  69.538  1.00  0.00    -0.537 OA 
HETATM   20  C   UNL     2      -8.131   7.401  71.744  1.00  0.00    -0.105 A  
HETATM   21  C   UNL     2      -7.083   7.614  72.652  1.00  0.00    -0.081 A  
HETATM   22  H   UNL     2     -12.449   6.419  69.879  1.00  0.00     0.000 HD 
HETATM   23  C   UNL     2      -6.272   8.733  72.509  1.00  0.00    -0.050 A  
HETATM   24  C   UNL     2      -6.458   9.584  71.424  1.00  0.00     0.048 A  
HETATM   25  C   UNL     2      -7.509   9.367  70.522  1.00  0.00    -0.154 A  
ENDBRANCH  13  14
ENDBRANCH   4  13
TORSDOF 2
ENDMDL
MODEL      122
REMARK 921   NORMALIZED FREE ENERGY PREDICTED BY IDOCK:   -4.16 KCAL/MOL
REMARK 922        TOTAL FREE ENERGY PREDICTED BY IDOCK:   -5.35 KCAL/MOL
REMARK 923 INTER-LIGAND FREE ENERGY PREDICTED BY IDOCK:   -4.65 KCAL/MOL
REMARK 924 INTRA-LIGAND FREE ENERGY PREDICTED BY IDOCK:   -0.69 KCAL/MOL
REMARK 927      BINDING AFFINITY PREDICTED BY RF-SCORE:    0.00 PKD
ROOT
HETATM    1 BR   UNL     1      -8.082  15.061  69.176  1.00  0.00    -0.178 Br 
HETATM    2  C   UNL     2      -7.578   7.412  68.806  1.00  0.00    -0.107 C  
HETATM    3  C   UNL     2      -8.793   8.358  68.600  1.00  0.00    -0.136 C  
HETATM    4  C   UNL     2      -9.468   8.893  69.897  1.00  0.00    -0.170 C  
HETATM    5  C   UNL     2      -8.645   8.689  71.204  1.00  0.00    -0.224 C  
HETATM    6  C   UNL     2      -6.280   9.523  69.658  1.00  0.00    -0.040 C  
HETATM    7  C   UNL     2      -7.455   7.703  71.113  1.00  0.00    -0.078 C  
HETATM    8  C   UNL     2      -8.081   6.105  69.427  1.00  0.00    -0.112 C  
HETATM    9  O   UNL     2      -7.184   5.342  70.252  1.00  0.00    -0.062 OA 
HETATM   10  N   UNL     2      -6.620   8.047  69.845  1.00  0.00    -0.036 N  
HETATM   11  C   UNL     2      -5.242   7.339  69.840  1.00  0.00    -0.019 C  
HETATM   12  C   UNL     2      -8.019   6.303  70.901  1.00  0.00    -0.112 C  
ENDROOT
BRANCH   4  13
HETATM   13  O   UNL     2      -9.809  10.333  69.801  1.00  0.00    -0.224 OA 
BRANCH  13  14
HETATM   14  C   UNL     2     -10.715  10.742  68.850  1.00  0.00    -0.222 C  
HETATM   15  C   UNL     2     -10.443  12.303  66.800  1.00  0.00    -0.242 A  
HETATM   16  O   UNL     2     -11.636  10.030  68.502  1.00  0.00    -0.053 OA 
HETATM   17  C   UNL     2     -11.713  13.005  68.883  1.00  0.00    -0.328 C  
HETATM   18  C   UNL     2     -10.517  12.199  68.338  1.00  0.00    -0.242 C  
HETATM   19  O   UNL     2     -11.867  12.894  70.297  1.00  0.00    -0.486 OA 
HETATM   20  C   UNL     2     -11.186  13.241  66.043  1.00  0.00    -0.316 A  
HETATM   21  C   UNL     2     -11.194  13.222  64.640  1.00  0.00    -0.370 A  
HETATM   22  H   UNL     2     -12.604  13.390  70.632  1.00  0.00     0.000 HD 
HETATM   23  C   UNL     2     -10.420  12.287  63.965  1.00  0.00    -0.427 A  
HETATM   24  C   UNL     2      -9.587  11.435  64.685  1.00  0.00    -0.228 A  
HETATM   25  C   UNL     2      -9.585  11.457  66.086  1.00  0.00    -0.242 A  
ENDBRANCH  13  14
ENDBRANCH   4  13
TORSDOF 2
ENDMDL
MODEL      123
REMARK 921   NORMALIZED FREE ENERGY PREDICTED BY IDOCK:   -4.15 KCAL/MOL
REMARK 922        TOTAL FREE ENERGY PREDICTED BY IDOCK:   -5.34 KCAL/MOL
REMARK 923 INTER-LIGAND FREE ENERGY PREDICTED BY IDOCK:   -4.72 KCAL/MOL
REMARK 924 INTRA-LIGAND FREE ENERGY PREDICTED BY IDOCK:   -0.61 KCAL/MOL
REMARK 927      BINDING AFFINITY PREDICTED BY RF-SCORE:    0.00 PKD
ROOT
HETATM    1 BR   UNL     1      -9.929  11.347  63.746  1.00  0.00    -0.425 Br 
HETATM    2  C   UNL     2      -8.307  18.296  66.569  1.00  0.00    -0.266 C  
HETATM    3  C   UNL     2      -7.513  16.962  66.642  1.00  0.00    -0.303 C  
HETATM    4  C   UNL     2      -8.001  15.937  67.708  1.00  0.00    -0.141 C  
HETATM    5  C   UNL     2      -9.404  16.231  68.317  1.00  0.00    -0.204 C  
HETATM    6  C   UNL     2     -10.281  16.883  65.581  1.00  0.00    -0.206 C  
HETATM    7  C   UNL     2      -9.976  17.646  68.059  1.00  0.00    -0.326 C  
HETATM    8  C   UNL     2      -8.055  19.081  67.861  1.00  0.00    -0.278 C  
HETATM    9  O   UNL     2      -9.068  19.990  68.326  1.00  0.00    -0.279 OA 
HETATM   10  N   UNL     2      -9.823  17.975  66.544  1.00  0.00    -0.336 N  
HETATM   11  C   UNL     2     -10.650  19.216  66.128  1.00  0.00    -0.439 C  
HETATM   12  C   UNL     2      -9.112  18.648  68.815  1.00  0.00    -0.266 C  
ENDROOT
BRANCH   4  13
HETATM   13  O   UNL     2      -8.020  14.549  67.185  1.00  0.00    -0.198 OA 
BRANCH  13  14
HETATM   14  C   UNL     2      -6.967  13.712  67.473  1.00  0.00    -0.143 C  
HETATM   15  C   UNL     2      -6.838  11.129  67.632  1.00  0.00    -0.076 A  
HETATM   16  O   UNL     2      -5.826  14.002  67.173  1.00  0.00    -0.205 OA 
HETATM   17  C   UNL     2      -6.727  12.624  69.681  1.00  0.00     0.085 C  
HETATM   18  C   UNL     2      -7.344  12.436  68.280  1.00  0.00    -0.113 C  
HETATM   19  O   UNL     2      -7.112  13.849  70.303  1.00  0.00    -0.279 OA 
HETATM   20  C   UNL     2      -6.150  10.119  68.345  1.00  0.00    -0.044 A  
HETATM   21  C   UNL     2      -5.591   9.005  67.699  1.00  0.00    -0.035 A  
HETATM   22  H   UNL     2      -6.731  13.965  71.166  1.00  0.00     0.000 HD 
HETATM   23  C   UNL     2      -5.751   8.860  66.327  1.00  0.00    -0.049 A  
HETATM   24  C   UNL     2      -6.528   9.777  65.624  1.00  0.00    -0.082 A  
HETATM   25  C   UNL     2      -7.081  10.888  66.274  1.00  0.00    -0.119 A  
ENDBRANCH  13  14
ENDBRANCH   4  13
TORSDOF 2
ENDMDL
MODEL      124
REMARK 921   NORMALIZED FREE ENERGY PREDICTED BY IDOCK:   -4.14 KCAL/MOL
REMARK 922        TOTAL FREE ENERGY PREDICTED BY IDOCK:   -5.33 KCAL/MOL
REMARK 923 INTER-LIGAND FREE ENERGY PREDICTED BY IDOCK:   -4.67 KCAL/MOL
REMARK 924 INTRA-LIGAND FREE ENERGY PREDICTED BY IDOCK:   -0.66 KCAL/MOL
REMARK 927      BINDING AFFINITY PREDICTED BY RF-SCORE:    0.00 PKD
ROOT
HETATM    1 BR   UNL     1      -5.812  14.145  69.920  1.00  0.00    -0.134 Br 
HETATM    2  C   UNL     2      -7.076   8.399  64.993  1.00  0.00    -0.079 C  
HETATM    3  C   UNL     2      -7.817   9.752  65.184  1.00  0.00    -0.126 C  
HETATM    4  C   UNL     2      -8.828   9.814  66.366  1.00  0.00    -0.146 C  
HETATM    5  C   UNL     2      -8.718   8.650  67.394  1.00  0.00    -0.136 C  
HETATM    6  C   UNL     2      -5.795   8.970  67.207  1.00  0.00    -0.046 C  
HETATM    7  C   UNL     2      -7.882   7.425  66.949  1.00  0.00    -0.115 C  
HETATM    8  C   UNL     2      -8.098   7.346  64.554  1.00  0.00    -0.079 C  
HETATM    9  O   UNL     2      -7.854   5.967  64.884  1.00  0.00    -0.093 OA 
HETATM   10  N   UNL     2      -6.530   7.931  66.365  1.00  0.00    -0.046 N  
HETATM   11  C   UNL     2      -5.500   6.787  66.195  1.00  0.00    -0.018 C  
HETATM   12  C   UNL     2      -8.624   6.739  65.807  1.00  0.00    -0.137 C  
ENDROOT
BRANCH   4  13
HETATM   13  O   UNL     2      -8.734  11.089  67.119  1.00  0.00    -0.132 OA 
BRANCH  13  14
HETATM   14  C   UNL     2      -9.763  11.997  67.027  1.00  0.00    -0.196 C  
HETATM   15  C   UNL     2     -10.538  13.863  68.648  1.00  0.00    -0.265 A  
HETATM   16  O   UNL     2     -10.134  12.427  65.953  1.00  0.00    -0.244 OA 
HETATM   17  C   UNL     2     -11.865  11.727  68.301  1.00  0.00    -0.271 C  
HETATM   18  C   UNL     2     -10.455  12.346  68.376  1.00  0.00    -0.245 C  
HETATM   19  O   UNL     2     -11.850  10.334  67.990  1.00  0.00    -0.708 OA 
HETATM   20  C   UNL     2     -11.723  14.519  69.061  1.00  0.00    -0.346 A  
HETATM   21  C   UNL     2     -11.797  15.916  69.173  1.00  0.00    -0.340 A  
HETATM   22  H   UNL     2     -12.719   9.953  67.943  1.00  0.00     0.000 HD 
HETATM   23  C   UNL     2     -10.667  16.682  68.914  1.00  0.00    -0.337 A  
HETATM   24  C   UNL     2      -9.460  16.053  68.627  1.00  0.00    -0.224 A  
HETATM   25  C   UNL     2      -9.394  14.658  68.514  1.00  0.00    -0.201 A  
ENDBRANCH  13  14
ENDBRANCH   4  13
TORSDOF 2
ENDMDL
MODEL      125
REMARK 921   NORMALIZED FREE ENERGY PREDICTED BY IDOCK:   -4.11 KCAL/MOL
REMARK 922        TOTAL FREE ENERGY PREDICTED BY IDOCK:   -5.29 KCAL/MOL
REMARK 923 INTER-LIGAND FREE ENERGY PREDICTED BY IDOCK:   -4.82 KCAL/MOL
REMARK 924 INTRA-LIGAND FREE ENERGY PREDICTED BY IDOCK:   -0.47 KCAL/MOL
REMARK 927      BINDING AFFINITY PREDICTED BY RF-SCORE:    0.00 PKD
ROOT
HETATM    1 BR   UNL     1     -12.333  13.599  64.801  1.00  0.00    -0.418 Br 
HETATM    2  C   UNL     2      -8.087   7.210  65.041  1.00  0.00    -0.119 C  
HETATM    3  C   UNL     2      -8.920   7.915  66.147  1.00  0.00    -0.214 C  
HETATM    4  C   UNL     2      -8.253   9.152  66.818  1.00  0.00    -0.119 C  
HETATM    5  C   UNL     2      -7.008   9.719  66.074  1.00  0.00    -0.099 C  
HETATM    6  C   UNL     2      -8.525   9.340  63.576  1.00  0.00    -0.197 C  
HETATM    7  C   UNL     2      -6.392   8.807  64.984  1.00  0.00    -0.064 C  
HETATM    8  C   UNL     2      -6.866   6.558  65.696  1.00  0.00    -0.049 C  
HETATM    9  O   UNL     2      -5.671   6.386  64.913  1.00  0.00    -0.021 OA 
HETATM   10  N   UNL     2      -7.538   8.284  64.068  1.00  0.00    -0.120 N  
HETATM   11  C   UNL     2      -7.000   7.637  62.768  1.00  0.00    -0.076 C  
HETATM   12  C   UNL     2      -5.792   7.589  65.675  1.00  0.00    -0.037 C  
ENDROOT
BRANCH   4  13
HETATM   13  O   UNL     2      -9.209  10.270  67.012  1.00  0.00    -0.148 OA 
BRANCH  13  14
HETATM   14  C   UNL     2      -9.640  10.568  68.283  1.00  0.00    -0.158 C  
HETATM   15  C   UNL     2     -11.000   9.173  69.991  1.00  0.00    -0.240 A  
HETATM   16  O   UNL     2      -9.006  11.307  69.011  1.00  0.00    -0.096 OA 
HETATM   17  C   UNL     2     -11.993  11.160  68.762  1.00  0.00    -0.268 C  
HETATM   18  C   UNL     2     -11.023   9.965  68.666  1.00  0.00    -0.222 C  
HETATM   19  O   UNL     2     -12.008  11.966  67.584  1.00  0.00    -0.575 OA 
HETATM   20  C   UNL     2     -11.952   9.349  71.023  1.00  0.00    -0.389 A  
HETATM   21  C   UNL     2     -11.827   8.708  72.265  1.00  0.00    -0.436 A  
HETATM   22  H   UNL     2     -12.605  12.702  67.643  1.00  0.00     0.000 HD 
HETATM   23  C   UNL     2     -10.765   7.840  72.481  1.00  0.00    -0.372 A  
HETATM   24  C   UNL     2      -9.885   7.556  71.440  1.00  0.00    -0.191 A  
HETATM   25  C   UNL     2     -10.014   8.202  70.203  1.00  0.00    -0.187 A  
ENDBRANCH  13  14
ENDBRANCH   4  13
TORSDOF 2
ENDMDL
MODEL      126
REMARK 921   NORMALIZED FREE ENERGY PREDICTED BY IDOCK:   -4.10 KCAL/MOL
REMARK 922        TOTAL FREE ENERGY PREDICTED BY IDOCK:   -5.28 KCAL/MOL
REMARK 923 INTER-LIGAND FREE ENERGY PREDICTED BY IDOCK:   -4.51 KCAL/MOL
REMARK 924 INTRA-LIGAND FREE ENERGY PREDICTED BY IDOCK:   -0.77 KCAL/MOL
REMARK 927      BINDING AFFINITY PREDICTED BY RF-SCORE:    0.00 PKD
ROOT
HETATM    1 BR   UNL     1     -10.277   4.059  64.387  1.00  0.00    -0.180 Br 
HETATM    2  C   UNL     2     -10.368   8.349  70.750  1.00  0.00    -0.195 C  
HETATM    3  C   UNL     2      -9.316   8.248  69.611  1.00  0.00    -0.158 C  
HETATM    4  C   UNL     2      -8.355   7.024  69.678  1.00  0.00    -0.133 C  
HETATM    5  C   UNL     2      -8.784   5.899  70.665  1.00  0.00    -0.137 C  
HETATM    6  C   UNL     2     -11.525   6.270  69.650  1.00  0.00    -0.355 C  
HETATM    7  C   UNL     2      -9.889   6.270  71.684  1.00  0.00    -0.165 C  
HETATM    8  C   UNL     2      -9.634   8.633  72.064  1.00  0.00    -0.314 C  
HETATM    9  O   UNL     2     -10.227   8.187  73.296  1.00  0.00    -0.242 OA 
HETATM   10  N   UNL     2     -11.053   6.970  70.921  1.00  0.00    -0.256 N  
HETATM   11  C   UNL     2     -12.333   7.086  71.785  1.00  0.00    -0.354 C  
HETATM   12  C   UNL     2      -9.313   7.301  72.647  1.00  0.00    -0.142 C  
ENDROOT
BRANCH   4  13
HETATM   13  O   UNL     2      -8.145   6.401  68.349  1.00  0.00    -0.111 OA 
BRANCH  13  14
HETATM   14  C   UNL     2      -7.671   7.175  67.315  1.00  0.00    -0.109 C  
HETATM   15  C   UNL     2      -8.875   8.200  65.264  1.00  0.00    -0.035 A  
HETATM   16  O   UNL     2      -6.744   7.945  67.474  1.00  0.00    -0.065 OA 
HETATM   17  C   UNL     2      -7.271   6.243  65.060  1.00  0.00    -0.070 C  
HETATM   18  C   UNL     2      -8.346   6.916  65.937  1.00  0.00    -0.137 C  
HETATM   19  O   UNL     2      -6.701   5.082  65.663  1.00  0.00    -0.053 OA 
HETATM   20  C   UNL     2      -8.622   8.535  63.912  1.00  0.00     0.040 A  
HETATM   21  C   UNL     2      -9.008   9.770  63.369  1.00  0.00    -0.271 A  
HETATM   22  H   UNL     2      -6.039   4.668  65.122  1.00  0.00     0.000 HD 
HETATM   23  C   UNL     2      -9.696  10.679  64.162  1.00  0.00    -0.378 A  
HETATM   24  C   UNL     2     -10.064  10.323  65.456  1.00  0.00    -0.351 A  
HETATM   25  C   UNL     2      -9.673   9.090  65.993  1.00  0.00    -0.339 A  
ENDBRANCH  13  14
ENDBRANCH   4  13
TORSDOF 2
ENDMDL
MODEL      127
REMARK 921   NORMALIZED FREE ENERGY PREDICTED BY IDOCK:   -4.08 KCAL/MOL
REMARK 922        TOTAL FREE ENERGY PREDICTED BY IDOCK:   -5.25 KCAL/MOL
REMARK 923 INTER-LIGAND FREE ENERGY PREDICTED BY IDOCK:   -4.72 KCAL/MOL
REMARK 924 INTRA-LIGAND FREE ENERGY PREDICTED BY IDOCK:   -0.54 KCAL/MOL
REMARK 927      BINDING AFFINITY PREDICTED BY RF-SCORE:    0.00 PKD
ROOT
HETATM    1 BR   UNL     1      -8.895   9.543  62.983  1.00  0.00    -0.216 Br 
HETATM    2  C   UNL     2      -9.526  14.843  68.498  1.00  0.00    -0.210 C  
HETATM    3  C   UNL     2      -9.152  13.337  68.578  1.00  0.00    -0.064 C  
HETATM    4  C   UNL     2     -10.343  12.335  68.514  1.00  0.00    -0.223 C  
HETATM    5  C   UNL     2     -11.697  12.944  68.044  1.00  0.00    -0.401 C  
HETATM    6  C   UNL     2     -10.153  14.391  65.993  1.00  0.00    -0.322 C  
HETATM    7  C   UNL     2     -11.780  14.490  68.032  1.00  0.00    -0.342 C  
HETATM    8  C   UNL     2     -10.288  15.221  69.772  1.00  0.00    -0.254 C  
HETATM    9  O   UNL     2     -11.240  16.298  69.713  1.00  0.00    -0.334 OA 
HETATM   10  N   UNL     2     -10.513  15.051  67.322  1.00  0.00    -0.261 N  
HETATM   11  C   UNL     2     -10.654  16.553  66.970  1.00  0.00    -0.255 C  
HETATM   12  C   UNL     2     -11.726  14.976  69.475  1.00  0.00    -0.322 C  
ENDROOT
BRANCH   4  13
HETATM   13  O   UNL     2     -10.050  11.168  67.647  1.00  0.00    -0.175 OA 
BRANCH  13  14
HETATM   14  C   UNL     2      -9.810   9.946  68.231  1.00  0.00    -0.147 C  
HETATM   15  C   UNL     2      -7.593   8.698  68.721  1.00  0.00    -0.096 A  
HETATM   16  O   UNL     2     -10.546   9.497  69.087  1.00  0.00    -0.214 OA 
HETATM   17  C   UNL     2      -9.194   7.957  66.896  1.00  0.00    -0.155 C  
HETATM   18  C   UNL     2      -8.597   9.165  67.646  1.00  0.00    -0.117 C  
HETATM   19  O   UNL     2     -10.176   8.327  65.929  1.00  0.00    -0.324 OA 
HETATM   20  C   UNL     2      -7.082   7.380  68.794  1.00  0.00    -0.081 A  
HETATM   21  C   UNL     2      -6.274   6.956  69.860  1.00  0.00    -0.031 A  
HETATM   22  H   UNL     2     -10.544   7.583  65.468  1.00  0.00     0.000 HD 
HETATM   23  C   UNL     2      -5.924   7.861  70.854  1.00  0.00    -0.034 A  
HETATM   24  C   UNL     2      -6.312   9.193  70.739  1.00  0.00    -0.064 A  
HETATM   25  C   UNL     2      -7.122   9.609  69.675  1.00  0.00    -0.075 A  
ENDBRANCH  13  14
ENDBRANCH   4  13
TORSDOF 2
ENDMDL
MODEL      128
REMARK 921   NORMALIZED FREE ENERGY PREDICTED BY IDOCK:   -4.07 KCAL/MOL
REMARK 922        TOTAL FREE ENERGY PREDICTED BY IDOCK:   -5.25 KCAL/MOL
REMARK 923 INTER-LIGAND FREE ENERGY PREDICTED BY IDOCK:   -4.64 KCAL/MOL
REMARK 924 INTRA-LIGAND FREE ENERGY PREDICTED BY IDOCK:   -0.61 KCAL/MOL
REMARK 927      BINDING AFFINITY PREDICTED BY RF-SCORE:    0.00 PKD
ROOT
HETATM    1 BR   UNL     1      -8.702   8.312  72.362  1.00  0.00    -0.285 Br 
HETATM    2  C   UNL     2      -6.158   6.007  65.499  1.00  0.00    -0.029 C  
HETATM    3  C   UNL     2      -6.732   7.375  65.959  1.00  0.00    -0.053 C  
HETATM    4  C   UNL     2      -8.283   7.461  66.071  1.00  0.00    -0.130 C  
HETATM    5  C   UNL     2      -9.025   6.092  66.039  1.00  0.00    -0.156 C  
HETATM    6  C   UNL     2      -6.916   5.083  67.832  1.00  0.00    -0.061 C  
HETATM    7  C   UNL     2      -8.193   4.876  65.564  1.00  0.00    -0.116 C  
HETATM    8  C   UNL     2      -6.564   5.777  64.040  1.00  0.00    -0.037 C  
HETATM    9  O   UNL     2      -6.710   4.426  63.568  1.00  0.00    -0.040 OA 
HETATM   10  N   UNL     2      -6.832   4.880  66.321  1.00  0.00    -0.063 N  
HETATM   11  C   UNL     2      -6.070   3.541  66.163  1.00  0.00    -0.024 C  
HETATM   12  C   UNL     2      -7.874   5.072  64.087  1.00  0.00    -0.095 C  
ENDROOT
BRANCH   4  13
HETATM   13  O   UNL     2      -8.719   8.181  67.292  1.00  0.00    -0.122 OA 
BRANCH  13  14
HETATM   14  C   UNL     2      -9.713   9.126  67.191  1.00  0.00    -0.182 C  
HETATM   15  C   UNL     2      -9.855  11.305  65.798  1.00  0.00    -0.273 A  
HETATM   16  O   UNL     2     -10.885   8.829  67.313  1.00  0.00    -0.214 OA 
HETATM   17  C   UNL     2      -9.550  11.321  68.318  1.00  0.00    -0.193 C  
HETATM   18  C   UNL     2      -9.213  10.588  67.004  1.00  0.00    -0.167 C  
HETATM   19  O   UNL     2      -9.033  10.666  69.475  1.00  0.00    -0.382 OA 
HETATM   20  C   UNL     2     -10.414  12.604  65.868  1.00  0.00    -0.295 A  
HETATM   21  C   UNL     2     -11.105  13.174  64.787  1.00  0.00    -0.351 A  
HETATM   22  H   UNL     2      -9.241  11.117  70.284  1.00  0.00     0.000 HD 
HETATM   23  C   UNL     2     -11.211  12.467  63.596  1.00  0.00    -0.545 A  
HETATM   24  C   UNL     2     -10.564  11.241  63.463  1.00  0.00    -0.436 A  
HETATM   25  C   UNL     2      -9.879  10.677  64.547  1.00  0.00    -0.388 A  
ENDBRANCH  13  14
ENDBRANCH   4  13
TORSDOF 2
ENDMDL
MODEL      129
REMARK 921   NORMALIZED FREE ENERGY PREDICTED BY IDOCK:   -4.07 KCAL/MOL
REMARK 922        TOTAL FREE ENERGY PREDICTED BY IDOCK:   -5.24 KCAL/MOL
REMARK 923 INTER-LIGAND FREE ENERGY PREDICTED BY IDOCK:   -4.86 KCAL/MOL
REMARK 924 INTRA-LIGAND FREE ENERGY PREDICTED BY IDOCK:   -0.38 KCAL/MOL
REMARK 927      BINDING AFFINITY PREDICTED BY RF-SCORE:    0.00 PKD
ROOT
HETATM    1 BR   UNL     1      -5.487   7.793  70.370  1.00  0.00    -0.023 Br 
HETATM    2  C   UNL     2     -10.223  13.198  67.676  1.00  0.00    -0.224 C  
HETATM    3  C   UNL     2     -10.491  11.717  68.063  1.00  0.00    -0.221 C  
HETATM    4  C   UNL     2     -10.072  10.651  67.009  1.00  0.00    -0.211 C  
HETATM    5  C   UNL     2      -9.145  11.172  65.872  1.00  0.00    -0.218 C  
HETATM    6  C   UNL     2      -7.676  12.645  67.959  1.00  0.00    -0.139 C  
HETATM    7  C   UNL     2      -9.036  12.710  65.732  1.00  0.00     0.282 C  
HETATM    8  C   UNL     2     -11.145  13.569  66.510  1.00  0.00    -0.300 C  
HETATM    9  O   UNL     2     -10.720  14.590  65.590  1.00  0.00    -0.299 OA 
HETATM   10  N   UNL     2      -8.774  13.320  67.140  1.00  0.00    -0.214 N  
HETATM   11  C   UNL     2      -8.329  14.802  67.064  1.00  0.00    -0.198 C  
HETATM   12  C   UNL     2     -10.390  13.237  65.271  1.00  0.00    -0.312 C  
ENDROOT
BRANCH   4  13
HETATM   13  O   UNL     2      -9.408   9.478  67.629  1.00  0.00    -0.124 OA 
BRANCH  13  14
HETATM   14  C   UNL     2     -10.164   8.592  68.361  1.00  0.00    -0.200 C  
HETATM   15  C   UNL     2     -10.924   8.642  70.837  1.00  0.00    -0.301 A  
HETATM   16  O   UNL     2     -11.038   7.926  67.843  1.00  0.00     0.062 OA 
HETATM   17  C   UNL     2      -9.144   7.041  69.994  1.00  0.00    -0.145 C  
HETATM   18  C   UNL     2      -9.749   8.452  69.854  1.00  0.00    -0.179 C  
HETATM   19  O   UNL     2      -8.091   6.788  69.065  1.00  0.00    -0.114 OA 
HETATM   20  C   UNL     2     -11.200   7.756  71.906  1.00  0.00    -0.310 A  
HETATM   21  C   UNL     2     -12.350   7.887  72.699  1.00  0.00    -0.108 A  
HETATM   22  H   UNL     2      -7.719   5.918  69.151  1.00  0.00     0.000 HD 
HETATM   23  C   UNL     2     -13.226   8.938  72.463  1.00  0.00    -0.438 A  
HETATM   24  C   UNL     2     -12.913   9.892  71.499  1.00  0.00    -0.523 A  
HETATM   25  C   UNL     2     -11.765   9.754  70.709  1.00  0.00    -0.407 A  
ENDBRANCH  13  14
ENDBRANCH   4  13
TORSDOF 2
ENDMDL
MODEL      130
REMARK 921   NORMALIZED FREE ENERGY PREDICTED BY IDOCK:   -4.05 KCAL/MOL
REMARK 922        TOTAL FREE ENERGY PREDICTED BY IDOCK:   -5.23 KCAL/MOL
REMARK 923 INTER-LIGAND FREE ENERGY PREDICTED BY IDOCK:   -4.83 KCAL/MOL
REMARK 924 INTRA-LIGAND FREE ENERGY PREDICTED BY IDOCK:   -0.40 KCAL/MOL
REMARK 927      BINDING AFFINITY PREDICTED BY RF-SCORE:    0.00 PKD
ROOT
HETATM    1 BR   UNL     1      -5.921   4.077  67.778  1.00  0.00    -0.028 Br 
HETATM    2  C   UNL     2     -11.913   6.793  71.729  1.00  0.00    -0.339 C  
HETATM    3  C   UNL     2     -11.710   6.603  70.201  1.00  0.00    -0.412 C  
HETATM    4  C   UNL     2     -10.868   7.698  69.483  1.00  0.00    -0.165 C  
HETATM    5  C   UNL     2     -10.065   8.641  70.428  1.00  0.00    -0.213 C  
HETATM    6  C   UNL     2      -9.365   6.235  71.977  1.00  0.00    -0.152 C  
HETATM    7  C   UNL     2     -10.460   8.603  71.924  1.00  0.00    -0.340 C  
HETATM    8  C   UNL     2     -12.796   8.026  71.950  1.00  0.00    -0.320 C  
HETATM    9  O   UNL     2     -12.651   8.768  73.174  1.00  0.00    -0.087 OA 
HETATM   10  N   UNL     2     -10.544   7.116  72.379  1.00  0.00    -0.216 N  
HETATM   11  C   UNL     2     -10.611   6.977  73.920  1.00  0.00    -0.194 C  
HETATM   12  C   UNL     2     -11.864   9.182  72.055  1.00  0.00    -0.337 C  
ENDROOT
BRANCH   4  13
HETATM   13  O   UNL     2      -9.912   7.122  68.506  1.00  0.00    -0.151 OA 
BRANCH  13  14
HETATM   14  C   UNL     2     -10.105   7.358  67.165  1.00  0.00    -0.244 C  
HETATM   15  C   UNL     2      -8.513   8.314  65.358  1.00  0.00    -0.189 A  
HETATM   16  O   UNL     2     -10.853   6.668  66.500  1.00  0.00    -0.171 OA 
HETATM   17  C   UNL     2     -10.476   9.636  66.277  1.00  0.00    -0.079 C  
HETATM   18  C   UNL     2      -9.372   8.612  66.606  1.00  0.00    -0.246 C  
HETATM   19  O   UNL     2     -11.340   9.903  67.381  1.00  0.00    -0.388 OA 
HETATM   20  C   UNL     2      -8.555   9.094  64.177  1.00  0.00    -0.191 A  
HETATM   21  C   UNL     2      -7.860   8.720  63.016  1.00  0.00    -0.138 A  
HETATM   22  H   UNL     2     -12.021  10.533  67.178  1.00  0.00     0.000 HD 
HETATM   23  C   UNL     2      -7.071   7.577  63.032  1.00  0.00    -0.074 A  
HETATM   24  C   UNL     2      -6.917   6.863  64.217  1.00  0.00    -0.052 A  
HETATM   25  C   UNL     2      -7.616   7.240  65.371  1.00  0.00    -0.100 A  
ENDBRANCH  13  14
ENDBRANCH   4  13
TORSDOF 2
ENDMDL
MODEL      131
REMARK 921   NORMALIZED FREE ENERGY PREDICTED BY IDOCK:   -4.04 KCAL/MOL
REMARK 922        TOTAL FREE ENERGY PREDICTED BY IDOCK:   -5.21 KCAL/MOL
REMARK 923 INTER-LIGAND FREE ENERGY PREDICTED BY IDOCK:   -4.97 KCAL/MOL
REMARK 924 INTRA-LIGAND FREE ENERGY PREDICTED BY IDOCK:   -0.24 KCAL/MOL
REMARK 927      BINDING AFFINITY PREDICTED BY RF-SCORE:    0.00 PKD
ROOT
HETATM    1 BR   UNL     1     -11.267  13.621  64.369  1.00  0.00    -0.365 Br 
HETATM    2  C   UNL     2      -9.510   6.406  66.305  1.00  0.00    -0.095 C  
HETATM    3  C   UNL     2     -10.458   7.434  66.982  1.00  0.00    -0.404 C  
HETATM    4  C   UNL     2      -9.769   8.519  67.863  1.00  0.00    -0.162 C  
HETATM    5  C   UNL     2      -8.227   8.639  67.680  1.00  0.00    -0.110 C  
HETATM    6  C   UNL     2      -8.709   8.384  64.784  1.00  0.00     0.024 C  
HETATM    7  C   UNL     2      -7.537   7.473  66.931  1.00  0.00    -0.102 C  
HETATM    8  C   UNL     2      -8.883   5.533  67.397  1.00  0.00    -0.105 C  
HETATM    9  O   UNL     2      -7.587   4.956  67.160  1.00  0.00    -0.085 OA 
HETATM   10  N   UNL     2      -8.342   7.170  65.633  1.00  0.00    -0.134 N  
HETATM   11  C   UNL     2      -7.561   6.252  64.660  1.00  0.00    -0.098 C  
HETATM   12  C   UNL     2      -7.632   6.229  67.807  1.00  0.00    -0.101 C  
ENDROOT
BRANCH   4  13
HETATM   13  O   UNL     2     -10.353   9.866  67.654  1.00  0.00    -0.194 OA 
BRANCH  13  14
HETATM   14  C   UNL     2      -9.847  10.930  68.363  1.00  0.00    -0.177 C  
HETATM   15  C   UNL     2     -10.770  13.323  68.734  1.00  0.00    -0.253 A  
HETATM   16  O   UNL     2      -9.172  10.765  69.360  1.00  0.00    -0.118 OA 
HETATM   17  C   UNL     2      -8.768  12.854  67.245  1.00  0.00    -0.204 C  
HETATM   18  C   UNL     2     -10.130  12.329  67.741  1.00  0.00    -0.202 C  
HETATM   19  O   UNL     2      -8.102  11.945  66.370  1.00  0.00    -0.366 OA 
HETATM   20  C   UNL     2     -10.308  14.648  68.920  1.00  0.00    -0.245 A  
HETATM   21  C   UNL     2     -10.829  15.481  69.922  1.00  0.00    -0.311 A  
HETATM   22  H   UNL     2      -7.262  12.269  66.064  1.00  0.00     0.000 HD 
HETATM   23  C   UNL     2     -11.858  15.015  70.730  1.00  0.00    -0.372 A  
HETATM   24  C   UNL     2     -12.412  13.762  70.486  1.00  0.00    -0.409 A  
HETATM   25  C   UNL     2     -11.885  12.934  69.486  1.00  0.00    -0.383 A  
ENDBRANCH  13  14
ENDBRANCH   4  13
TORSDOF 2
ENDMDL
MODEL      132
REMARK 921   NORMALIZED FREE ENERGY PREDICTED BY IDOCK:   -4.00 KCAL/MOL
REMARK 922        TOTAL FREE ENERGY PREDICTED BY IDOCK:   -5.17 KCAL/MOL
REMARK 923 INTER-LIGAND FREE ENERGY PREDICTED BY IDOCK:   -5.25 KCAL/MOL
REMARK 924 INTRA-LIGAND FREE ENERGY PREDICTED BY IDOCK:    0.08 KCAL/MOL
REMARK 927      BINDING AFFINITY PREDICTED BY RF-SCORE:    0.00 PKD
ROOT
HETATM    1 BR   UNL     1      -6.957   8.561  73.529  1.00  0.00    -0.017 Br 
HETATM    2  C   UNL     2     -10.795  13.046  68.624  1.00  0.00    -0.259 C  
HETATM    3  C   UNL     2     -11.289  12.230  69.851  1.00  0.00    -0.084 C  
HETATM    4  C   UNL     2     -11.495  10.705  69.618  1.00  0.00    -0.291 C  
HETATM    5  C   UNL     2     -10.864  10.144  68.309  1.00  0.00    -0.297 C  
HETATM    6  C   UNL     2      -8.507  11.802  68.920  1.00  0.00     0.099 C  
HETATM    7  C   UNL     2     -10.426  11.195  67.259  1.00  0.00    -0.226 C  
HETATM    8  C   UNL     2     -11.910  13.063  67.573  1.00  0.00    -0.355 C  
HETATM    9  O   UNL     2     -11.549  13.189  66.187  1.00  0.00    -0.324 OA 
HETATM   10  N   UNL     2      -9.599  12.301  67.979  1.00  0.00    -0.200 N  
HETATM   11  C   UNL     2      -8.847  13.214  66.979  1.00  0.00    -0.210 C  
HETATM   12  C   UNL     2     -11.681  11.868  66.716  1.00  0.00    -0.202 C  
ENDROOT
BRANCH   4  13
HETATM   13  O   UNL     2     -10.985   9.889  70.747  1.00  0.00    -0.307 OA 
BRANCH  13  14
HETATM   14  C   UNL     2     -10.156   8.825  70.482  1.00  0.00    -0.195 C  
HETATM   15  C   UNL     2     -10.640   6.512  69.419  1.00  0.00    -0.291 A  
HETATM   16  O   UNL     2      -8.983   8.988  70.205  1.00  0.00    -0.164 OA 
HETATM   17  C   UNL     2     -10.142   6.794  71.892  1.00  0.00    -0.180 C  
HETATM   18  C   UNL     2     -10.810   7.423  70.654  1.00  0.00    -0.258 C  
HETATM   19  O   UNL     2     -10.215   7.623  73.051  1.00  0.00    -0.261 OA 
HETATM   20  C   UNL     2     -10.199   5.169  69.494  1.00  0.00    -0.318 A  
HETATM   21  C   UNL     2      -9.931   4.412  68.343  1.00  0.00    -0.070 A  
HETATM   22  H   UNL     2      -9.803   7.235  73.814  1.00  0.00     0.000 HD 
HETATM   23  C   UNL     2     -10.144   4.973  67.091  1.00  0.00    -0.239 A  
HETATM   24  C   UNL     2     -10.694   6.248  66.993  1.00  0.00    -0.435 A  
HETATM   25  C   UNL     2     -10.956   7.001  68.145  1.00  0.00    -0.165 A  
ENDBRANCH  13  14
ENDBRANCH   4  13
TORSDOF 2
ENDMDL
MODEL      133
REMARK 921   NORMALIZED FREE ENERGY PREDICTED BY IDOCK:   -4.00 KCAL/MOL
REMARK 922        TOTAL FREE ENERGY PREDICTED BY IDOCK:   -5.17 KCAL/MOL
REMARK 923 INTER-LIGAND FREE ENERGY PREDICTED BY IDOCK:   -4.94 KCAL/MOL
REMARK 924 INTRA-LIGAND FREE ENERGY PREDICTED BY IDOCK:   -0.23 KCAL/MOL
REMARK 927      BINDING AFFINITY PREDICTED BY RF-SCORE:    0.00 PKD
ROOT
HETATM    1 BR   UNL     1     -11.685  13.527  67.758  1.00  0.00    -0.402 Br 
HETATM    2  C   UNL     2      -7.927   7.725  64.424  1.00  0.00    -0.126 C  
HETATM    3  C   UNL     2      -8.675   7.799  65.784  1.00  0.00    -0.160 C  
HETATM    4  C   UNL     2      -7.899   8.477  66.952  1.00  0.00    -0.092 C  
HETATM    5  C   UNL     2      -6.636   9.282  66.529  1.00  0.00    -0.067 C  
HETATM    6  C   UNL     2      -8.242  10.324  64.289  1.00  0.00    -0.157 C  
HETATM    7  C   UNL     2      -6.119   9.034  65.091  1.00  0.00    -0.060 C  
HETATM    8  C   UNL     2      -6.741   6.767  64.575  1.00  0.00    -0.042 C  
HETATM    9  O   UNL     2      -5.585   6.963  63.743  1.00  0.00    -0.030 OA 
HETATM   10  N   UNL     2      -7.325   9.117  64.109  1.00  0.00    -0.102 N  
HETATM   11  C   UNL     2      -6.871   9.207  62.630  1.00  0.00    -0.092 C  
HETATM   12  C   UNL     2      -5.594   7.604  65.020  1.00  0.00    -0.033 C  
ENDROOT
BRANCH   4  13
HETATM   13  O   UNL     2      -8.763   9.381  67.750  1.00  0.00    -0.117 OA 
BRANCH  13  14
HETATM   14  C   UNL     2      -9.900   8.875  68.335  1.00  0.00    -0.174 C  
HETATM   15  C   UNL     2     -10.998   9.368  70.630  1.00  0.00    -0.352 A  
HETATM   16  O   UNL     2     -10.855   8.528  67.669  1.00  0.00    -0.169 OA 
HETATM   17  C   UNL     2      -9.802   7.183  70.136  1.00  0.00    -0.179 C  
HETATM   18  C   UNL     2      -9.823   8.704  69.880  1.00  0.00    -0.185 C  
HETATM   19  O   UNL     2      -8.771   6.508  69.417  1.00  0.00    -0.132 OA 
HETATM   20  C   UNL     2     -11.752   8.715  71.634  1.00  0.00    -0.380 A  
HETATM   21  C   UNL     2     -12.894   9.301  72.202  1.00  0.00    -0.485 A  
HETATM   22  H   UNL     2      -8.759   5.571  69.574  1.00  0.00     0.000 HD 
HETATM   23  C   UNL     2     -13.277  10.576  71.804  1.00  0.00    -0.522 A  
HETATM   24  C   UNL     2     -12.482  11.285  70.909  1.00  0.00    -0.493 A  
HETATM   25  C   UNL     2     -11.345  10.693  70.344  1.00  0.00    -0.389 A  
ENDBRANCH  13  14
ENDBRANCH   4  13
TORSDOF 2
ENDMDL
MODEL      134
REMARK 921   NORMALIZED FREE ENERGY PREDICTED BY IDOCK:   -3.99 KCAL/MOL
REMARK 922        TOTAL FREE ENERGY PREDICTED BY IDOCK:   -5.16 KCAL/MOL
REMARK 923 INTER-LIGAND FREE ENERGY PREDICTED BY IDOCK:   -5.02 KCAL/MOL
REMARK 924 INTRA-LIGAND FREE ENERGY PREDICTED BY IDOCK:   -0.13 KCAL/MOL
REMARK 927      BINDING AFFINITY PREDICTED BY RF-SCORE:    0.00 PKD
ROOT
HETATM    1 BR   UNL     1     -10.577  15.462  69.519  1.00  0.00    -0.292 Br 
HETATM    2  C   UNL     2     -10.034   8.153  71.794  1.00  0.00    -0.201 C  
HETATM    3  C   UNL     2      -8.992   9.082  71.112  1.00  0.00    -0.303 C  
HETATM    4  C   UNL     2      -9.145   9.263  69.573  1.00  0.00    -0.160 C  
HETATM    5  C   UNL     2     -10.500   8.774  68.980  1.00  0.00    -0.220 C  
HETATM    6  C   UNL     2     -11.793  10.034  71.308  1.00  0.00    -0.385 C  
HETATM    7  C   UNL     2     -11.363   7.878  69.901  1.00  0.00     0.042 C  
HETATM    8  C   UNL     2      -9.794   6.719  71.311  1.00  0.00    -0.176 C  
HETATM    9  O   UNL     2     -10.906   5.807  71.277  1.00  0.00    -0.255 OA 
HETATM   10  N   UNL     2     -11.450   8.547  71.305  1.00  0.00    -0.266 N  
HETATM   11  C   UNL     2     -12.546   7.906  72.193  1.00  0.00    -0.249 C  
HETATM   12  C   UNL     2     -10.631   6.555  70.091  1.00  0.00    -0.227 C  
ENDROOT
BRANCH   4  13
HETATM   13  O   UNL     2      -8.952  10.672  69.151  1.00  0.00    -0.170 OA 
BRANCH  13  14
HETATM   14  C   UNL     2      -8.319  10.931  67.957  1.00  0.00    -0.122 C  
HETATM   15  C   UNL     2      -8.880  10.194  65.538  1.00  0.00    -0.191 A  
HETATM   16  O   UNL     2      -7.719  11.971  67.770  1.00  0.00    -0.120 OA 
HETATM   17  C   UNL     2      -6.913   9.239  66.828  1.00  0.00    -0.081 C  
HETATM   18  C   UNL     2      -8.359   9.766  66.926  1.00  0.00    -0.120 C  
HETATM   19  O   UNL     2      -6.358   8.885  68.094  1.00  0.00    -0.054 OA 
HETATM   20  C   UNL     2      -8.228   9.867  64.324  1.00  0.00    -0.161 A  
HETATM   21  C   UNL     2      -8.656  10.382  63.091  1.00  0.00    -0.191 A  
HETATM   22  H   UNL     2      -5.467   8.561  68.033  1.00  0.00     0.000 HD 
HETATM   23  C   UNL     2      -9.777  11.201  63.045  1.00  0.00    -0.384 A  
HETATM   24  C   UNL     2     -10.506  11.436  64.208  1.00  0.00    -0.401 A  
HETATM   25  C   UNL     2     -10.071  10.922  65.436  1.00  0.00    -0.336 A  
ENDBRANCH  13  14
ENDBRANCH   4  13
TORSDOF 2
ENDMDL
MODEL      135
REMARK 921   NORMALIZED FREE ENERGY PREDICTED BY IDOCK:   -3.95 KCAL/MOL
REMARK 922        TOTAL FREE ENERGY PREDICTED BY IDOCK:   -5.11 KCAL/MOL
REMARK 923 INTER-LIGAND FREE ENERGY PREDICTED BY IDOCK:   -5.02 KCAL/MOL
REMARK 924 INTRA-LIGAND FREE ENERGY PREDICTED BY IDOCK:   -0.09 KCAL/MOL
REMARK 927      BINDING AFFINITY PREDICTED BY RF-SCORE:    0.00 PKD
ROOT
HETATM    1 BR   UNL     1     -13.510  14.805  72.366  1.00  0.00    -0.585 Br 
HETATM    2  C   UNL     2     -11.717  13.262  65.065  1.00  0.00    -0.333 C  
HETATM    3  C   UNL     2     -12.634  12.504  66.066  1.00  0.00     0.437 C  
HETATM    4  C   UNL     2     -11.907  11.602  67.107  1.00  0.00    -0.006 C  
HETATM    5  C   UNL     2     -10.373  11.837  67.230  1.00  0.00    -0.231 C  
HETATM    6  C   UNL     2     -10.963  14.722  67.108  1.00  0.00    -0.320 C  
HETATM    7  C   UNL     2      -9.716  12.663  66.097  1.00  0.00    -0.251 C  
HETATM    8  C   UNL     2     -11.053  12.235  64.143  1.00  0.00    -0.366 C  
HETATM    9  O   UNL     2      -9.770  12.546  63.573  1.00  0.00    -0.267 OA 
HETATM   10  N   UNL     2     -10.571  13.942  65.855  1.00  0.00    -0.287 N  
HETATM   11  C   UNL     2      -9.831  14.984  64.980  1.00  0.00    -0.027 C  
HETATM   12  C   UNL     2      -9.785  11.841  64.815  1.00  0.00    -0.161 C  
ENDROOT
BRANCH   4  13
HETATM   13  O   UNL     2     -12.492  11.728  68.464  1.00  0.00    -0.205 OA 
BRANCH  13  14
HETATM   14  C   UNL     2     -11.676  11.572  69.560  1.00  0.00    -0.346 C  
HETATM   15  C   UNL     2     -10.077   9.648  70.233  1.00  0.00    -0.331 A  
HETATM   16  O   UNL     2     -11.165  12.528  70.112  1.00  0.00     0.105 OA 
HETATM   17  C   UNL     2     -12.273  10.072  71.434  1.00  0.00    -0.416 C  
HETATM   18  C   UNL     2     -11.541  10.111  70.077  1.00  0.00    -0.323 C  
HETATM   19  O   UNL     2     -13.616  10.549  71.360  1.00  0.00    -0.186 OA 
HETATM   20  C   UNL     2      -9.580   9.005  71.392  1.00  0.00    -0.356 A  
HETATM   21  C   UNL     2      -8.216   8.716  71.553  1.00  0.00    -0.209 A  
HETATM   22  H   UNL     2     -14.066  10.526  72.196  1.00  0.00     0.000 HD 
HETATM   23  C   UNL     2      -7.327   9.027  70.532  1.00  0.00    -0.086 A  
HETATM   24  C   UNL     2      -7.810   9.547  69.334  1.00  0.00    -0.097 A  
HETATM   25  C   UNL     2      -9.172   9.836  69.181  1.00  0.00    -0.177 A  
ENDBRANCH  13  14
ENDBRANCH   4  13
TORSDOF 2
ENDMDL
MODEL      136
REMARK 921   NORMALIZED FREE ENERGY PREDICTED BY IDOCK:   -3.92 KCAL/MOL
REMARK 922        TOTAL FREE ENERGY PREDICTED BY IDOCK:   -5.08 KCAL/MOL
REMARK 923 INTER-LIGAND FREE ENERGY PREDICTED BY IDOCK:   -4.54 KCAL/MOL
REMARK 924 INTRA-LIGAND FREE ENERGY PREDICTED BY IDOCK:   -0.53 KCAL/MOL
REMARK 927      BINDING AFFINITY PREDICTED BY RF-SCORE:    0.00 PKD
ROOT
HETATM    1 BR   UNL     1     -10.623  11.117  64.703  1.00  0.00    -0.357 Br 
HETATM    2  C   UNL     2      -9.720   7.624  71.476  1.00  0.00    -0.165 C  
HETATM    3  C   UNL     2      -8.973   7.429  70.128  1.00  0.00    -0.148 C  
HETATM    4  C   UNL     2      -9.710   6.570  69.059  1.00  0.00    -0.135 C  
HETATM    5  C   UNL     2     -11.218   6.308  69.344  1.00  0.00    -0.489 C  
HETATM    6  C   UNL     2     -11.396   9.137  70.146  1.00  0.00    -0.142 C  
HETATM    7  C   UNL     2     -11.705   6.624  70.779  1.00  0.00    -0.388 C  
HETATM    8  C   UNL     2      -9.789   6.271  72.192  1.00  0.00    -0.156 C  
HETATM    9  O   UNL     2     -10.882   6.021  73.092  1.00  0.00    -0.245 OA 
HETATM   10  N   UNL     2     -11.184   8.036  71.181  1.00  0.00    -0.256 N  
HETATM   11  C   UNL     2     -11.880   8.577  72.455  1.00  0.00    -0.367 C  
HETATM   12  C   UNL     2     -11.049   5.628  71.729  1.00  0.00    -0.199 C  
ENDROOT
BRANCH   4  13
HETATM   13  O   UNL     2      -9.604   7.153  67.699  1.00  0.00    -0.128 OA 
BRANCH  13  14
HETATM   14  C   UNL     2      -8.362   7.294  67.127  1.00  0.00    -0.118 C  
HETATM   15  C   UNL     2      -7.249   9.314  65.946  1.00  0.00    -0.091 A  
HETATM   16  O   UNL     2      -7.397   6.687  67.548  1.00  0.00    -0.090 OA 
HETATM   17  C   UNL     2      -8.039   7.263  64.675  1.00  0.00    -0.081 C  
HETATM   18  C   UNL     2      -8.319   8.203  65.865  1.00  0.00    -0.134 C  
HETATM   19  O   UNL     2      -8.964   6.180  64.588  1.00  0.00    -0.344 OA 
HETATM   20  C   UNL     2      -6.331   9.592  64.905  1.00  0.00    -0.081 A  
HETATM   21  C   UNL     2      -5.289  10.519  65.063  1.00  0.00    -0.148 A  
HETATM   22  H   UNL     2      -8.791   5.600  63.855  1.00  0.00     0.000 HD 
HETATM   23  C   UNL     2      -5.175  11.220  66.257  1.00  0.00    -0.126 A  
HETATM   24  C   UNL     2      -6.138  11.054  67.248  1.00  0.00    -0.066 A  
HETATM   25  C   UNL     2      -7.173  10.124  67.085  1.00  0.00    -0.090 A  
ENDBRANCH  13  14
ENDBRANCH   4  13
TORSDOF 2
ENDMDL
MODEL      137
REMARK 921   NORMALIZED FREE ENERGY PREDICTED BY IDOCK:   -3.91 KCAL/MOL
REMARK 922        TOTAL FREE ENERGY PREDICTED BY IDOCK:   -5.07 KCAL/MOL
REMARK 923 INTER-LIGAND FREE ENERGY PREDICTED BY IDOCK:   -4.39 KCAL/MOL
REMARK 924 INTRA-LIGAND FREE ENERGY PREDICTED BY IDOCK:   -0.68 KCAL/MOL
REMARK 927      BINDING AFFINITY PREDICTED BY RF-SCORE:    0.00 PKD
ROOT
HETATM    1 BR   UNL     1      -8.188  11.467  67.784  1.00  0.00    -0.131 Br 
HETATM    2  C   UNL     2      -9.541   4.412  65.082  1.00  0.00    -0.178 C  
HETATM    3  C   UNL     2     -10.171   5.177  66.279  1.00  0.00    -0.289 C  
HETATM    4  C   UNL     2      -9.327   5.210  67.587  1.00  0.00    -0.122 C  
HETATM    5  C   UNL     2      -7.840   4.775  67.427  1.00  0.00    -0.094 C  
HETATM    6  C   UNL     2      -7.805   6.371  64.950  1.00  0.00    -0.113 C  
HETATM    7  C   UNL     2      -7.480   4.053  66.106  1.00  0.00    -0.088 C  
HETATM    8  C   UNL     2      -9.494   2.921  65.431  1.00  0.00    -0.039 C  
HETATM    9  O   UNL     2      -8.470   2.105  64.836  1.00  0.00    -0.087 OA 
HETATM   10  N   UNL     2      -8.070   4.868  64.917  1.00  0.00    -0.106 N  
HETATM   11  C   UNL     2      -7.494   4.414  63.553  1.00  0.00    -0.055 C  
HETATM   12  C   UNL     2      -8.183   2.701  66.102  1.00  0.00    -0.087 C  
ENDROOT
BRANCH   4  13
HETATM   13  O   UNL     2      -9.338   6.547  68.230  1.00  0.00    -0.121 OA 
BRANCH  13  14
HETATM   14  C   UNL     2      -9.383   6.629  69.602  1.00  0.00    -0.143 C  
HETATM   15  C   UNL     2     -10.605   5.166  71.356  1.00  0.00    -0.207 A  
HETATM   16  O   UNL     2      -8.442   7.056  70.242  1.00  0.00    -0.135 OA 
HETATM   17  C   UNL     2     -11.354   7.527  70.796  1.00  0.00    -0.280 C  
HETATM   18  C   UNL     2     -10.743   6.224  70.240  1.00  0.00    -0.339 C  
HETATM   19  O   UNL     2     -11.447   8.563  69.819  1.00  0.00    -0.452 OA 
HETATM   20  C   UNL     2     -11.226   5.282  72.623  1.00  0.00    -0.311 A  
HETATM   21  C   UNL     2     -10.975   4.368  73.658  1.00  0.00    -0.374 A  
HETATM   22  H   UNL     2     -11.823   9.365  70.161  1.00  0.00     0.000 HD 
HETATM   23  C   UNL     2     -10.128   3.291  73.427  1.00  0.00    -0.194 A  
HETATM   24  C   UNL     2      -9.604   3.088  72.154  1.00  0.00    -0.210 A  
HETATM   25  C   UNL     2      -9.856   4.006  71.126  1.00  0.00    -0.236 A  
ENDBRANCH  13  14
ENDBRANCH   4  13
TORSDOF 2
ENDMDL
MODEL      138
REMARK 921   NORMALIZED FREE ENERGY PREDICTED BY IDOCK:   -3.89 KCAL/MOL
REMARK 922        TOTAL FREE ENERGY PREDICTED BY IDOCK:   -5.04 KCAL/MOL
REMARK 923 INTER-LIGAND FREE ENERGY PREDICTED BY IDOCK:   -4.85 KCAL/MOL
REMARK 924 INTRA-LIGAND FREE ENERGY PREDICTED BY IDOCK:   -0.19 KCAL/MOL
REMARK 927      BINDING AFFINITY PREDICTED BY RF-SCORE:    0.00 PKD
ROOT
HETATM    1 BR   UNL     1      -6.083  12.730  68.093  1.00  0.00    -0.099 Br 
HETATM    2  C   UNL     2      -8.061   5.439  66.744  1.00  0.00    -0.105 C  
HETATM    3  C   UNL     2      -8.417   6.744  65.979  1.00  0.00    -0.143 C  
HETATM    4  C   UNL     2      -9.552   7.610  66.600  1.00  0.00    -0.206 C  
HETATM    5  C   UNL     2      -9.943   7.241  68.061  1.00  0.00    -0.186 C  
HETATM    6  C   UNL     2      -7.057   6.991  68.602  1.00  0.00    -0.092 C  
HETATM    7  C   UNL     2      -9.419   5.881  68.584  1.00  0.00    -0.122 C  
HETATM    8  C   UNL     2      -9.248   4.476  66.638  1.00  0.00    -0.134 C  
HETATM    9  O   UNL     2      -9.456   3.517  67.690  1.00  0.00    -0.197 OA 
HETATM   10  N   UNL     2      -7.903   5.770  68.249  1.00  0.00    -0.099 N  
HETATM   11  C   UNL     2      -7.218   4.606  69.008  1.00  0.00    -0.053 C  
HETATM   12  C   UNL     2     -10.123   4.776  67.805  1.00  0.00    -0.069 C  
ENDROOT
BRANCH   4  13
HETATM   13  O   UNL     2      -9.234   9.058  66.571  1.00  0.00    -0.156 OA 
BRANCH  13  14
HETATM   14  C   UNL     2     -10.239   9.968  66.800  1.00  0.00    -0.232 C  
HETATM   15  C   UNL     2     -10.631  12.348  65.854  1.00  0.00    -0.289 A  
HETATM   16  O   UNL     2     -11.372   9.610  67.057  1.00  0.00     0.198 OA 
HETATM   17  C   UNL     2      -9.911  11.942  68.254  1.00  0.00    -0.202 C  
HETATM   18  C   UNL     2      -9.790  11.458  66.795  1.00  0.00    -0.232 C  
HETATM   19  O   UNL     2      -9.202  11.117  69.178  1.00  0.00    -0.378 OA 
HETATM   20  C   UNL     2     -11.182  13.593  66.241  1.00  0.00    -0.313 A  
HETATM   21  C   UNL     2     -12.048  14.313  65.404  1.00  0.00    -0.396 A  
HETATM   22  H   UNL     2      -9.277  11.414  70.077  1.00  0.00     0.000 HD 
HETATM   23  C   UNL     2     -12.344  13.818  64.140  1.00  0.00    -0.382 A  
HETATM   24  C   UNL     2     -11.718  12.659  63.691  1.00  0.00    -0.597 A  
HETATM   25  C   UNL     2     -10.856  11.944  64.533  1.00  0.00    -0.368 A  
ENDBRANCH  13  14
ENDBRANCH   4  13
TORSDOF 2
ENDMDL
MODEL      139
REMARK 921   NORMALIZED FREE ENERGY PREDICTED BY IDOCK:   -3.87 KCAL/MOL
REMARK 922        TOTAL FREE ENERGY PREDICTED BY IDOCK:   -5.02 KCAL/MOL
REMARK 923 INTER-LIGAND FREE ENERGY PREDICTED BY IDOCK:   -4.73 KCAL/MOL
REMARK 924 INTRA-LIGAND FREE ENERGY PREDICTED BY IDOCK:   -0.29 KCAL/MOL
REMARK 927      BINDING AFFINITY PREDICTED BY RF-SCORE:    0.00 PKD
ROOT
HETATM    1 BR   UNL     1      -6.316   8.094  72.002  1.00  0.00    -0.060 Br 
HETATM    2  C   UNL     2     -10.921  13.257  68.681  1.00  0.00    -0.264 C  
HETATM    3  C   UNL     2     -11.193  12.248  69.830  1.00  0.00     0.048 C  
HETATM    4  C   UNL     2     -11.463  10.777  69.396  1.00  0.00    -0.295 C  
HETATM    5  C   UNL     2     -11.094  10.444  67.920  1.00  0.00    -0.363 C  
HETATM    6  C   UNL     2      -8.638  12.015  68.344  1.00  0.00    -0.147 C  
HETATM    7  C   UNL     2     -10.841  11.657  66.991  1.00  0.00    -0.266 C  
HETATM    8  C   UNL     2     -12.210  13.429  67.871  1.00  0.00    -0.110 C  
HETATM    9  O   UNL     2     -12.110  13.782  66.480  1.00  0.00    -0.414 OA 
HETATM   10  N   UNL     2      -9.877  12.643  67.714  1.00  0.00    -0.206 N  
HETATM   11  C   UNL     2      -9.308  13.717  66.753  1.00  0.00    -0.261 C  
HETATM   12  C   UNL     2     -12.163  12.391  66.804  1.00  0.00     0.179 C  
ENDROOT
BRANCH   4  13
HETATM   13  O   UNL     2     -10.766   9.797  70.265  1.00  0.00    -0.257 OA 
BRANCH  13  14
HETATM   14  C   UNL     2     -11.279   8.527  70.385  1.00  0.00    -0.211 C  
HETATM   15  C   UNL     2     -10.244   6.355  71.345  1.00  0.00    -0.228 A  
HETATM   16  O   UNL     2     -12.467   8.337  70.558  1.00  0.00     0.149 OA 
HETATM   17  C   UNL     2     -10.616   6.698  68.857  1.00  0.00    -0.230 C  
HETATM   18  C   UNL     2     -10.246   7.380  70.190  1.00  0.00    -0.207 C  
HETATM   19  O   UNL     2     -10.693   7.611  67.764  1.00  0.00    -0.392 OA 
HETATM   20  C   UNL     2     -10.282   4.954  71.147  1.00  0.00    -0.261 A  
HETATM   21  C   UNL     2     -10.411   4.057  72.218  1.00  0.00    -0.183 A  
HETATM   22  H   UNL     2     -10.922   7.192  66.943  1.00  0.00     0.000 HD 
HETATM   23  C   UNL     2     -10.458   4.547  73.517  1.00  0.00    -0.272 A  
HETATM   24  C   UNL     2     -10.298   5.911  73.745  1.00  0.00    -0.272 A  
HETATM   25  C   UNL     2     -10.173   6.801  72.670  1.00  0.00    -0.208 A  
ENDBRANCH  13  14
ENDBRANCH   4  13
TORSDOF 2
ENDMDL
MODEL      140
REMARK 921   NORMALIZED FREE ENERGY PREDICTED BY IDOCK:   -3.82 KCAL/MOL
REMARK 922        TOTAL FREE ENERGY PREDICTED BY IDOCK:   -4.97 KCAL/MOL
REMARK 923 INTER-LIGAND FREE ENERGY PREDICTED BY IDOCK:   -4.27 KCAL/MOL
REMARK 924 INTRA-LIGAND FREE ENERGY PREDICTED BY IDOCK:   -0.70 KCAL/MOL
REMARK 927      BINDING AFFINITY PREDICTED BY RF-SCORE:    0.00 PKD
ROOT
HETATM    1 BR   UNL     1     -12.785  11.747  63.412  1.00  0.00    -0.095 Br 
HETATM    2  C   UNL     2      -7.336  15.352  67.438  1.00  0.00    -0.213 C  
HETATM    3  C   UNL     2      -7.552  13.840  67.154  1.00  0.00     0.051 C  
HETATM    4  C   UNL     2      -8.628  13.129  68.027  1.00  0.00    -0.182 C  
HETATM    5  C   UNL     2      -9.571  14.081  68.820  1.00  0.00    -0.098 C  
HETATM    6  C   UNL     2      -9.705  15.727  66.381  1.00  0.00    -0.282 C  
HETATM    7  C   UNL     2      -9.122  15.559  68.919  1.00  0.00    -0.219 C  
HETATM    8  C   UNL     2      -6.718  15.499  68.832  1.00  0.00    -0.116 C  
HETATM    9  O   UNL     2      -6.966  16.705  69.574  1.00  0.00    -0.225 OA 
HETATM   10  N   UNL     2      -8.717  16.051  67.499  1.00  0.00    -0.179 N  
HETATM   11  C   UNL     2      -8.566  17.592  67.433  1.00  0.00    -0.220 C  
HETATM   12  C   UNL     2      -7.863  15.611  69.777  1.00  0.00     0.023 C  
ENDROOT
BRANCH   4  13
HETATM   13  O   UNL     2      -9.481  12.212  67.232  1.00  0.00    -0.178 OA 
BRANCH  13  14
HETATM   14  C   UNL     2      -9.500  10.874  67.549  1.00  0.00    -0.155 C  
HETATM   15  C   UNL     2      -9.418   9.666  69.840  1.00  0.00    -0.260 A  
HETATM   16  O   UNL     2     -10.093  10.067  66.861  1.00  0.00    -0.208 OA 
HETATM   17  C   UNL     2      -7.454   9.662  68.231  1.00  0.00    -0.077 C  
HETATM   18  C   UNL     2      -8.639  10.480  68.784  1.00  0.00    -0.146 C  
HETATM   19  O   UNL     2      -6.734  10.344  67.205  1.00  0.00    -0.075 OA 
HETATM   20  C   UNL     2      -8.931   8.469  70.419  1.00  0.00    -0.161 A  
HETATM   21  C   UNL     2      -9.720   7.687  71.277  1.00  0.00    -0.176 A  
HETATM   22  H   UNL     2      -6.005   9.840  66.863  1.00  0.00     0.000 HD 
HETATM   23  C   UNL     2     -11.000   8.113  71.607  1.00  0.00    -0.306 A  
HETATM   24  C   UNL     2     -11.454   9.347  71.148  1.00  0.00    -0.422 A  
HETATM   25  C   UNL     2     -10.663  10.121  70.289  1.00  0.00    -0.352 A  
ENDBRANCH  13  14
ENDBRANCH   4  13
TORSDOF 2
ENDMDL
MODEL      141
REMARK 921   NORMALIZED FREE ENERGY PREDICTED BY IDOCK:   -3.80 KCAL/MOL
REMARK 922        TOTAL FREE ENERGY PREDICTED BY IDOCK:   -4.94 KCAL/MOL
REMARK 923 INTER-LIGAND FREE ENERGY PREDICTED BY IDOCK:   -4.59 KCAL/MOL
REMARK 924 INTRA-LIGAND FREE ENERGY PREDICTED BY IDOCK:   -0.35 KCAL/MOL
REMARK 927      BINDING AFFINITY PREDICTED BY RF-SCORE:    0.00 PKD
ROOT
HETATM    1 BR   UNL     1      -5.931  13.223  69.435  1.00  0.00    -0.107 Br 
HETATM    2  C   UNL     2      -8.692   6.285  67.661  1.00  0.00    -0.113 C  
HETATM    3  C   UNL     2      -8.199   7.443  66.750  1.00  0.00    -0.121 C  
HETATM    4  C   UNL     2      -9.206   8.609  66.524  1.00  0.00    -0.187 C  
HETATM    5  C   UNL     2     -10.423   8.630  67.496  1.00  0.00    -0.335 C  
HETATM    6  C   UNL     2      -8.515   7.987  69.648  1.00  0.00    -0.131 C  
HETATM    7  C   UNL     2     -10.664   7.338  68.315  1.00  0.00    -0.123 C  
HETATM    8  C   UNL     2      -9.826   5.550  66.940  1.00  0.00    -0.163 C  
HETATM    9  O   UNL     2     -10.829   4.886  67.728  1.00  0.00     0.201 OA 
HETATM   10  N   UNL     2      -9.313   6.891  68.945  1.00  0.00    -0.135 N  
HETATM   11  C   UNL     2      -9.505   5.808  70.036  1.00  0.00    -0.158 C  
HETATM   12  C   UNL     2     -11.082   6.239  67.345  1.00  0.00    -0.287 C  
ENDROOT
BRANCH   4  13
HETATM   13  O   UNL     2      -8.552   9.939  66.594  1.00  0.00    -0.124 OA 
BRANCH  13  14
HETATM   14  C   UNL     2      -8.758  10.839  65.575  1.00  0.00    -0.187 C  
HETATM   15  C   UNL     2     -10.941  11.840  64.603  1.00  0.00    -0.368 A  
HETATM   16  O   UNL     2      -7.950  11.711  65.326  1.00  0.00     0.617 OA 
HETATM   17  C   UNL     2      -9.552  10.129  63.343  1.00  0.00    -0.181 C  
HETATM   18  C   UNL     2     -10.041  10.592  64.730  1.00  0.00    -0.406 C  
HETATM   19  O   UNL     2      -8.664   9.014  63.405  1.00  0.00    -0.358 OA 
HETATM   20  C   UNL     2     -11.472  12.299  63.374  1.00  0.00    -0.512 A  
HETATM   21  C   UNL     2     -12.177  13.509  63.276  1.00  0.00    -0.214 A  
HETATM   22  H   UNL     2      -8.362   8.729  62.551  1.00  0.00     0.000 HD 
HETATM   23  C   UNL     2     -12.403  14.261  64.421  1.00  0.00    -0.417 A  
HETATM   24  C   UNL     2     -11.999  13.770  65.659  1.00  0.00    -0.410 A  
HETATM   25  C   UNL     2     -11.293  12.563  65.749  1.00  0.00    -0.373 A  
ENDBRANCH  13  14
ENDBRANCH   4  13
TORSDOF 2
ENDMDL
MODEL      142
REMARK 921   NORMALIZED FREE ENERGY PREDICTED BY IDOCK:   -3.80 KCAL/MOL
REMARK 922        TOTAL FREE ENERGY PREDICTED BY IDOCK:   -4.94 KCAL/MOL
REMARK 923 INTER-LIGAND FREE ENERGY PREDICTED BY IDOCK:   -4.42 KCAL/MOL
REMARK 924 INTRA-LIGAND FREE ENERGY PREDICTED BY IDOCK:   -0.52 KCAL/MOL
REMARK 927      BINDING AFFINITY PREDICTED BY RF-SCORE:    0.00 PKD
ROOT
HETATM    1 BR   UNL     1      -5.360   9.050  72.585  1.00  0.00    -0.073 Br 
HETATM    2  C   UNL     2      -8.451  10.638  65.742  1.00  0.00    -0.178 C  
HETATM    3  C   UNL     2      -9.121  10.294  67.102  1.00  0.00    -0.156 C  
HETATM    4  C   UNL     2      -9.152   8.784  67.483  1.00  0.00    -0.133 C  
HETATM    5  C   UNL     2      -8.224   7.867  66.633  1.00  0.00    -0.119 C  
HETATM    6  C   UNL     2      -6.181   9.977  66.875  1.00  0.00    -0.064 C  
HETATM    7  C   UNL     2      -7.664   8.485  65.329  1.00  0.00    -0.097 C  
HETATM    8  C   UNL     2      -9.324  10.075  64.616  1.00  0.00    -0.279 C  
HETATM    9  O   UNL     2      -8.697   9.710  63.374  1.00  0.00    -0.197 OA 
HETATM   10  N   UNL     2      -7.093   9.897  65.653  1.00  0.00    -0.106 N  
HETATM   11  C   UNL     2      -6.226  10.458  64.499  1.00  0.00    -0.072 C  
HETATM   12  C   UNL     2      -8.830   8.693  64.369  1.00  0.00     0.138 C  
ENDROOT
BRANCH   4  13
HETATM   13  O   UNL     2      -8.822   8.559  68.911  1.00  0.00    -0.137 OA 
BRANCH  13  14
HETATM   14  C   UNL     2      -9.824   8.191  69.779  1.00  0.00    -0.187 C  
HETATM   15  C   UNL     2      -9.878   6.417  71.666  1.00  0.00    -0.184 A  
HETATM   16  O   UNL     2     -10.657   8.990  70.161  1.00  0.00    -0.208 OA 
HETATM   17  C   UNL     2     -11.119   6.106  69.474  1.00  0.00    -0.420 C  
HETATM   18  C   UNL     2      -9.855   6.679  70.145  1.00  0.00    -0.180 C  
HETATM   19  O   UNL     2     -11.180   6.374  68.073  1.00  0.00    -0.471 OA 
HETATM   20  C   UNL     2     -10.781   5.525  72.292  1.00  0.00    -0.285 A  
HETATM   21  C   UNL     2     -10.862   5.409  73.688  1.00  0.00    -0.321 A  
HETATM   22  H   UNL     2     -11.960   6.021  67.660  1.00  0.00     0.000 HD 
HETATM   23  C   UNL     2     -10.005   6.156  74.486  1.00  0.00    -0.343 A  
HETATM   24  C   UNL     2      -9.026   6.947  73.891  1.00  0.00    -0.201 A  
HETATM   25  C   UNL     2      -8.953   7.061  72.497  1.00  0.00    -0.144 A  
ENDBRANCH  13  14
ENDBRANCH   4  13
TORSDOF 2
ENDMDL
MODEL      143
REMARK 921   NORMALIZED FREE ENERGY PREDICTED BY IDOCK:   -3.79 KCAL/MOL
REMARK 922        TOTAL FREE ENERGY PREDICTED BY IDOCK:   -4.94 KCAL/MOL
REMARK 923 INTER-LIGAND FREE ENERGY PREDICTED BY IDOCK:   -4.83 KCAL/MOL
REMARK 924 INTRA-LIGAND FREE ENERGY PREDICTED BY IDOCK:   -0.11 KCAL/MOL
REMARK 927      BINDING AFFINITY PREDICTED BY RF-SCORE:    0.00 PKD
ROOT
HETATM    1 BR   UNL     1      -5.303  14.999  72.054  1.00  0.00     0.115 Br 
HETATM    2  C   UNL     2      -9.890  19.718  68.106  1.00  0.00    -0.424 C  
HETATM    3  C   UNL     2     -10.200  18.386  68.844  1.00  0.00    -0.284 C  
HETATM    4  C   UNL     2      -9.819  17.081  68.085  1.00  0.00    -0.273 C  
HETATM    5  C   UNL     2      -8.883  17.279  66.857  1.00  0.00    -0.259 C  
HETATM    6  C   UNL     2      -7.360  19.174  68.521  1.00  0.00    -0.313 C  
HETATM    7  C   UNL     2      -8.729  18.732  66.344  1.00  0.00    -0.286 C  
HETATM    8  C   UNL     2     -10.807  19.819  66.883  1.00  0.00    -0.333 C  
HETATM    9  O   UNL     2     -10.357  20.569  65.742  1.00  0.00    -0.164 OA 
HETATM   10  N   UNL     2      -8.441  19.660  67.560  1.00  0.00    -0.298 N  
HETATM   11  C   UNL     2      -7.953  21.064  67.123  1.00  0.00     0.012 C  
HETATM   12  C   UNL     2     -10.069  19.170  65.764  1.00  0.00    -0.115 C  
ENDROOT
BRANCH   4  13
HETATM   13  O   UNL     2      -9.187  16.077  68.975  1.00  0.00    -0.218 OA 
BRANCH  13  14
HETATM   14  C   UNL     2      -9.923  14.991  69.386  1.00  0.00    -0.183 C  
HETATM   15  C   UNL     2     -10.347  12.696  68.260  1.00  0.00    -0.246 A  
HETATM   16  O   UNL     2     -10.051  14.720  70.564  1.00  0.00     0.311 OA 
HETATM   17  C   UNL     2     -12.146  14.480  68.429  1.00  0.00    -0.214 C  
HETATM   18  C   UNL     2     -10.639  14.212  68.244  1.00  0.00    -0.254 C  
HETATM   19  O   UNL     2     -12.466  15.869  68.484  1.00  0.00    -0.282 OA 
HETATM   20  C   UNL     2     -11.353  11.706  68.159  1.00  0.00    -0.358 A  
HETATM   21  C   UNL     2     -11.067  10.340  68.308  1.00  0.00    -0.311 A  
HETATM   22  H   UNL     2     -13.395  16.034  68.599  1.00  0.00     0.000 HD 
HETATM   23  C   UNL     2      -9.755   9.936  68.516  1.00  0.00    -0.163 A  
HETATM   24  C   UNL     2      -8.733  10.881  68.496  1.00  0.00    -0.153 A  
HETATM   25  C   UNL     2      -9.026  12.243  68.351  1.00  0.00    -0.141 A  
ENDBRANCH  13  14
ENDBRANCH   4  13
TORSDOF 2
ENDMDL
MODEL      144
REMARK 921   NORMALIZED FREE ENERGY PREDICTED BY IDOCK:   -3.78 KCAL/MOL
REMARK 922        TOTAL FREE ENERGY PREDICTED BY IDOCK:   -4.92 KCAL/MOL
REMARK 923 INTER-LIGAND FREE ENERGY PREDICTED BY IDOCK:   -4.25 KCAL/MOL
REMARK 924 INTRA-LIGAND FREE ENERGY PREDICTED BY IDOCK:   -0.67 KCAL/MOL
REMARK 927      BINDING AFFINITY PREDICTED BY RF-SCORE:    0.00 PKD
ROOT
HETATM    1 BR   UNL     1      -9.572  10.836  62.975  1.00  0.00    -0.393 Br 
HETATM    2  C   UNL     2      -9.893   3.892  66.227  1.00  0.00    -0.112 C  
HETATM    3  C   UNL     2     -10.482   5.254  66.687  1.00  0.00    -0.345 C  
HETATM    4  C   UNL     2      -9.480   6.234  67.368  1.00  0.00    -0.115 C  
HETATM    5  C   UNL     2      -7.976   5.869  67.195  1.00  0.00    -0.102 C  
HETATM    6  C   UNL     2      -8.611   5.248  64.386  1.00  0.00    -0.093 C  
HETATM    7  C   UNL     2      -7.676   4.439  66.685  1.00  0.00    -0.094 C  
HETATM    8  C   UNL     2      -9.505   3.087  67.471  1.00  0.00    -0.123 C  
HETATM    9  O   UNL     2      -8.438   2.128  67.368  1.00  0.00    -0.076 OA 
HETATM   10  N   UNL     2      -8.579   4.153  65.449  1.00  0.00    -0.116 N  
HETATM   11  C   UNL     2      -8.129   2.889  64.674  1.00  0.00    -0.086 C  
HETATM   12  C   UNL     2      -8.094   3.454  67.771  1.00  0.00    -0.080 C  
ENDROOT
BRANCH   4  13
HETATM   13  O   UNL     2      -9.660   7.632  66.906  1.00  0.00    -0.167 OA 
BRANCH  13  14
HETATM   14  C   UNL     2     -10.162   8.565  67.782  1.00  0.00    -0.225 C  
HETATM   15  C   UNL     2     -10.170  11.155  67.692  1.00  0.00    -0.208 A  
HETATM   16  O   UNL     2     -11.144   8.335  68.461  1.00  0.00     0.141 OA 
HETATM   17  C   UNL     2      -8.698   9.856  69.301  1.00  0.00    -0.169 C  
HETATM   18  C   UNL     2      -9.330   9.876  67.895  1.00  0.00    -0.149 C  
HETATM   19  O   UNL     2      -7.958   8.664  69.566  1.00  0.00    -0.093 OA 
HETATM   20  C   UNL     2     -10.116  12.271  68.561  1.00  0.00    -0.192 A  
HETATM   21  C   UNL     2     -10.987  13.362  68.421  1.00  0.00    -0.291 A  
HETATM   22  H   UNL     2      -7.569   8.652  70.433  1.00  0.00     0.000 HD 
HETATM   23  C   UNL     2     -11.903  13.375  67.377  1.00  0.00    -0.418 A  
HETATM   24  C   UNL     2     -11.892  12.347  66.439  1.00  0.00    -0.421 A  
HETATM   25  C   UNL     2     -11.022  11.259  66.586  1.00  0.00    -0.326 A  
ENDBRANCH  13  14
ENDBRANCH   4  13
TORSDOF 2
ENDMDL
MODEL      145
REMARK 921   NORMALIZED FREE ENERGY PREDICTED BY IDOCK:   -3.78 KCAL/MOL
REMARK 922        TOTAL FREE ENERGY PREDICTED BY IDOCK:   -4.92 KCAL/MOL
REMARK 923 INTER-LIGAND FREE ENERGY PREDICTED BY IDOCK:   -4.46 KCAL/MOL
REMARK 924 INTRA-LIGAND FREE ENERGY PREDICTED BY IDOCK:   -0.46 KCAL/MOL
REMARK 927      BINDING AFFINITY PREDICTED BY RF-SCORE:    0.00 PKD
ROOT
HETATM    1 BR   UNL     1      -8.018   8.445  72.124  1.00  0.00    -0.161 Br 
HETATM    2  C   UNL     2      -6.833   3.738  66.180  1.00  0.00    -0.057 C  
HETATM    3  C   UNL     2      -7.487   5.146  66.243  1.00  0.00    -0.087 C  
HETATM    4  C   UNL     2      -8.962   5.190  66.740  1.00  0.00    -0.113 C  
HETATM    5  C   UNL     2      -9.471   3.885  67.421  1.00  0.00    -0.236 C  
HETATM    6  C   UNL     2      -6.870   3.778  68.801  1.00  0.00    -0.046 C  
HETATM    7  C   UNL     2      -8.596   2.625  67.218  1.00  0.00    -0.106 C  
HETATM    8  C   UNL     2      -7.530   2.928  65.082  1.00  0.00    -0.072 C  
HETATM    9  O   UNL     2      -7.572   1.495  65.202  1.00  0.00    -0.056 OA 
HETATM   10  N   UNL     2      -7.113   2.997  67.512  1.00  0.00    -0.053 N  
HETATM   11  C   UNL     2      -6.211   1.746  67.655  1.00  0.00    -0.024 C  
HETATM   12  C   UNL     2      -8.667   2.234  65.747  1.00  0.00    -0.119 C  
ENDROOT
BRANCH   4  13
HETATM   13  O   UNL     2      -9.206   6.312  67.679  1.00  0.00    -0.115 OA 
BRANCH  13  14
HETATM   14  C   UNL     2     -10.177   7.237  67.376  1.00  0.00    -0.236 C  
HETATM   15  C   UNL     2      -9.998   9.701  66.595  1.00  0.00    -0.301 A  
HETATM   16  O   UNL     2     -11.248   6.903  66.909  1.00  0.00    -0.353 OA 
HETATM   17  C   UNL     2     -10.769   9.069  68.929  1.00  0.00    -0.123 C  
HETATM   18  C   UNL     2      -9.830   8.705  67.762  1.00  0.00    -0.218 C  
HETATM   19  O   UNL     2     -10.700   8.143  70.013  1.00  0.00    -0.240 OA 
HETATM   20  C   UNL     2     -10.692  10.930  66.710  1.00  0.00    -0.309 A  
HETATM   21  C   UNL     2     -10.937  11.750  65.598  1.00  0.00    -0.348 A  
HETATM   22  H   UNL     2     -11.279   8.368  70.732  1.00  0.00     0.000 HD 
HETATM   23  C   UNL     2     -10.452  11.374  64.352  1.00  0.00    -0.388 A  
HETATM   24  C   UNL     2      -9.662  10.233  64.236  1.00  0.00    -0.373 A  
HETATM   25  C   UNL     2      -9.423   9.417  65.350  1.00  0.00    -0.322 A  
ENDBRANCH  13  14
ENDBRANCH   4  13
TORSDOF 2
ENDMDL
MODEL      146
REMARK 921   NORMALIZED FREE ENERGY PREDICTED BY IDOCK:   -3.72 KCAL/MOL
REMARK 922        TOTAL FREE ENERGY PREDICTED BY IDOCK:   -4.86 KCAL/MOL
REMARK 923 INTER-LIGAND FREE ENERGY PREDICTED BY IDOCK:   -4.33 KCAL/MOL
REMARK 924 INTRA-LIGAND FREE ENERGY PREDICTED BY IDOCK:   -0.53 KCAL/MOL
REMARK 927      BINDING AFFINITY PREDICTED BY RF-SCORE:    0.00 PKD
ROOT
HETATM    1 BR   UNL     1      -9.876  10.919  63.665  1.00  0.00    -0.436 Br 
HETATM    2  C   UNL     2      -9.347   4.534  67.890  1.00  0.00    -0.140 C  
HETATM    3  C   UNL     2      -9.278   6.031  68.302  1.00  0.00    -0.117 C  
HETATM    4  C   UNL     2      -7.918   6.746  68.050  1.00  0.00    -0.114 C  
HETATM    5  C   UNL     2      -6.930   5.980  67.122  1.00  0.00    -0.069 C  
HETATM    6  C   UNL     2      -9.251   5.378  65.410  1.00  0.00    -0.041 C  
HETATM    7  C   UNL     2      -7.263   4.493  66.851  1.00  0.00    -0.076 C  
HETATM    8  C   UNL     2      -8.426   3.734  68.816  1.00  0.00    -0.082 C  
HETATM    9  O   UNL     2      -7.836   2.519  68.322  1.00  0.00    -0.054 OA 
HETATM   10  N   UNL     2      -8.766   4.383  66.461  1.00  0.00    -0.112 N  
HETATM   11  C   UNL     2      -9.117   2.999  65.860  1.00  0.00    -0.141 C  
HETATM   12  C   UNL     2      -7.091   3.726  68.158  1.00  0.00    -0.051 C  
ENDROOT
BRANCH   4  13
HETATM   13  O   UNL     2      -8.094   8.109  67.493  1.00  0.00    -0.119 OA 
BRANCH  13  14
HETATM   14  C   UNL     2      -8.443   9.136  68.338  1.00  0.00    -0.128 C  
HETATM   15  C   UNL     2     -10.762   9.978  69.129  1.00  0.00    -0.244 A  
HETATM   16  O   UNL     2      -7.727   9.468  69.262  1.00  0.00    -0.078 OA 
HETATM   17  C   UNL     2      -9.329  11.284  67.490  1.00  0.00    -0.162 C  
HETATM   18  C   UNL     2      -9.757   9.880  67.961  1.00  0.00    -0.160 C  
HETATM   19  O   UNL     2      -8.352  11.253  66.451  1.00  0.00    -0.165 OA 
HETATM   20  C   UNL     2     -11.411  11.179  69.502  1.00  0.00    -0.374 A  
HETATM   21  C   UNL     2     -12.217  11.262  70.648  1.00  0.00    -0.489 A  
HETATM   22  H   UNL     2      -8.087  12.118  66.161  1.00  0.00     0.000 HD 
HETATM   23  C   UNL     2     -12.425  10.126  71.420  1.00  0.00    -0.524 A  
HETATM   24  C   UNL     2     -11.897   8.906  71.005  1.00  0.00    -0.324 A  
HETATM   25  C   UNL     2     -11.091   8.832  69.862  1.00  0.00    -0.129 A  
ENDBRANCH  13  14
ENDBRANCH   4  13
TORSDOF 2
ENDMDL
MODEL      147
REMARK 921   NORMALIZED FREE ENERGY PREDICTED BY IDOCK:   -3.70 KCAL/MOL
REMARK 922        TOTAL FREE ENERGY PREDICTED BY IDOCK:   -4.84 KCAL/MOL
REMARK 923 INTER-LIGAND FREE ENERGY PREDICTED BY IDOCK:   -4.43 KCAL/MOL
REMARK 924 INTRA-LIGAND FREE ENERGY PREDICTED BY IDOCK:   -0.40 KCAL/MOL
REMARK 927      BINDING AFFINITY PREDICTED BY RF-SCORE:    0.00 PKD
ROOT
HETATM    1 BR   UNL     1      -5.256  15.893  70.579  1.00  0.00    -0.168 Br 
HETATM    2  C   UNL     2      -6.747   9.279  66.983  1.00  0.00    -0.076 C  
HETATM    3  C   UNL     2      -7.395  10.683  66.831  1.00  0.00    -0.114 C  
HETATM    4  C   UNL     2      -8.442  11.071  67.916  1.00  0.00    -0.128 C  
HETATM    5  C   UNL     2      -8.454  10.162  69.180  1.00  0.00    -0.157 C  
HETATM    6  C   UNL     2      -5.511  10.251  69.080  1.00  0.00    -0.038 C  
HETATM    7  C   UNL     2      -7.693   8.819  69.061  1.00  0.00    -0.091 C  
HETATM    8  C   UNL     2      -7.825   8.219  66.734  1.00  0.00    -0.095 C  
HETATM    9  O   UNL     2      -7.693   6.937  67.374  1.00  0.00    -0.106 OA 
HETATM   10  N   UNL     2      -6.288   9.097  68.451  1.00  0.00    -0.053 N  
HETATM   11  C   UNL     2      -5.337   7.882  68.592  1.00  0.00    -0.027 C  
HETATM   12  C   UNL     2      -8.440   7.942  68.062  1.00  0.00    -0.123 C  
ENDROOT
BRANCH   4  13
HETATM   13  O   UNL     2      -8.285  12.474  68.373  1.00  0.00    -0.161 OA 
BRANCH  13  14
HETATM   14  C   UNL     2      -9.275  13.384  68.087  1.00  0.00    -0.215 C  
HETATM   15  C   UNL     2     -10.027  14.434  65.842  1.00  0.00    -0.350 A  
HETATM   16  O   UNL     2     -10.296  13.437  68.744  1.00  0.00    -0.227 OA 
HETATM   17  C   UNL     2      -8.771  15.757  67.607  1.00  0.00    -0.170 C  
HETATM   18  C   UNL     2      -8.941  14.379  66.937  1.00  0.00    -0.263 C  
HETATM   19  O   UNL     2      -7.821  15.750  68.671  1.00  0.00    -0.139 OA 
HETATM   20  C   UNL     2     -10.564  15.642  65.333  1.00  0.00    -0.436 A  
HETATM   21  C   UNL     2     -11.640  15.654  64.433  1.00  0.00    -0.250 A  
HETATM   22  H   UNL     2      -7.716  16.599  69.084  1.00  0.00     0.000 HD 
HETATM   23  C   UNL     2     -12.172  14.450  63.989  1.00  0.00    -0.300 A  
HETATM   24  C   UNL     2     -11.582  13.251  64.378  1.00  0.00    -0.423 A  
HETATM   25  C   UNL     2     -10.510  13.246  65.280  1.00  0.00    -0.324 A  
ENDBRANCH  13  14
ENDBRANCH   4  13
TORSDOF 2
ENDMDL
MODEL      148
REMARK 921   NORMALIZED FREE ENERGY PREDICTED BY IDOCK:   -3.65 KCAL/MOL
REMARK 922        TOTAL FREE ENERGY PREDICTED BY IDOCK:   -4.77 KCAL/MOL
REMARK 923 INTER-LIGAND FREE ENERGY PREDICTED BY IDOCK:   -4.32 KCAL/MOL
REMARK 924 INTRA-LIGAND FREE ENERGY PREDICTED BY IDOCK:   -0.45 KCAL/MOL
REMARK 927      BINDING AFFINITY PREDICTED BY RF-SCORE:    0.00 PKD
ROOT
HETATM    1 BR   UNL     1      -6.434   8.337  70.926  1.00  0.00    -0.040 Br 
HETATM    2  C   UNL     2      -7.400   4.076  64.616  1.00  0.00    -0.071 C  
HETATM    3  C   UNL     2      -7.995   5.457  65.007  1.00  0.00    -0.110 C  
HETATM    4  C   UNL     2      -9.201   5.426  65.991  1.00  0.00    -0.158 C  
HETATM    5  C   UNL     2      -9.434   4.064  66.710  1.00  0.00    -0.219 C  
HETATM    6  C   UNL     2      -6.513   3.939  67.079  1.00  0.00    -0.041 C  
HETATM    7  C   UNL     2      -8.682   2.846  66.122  1.00  0.00    -0.133 C  
HETATM    8  C   UNL     2      -8.436   3.322  63.776  1.00  0.00    -0.090 C  
HETATM    9  O   UNL     2      -8.428   1.884  63.799  1.00  0.00    -0.079 OA 
HETATM   10  N   UNL     2      -7.191   3.240  65.904  1.00  0.00    -0.069 N  
HETATM   11  C   UNL     2      -6.293   2.008  65.630  1.00  0.00    -0.023 C  
HETATM   12  C   UNL     2      -9.264   2.553  64.744  1.00  0.00    -0.137 C  
ENDROOT
BRANCH   4  13
HETATM   13  O   UNL     2      -9.103   6.475  67.035  1.00  0.00    -0.123 OA 
BRANCH  13  14
HETATM   14  C   UNL     2     -10.216   6.782  67.781  1.00  0.00    -0.171 C  
HETATM   15  C   UNL     2     -10.653   8.682  69.487  1.00  0.00    -0.218 A  
HETATM   16  O   UNL     2     -11.337   6.548  67.373  1.00  0.00    -0.304 OA 
HETATM   17  C   UNL     2     -10.358   6.262  70.195  1.00  0.00    -0.205 C  
HETATM   18  C   UNL     2      -9.921   7.354  69.198  1.00  0.00    -0.173 C  
HETATM   19  O   UNL     2      -9.758   4.994  69.936  1.00  0.00    -0.158 OA 
HETATM   20  C   UNL     2     -11.385   8.929  70.673  1.00  0.00    -0.299 A  
HETATM   21  C   UNL     2     -12.146  10.096  70.846  1.00  0.00    -0.453 A  
HETATM   22  H   UNL     2     -10.028   4.321  70.550  1.00  0.00     0.000 HD 
HETATM   23  C   UNL     2     -12.151  11.061  69.848  1.00  0.00    -0.435 A  
HETATM   24  C   UNL     2     -11.342  10.897  68.727  1.00  0.00    -0.357 A  
HETATM   25  C   UNL     2     -10.588   9.728  68.559  1.00  0.00    -0.252 A  
ENDBRANCH  13  14
ENDBRANCH   4  13
TORSDOF 2
ENDMDL
MODEL      149
REMARK 921   NORMALIZED FREE ENERGY PREDICTED BY IDOCK:   -3.62 KCAL/MOL
REMARK 922        TOTAL FREE ENERGY PREDICTED BY IDOCK:   -4.75 KCAL/MOL
REMARK 923 INTER-LIGAND FREE ENERGY PREDICTED BY IDOCK:   -4.09 KCAL/MOL
REMARK 924 INTRA-LIGAND FREE ENERGY PREDICTED BY IDOCK:   -0.65 KCAL/MOL
REMARK 927      BINDING AFFINITY PREDICTED BY RF-SCORE:    0.00 PKD
ROOT
HETATM    1 BR   UNL     1      -9.272   7.425  73.791  1.00  0.00    -0.323 Br 
HETATM    2  C   UNL     2     -10.581  10.154  66.739  1.00  0.00    -0.169 C  
HETATM    3  C   UNL     2     -10.424   8.694  67.248  1.00  0.00    -0.360 C  
HETATM    4  C   UNL     2      -8.963   8.209  67.485  1.00  0.00    -0.137 C  
HETATM    5  C   UNL     2      -7.887   9.334  67.510  1.00  0.00    -0.096 C  
HETATM    6  C   UNL     2      -9.790  10.901  69.124  1.00  0.00    -0.145 C  
HETATM    7  C   UNL     2      -8.332  10.714  66.967  1.00  0.00    -0.126 C  
HETATM    8  C   UNL     2     -10.017  10.235  65.317  1.00  0.00    -0.317 C  
HETATM    9  O   UNL     2      -9.486  11.489  64.856  1.00  0.00    -0.211 OA 
HETATM   10  N   UNL     2      -9.701  11.084  67.611  1.00  0.00    -0.167 N  
HETATM   11  C   UNL     2     -10.070  12.572  67.389  1.00  0.00    -0.210 C  
HETATM   12  C   UNL     2      -8.576  10.574  65.469  1.00  0.00    -0.180 C  
ENDROOT
BRANCH   4  13
HETATM   13  O   UNL     2      -8.827   7.429  68.739  1.00  0.00    -0.131 OA 
BRANCH  13  14
HETATM   14  C   UNL     2      -8.386   6.128  68.672  1.00  0.00    -0.114 C  
HETATM   15  C   UNL     2      -9.072   4.175  67.114  1.00  0.00    -0.158 A  
HETATM   16  O   UNL     2      -7.244   5.830  68.960  1.00  0.00    -0.073 OA 
HETATM   17  C   UNL     2      -9.719   4.247  69.567  1.00  0.00    -0.201 C  
HETATM   18  C   UNL     2      -9.476   5.083  68.295  1.00  0.00    -0.173 C  
HETATM   19  O   UNL     2     -10.036   5.042  70.709  1.00  0.00    -0.213 OA 
HETATM   20  C   UNL     2      -9.201   2.765  67.132  1.00  0.00    -0.176 A  
HETATM   21  C   UNL     2      -8.704   1.962  66.094  1.00  0.00    -0.116 A  
HETATM   22  H   UNL     2     -10.185   4.527  71.493  1.00  0.00     0.000 HD 
HETATM   23  C   UNL     2      -8.106   2.561  64.993  1.00  0.00    -0.082 A  
HETATM   24  C   UNL     2      -8.078   3.950  64.896  1.00  0.00    -0.093 A  
HETATM   25  C   UNL     2      -8.574   4.746  65.937  1.00  0.00    -0.119 A  
ENDBRANCH  13  14
ENDBRANCH   4  13
TORSDOF 2
ENDMDL
MODEL      150
REMARK 921   NORMALIZED FREE ENERGY PREDICTED BY IDOCK:   -3.61 KCAL/MOL
REMARK 922        TOTAL FREE ENERGY PREDICTED BY IDOCK:   -4.73 KCAL/MOL
REMARK 923 INTER-LIGAND FREE ENERGY PREDICTED BY IDOCK:   -4.76 KCAL/MOL
REMARK 924 INTRA-LIGAND FREE ENERGY PREDICTED BY IDOCK:    0.03 KCAL/MOL
REMARK 927      BINDING AFFINITY PREDICTED BY RF-SCORE:    0.00 PKD
ROOT
HETATM    1 BR   UNL     1     -10.988   6.927  67.938  1.00  0.00    -0.224 Br 
HETATM    2  C   UNL     2      -9.802  14.156  65.649  1.00  0.00    -0.249 C  
HETATM    3  C   UNL     2      -8.967  13.240  66.587  1.00  0.00    -0.137 C  
HETATM    4  C   UNL     2      -9.484  13.109  68.050  1.00  0.00    -0.220 C  
HETATM    5  C   UNL     2     -10.933  13.628  68.289  1.00  0.00    -0.275 C  
HETATM    6  C   UNL     2     -11.656  12.306  65.756  1.00  0.00    -0.388 C  
HETATM    7  C   UNL     2     -11.538  14.502  67.163  1.00  0.00    -0.388 C  
HETATM    8  C   UNL     2      -9.661  15.602  66.135  1.00  0.00    -0.330 C  
HETATM    9  O   UNL     2     -10.734  16.524  65.877  1.00  0.00    -0.285 OA 
HETATM   10  N   UNL     2     -11.300  13.790  65.799  1.00  0.00    -0.301 N  
HETATM   11  C   UNL     2     -12.143  14.412  64.658  1.00  0.00    -0.471 C  
HETATM   12  C   UNL     2     -10.760  15.812  67.116  1.00  0.00    -0.312 C  
ENDROOT
BRANCH   4  13
HETATM   13  O   UNL     2      -9.420  11.712  68.546  1.00  0.00    -0.195 OA 
BRANCH  13  14
HETATM   14  C   UNL     2      -8.213  11.053  68.531  1.00  0.00    -0.146 C  
HETATM   15  C   UNL     2      -7.271   9.189  70.065  1.00  0.00    -0.066 A  
HETATM   16  O   UNL     2      -7.612  10.852  67.494  1.00  0.00    -0.097 OA 
HETATM   17  C   UNL     2      -6.417  11.578  70.149  1.00  0.00    -0.001 C  
HETATM   18  C   UNL     2      -7.651  10.680  69.934  1.00  0.00     0.029 C  
HETATM   19  O   UNL     2      -6.697  12.967  69.978  1.00  0.00    -0.356 OA 
HETATM   20  C   UNL     2      -6.039   8.741  70.597  1.00  0.00    -0.035 A  
HETATM   21  C   UNL     2      -5.673   7.386  70.581  1.00  0.00    -0.027 A  
HETATM   22  H   UNL     2      -5.937  13.520  70.110  1.00  0.00     0.000 HD 
HETATM   23  C   UNL     2      -6.558   6.446  70.069  1.00  0.00    -0.048 A  
HETATM   24  C   UNL     2      -7.825   6.848  69.654  1.00  0.00    -0.119 A  
HETATM   25  C   UNL     2      -8.182   8.202  69.670  1.00  0.00    -0.120 A  
ENDBRANCH  13  14
ENDBRANCH   4  13
TORSDOF 2
ENDMDL
MODEL      151
REMARK 921   NORMALIZED FREE ENERGY PREDICTED BY IDOCK:   -3.60 KCAL/MOL
REMARK 922        TOTAL FREE ENERGY PREDICTED BY IDOCK:   -4.72 KCAL/MOL
REMARK 923 INTER-LIGAND FREE ENERGY PREDICTED BY IDOCK:   -4.52 KCAL/MOL
REMARK 924 INTRA-LIGAND FREE ENERGY PREDICTED BY IDOCK:   -0.20 KCAL/MOL
REMARK 927      BINDING AFFINITY PREDICTED BY RF-SCORE:    0.00 PKD
ROOT
HETATM    1 BR   UNL     1     -11.730   7.923  72.237  1.00  0.00    -0.428 Br 
HETATM    2  C   UNL     2     -11.826  12.823  66.332  1.00  0.00    -0.408 C  
HETATM    3  C   UNL     2     -11.454  11.315  66.392  1.00  0.00     0.043 C  
HETATM    4  C   UNL     2     -10.029  10.987  66.927  1.00  0.00    -0.196 C  
HETATM    5  C   UNL     2      -9.301  12.164  67.640  1.00  0.00    -0.187 C  
HETATM    6  C   UNL     2     -11.874  12.752  68.951  1.00  0.00    -0.308 C  
HETATM    7  C   UNL     2      -9.915  13.570  67.432  1.00  0.00    -0.234 C  
HETATM    8  C   UNL     2     -10.957  13.494  65.264  1.00  0.00    -0.295 C  
HETATM    9  O   UNL     2     -10.647  14.892  65.406  1.00  0.00    -0.318 OA 
HETATM   10  N   UNL     2     -11.450  13.484  67.681  1.00  0.00    -0.300 N  
HETATM   11  C   UNL     2     -12.101  14.883  67.817  1.00  0.00    -0.040 C  
HETATM   12  C   UNL     2      -9.728  13.954  65.969  1.00  0.00    -0.250 C  
ENDROOT
BRANCH   4  13
HETATM   13  O   UNL     2     -10.030   9.830  67.856  1.00  0.00    -0.152 OA 
BRANCH  13  14
HETATM   14  C   UNL     2      -9.942   8.559  67.340  1.00  0.00    -0.214 C  
HETATM   15  C   UNL     2      -8.070   6.776  67.513  1.00  0.00    -0.115 A  
HETATM   16  O   UNL     2     -10.930   7.870  67.179  1.00  0.00    -0.219 OA 
HETATM   17  C   UNL     2      -8.547   8.042  65.364  1.00  0.00    -0.114 C  
HETATM   18  C   UNL     2      -8.513   8.124  66.904  1.00  0.00    -0.119 C  
HETATM   19  O   UNL     2      -9.010   9.243  64.749  1.00  0.00    -0.243 OA 
HETATM   20  C   UNL     2      -7.497   5.727  66.754  1.00  0.00    -0.084 A  
HETATM   21  C   UNL     2      -7.226   4.469  67.315  1.00  0.00    -0.069 A  
HETATM   22  H   UNL     2      -9.032   9.193  63.801  1.00  0.00     0.000 HD 
HETATM   23  C   UNL     2      -7.484   4.253  68.662  1.00  0.00    -0.059 A  
HETATM   24  C   UNL     2      -7.932   5.305  69.455  1.00  0.00    -0.088 A  
HETATM   25  C   UNL     2      -8.203   6.558  68.889  1.00  0.00    -0.119 A  
ENDBRANCH  13  14
ENDBRANCH   4  13
TORSDOF 2
ENDMDL
MODEL      152
REMARK 921   NORMALIZED FREE ENERGY PREDICTED BY IDOCK:   -3.59 KCAL/MOL
REMARK 922        TOTAL FREE ENERGY PREDICTED BY IDOCK:   -4.70 KCAL/MOL
REMARK 923 INTER-LIGAND FREE ENERGY PREDICTED BY IDOCK:   -6.19 KCAL/MOL
REMARK 924 INTRA-LIGAND FREE ENERGY PREDICTED BY IDOCK:    1.49 KCAL/MOL
REMARK 927      BINDING AFFINITY PREDICTED BY RF-SCORE:    0.00 PKD
ROOT
HETATM    1 BR   UNL     1      -5.192  13.068  69.807  1.00  0.00    -0.090 Br 
HETATM    2  C   UNL     2     -11.922  13.288  66.126  1.00  0.00    -0.418 C  
HETATM    3  C   UNL     2     -11.391  12.309  67.210  1.00  0.00    -0.392 C  
HETATM    4  C   UNL     2     -10.424  11.196  66.708  1.00  0.00    -0.252 C  
HETATM    5  C   UNL     2      -9.854  11.411  65.275  1.00  0.00    -0.290 C  
HETATM    6  C   UNL     2      -9.482  14.238  66.016  1.00  0.00    -0.182 C  
HETATM    7  C   UNL     2     -10.563  12.484  64.414  1.00  0.00    -0.350 C  
HETATM    8  C   UNL     2     -12.843  12.510  65.180  1.00  0.00     0.081 C  
HETATM    9  O   UNL     2     -12.973  12.958  63.820  1.00  0.00    -0.616 OA 
HETATM   10  N   UNL     2     -10.729  13.776  65.267  1.00  0.00    -0.321 N  
HETATM   11  C   UNL     2     -11.125  15.001  64.405  1.00  0.00    -0.104 C  
HETATM   12  C   UNL     2     -11.967  11.983  64.099  1.00  0.00    -0.369 C  
ENDROOT
BRANCH   4  13
HETATM   13  O   UNL     2      -9.274  10.997  67.624  1.00  0.00    -0.147 OA 
BRANCH  13  14
HETATM   14  C   UNL     2      -9.514  10.624  68.926  1.00  0.00    -0.192 C  
HETATM   15  C   UNL     2     -11.259   8.998  69.938  1.00  0.00    -0.092 A  
HETATM   16  O   UNL     2      -8.619  10.575  69.747  1.00  0.00    -0.065 OA 
HETATM   17  C   UNL     2     -11.430  11.516  70.210  1.00  0.00    -0.099 C  
HETATM   18  C   UNL     2     -11.010  10.368  69.271  1.00  0.00    -0.287 C  
HETATM   19  O   UNL     2     -11.165  12.809  69.668  1.00  0.00    -0.455 OA 
HETATM   20  C   UNL     2     -12.033   8.830  71.112  1.00  0.00    -0.331 A  
HETATM   21  C   UNL     2     -12.131   7.591  71.764  1.00  0.00    -0.340 A  
HETATM   22  H   UNL     2     -11.423  13.517  70.247  1.00  0.00     0.000 HD 
HETATM   23  C   UNL     2     -11.488   6.483  71.226  1.00  0.00    -0.371 A  
HETATM   24  C   UNL     2     -10.823   6.597  70.008  1.00  0.00    -0.331 A  
HETATM   25  C   UNL     2     -10.727   7.838  69.364  1.00  0.00    -0.177 A  
ENDBRANCH  13  14
ENDBRANCH   4  13
TORSDOF 2
ENDMDL
MODEL      153
REMARK 921   NORMALIZED FREE ENERGY PREDICTED BY IDOCK:   -3.57 KCAL/MOL
REMARK 922        TOTAL FREE ENERGY PREDICTED BY IDOCK:   -4.69 KCAL/MOL
REMARK 923 INTER-LIGAND FREE ENERGY PREDICTED BY IDOCK:   -4.12 KCAL/MOL
REMARK 924 INTRA-LIGAND FREE ENERGY PREDICTED BY IDOCK:   -0.57 KCAL/MOL
REMARK 927      BINDING AFFINITY PREDICTED BY RF-SCORE:    0.00 PKD
ROOT
HETATM    1 BR   UNL     1      -9.347  11.526  63.276  1.00  0.00    -0.177 Br 
HETATM    2  C   UNL     2     -10.127   5.426  67.868  1.00  0.00    -0.168 C  
HETATM    3  C   UNL     2     -10.521   6.914  68.083  1.00  0.00    -0.243 C  
HETATM    4  C   UNL     2      -9.363   7.874  68.486  1.00  0.00    -0.141 C  
HETATM    5  C   UNL     2      -7.928   7.300  68.291  1.00  0.00    -0.124 C  
HETATM    6  C   UNL     2      -8.875   6.235  65.712  1.00  0.00    -0.111 C  
HETATM    7  C   UNL     2      -7.832   5.772  68.059  1.00  0.00    -0.100 C  
HETATM    8  C   UNL     2      -9.718   4.833  69.220  1.00  0.00    -0.196 C  
HETATM    9  O   UNL     2      -8.775   3.747  69.240  1.00  0.00    -0.075 OA 
HETATM   10  N   UNL     2      -8.867   5.369  66.968  1.00  0.00    -0.111 N  
HETATM   11  C   UNL     2      -8.627   3.934  66.434  1.00  0.00    -0.111 C  
HETATM   12  C   UNL     2      -8.255   5.073  69.346  1.00  0.00    -0.082 C  
ENDROOT
BRANCH   4  13
HETATM   13  O   UNL     2      -9.430   9.169  67.766  1.00  0.00    -0.138 OA 
BRANCH  13  14
HETATM   14  C   UNL     2      -9.475  10.336  68.493  1.00  0.00    -0.158 C  
HETATM   15  C   UNL     2      -9.954  12.777  67.768  1.00  0.00    -0.219 A  
HETATM   16  O   UNL     2      -9.828  10.345  69.656  1.00  0.00    -0.213 OA 
HETATM   17  C   UNL     2      -7.635  11.987  68.432  1.00  0.00    -0.128 C  
HETATM   18  C   UNL     2      -8.958  11.597  67.743  1.00  0.00    -0.170 C  
HETATM   19  O   UNL     2      -6.697  10.913  68.493  1.00  0.00    -0.055 OA 
HETATM   20  C   UNL     2      -9.588  14.101  68.107  1.00  0.00    -0.218 A  
HETATM   21  C   UNL     2     -10.542  15.121  68.247  1.00  0.00    -0.243 A  
HETATM   22  H   UNL     2      -5.882  11.152  68.918  1.00  0.00     0.000 HD 
HETATM   23  C   UNL     2     -11.881  14.842  68.004  1.00  0.00    -0.324 A  
HETATM   24  C   UNL     2     -12.249  13.579  67.550  1.00  0.00    -0.247 A  
HETATM   25  C   UNL     2     -11.292  12.564  67.416  1.00  0.00    -0.371 A  
ENDBRANCH  13  14
ENDBRANCH   4  13
TORSDOF 2
ENDMDL
MODEL      154
REMARK 921   NORMALIZED FREE ENERGY PREDICTED BY IDOCK:   -3.51 KCAL/MOL
REMARK 922        TOTAL FREE ENERGY PREDICTED BY IDOCK:   -4.62 KCAL/MOL
REMARK 923 INTER-LIGAND FREE ENERGY PREDICTED BY IDOCK:   -3.97 KCAL/MOL
REMARK 924 INTRA-LIGAND FREE ENERGY PREDICTED BY IDOCK:   -0.66 KCAL/MOL
REMARK 927      BINDING AFFINITY PREDICTED BY RF-SCORE:    0.00 PKD
ROOT
HETATM    1 BR   UNL     1      -8.343  12.901  67.898  1.00  0.00    -0.182 Br 
HETATM    2  C   UNL     2      -8.439   5.751  65.111  1.00  0.00    -0.138 C  
HETATM    3  C   UNL     2      -9.229   6.391  66.287  1.00  0.00    -0.162 C  
HETATM    4  C   UNL     2      -8.450   6.545  67.626  1.00  0.00    -0.117 C  
HETATM    5  C   UNL     2      -6.908   6.357  67.521  1.00  0.00    -0.076 C  
HETATM    6  C   UNL     2      -7.038   7.965  65.056  1.00  0.00    -0.060 C  
HETATM    7  C   UNL     2      -6.387   5.717  66.212  1.00  0.00    -0.039 C  
HETATM    8  C   UNL     2      -8.165   4.283  65.454  1.00  0.00    -0.109 C  
HETATM    9  O   UNL     2      -7.002   3.649  64.895  1.00  0.00    -0.054 OA 
HETATM   10  N   UNL     2      -7.055   6.439  65.005  1.00  0.00    -0.058 N  
HETATM   11  C   UNL     2      -6.364   6.099  63.662  1.00  0.00    -0.029 C  
HETATM   12  C   UNL     2      -6.862   4.269  66.174  1.00  0.00    -0.057 C  
ENDROOT
BRANCH   4  13
HETATM   13  O   UNL     2      -8.700   7.855  68.274  1.00  0.00    -0.130 OA 
BRANCH  13  14
HETATM   14  C   UNL     2      -9.083   7.885  69.595  1.00  0.00    -0.153 C  
HETATM   15  C   UNL     2     -10.634   6.318  70.955  1.00  0.00    -0.293 A  
HETATM   16  O   UNL     2      -8.348   8.322  70.459  1.00  0.00    -0.115 OA 
HETATM   17  C   UNL     2     -11.324   8.669  70.290  1.00  0.00    -0.136 C  
HETATM   18  C   UNL     2     -10.540   7.410  69.868  1.00  0.00    -0.245 C  
HETATM   19  O   UNL     2     -11.220   9.736  69.349  1.00  0.00    -0.355 OA 
HETATM   20  C   UNL     2     -11.550   6.365  72.033  1.00  0.00    -0.368 A  
HETATM   21  C   UNL     2     -11.521   5.424  73.073  1.00  0.00    -0.324 A  
HETATM   22  H   UNL     2     -11.702  10.511  69.609  1.00  0.00     0.000 HD 
HETATM   23  C   UNL     2     -10.598   4.387  73.029  1.00  0.00    -0.267 A  
HETATM   24  C   UNL     2      -9.770   4.249  71.919  1.00  0.00    -0.231 A  
HETATM   25  C   UNL     2      -9.802   5.194  70.886  1.00  0.00    -0.266 A  
ENDBRANCH  13  14
ENDBRANCH   4  13
TORSDOF 2
ENDMDL
MODEL      155
REMARK 921   NORMALIZED FREE ENERGY PREDICTED BY IDOCK:   -3.51 KCAL/MOL
REMARK 922        TOTAL FREE ENERGY PREDICTED BY IDOCK:   -4.61 KCAL/MOL
REMARK 923 INTER-LIGAND FREE ENERGY PREDICTED BY IDOCK:   -3.92 KCAL/MOL
REMARK 924 INTRA-LIGAND FREE ENERGY PREDICTED BY IDOCK:   -0.70 KCAL/MOL
REMARK 927      BINDING AFFINITY PREDICTED BY RF-SCORE:    0.00 PKD
ROOT
HETATM    1 BR   UNL     1      -9.315   6.891  74.241  1.00  0.00    -0.265 Br 
HETATM    2  C   UNL     2      -7.790   5.026  66.955  1.00  0.00    -0.096 C  
HETATM    3  C   UNL     2      -7.668   6.384  67.700  1.00  0.00    -0.102 C  
HETATM    4  C   UNL     2      -8.995   7.176  67.893  1.00  0.00    -0.122 C  
HETATM    5  C   UNL     2     -10.296   6.365  67.624  1.00  0.00    -0.243 C  
HETATM    6  C   UNL     2      -9.028   4.146  69.091  1.00  0.00    -0.110 C  
HETATM    7  C   UNL     2     -10.118   5.016  66.884  1.00  0.00    -0.228 C  
HETATM    8  C   UNL     2      -8.173   5.305  65.498  1.00  0.00    -0.124 C  
HETATM    9  O   UNL     2      -8.917   4.308  64.776  1.00  0.00    -0.132 OA 
HETATM   10  N   UNL     2      -8.965   4.223  67.568  1.00  0.00    -0.111 N  
HETATM   11  C   UNL     2      -8.925   2.742  67.117  1.00  0.00    -0.159 C  
HETATM   12  C   UNL     2      -9.661   5.317  65.462  1.00  0.00     0.006 C  
ENDROOT
BRANCH   4  13
HETATM   13  O   UNL     2      -9.105   7.766  69.250  1.00  0.00    -0.145 OA 
BRANCH  13  14
HETATM   14  C   UNL     2      -8.956   9.125  69.402  1.00  0.00    -0.147 C  
HETATM   15  C   UNL     2      -9.085  11.055  67.679  1.00  0.00    -0.145 A  
HETATM   16  O   UNL     2      -9.274   9.686  70.432  1.00  0.00    -0.250 OA 
HETATM   17  C   UNL     2      -6.893  10.301  68.713  1.00  0.00    -0.058 C  
HETATM   18  C   UNL     2      -8.277   9.849  68.204  1.00  0.00    -0.109 C  
HETATM   19  O   UNL     2      -6.124   9.234  69.267  1.00  0.00    -0.040 OA 
HETATM   20  C   UNL     2      -8.517  12.328  67.430  1.00  0.00    -0.176 A  
HETATM   21  C   UNL     2      -9.305  13.435  67.078  1.00  0.00    -0.243 A  
HETATM   22  H   UNL     2      -5.272   9.512  69.581  1.00  0.00     0.000 HD 
HETATM   23  C   UNL     2     -10.676  13.276  66.924  1.00  0.00    -0.274 A  
HETATM   24  C   UNL     2     -11.240  12.009  67.043  1.00  0.00    -0.377 A  
HETATM   25  C   UNL     2     -10.449  10.909  67.398  1.00  0.00    -0.263 A  
ENDBRANCH  13  14
ENDBRANCH   4  13
TORSDOF 2
ENDMDL
MODEL      156
REMARK 921   NORMALIZED FREE ENERGY PREDICTED BY IDOCK:   -3.50 KCAL/MOL
REMARK 922        TOTAL FREE ENERGY PREDICTED BY IDOCK:   -4.61 KCAL/MOL
REMARK 923 INTER-LIGAND FREE ENERGY PREDICTED BY IDOCK:   -4.06 KCAL/MOL
REMARK 924 INTRA-LIGAND FREE ENERGY PREDICTED BY IDOCK:   -0.54 KCAL/MOL
REMARK 927      BINDING AFFINITY PREDICTED BY RF-SCORE:    0.00 PKD
ROOT
HETATM    1 BR   UNL     1      -6.293   1.710  68.017  1.00  0.00    -0.025 Br 
HETATM    2  C   UNL     2     -11.437   6.800  70.570  1.00  0.00    -0.360 C  
HETATM    3  C   UNL     2     -10.884   6.549  69.140  1.00  0.00    -0.354 C  
HETATM    4  C   UNL     2      -9.482   7.155  68.836  1.00  0.00    -0.142 C  
HETATM    5  C   UNL     2      -8.681   7.630  70.084  1.00  0.00    -0.141 C  
HETATM    6  C   UNL     2      -9.576   5.155  71.407  1.00  0.00    -0.161 C  
HETATM    7  C   UNL     2      -9.485   7.764  71.399  1.00  0.00    -0.148 C  
HETATM    8  C   UNL     2     -11.731   8.296  70.720  1.00  0.00    -0.202 C  
HETATM    9  O   UNL     2     -11.660   8.886  72.030  1.00  0.00    -0.351 OA 
HETATM   10  N   UNL     2     -10.328   6.470  71.600  1.00  0.00    -0.205 N  
HETATM   11  C   UNL     2     -10.909   6.364  73.032  1.00  0.00    -0.259 C  
HETATM   12  C   UNL     2     -10.475   8.910  71.232  1.00  0.00    -0.287 C  
ENDROOT
BRANCH   4  13
HETATM   13  O   UNL     2      -8.617   6.217  68.077  1.00  0.00    -0.117 OA 
BRANCH  13  14
HETATM   14  C   UNL     2      -8.583   6.302  66.705  1.00  0.00    -0.116 C  
HETATM   15  C   UNL     2      -8.651   4.461  64.883  1.00  0.00    -0.130 A  
HETATM   16  O   UNL     2      -9.054   7.255  66.117  1.00  0.00    -0.166 OA 
HETATM   17  C   UNL     2      -6.542   5.773  65.412  1.00  0.00    -0.043 C  
HETATM   18  C   UNL     2      -7.824   5.144  65.994  1.00  0.00    -0.103 C  
HETATM   19  O   UNL     2      -5.769   6.472  66.386  1.00  0.00    -0.013 OA 
HETATM   20  C   UNL     2      -8.149   4.200  63.585  1.00  0.00    -0.091 A  
HETATM   21  C   UNL     2      -8.968   3.697  62.562  1.00  0.00    -0.091 A  
HETATM   22  H   UNL     2      -4.980   6.860  66.028  1.00  0.00     0.000 HD 
HETATM   23  C   UNL     2     -10.298   3.405  62.833  1.00  0.00    -0.176 A  
HETATM   24  C   UNL     2     -10.781   3.537  64.131  1.00  0.00    -0.178 A  
HETATM   25  C   UNL     2      -9.960   4.042  65.148  1.00  0.00    -0.203 A  
ENDBRANCH  13  14
ENDBRANCH   4  13
TORSDOF 2
ENDMDL
MODEL      157
REMARK 921   NORMALIZED FREE ENERGY PREDICTED BY IDOCK:   -3.49 KCAL/MOL
REMARK 922        TOTAL FREE ENERGY PREDICTED BY IDOCK:   -4.60 KCAL/MOL
REMARK 923 INTER-LIGAND FREE ENERGY PREDICTED BY IDOCK:   -4.11 KCAL/MOL
REMARK 924 INTRA-LIGAND FREE ENERGY PREDICTED BY IDOCK:   -0.49 KCAL/MOL
REMARK 927      BINDING AFFINITY PREDICTED BY RF-SCORE:    0.00 PKD
ROOT
HETATM    1 BR   UNL     1      -9.210   8.236  73.053  1.00  0.00    -0.269 Br 
HETATM    2  C   UNL     2      -7.687   5.013  66.256  1.00  0.00    -0.092 C  
HETATM    3  C   UNL     2      -7.889   6.503  66.649  1.00  0.00    -0.104 C  
HETATM    4  C   UNL     2      -9.366   6.968  66.819  1.00  0.00    -0.156 C  
HETATM    5  C   UNL     2     -10.415   5.821  66.909  1.00  0.00    -0.348 C  
HETATM    6  C   UNL     2      -8.511   4.429  68.675  1.00  0.00    -0.084 C  
HETATM    7  C   UNL     2      -9.927   4.416  66.482  1.00  0.00    -0.223 C  
HETATM    8  C   UNL     2      -8.218   4.811  64.834  1.00  0.00    -0.120 C  
HETATM    9  O   UNL     2      -8.710   3.512  64.459  1.00  0.00    -0.099 OA 
HETATM   10  N   UNL     2      -8.564   4.130  67.179  1.00  0.00    -0.103 N  
HETATM   11  C   UNL     2      -8.155   2.640  67.078  1.00  0.00    -0.076 C  
HETATM   12  C   UNL     2      -9.655   4.448  64.982  1.00  0.00    -0.170 C  
ENDROOT
BRANCH   4  13
HETATM   13  O   UNL     2      -9.547   7.838  68.008  1.00  0.00    -0.146 OA 
BRANCH  13  14
HETATM   14  C   UNL     2     -10.235   9.021  67.871  1.00  0.00    -0.221 C  
HETATM   15  C   UNL     2      -9.589  11.449  68.501  1.00  0.00    -0.190 A  
HETATM   16  O   UNL     2     -11.017   9.198  66.958  1.00  0.00    -0.098 OA 
HETATM   17  C   UNL     2     -11.329  10.128  69.793  1.00  0.00    -0.256 C  
HETATM   18  C   UNL     2     -10.001  10.052  69.013  1.00  0.00    -0.203 C  
HETATM   19  O   UNL     2     -11.790   8.853  70.238  1.00  0.00    -0.470 OA 
HETATM   20  C   UNL     2     -10.189  12.652  68.943  1.00  0.00    -0.004 A  
HETATM   21  C   UNL     2      -9.881  13.892  68.363  1.00  0.00    -0.229 A  
HETATM   22  H   UNL     2     -12.609   8.899  70.718  1.00  0.00     0.000 HD 
HETATM   23  C   UNL     2      -8.928  13.956  67.354  1.00  0.00    -0.211 A  
HETATM   24  C   UNL     2      -8.236  12.805  66.988  1.00  0.00    -0.099 A  
HETATM   25  C   UNL     2      -8.551  11.570  67.569  1.00  0.00    -0.143 A  
ENDBRANCH  13  14
ENDBRANCH   4  13
TORSDOF 2
ENDMDL
MODEL      158
REMARK 921   NORMALIZED FREE ENERGY PREDICTED BY IDOCK:   -3.37 KCAL/MOL
REMARK 922        TOTAL FREE ENERGY PREDICTED BY IDOCK:   -4.47 KCAL/MOL
REMARK 923 INTER-LIGAND FREE ENERGY PREDICTED BY IDOCK:   -3.88 KCAL/MOL
REMARK 924 INTRA-LIGAND FREE ENERGY PREDICTED BY IDOCK:   -0.59 KCAL/MOL
REMARK 927      BINDING AFFINITY PREDICTED BY RF-SCORE:    0.00 PKD
ROOT
HETATM    1 BR   UNL     1      -9.232   2.361  69.623  1.00  0.00    -0.176 Br 
HETATM    2  C   UNL     2     -10.741   9.659  67.792  1.00  0.00    -0.257 C  
HETATM    3  C   UNL     2      -9.956   8.562  67.020  1.00  0.00    -0.318 C  
HETATM    4  C   UNL     2      -8.494   8.310  67.492  1.00  0.00    -0.130 C  
HETATM    5  C   UNL     2      -8.125   8.936  68.870  1.00  0.00    -0.112 C  
HETATM    6  C   UNL     2     -10.752   7.999  69.821  1.00  0.00    -0.231 C  
HETATM    7  C   UNL     2      -9.113   9.991  69.425  1.00  0.00    -0.215 C  
HETATM    8  C   UNL     2     -10.102  11.018  67.486  1.00  0.00    -0.180 C  
HETATM    9  O   UNL     2     -10.199  12.064  68.468  1.00  0.00    -0.215 OA 
HETATM   10  N   UNL     2     -10.559   9.426  69.313  1.00  0.00    -0.224 N  
HETATM   11  C   UNL     2     -11.579  10.257  70.131  1.00  0.00    -0.299 C  
HETATM   12  C   UNL     2      -9.049  11.216  68.520  1.00  0.00    -0.175 C  
ENDROOT
BRANCH   4  13
HETATM   13  O   UNL     2      -8.164   6.865  67.551  1.00  0.00    -0.114 OA 
BRANCH  13  14
HETATM   14  C   UNL     2      -7.885   6.195  66.383  1.00  0.00    -0.104 C  
HETATM   15  C   UNL     2      -8.792   3.956  65.447  1.00  0.00    -0.123 A  
HETATM   16  O   UNL     2      -7.588   6.790  65.366  1.00  0.00    -0.080 OA 
HETATM   17  C   UNL     2      -6.426   4.199  66.336  1.00  0.00    -0.037 C  
HETATM   18  C   UNL     2      -7.894   4.643  66.498  1.00  0.00    -0.099 C  
HETATM   19  O   UNL     2      -5.539   4.852  67.243  1.00  0.00    -0.012 OA 
HETATM   20  C   UNL     2      -8.370   2.860  64.656  1.00  0.00    -0.087 A  
HETATM   21  C   UNL     2      -9.165   2.344  63.621  1.00  0.00    -0.097 A  
HETATM   22  H   UNL     2      -4.635   4.579  67.143  1.00  0.00     0.000 HD 
HETATM   23  C   UNL     2     -10.421   2.889  63.388  1.00  0.00    -0.211 A  
HETATM   24  C   UNL     2     -10.907   3.884  64.231  1.00  0.00    -0.164 A  
HETATM   25  C   UNL     2     -10.107   4.398  65.261  1.00  0.00    -0.218 A  
ENDBRANCH  13  14
ENDBRANCH   4  13
TORSDOF 2
ENDMDL
MODEL      159
REMARK 921   NORMALIZED FREE ENERGY PREDICTED BY IDOCK:   -3.27 KCAL/MOL
REMARK 922        TOTAL FREE ENERGY PREDICTED BY IDOCK:   -4.35 KCAL/MOL
REMARK 923 INTER-LIGAND FREE ENERGY PREDICTED BY IDOCK:   -3.54 KCAL/MOL
REMARK 924 INTRA-LIGAND FREE ENERGY PREDICTED BY IDOCK:   -0.81 KCAL/MOL
REMARK 927      BINDING AFFINITY PREDICTED BY RF-SCORE:    0.00 PKD
ROOT
HETATM    1 BR   UNL     1      -7.645  10.006  67.995  1.00  0.00    -0.088 Br 
HETATM    2  C   UNL     2     -13.520  14.267  70.490  1.00  0.00     0.243 C  
HETATM    3  C   UNL     2     -12.522  14.502  69.322  1.00  0.00    -0.066 C  
HETATM    4  C   UNL     2     -11.120  15.048  69.725  1.00  0.00    -0.276 C  
HETATM    5  C   UNL     2     -10.788  14.965  71.244  1.00  0.00     0.215 C  
HETATM    6  C   UNL     2     -11.977  12.270  71.197  1.00  0.00     0.472 C  
HETATM    7  C   UNL     2     -11.982  14.685  72.188  1.00  0.00    -0.191 C  
HETATM    8  C   UNL     2     -13.901  15.627  71.083  1.00  0.00    -0.054 C  
HETATM    9  O   UNL     2     -14.282  15.694  72.468  1.00  0.00    -0.557 OA 
HETATM   10  N   UNL     2     -12.797  13.487  71.616  1.00  0.00    -0.346 N  
HETATM   11  C   UNL     2     -13.810  12.923  72.644  1.00  0.00    -0.022 C  
HETATM   12  C   UNL     2     -12.904  15.898  72.154  1.00  0.00    -0.423 C  
ENDROOT
BRANCH   4  13
HETATM   13  O   UNL     2     -10.022  14.375  68.987  1.00  0.00    -0.209 OA 
BRANCH  13  14
HETATM   14  C   UNL     2      -9.960  14.502  67.619  1.00  0.00    -0.224 C  
HETATM   15  C   UNL     2     -10.606  12.858  65.725  1.00  0.00    -0.293 A  
HETATM   16  O   UNL     2     -10.102  15.580  67.076  1.00  0.00    -0.246 OA 
HETATM   17  C   UNL     2      -8.191  13.407  66.282  1.00  0.00     1.058 C  
HETATM   18  C   UNL     2      -9.608  13.194  66.853  1.00  0.00    -0.248 C  
HETATM   19  O   UNL     2      -7.238  13.782  67.275  1.00  0.00    -0.310 OA 
HETATM   20  C   UNL     2     -10.212  12.505  64.412  1.00  0.00    -0.346 A  
HETATM   21  C   UNL     2     -11.145  12.333  63.378  1.00  0.00    -0.487 A  
HETATM   22  H   UNL     2      -6.365  13.914  66.924  1.00  0.00     0.000 HD 
HETATM   23  C   UNL     2     -12.500  12.467  63.652  1.00  0.00    -0.610 A  
HETATM   24  C   UNL     2     -12.918  12.691  64.961  1.00  0.00    -0.028 A  
HETATM   25  C   UNL     2     -11.981  12.866  65.988  1.00  0.00    -0.505 A  
ENDBRANCH  13  14
ENDBRANCH   4  13
TORSDOF 2
ENDMDL
MODEL      160
REMARK 921   NORMALIZED FREE ENERGY PREDICTED BY IDOCK:   -3.26 KCAL/MOL
REMARK 922        TOTAL FREE ENERGY PREDICTED BY IDOCK:   -4.34 KCAL/MOL
REMARK 923 INTER-LIGAND FREE ENERGY PREDICTED BY IDOCK:   -3.82 KCAL/MOL
REMARK 924 INTRA-LIGAND FREE ENERGY PREDICTED BY IDOCK:   -0.52 KCAL/MOL
REMARK 927      BINDING AFFINITY PREDICTED BY RF-SCORE:    0.00 PKD
ROOT
HETATM    1 BR   UNL     1     -10.955   7.227  67.691  1.00  0.00    -0.103 Br 
HETATM    2  C   UNL     2     -11.222  14.854  66.877  1.00  0.00    -0.343 C  
HETATM    3  C   UNL     2     -10.436  13.777  66.079  1.00  0.00    -0.297 C  
HETATM    4  C   UNL     2      -9.132  13.250  66.748  1.00  0.00    -0.210 C  
HETATM    5  C   UNL     2      -8.968  13.611  68.254  1.00  0.00    -0.187 C  
HETATM    6  C   UNL     2     -11.820  12.940  68.565  1.00  0.00    -0.313 C  
HETATM    7  C   UNL     2      -9.914  14.709  68.799  1.00  0.00    -0.235 C  
HETATM    8  C   UNL     2     -10.383  16.135  66.918  1.00  0.00    -0.297 C  
HETATM    9  O   UNL     2     -10.546  17.032  68.030  1.00  0.00    -0.346 OA 
HETATM   10  N   UNL     2     -11.368  14.381  68.346  1.00  0.00    -0.273 N  
HETATM   11  C   UNL     2     -12.422  15.226  69.102  1.00  0.00     0.061 C  
HETATM   12  C   UNL     2      -9.535  16.029  68.137  1.00  0.00    -0.208 C  
ENDROOT
BRANCH   4  13
HETATM   13  O   UNL     2      -8.990  11.779  66.621  1.00  0.00    -0.186 OA 
BRANCH  13  14
HETATM   14  C   UNL     2      -7.739  11.217  66.727  1.00  0.00    -0.155 C  
HETATM   15  C   UNL     2      -6.909   8.808  66.262  1.00  0.00    -0.074 A  
HETATM   16  O   UNL     2      -6.732  11.871  66.537  1.00  0.00     0.000 OA 
HETATM   17  C   UNL     2      -7.124   9.741  68.613  1.00  0.00    -0.071 C  
HETATM   18  C   UNL     2      -7.723   9.732  67.193  1.00  0.00    -0.095 C  
HETATM   19  O   UNL     2      -7.801  10.629  69.502  1.00  0.00    -0.245 OA 
HETATM   20  C   UNL     2      -5.945   7.883  66.729  1.00  0.00    -0.048 A  
HETATM   21  C   UNL     2      -5.131   7.152  65.849  1.00  0.00    -0.023 A  
HETATM   22  H   UNL     2      -7.432  10.634  70.377  1.00  0.00     0.000 HD 
HETATM   23  C   UNL     2      -5.301   7.302  64.479  1.00  0.00    -0.029 A  
HETATM   24  C   UNL     2      -6.325   8.112  63.997  1.00  0.00    -0.066 A  
HETATM   25  C   UNL     2      -7.132   8.841  64.880  1.00  0.00    -0.077 A  
ENDBRANCH  13  14
ENDBRANCH   4  13
TORSDOF 2
ENDMDL
MODEL      161
REMARK 921   NORMALIZED FREE ENERGY PREDICTED BY IDOCK:   -3.18 KCAL/MOL
REMARK 922        TOTAL FREE ENERGY PREDICTED BY IDOCK:   -4.25 KCAL/MOL
REMARK 923 INTER-LIGAND FREE ENERGY PREDICTED BY IDOCK:   -3.68 KCAL/MOL
REMARK 924 INTRA-LIGAND FREE ENERGY PREDICTED BY IDOCK:   -0.57 KCAL/MOL
REMARK 927      BINDING AFFINITY PREDICTED BY RF-SCORE:    0.00 PKD
ROOT
HETATM    1 BR   UNL     1      -8.765   1.473  66.847  1.00  0.00    -0.127 Br 
HETATM    2  C   UNL     2     -11.152   8.264  69.508  1.00  0.00     0.051 C  
HETATM    3  C   UNL     2     -10.224   7.914  68.312  1.00  0.00    -0.240 C  
HETATM    4  C   UNL     2      -8.749   7.568  68.673  1.00  0.00    -0.128 C  
HETATM    5  C   UNL     2      -8.484   7.289  70.182  1.00  0.00    -0.138 C  
HETATM    6  C   UNL     2     -10.987   5.734  70.172  1.00  0.00    -0.298 C  
HETATM    7  C   UNL     2      -9.605   7.716  71.160  1.00  0.00    -0.158 C  
HETATM    8  C   UNL     2     -10.685   9.593  70.111  1.00  0.00    -0.275 C  
HETATM    9  O   UNL     2     -10.929   9.841  71.506  1.00  0.00    -0.309 OA 
HETATM   10  N   UNL     2     -10.967   7.195  70.614  1.00  0.00    -0.249 N  
HETATM   11  C   UNL     2     -12.096   7.283  71.670  1.00  0.00    -0.325 C  
HETATM   12  C   UNL     2      -9.683   9.238  71.153  1.00  0.00    -0.257 C  
ENDROOT
BRANCH   4  13
HETATM   13  O   UNL     2      -8.240   6.406  67.905  1.00  0.00    -0.114 OA 
BRANCH  13  14
HETATM   14  C   UNL     2      -7.396   6.626  66.841  1.00  0.00    -0.082 C  
HETATM   15  C   UNL     2      -7.147   8.660  65.256  1.00  0.00    -0.082 A  
HETATM   16  O   UNL     2      -6.282   6.142  66.806  1.00  0.00    -0.033 OA 
HETATM   17  C   UNL     2      -8.173   6.465  64.499  1.00  0.00    -0.038 C  
HETATM   18  C   UNL     2      -8.011   7.450  65.674  1.00  0.00    -0.118 C  
HETATM   19  O   UNL     2      -8.913   5.295  64.847  1.00  0.00    -0.266 OA 
HETATM   20  C   UNL     2      -6.813   8.955  63.913  1.00  0.00    -0.087 A  
HETATM   21  C   UNL     2      -5.920   9.985  63.580  1.00  0.00    -0.128 A  
HETATM   22  H   UNL     2      -9.012   4.688  64.123  1.00  0.00     0.000 HD 
HETATM   23  C   UNL     2      -5.378  10.771  64.589  1.00  0.00    -0.079 A  
HETATM   24  C   UNL     2      -5.787  10.579  65.905  1.00  0.00    -0.120 A  
HETATM   25  C   UNL     2      -6.676   9.547  66.231  1.00  0.00    -0.075 A  
ENDBRANCH  13  14
ENDBRANCH   4  13
TORSDOF 2
ENDMDL
MODEL      162
REMARK 921   NORMALIZED FREE ENERGY PREDICTED BY IDOCK:   -3.17 KCAL/MOL
REMARK 922        TOTAL FREE ENERGY PREDICTED BY IDOCK:   -4.25 KCAL/MOL
REMARK 923 INTER-LIGAND FREE ENERGY PREDICTED BY IDOCK:   -4.12 KCAL/MOL
REMARK 924 INTRA-LIGAND FREE ENERGY PREDICTED BY IDOCK:   -0.12 KCAL/MOL
REMARK 927      BINDING AFFINITY PREDICTED BY RF-SCORE:    0.00 PKD
ROOT
HETATM    1 BR   UNL     1      -5.615   5.792  65.556  1.00  0.00    -0.013 Br 
HETATM    2  C   UNL     2     -10.862   6.539  71.106  1.00  0.00    -0.249 C  
HETATM    3  C   UNL     2     -10.994   6.667  69.562  1.00  0.00    -0.367 C  
HETATM    4  C   UNL     2     -10.517   8.016  68.947  1.00  0.00    -0.191 C  
HETATM    5  C   UNL     2      -9.669   8.913  69.896  1.00  0.00    -0.185 C  
HETATM    6  C   UNL     2      -8.271   6.453  70.718  1.00  0.00    -0.125 C  
HETATM    7  C   UNL     2      -9.695   8.533  71.397  1.00  0.00    -0.220 C  
HETATM    8  C   UNL     2     -11.845   7.516  71.758  1.00  0.00    -0.294 C  
HETATM    9  O   UNL     2     -11.534   8.042  73.060  1.00  0.00    -0.370 OA 
HETATM   10  N   UNL     2      -9.444   7.002  71.526  1.00  0.00    -0.155 N  
HETATM   11  C   UNL     2      -9.128   6.580  72.982  1.00  0.00    -0.128 C  
HETATM   12  C   UNL     2     -11.101   8.794  71.925  1.00  0.00    -0.364 C  
ENDROOT
BRANCH   4  13
HETATM   13  O   UNL     2      -9.739   7.820  67.699  1.00  0.00    -0.145 OA 
BRANCH  13  14
HETATM   14  C   UNL     2      -9.190   8.916  67.076  1.00  0.00    -0.137 C  
HETATM   15  C   UNL     2      -7.500   9.095  65.121  1.00  0.00    -0.097 A  
HETATM   16  O   UNL     2      -9.802   9.962  66.975  1.00  0.00    -0.174 OA 
HETATM   17  C   UNL     2      -6.868   9.645  67.517  1.00  0.00    -0.082 C  
HETATM   18  C   UNL     2      -7.718   8.736  66.606  1.00  0.00    -0.093 C  
HETATM   19  O   UNL     2      -7.076   9.398  68.907  1.00  0.00    -0.066 OA 
HETATM   20  C   UNL     2      -6.453   9.930  64.664  1.00  0.00    -0.119 A  
HETATM   21  C   UNL     2      -6.362  10.341  63.325  1.00  0.00    -0.128 A  
HETATM   22  H   UNL     2      -6.553   9.958  69.468  1.00  0.00     0.000 HD 
HETATM   23  C   UNL     2      -7.298   9.884  62.406  1.00  0.00    -0.127 A  
HETATM   24  C   UNL     2      -8.264   8.965  62.806  1.00  0.00    -0.192 A  
HETATM   25  C   UNL     2      -8.350   8.561  64.145  1.00  0.00    -0.102 A  
ENDBRANCH  13  14
ENDBRANCH   4  13
TORSDOF 2
ENDMDL
MODEL      163
REMARK 921   NORMALIZED FREE ENERGY PREDICTED BY IDOCK:   -3.17 KCAL/MOL
REMARK 922        TOTAL FREE ENERGY PREDICTED BY IDOCK:   -4.24 KCAL/MOL
REMARK 923 INTER-LIGAND FREE ENERGY PREDICTED BY IDOCK:   -4.10 KCAL/MOL
REMARK 924 INTRA-LIGAND FREE ENERGY PREDICTED BY IDOCK:   -0.14 KCAL/MOL
REMARK 927      BINDING AFFINITY PREDICTED BY RF-SCORE:    0.00 PKD
ROOT
HETATM    1 BR   UNL     1     -12.773  13.895  64.773  1.00  0.00    -0.164 Br 
HETATM    2  C   UNL     2      -7.832   9.598  68.775  1.00  0.00    -0.081 C  
HETATM    3  C   UNL     2      -8.344  11.045  69.017  1.00  0.00    -0.089 C  
HETATM    4  C   UNL     2      -7.674  12.158  68.159  1.00  0.00    -0.129 C  
HETATM    5  C   UNL     2      -6.837  11.647  66.949  1.00  0.00    -0.129 C  
HETATM    6  C   UNL     2      -9.024   9.737  66.444  1.00  0.00    -0.151 C  
HETATM    7  C   UNL     2      -6.494  10.137  66.947  1.00  0.00    -0.070 C  
HETATM    8  C   UNL     2      -6.384   9.508  69.267  1.00  0.00    -0.044 C  
HETATM    9  O   UNL     2      -5.503   8.553  68.649  1.00  0.00    -0.035 OA 
HETATM   10  N   UNL     2      -7.791   9.332  67.249  1.00  0.00    -0.098 N  
HETATM   11  C   UNL     2      -7.627   7.821  66.950  1.00  0.00    -0.099 C  
HETATM   12  C   UNL     2      -5.533   9.872  68.100  1.00  0.00    -0.039 C  
ENDROOT
BRANCH   4  13
HETATM   13  O   UNL     2      -8.659  13.138  67.641  1.00  0.00    -0.168 OA 
BRANCH  13  14
HETATM   14  C   UNL     2      -8.884  14.296  68.349  1.00  0.00    -0.187 C  
HETATM   15  C   UNL     2      -8.094  16.728  67.931  1.00  0.00    -0.189 A  
HETATM   16  O   UNL     2      -9.914  14.470  68.971  1.00  0.00    -0.216 OA 
HETATM   17  C   UNL     2      -7.153  15.296  69.805  1.00  0.00    -0.154 C  
HETATM   18  C   UNL     2      -7.695  15.300  68.361  1.00  0.00    -0.124 C  
HETATM   19  O   UNL     2      -6.825  13.990  70.277  1.00  0.00    -0.393 OA 
HETATM   20  C   UNL     2      -7.733  17.891  68.653  1.00  0.00    -0.293 A  
HETATM   21  C   UNL     2      -8.221  19.160  68.307  1.00  0.00    -0.369 A  
HETATM   22  H   UNL     2      -6.492  13.988  71.166  1.00  0.00     0.000 HD 
HETATM   23  C   UNL     2      -9.049  19.294  67.200  1.00  0.00    -0.346 A  
HETATM   24  C   UNL     2      -9.319  18.185  66.403  1.00  0.00    -0.274 A  
HETATM   25  C   UNL     2      -8.830  16.920  66.756  1.00  0.00    -0.262 A  
ENDBRANCH  13  14
ENDBRANCH   4  13
TORSDOF 2
ENDMDL
MODEL      164
REMARK 921   NORMALIZED FREE ENERGY PREDICTED BY IDOCK:   -3.16 KCAL/MOL
REMARK 922        TOTAL FREE ENERGY PREDICTED BY IDOCK:   -4.23 KCAL/MOL
REMARK 923 INTER-LIGAND FREE ENERGY PREDICTED BY IDOCK:   -3.45 KCAL/MOL
REMARK 924 INTRA-LIGAND FREE ENERGY PREDICTED BY IDOCK:   -0.78 KCAL/MOL
REMARK 927      BINDING AFFINITY PREDICTED BY RF-SCORE:    0.00 PKD
ROOT
HETATM    1 BR   UNL     1      -7.878   6.717  72.364  1.00  0.00    -0.093 Br 
HETATM    2  C   UNL     2      -5.887   7.483  64.992  1.00  0.00    -0.038 C  
HETATM    3  C   UNL     2      -6.086   8.550  66.104  1.00  0.00    -0.052 C  
HETATM    4  C   UNL     2      -7.560   8.946  66.413  1.00  0.00    -0.092 C  
HETATM    5  C   UNL     2      -8.639   7.993  65.821  1.00  0.00    -0.174 C  
HETATM    6  C   UNL     2      -6.917   5.763  66.680  1.00  0.00    -0.064 C  
HETATM    7  C   UNL     2      -8.151   6.998  64.740  1.00  0.00    -0.096 C  
HETATM    8  C   UNL     2      -6.307   8.096  63.652  1.00  0.00    -0.072 C  
HETATM    9  O   UNL     2      -6.797   7.225  62.618  1.00  0.00    -0.062 OA 
HETATM   10  N   UNL     2      -6.856   6.303  65.254  1.00  0.00    -0.047 N  
HETATM   11  C   UNL     2      -6.475   5.068  64.399  1.00  0.00    -0.038 C  
HETATM   12  C   UNL     2      -7.758   7.800  63.505  1.00  0.00    -0.131 C  
ENDROOT
BRANCH   4  13
HETATM   13  O   UNL     2      -7.816   9.066  67.869  1.00  0.00    -0.099 OA 
BRANCH  13  14
HETATM   14  C   UNL     2      -8.356  10.232  68.358  1.00  0.00    -0.119 C  
HETATM   15  C   UNL     2      -9.487  12.225  67.148  1.00  0.00    -0.196 A  
HETATM   16  O   UNL     2      -8.873  10.280  69.457  1.00  0.00    -0.187 OA 
HETATM   17  C   UNL     2      -7.174  12.397  68.180  1.00  0.00    -0.100 C  
HETATM   18  C   UNL     2      -8.169  11.477  67.444  1.00  0.00    -0.149 C  
HETATM   19  O   UNL     2      -5.958  11.739  68.534  1.00  0.00    -0.049 OA 
HETATM   20  C   UNL     2      -9.635  13.627  67.272  1.00  0.00    -0.238 A  
HETATM   21  C   UNL     2     -10.880  14.257  67.122  1.00  0.00    -0.296 A  
HETATM   22  H   UNL     2      -5.346  12.306  68.988  1.00  0.00     0.000 HD 
HETATM   23  C   UNL     2     -11.996  13.496  66.800  1.00  0.00    -0.453 A  
HETATM   24  C   UNL     2     -11.853  12.134  66.554  1.00  0.00    -0.322 A  
HETATM   25  C   UNL     2     -10.608  11.510  66.708  1.00  0.00    -0.289 A  
ENDBRANCH  13  14
ENDBRANCH   4  13
TORSDOF 2
ENDMDL
MODEL      165
REMARK 921   NORMALIZED FREE ENERGY PREDICTED BY IDOCK:   -3.16 KCAL/MOL
REMARK 922        TOTAL FREE ENERGY PREDICTED BY IDOCK:   -4.23 KCAL/MOL
REMARK 923 INTER-LIGAND FREE ENERGY PREDICTED BY IDOCK:   -4.23 KCAL/MOL
REMARK 924 INTRA-LIGAND FREE ENERGY PREDICTED BY IDOCK:    0.00 KCAL/MOL
REMARK 927      BINDING AFFINITY PREDICTED BY RF-SCORE:    0.00 PKD
ROOT
HETATM    1 BR   UNL     1     -10.888   6.580  68.115  1.00  0.00    -0.376 Br 
HETATM    2  C   UNL     2     -10.263  13.765  65.489  1.00  0.00    -0.316 C  
HETATM    3  C   UNL     2      -9.171  12.716  65.841  1.00  0.00     0.073 C  
HETATM    4  C   UNL     2      -8.842  12.557  67.354  1.00  0.00    -0.187 C  
HETATM    5  C   UNL     2      -9.868  13.209  68.327  1.00  0.00    -0.227 C  
HETATM    6  C   UNL     2     -11.978  12.114  66.587  1.00  0.00    -0.107 C  
HETATM    7  C   UNL     2     -10.871  14.203  67.694  1.00  0.00    -0.260 C  
HETATM    8  C   UNL     2      -9.716  15.159  65.812  1.00  0.00    -0.344 C  
HETATM    9  O   UNL     2     -10.644  16.200  66.162  1.00  0.00    -0.313 OA 
HETATM   10  N   UNL     2     -11.482  13.548  66.420  1.00  0.00    -0.320 N  
HETATM   11  C   UNL     2     -12.723  14.318  65.903  1.00  0.00    -0.283 C  
HETATM   12  C   UNL     2     -10.091  15.426  67.227  1.00  0.00    -0.238 C  
ENDROOT
BRANCH   4  13
HETATM   13  O   UNL     2      -8.687  11.136  67.750  1.00  0.00    -0.128 OA 
BRANCH  13  14
HETATM   14  C   UNL     2      -8.095  10.258  66.872  1.00  0.00    -0.119 C  
HETATM   15  C   UNL     2      -6.458   8.291  67.274  1.00  0.00    -0.058 A  
HETATM   16  O   UNL     2      -8.649   9.918  65.845  1.00  0.00    -0.132 OA 
HETATM   17  C   UNL     2      -5.723  10.474  66.208  1.00  0.00    -0.085 C  
HETATM   18  C   UNL     2      -6.651   9.822  67.253  1.00  0.00    -0.070 C  
HETATM   19  O   UNL     2      -5.902  11.885  66.101  1.00  0.00    -0.488 OA 
HETATM   20  C   UNL     2      -5.379   7.630  66.640  1.00  0.00    -0.024 A  
HETATM   21  C   UNL     2      -5.306   6.230  66.568  1.00  0.00    -0.013 A  
HETATM   22  H   UNL     2      -5.331  12.287  65.457  1.00  0.00     0.000 HD 
HETATM   23  C   UNL     2      -6.294   5.463  67.172  1.00  0.00    -0.039 A  
HETATM   24  C   UNL     2      -7.298   6.088  67.906  1.00  0.00    -0.084 A  
HETATM   25  C   UNL     2      -7.367   7.485  67.971  1.00  0.00    -0.096 A  
ENDBRANCH  13  14
ENDBRANCH   4  13
TORSDOF 2
ENDMDL
MODEL      166
REMARK 921   NORMALIZED FREE ENERGY PREDICTED BY IDOCK:   -3.16 KCAL/MOL
REMARK 922        TOTAL FREE ENERGY PREDICTED BY IDOCK:   -4.23 KCAL/MOL
REMARK 923 INTER-LIGAND FREE ENERGY PREDICTED BY IDOCK:   -4.13 KCAL/MOL
REMARK 924 INTRA-LIGAND FREE ENERGY PREDICTED BY IDOCK:   -0.10 KCAL/MOL
REMARK 927      BINDING AFFINITY PREDICTED BY RF-SCORE:    0.00 PKD
ROOT
HETATM    1 BR   UNL     1      -8.226   5.272  65.042  1.00  0.00    -0.139 Br 
HETATM    2  C   UNL     2      -8.435   6.409  72.629  1.00  0.00    -0.122 C  
HETATM    3  C   UNL     2      -9.339   6.968  71.495  1.00  0.00    -0.154 C  
HETATM    4  C   UNL     2      -8.754   8.163  70.685  1.00  0.00    -0.135 C  
HETATM    5  C   UNL     2      -7.231   8.417  70.885  1.00  0.00    -0.059 C  
HETATM    6  C   UNL     2      -6.883   5.496  70.724  1.00  0.00    -0.052 C  
HETATM    7  C   UNL     2      -6.573   7.699  72.088  1.00  0.00    -0.055 C  
HETATM    8  C   UNL     2      -8.321   7.472  73.726  1.00  0.00    -0.177 C  
HETATM    9  O   UNL     2      -7.138   7.496  74.544  1.00  0.00    -0.106 OA 
HETATM   10  N   UNL     2      -7.004   6.203  72.071  1.00  0.00    -0.076 N  
HETATM   11  C   UNL     2      -6.151   5.336  73.030  1.00  0.00    -0.035 C  
HETATM   12  C   UNL     2      -7.142   8.305  73.366  1.00  0.00    -0.115 C  
ENDROOT
BRANCH   4  13
HETATM   13  O   UNL     2      -9.000   8.028  69.228  1.00  0.00    -0.147 OA 
BRANCH  13  14
HETATM   14  C   UNL     2     -10.062   8.697  68.666  1.00  0.00    -0.190 C  
HETATM   15  C   UNL     2     -10.606  11.226  68.534  1.00  0.00    -0.227 A  
HETATM   16  O   UNL     2     -10.635   8.266  67.684  1.00  0.00    -0.241 OA 
HETATM   17  C   UNL     2     -11.893   9.636  70.038  1.00  0.00     0.045 C  
HETATM   18  C   UNL     2     -10.516   9.973  69.432  1.00  0.00    -0.252 C  
HETATM   19  O   UNL     2     -11.881   8.449  70.829  1.00  0.00    -0.405 OA 
HETATM   20  C   UNL     2     -11.722  12.098  68.519  1.00  0.00    -0.382 A  
HETATM   21  C   UNL     2     -11.827  13.152  67.599  1.00  0.00    -0.405 A  
HETATM   22  H   UNL     2     -12.729   8.241  71.202  1.00  0.00     0.000 HD 
HETATM   23  C   UNL     2     -10.791  13.381  66.702  1.00  0.00    -0.285 A  
HETATM   24  C   UNL     2      -9.631  12.616  66.780  1.00  0.00    -0.241 A  
HETATM   25  C   UNL     2      -9.534  11.563  67.699  1.00  0.00    -0.170 A  
ENDBRANCH  13  14
ENDBRANCH   4  13
TORSDOF 2
ENDMDL
MODEL      167
REMARK 921   NORMALIZED FREE ENERGY PREDICTED BY IDOCK:   -3.14 KCAL/MOL
REMARK 922        TOTAL FREE ENERGY PREDICTED BY IDOCK:   -4.21 KCAL/MOL
REMARK 923 INTER-LIGAND FREE ENERGY PREDICTED BY IDOCK:   -3.82 KCAL/MOL
REMARK 924 INTRA-LIGAND FREE ENERGY PREDICTED BY IDOCK:   -0.39 KCAL/MOL
REMARK 927      BINDING AFFINITY PREDICTED BY RF-SCORE:    0.00 PKD
ROOT
HETATM    1 BR   UNL     1      -9.558   7.611  73.163  1.00  0.00    -0.343 Br 
HETATM    2  C   UNL     2     -10.256  10.102  65.938  1.00  0.00    -0.211 C  
HETATM    3  C   UNL     2     -10.504   8.697  66.553  1.00  0.00    -0.127 C  
HETATM    4  C   UNL     2      -9.234   7.833  66.812  1.00  0.00    -0.163 C  
HETATM    5  C   UNL     2      -7.883   8.603  66.742  1.00  0.00    -0.094 C  
HETATM    6  C   UNL     2      -9.212  10.757  68.251  1.00  0.00    -0.157 C  
HETATM    7  C   UNL     2      -7.934  10.012  66.100  1.00  0.00    -0.113 C  
HETATM    8  C   UNL     2      -9.736   9.919  64.508  1.00  0.00    -0.153 C  
HETATM    9  O   UNL     2      -8.885  10.935  63.948  1.00  0.00    -0.151 OA 
HETATM   10  N   UNL     2      -9.121  10.801  66.728  1.00  0.00    -0.152 N  
HETATM   11  C   UNL     2      -9.059  12.313  66.398  1.00  0.00    -0.158 C  
HETATM   12  C   UNL     2      -8.253   9.843  64.619  1.00  0.00    -0.153 C  
ENDROOT
BRANCH   4  13
HETATM   13  O   UNL     2      -9.286   7.136  68.121  1.00  0.00    -0.131 OA 
BRANCH  13  14
HETATM   14  C   UNL     2      -9.398   5.765  68.143  1.00  0.00    -0.109 C  
HETATM   15  C   UNL     2      -7.902   3.917  67.114  1.00  0.00    -0.088 A  
HETATM   16  O   UNL     2      -9.901   5.185  69.085  1.00  0.00    -0.155 OA 
HETATM   17  C   UNL     2     -10.194   4.485  66.182  1.00  0.00    -0.254 C  
HETATM   18  C   UNL     2      -8.921   5.046  66.848  1.00  0.00    -0.112 C  
HETATM   19  O   UNL     2     -11.198   5.477  65.969  1.00  0.00    -0.771 OA 
HETATM   20  C   UNL     2      -8.008   2.621  66.555  1.00  0.00    -0.081 A  
HETATM   21  C   UNL     2      -7.137   1.582  66.921  1.00  0.00    -0.046 A  
HETATM   22  H   UNL     2     -11.982   5.131  65.559  1.00  0.00     0.000 HD 
HETATM   23  C   UNL     2      -6.113   1.836  67.823  1.00  0.00    -0.024 A  
HETATM   24  C   UNL     2      -5.913   3.132  68.292  1.00  0.00    -0.024 A  
HETATM   25  C   UNL     2      -6.788   4.163  67.925  1.00  0.00    -0.051 A  
ENDBRANCH  13  14
ENDBRANCH   4  13
TORSDOF 2
ENDMDL
MODEL      168
REMARK 921   NORMALIZED FREE ENERGY PREDICTED BY IDOCK:   -3.10 KCAL/MOL
REMARK 922        TOTAL FREE ENERGY PREDICTED BY IDOCK:   -4.16 KCAL/MOL
REMARK 923 INTER-LIGAND FREE ENERGY PREDICTED BY IDOCK:   -3.44 KCAL/MOL
REMARK 924 INTRA-LIGAND FREE ENERGY PREDICTED BY IDOCK:   -0.72 KCAL/MOL
REMARK 927      BINDING AFFINITY PREDICTED BY RF-SCORE:    0.00 PKD
ROOT
HETATM    1 BR   UNL     1     -11.086  13.689  64.431  1.00  0.00    -0.348 Br 
HETATM    2  C   UNL     2      -7.676   9.031  69.489  1.00  0.00    -0.082 C  
HETATM    3  C   UNL     2      -7.926  10.565  69.532  1.00  0.00    -0.119 C  
HETATM    4  C   UNL     2      -6.940  11.439  68.702  1.00  0.00    -0.087 C  
HETATM    5  C   UNL     2      -6.059  10.658  67.682  1.00  0.00    -0.048 C  
HETATM    6  C   UNL     2      -8.484   9.130  66.997  1.00  0.00    -0.123 C  
HETATM    7  C   UNL     2      -6.019   9.120  67.856  1.00  0.00    -0.049 C  
HETATM    8  C   UNL     2      -6.356   8.736  70.207  1.00  0.00    -0.038 C  
HETATM    9  O   UNL     2      -5.600   7.577  69.813  1.00  0.00    -0.023 OA 
HETATM   10  N   UNL     2      -7.477   8.599  68.015  1.00  0.00    -0.095 N  
HETATM   11  C   UNL     2      -7.570   7.059  67.868  1.00  0.00    -0.111 C  
HETATM   12  C   UNL     2      -5.298   8.812  69.163  1.00  0.00    -0.036 C  
ENDROOT
BRANCH   4  13
HETATM   13  O   UNL     2      -7.635  12.519  67.960  1.00  0.00    -0.105 OA 
BRANCH  13  14
HETATM   14  C   UNL     2      -8.204  13.554  68.664  1.00  0.00    -0.040 C  
HETATM   15  C   UNL     2     -10.681  14.249  68.968  1.00  0.00    -0.259 A  
HETATM   16  O   UNL     2      -7.696  13.984  69.681  1.00  0.00     0.240 OA 
HETATM   17  C   UNL     2      -9.060  15.585  67.542  1.00  0.00    -0.193 C  
HETATM   18  C   UNL     2      -9.472  14.175  68.010  1.00  0.00    -0.213 C  
HETATM   19  O   UNL     2      -7.907  15.582  66.702  1.00  0.00    -0.260 OA 
HETATM   20  C   UNL     2     -11.468  15.413  69.144  1.00  0.00    -0.344 A  
HETATM   21  C   UNL     2     -12.477  15.485  70.117  1.00  0.00    -0.351 A  
HETATM   22  H   UNL     2      -7.653  16.451  66.414  1.00  0.00     0.000 HD 
HETATM   23  C   UNL     2     -12.746  14.374  70.905  1.00  0.00    -0.425 A  
HETATM   24  C   UNL     2     -12.070  13.181  70.668  1.00  0.00    -0.346 A  
HETATM   25  C   UNL     2     -11.062  13.116  69.697  1.00  0.00     0.014 A  
ENDBRANCH  13  14
ENDBRANCH   4  13
TORSDOF 2
ENDMDL
MODEL      169
REMARK 921   NORMALIZED FREE ENERGY PREDICTED BY IDOCK:   -3.08 KCAL/MOL
REMARK 922        TOTAL FREE ENERGY PREDICTED BY IDOCK:   -4.14 KCAL/MOL
REMARK 923 INTER-LIGAND FREE ENERGY PREDICTED BY IDOCK:   -3.48 KCAL/MOL
REMARK 924 INTRA-LIGAND FREE ENERGY PREDICTED BY IDOCK:   -0.66 KCAL/MOL
REMARK 927      BINDING AFFINITY PREDICTED BY RF-SCORE:    0.00 PKD
ROOT
HETATM    1 BR   UNL     1      -6.659  13.517  67.842  1.00  0.00    -0.170 Br 
HETATM    2  C   UNL     2      -8.791   6.426  65.827  1.00  0.00    -0.099 C  
HETATM    3  C   UNL     2      -9.201   7.300  67.044  1.00  0.00    -0.170 C  
HETATM    4  C   UNL     2      -8.181   7.351  68.220  1.00  0.00    -0.125 C  
HETATM    5  C   UNL     2      -6.760   6.808  67.889  1.00  0.00    -0.068 C  
HETATM    6  C   UNL     2      -6.977   8.252  65.329  1.00  0.00    -0.066 C  
HETATM    7  C   UNL     2      -6.632   5.988  66.582  1.00  0.00    -0.059 C  
HETATM    8  C   UNL     2      -8.783   4.958  66.265  1.00  0.00    -0.115 C  
HETATM    9  O   UNL     2      -7.903   4.041  65.591  1.00  0.00    -0.089 OA 
HETATM   10  N   UNL     2      -7.333   6.771  65.433  1.00  0.00    -0.076 N  
HETATM   11  C   UNL     2      -6.982   6.201  64.036  1.00  0.00    -0.047 C  
HETATM   12  C   UNL     2      -7.407   4.688  66.764  1.00  0.00    -0.081 C  
ENDROOT
BRANCH   4  13
HETATM   13  O   UNL     2      -8.023   8.721  68.767  1.00  0.00    -0.103 OA 
BRANCH  13  14
HETATM   14  C   UNL     2      -8.627   9.037  69.962  1.00  0.00    -0.151 C  
HETATM   15  C   UNL     2      -9.553   7.528  71.854  1.00  0.00    -0.178 A  
HETATM   16  O   UNL     2      -8.344  10.052  70.566  1.00  0.00    -0.124 OA 
HETATM   17  C   UNL     2     -11.070   8.830  70.288  1.00  0.00    -0.222 C  
HETATM   18  C   UNL     2      -9.744   8.052  70.414  1.00  0.00    -0.178 C  
HETATM   19  O   UNL     2     -11.270   9.390  68.992  1.00  0.00    -0.441 OA 
HETATM   20  C   UNL     2     -10.585   7.513  72.823  1.00  0.00    -0.365 A  
HETATM   21  C   UNL     2     -10.343   7.152  74.158  1.00  0.00    -0.095 A  
HETATM   22  H   UNL     2     -12.086   9.870  68.914  1.00  0.00     0.000 HD 
HETATM   23  C   UNL     2      -9.067   6.755  74.537  1.00  0.00    -0.227 A  
HETATM   24  C   UNL     2      -8.066   6.645  73.576  1.00  0.00    -0.116 A  
HETATM   25  C   UNL     2      -8.313   7.010  72.246  1.00  0.00    -0.115 A  
ENDBRANCH  13  14
ENDBRANCH   4  13
TORSDOF 2
ENDMDL
MODEL      170
REMARK 921   NORMALIZED FREE ENERGY PREDICTED BY IDOCK:   -3.05 KCAL/MOL
REMARK 922        TOTAL FREE ENERGY PREDICTED BY IDOCK:   -4.11 KCAL/MOL
REMARK 923 INTER-LIGAND FREE ENERGY PREDICTED BY IDOCK:   -3.63 KCAL/MOL
REMARK 924 INTRA-LIGAND FREE ENERGY PREDICTED BY IDOCK:   -0.48 KCAL/MOL
REMARK 927      BINDING AFFINITY PREDICTED BY RF-SCORE:    0.00 PKD
ROOT
HETATM    1 BR   UNL     1     -10.545   3.521  63.444  1.00  0.00    -0.251 Br 
HETATM    2  C   UNL     2      -8.982   8.103  69.399  1.00  0.00    -0.147 C  
HETATM    3  C   UNL     2      -8.456   6.684  69.047  1.00  0.00    -0.130 C  
HETATM    4  C   UNL     2      -9.410   5.501  69.384  1.00  0.00    -0.118 C  
HETATM    5  C   UNL     2     -10.879   5.905  69.708  1.00  0.00    -0.447 C  
HETATM    6  C   UNL     2     -10.696   7.780  67.442  1.00  0.00    -0.230 C  
HETATM    7  C   UNL     2     -11.125   7.408  69.990  1.00  0.00    -0.220 C  
HETATM    8  C   UNL     2      -9.064   8.225  70.924  1.00  0.00    -0.152 C  
HETATM    9  O   UNL     2     -10.034   9.121  71.494  1.00  0.00    -0.312 OA 
HETATM   10  N   UNL     2     -10.433   8.243  68.873  1.00  0.00    -0.215 N  
HETATM   11  C   UNL     2     -10.889   9.723  68.879  1.00  0.00    -0.192 C  
HETATM   12  C   UNL     2     -10.428   7.761  71.298  1.00  0.00    -0.206 C  
ENDROOT
BRANCH   4  13
HETATM   13  O   UNL     2      -9.452   4.487  68.302  1.00  0.00    -0.134 OA 
BRANCH  13  14
HETATM   14  C   UNL     2      -8.278   4.114  67.690  1.00  0.00    -0.095 C  
HETATM   15  C   UNL     2      -7.280   4.756  65.387  1.00  0.00    -0.071 A  
HETATM   16  O   UNL     2      -7.279   3.862  68.335  1.00  0.00    -0.054 OA 
HETATM   17  C   UNL     2      -8.226   2.449  65.863  1.00  0.00    -0.088 C  
HETATM   18  C   UNL     2      -8.363   3.959  66.144  1.00  0.00    -0.108 C  
HETATM   19  O   UNL     2      -9.165   1.656  66.587  1.00  0.00    -0.275 OA 
HETATM   20  C   UNL     2      -6.478   4.204  64.359  1.00  0.00    -0.042 A  
HETATM   21  C   UNL     2      -5.416   4.917  63.783  1.00  0.00    -0.013 A  
HETATM   22  H   UNL     2      -9.080   0.726  66.414  1.00  0.00     0.000 HD 
HETATM   23  C   UNL     2      -5.164   6.219  64.196  1.00  0.00    -0.018 A  
HETATM   24  C   UNL     2      -6.015   6.826  65.116  1.00  0.00    -0.035 A  
HETATM   25  C   UNL     2      -7.072   6.107  65.690  1.00  0.00    -0.072 A  
ENDBRANCH  13  14
ENDBRANCH   4  13
TORSDOF 2
ENDMDL
MODEL      171
REMARK 921   NORMALIZED FREE ENERGY PREDICTED BY IDOCK:   -3.03 KCAL/MOL
REMARK 922        TOTAL FREE ENERGY PREDICTED BY IDOCK:   -4.09 KCAL/MOL
REMARK 923 INTER-LIGAND FREE ENERGY PREDICTED BY IDOCK:   -4.13 KCAL/MOL
REMARK 924 INTRA-LIGAND FREE ENERGY PREDICTED BY IDOCK:    0.04 KCAL/MOL
REMARK 927      BINDING AFFINITY PREDICTED BY RF-SCORE:    0.00 PKD
ROOT
HETATM    1 BR   UNL     1      -7.630   8.097  72.143  1.00  0.00    -0.156 Br 
HETATM    2  C   UNL     2      -7.053   4.772  65.250  1.00  0.00    -0.063 C  
HETATM    3  C   UNL     2      -7.119   6.272  65.649  1.00  0.00    -0.065 C  
HETATM    4  C   UNL     2      -8.537   6.829  65.974  1.00  0.00    -0.145 C  
HETATM    5  C   UNL     2      -9.639   5.750  66.187  1.00  0.00    -0.126 C  
HETATM    6  C   UNL     2      -7.645   4.245  67.749  1.00  0.00    -0.069 C  
HETATM    7  C   UNL     2      -9.288   4.316  65.722  1.00  0.00    -0.164 C  
HETATM    8  C   UNL     2      -7.747   4.600  63.896  1.00  0.00    -0.073 C  
HETATM    9  O   UNL     2      -8.356   3.334  63.588  1.00  0.00    -0.088 OA 
HETATM   10  N   UNL     2      -7.878   3.947  66.270  1.00  0.00    -0.089 N  
HETATM   11  C   UNL     2      -7.575   2.434  66.139  1.00  0.00    -0.068 C  
HETATM   12  C   UNL     2      -9.178   4.327  64.202  1.00  0.00    -0.150 C  
ENDROOT
BRANCH   4  13
HETATM   13  O   UNL     2      -8.535   7.710  67.168  1.00  0.00    -0.119 OA 
BRANCH  13  14
HETATM   14  C   UNL     2      -8.430   9.070  66.993  1.00  0.00    -0.120 C  
HETATM   15  C   UNL     2     -10.179  10.831  66.249  1.00  0.00    -0.301 A  
HETATM   16  O   UNL     2      -7.671   9.739  67.666  1.00  0.00    -0.094 OA 
HETATM   17  C   UNL     2      -8.269  10.093  64.747  1.00  0.00    -0.161 C  
HETATM   18  C   UNL     2      -9.279   9.650  65.825  1.00  0.00    -0.264 C  
HETATM   19  O   UNL     2      -7.370   9.054  64.361  1.00  0.00    -0.096 OA 
HETATM   20  C   UNL     2     -10.254  12.051  65.534  1.00  0.00    -0.290 A  
HETATM   21  C   UNL     2     -10.981  13.150  66.018  1.00  0.00    -0.295 A  
HETATM   22  H   UNL     2      -6.748   9.327  63.698  1.00  0.00     0.000 HD 
HETATM   23  C   UNL     2     -11.685  13.032  67.210  1.00  0.00    -0.429 A  
HETATM   24  C   UNL     2     -11.725  11.805  67.866  1.00  0.00    -0.347 A  
HETATM   25  C   UNL     2     -10.995  10.713  67.379  1.00  0.00    -0.361 A  
ENDBRANCH  13  14
ENDBRANCH   4  13
TORSDOF 2
ENDMDL
MODEL      172
REMARK 921   NORMALIZED FREE ENERGY PREDICTED BY IDOCK:   -3.01 KCAL/MOL
REMARK 922        TOTAL FREE ENERGY PREDICTED BY IDOCK:   -4.06 KCAL/MOL
REMARK 923 INTER-LIGAND FREE ENERGY PREDICTED BY IDOCK:   -3.81 KCAL/MOL
REMARK 924 INTRA-LIGAND FREE ENERGY PREDICTED BY IDOCK:   -0.25 KCAL/MOL
REMARK 927      BINDING AFFINITY PREDICTED BY RF-SCORE:    0.00 PKD
ROOT
HETATM    1 BR   UNL     1      -6.890   7.594  65.888  1.00  0.00    -0.058 Br 
HETATM    2  C   UNL     2     -10.307   4.101  71.806  1.00  0.00    -0.012 C  
HETATM    3  C   UNL     2     -10.855   5.141  70.789  1.00  0.00    -0.029 C  
HETATM    4  C   UNL     2     -10.470   6.625  71.058  1.00  0.00    -0.214 C  
HETATM    5  C   UNL     2      -9.326   6.836  72.094  1.00  0.00    -0.145 C  
HETATM    6  C   UNL     2      -7.941   4.587  70.787  1.00  0.00    -0.068 C  
HETATM    7  C   UNL     2      -8.959   5.608  72.963  1.00  0.00    -0.122 C  
HETATM    8  C   UNL     2     -10.993   4.336  73.156  1.00  0.00    -0.211 C  
HETATM    9  O   UNL     2     -10.291   3.976  74.358  1.00  0.00    -0.184 OA 
HETATM   10  N   UNL     2      -8.798   4.371  72.032  1.00  0.00    -0.115 N  
HETATM   11  C   UNL     2      -8.120   3.179  72.752  1.00  0.00    -0.071 C  
HETATM   12  C   UNL     2     -10.138   5.314  73.883  1.00  0.00    -0.210 C  
ENDROOT
BRANCH   4  13
HETATM   13  O   UNL     2     -10.089   7.341  69.816  1.00  0.00    -0.187 OA 
BRANCH  13  14
HETATM   14  C   UNL     2      -9.759   8.674  69.887  1.00  0.00    -0.173 C  
HETATM   15  C   UNL     2      -9.521  10.472  68.037  1.00  0.00    -0.157 A  
HETATM   16  O   UNL     2     -10.048   9.348  70.856  1.00  0.00    -0.277 OA 
HETATM   17  C   UNL     2      -7.516   9.503  69.255  1.00  0.00    -0.078 C  
HETATM   18  C   UNL     2      -8.920   9.209  68.690  1.00  0.00    -0.136 C  
HETATM   19  O   UNL     2      -6.936   8.384  69.926  1.00  0.00    -0.042 OA 
HETATM   20  C   UNL     2      -8.767  11.633  67.742  1.00  0.00    -0.152 A  
HETATM   21  C   UNL     2      -9.370  12.809  67.269  1.00  0.00    -0.200 A  
HETATM   22  H   UNL     2      -6.072   8.566  70.275  1.00  0.00     0.000 HD 
HETATM   23  C   UNL     2     -10.740  12.828  67.040  1.00  0.00    -0.272 A  
HETATM   24  C   UNL     2     -11.483  11.663  67.205  1.00  0.00    -0.344 A  
HETATM   25  C   UNL     2     -10.875  10.493  67.680  1.00  0.00    -0.355 A  
ENDBRANCH  13  14
ENDBRANCH   4  13
TORSDOF 2
ENDMDL
MODEL      173
REMARK 921   NORMALIZED FREE ENERGY PREDICTED BY IDOCK:   -2.98 KCAL/MOL
REMARK 922        TOTAL FREE ENERGY PREDICTED BY IDOCK:   -4.03 KCAL/MOL
REMARK 923 INTER-LIGAND FREE ENERGY PREDICTED BY IDOCK:   -3.68 KCAL/MOL
REMARK 924 INTRA-LIGAND FREE ENERGY PREDICTED BY IDOCK:   -0.35 KCAL/MOL
REMARK 927      BINDING AFFINITY PREDICTED BY RF-SCORE:    0.00 PKD
ROOT
HETATM    1 BR   UNL     1      -5.433   5.363  70.909  1.00  0.00    -0.009 Br 
HETATM    2  C   UNL     2      -7.782  11.041  66.311  1.00  0.00    -0.132 C  
HETATM    3  C   UNL     2      -7.818  10.910  67.859  1.00  0.00    -0.109 C  
HETATM    4  C   UNL     2      -8.971  10.041  68.442  1.00  0.00    -0.121 C  
HETATM    5  C   UNL     2      -9.721   9.153  67.405  1.00  0.00    -0.211 C  
HETATM    6  C   UNL     2      -7.076   8.517  66.272  1.00  0.00    -0.078 C  
HETATM    7  C   UNL     2      -9.472   9.489  65.914  1.00  0.00    -0.244 C  
HETATM    8  C   UNL     2      -9.005  11.849  65.864  1.00  0.00    -0.009 C  
HETATM    9  O   UNL     2      -9.544  11.616  64.551  1.00  0.00    -0.207 OA 
HETATM   10  N   UNL     2      -7.939   9.632  65.686  1.00  0.00    -0.111 N  
HETATM   11  C   UNL     2      -7.568   9.643  64.182  1.00  0.00    -0.128 C  
HETATM   12  C   UNL     2     -10.088  10.854  65.630  1.00  0.00    -0.261 C  
ENDROOT
BRANCH   4  13
HETATM   13  O   UNL     2      -8.509   9.157  69.540  1.00  0.00    -0.117 OA 
BRANCH  13  14
HETATM   14  C   UNL     2      -9.424   8.359  70.186  1.00  0.00    -0.164 C  
HETATM   15  C   UNL     2     -11.476   8.962  71.649  1.00  0.00    -0.409 A  
HETATM   16  O   UNL     2      -9.741   7.272  69.745  1.00  0.00    -0.166 OA 
HETATM   17  C   UNL     2      -9.344   7.993  72.630  1.00  0.00    -0.248 C  
HETATM   18  C   UNL     2      -9.936   8.916  71.546  1.00  0.00    -0.391 C  
HETATM   19  O   UNL     2      -7.926   7.863  72.544  1.00  0.00    -0.101 OA 
HETATM   20  C   UNL     2     -12.200   8.467  72.760  1.00  0.00    -0.162 A  
HETATM   21  C   UNL     2     -13.602   8.406  72.763  1.00  0.00     0.006 A  
HETATM   22  H   UNL     2      -7.562   7.294  73.211  1.00  0.00     0.000 HD 
HETATM   23  C   UNL     2     -14.309   8.884  71.667  1.00  0.00    -0.318 A  
HETATM   24  C   UNL     2     -13.624   9.488  70.617  1.00  0.00     0.206 A  
HETATM   25  C   UNL     2     -12.224   9.542  70.618  1.00  0.00    -0.191 A  
ENDBRANCH  13  14
ENDBRANCH   4  13
TORSDOF 2
ENDMDL
MODEL      174
REMARK 921   NORMALIZED FREE ENERGY PREDICTED BY IDOCK:   -2.96 KCAL/MOL
REMARK 922        TOTAL FREE ENERGY PREDICTED BY IDOCK:   -4.01 KCAL/MOL
REMARK 923 INTER-LIGAND FREE ENERGY PREDICTED BY IDOCK:   -5.97 KCAL/MOL
REMARK 924 INTRA-LIGAND FREE ENERGY PREDICTED BY IDOCK:    1.97 KCAL/MOL
REMARK 927      BINDING AFFINITY PREDICTED BY RF-SCORE:    0.00 PKD
ROOT
HETATM    1 BR   UNL     1     -12.604  15.815  71.427  1.00  0.00    -0.470 Br 
HETATM    2  C   UNL     2      -8.293  20.334  66.967  1.00  0.00    -0.315 C  
HETATM    3  C   UNL     2      -9.705  19.730  66.733  1.00  0.00    -0.512 C  
HETATM    4  C   UNL     2      -9.743  18.238  66.286  1.00  0.00    -0.291 C  
HETATM    5  C   UNL     2      -8.404  17.461  66.459  1.00  0.00    -0.308 C  
HETATM    6  C   UNL     2      -8.155  18.787  69.078  1.00  0.00    -0.138 C  
HETATM    7  C   UNL     2      -7.144  18.323  66.717  1.00  0.00    -0.206 C  
HETATM    8  C   UNL     2      -7.573  20.420  65.617  1.00  0.00    -0.012 C  
HETATM    9  O   UNL     2      -6.137  20.351  65.595  1.00  0.00    -0.191 OA 
HETATM   10  N   UNL     2      -7.468  19.353  67.838  1.00  0.00    -0.263 N  
HETATM   11  C   UNL     2      -6.193  20.036  68.393  1.00  0.00    -0.272 C  
HETATM   12  C   UNL     2      -6.857  19.126  65.453  1.00  0.00    -0.204 C  
ENDROOT
BRANCH   4  13
HETATM   13  O   UNL     2     -10.802  17.469  66.983  1.00  0.00    -0.215 OA 
BRANCH  13  14
HETATM   14  C   UNL     2     -10.675  16.104  67.093  1.00  0.00    -0.262 C  
HETATM   15  C   UNL     2      -8.576  14.586  67.109  1.00  0.00    -0.242 A  
HETATM   16  O   UNL     2     -11.468  15.442  67.733  1.00  0.00    -0.334 OA 
HETATM   17  C   UNL     2     -10.173  14.676  65.137  1.00  0.00    -0.382 C  
HETATM   18  C   UNL     2      -9.508  15.485  66.269  1.00  0.00    -0.356 C  
HETATM   19  O   UNL     2     -11.095  15.444  64.366  1.00  0.00    -0.676 OA 
HETATM   20  C   UNL     2      -8.170  13.290  66.707  1.00  0.00     0.146 A  
HETATM   21  C   UNL     2      -7.428  12.450  67.552  1.00  0.00    -0.150 A  
HETATM   22  H   UNL     2     -11.504  14.945  63.669  1.00  0.00     0.000 HD 
HETATM   23  C   UNL     2      -7.040  12.911  68.803  1.00  0.00    -0.096 A  
HETATM   24  C   UNL     2      -7.321  14.224  69.171  1.00  0.00    -0.092 A  
HETATM   25  C   UNL     2      -8.065  15.056  68.324  1.00  0.00    -0.133 A  
ENDBRANCH  13  14
ENDBRANCH   4  13
TORSDOF 2
ENDMDL
MODEL      175
REMARK 921   NORMALIZED FREE ENERGY PREDICTED BY IDOCK:   -2.93 KCAL/MOL
REMARK 922        TOTAL FREE ENERGY PREDICTED BY IDOCK:   -3.98 KCAL/MOL
REMARK 923 INTER-LIGAND FREE ENERGY PREDICTED BY IDOCK:   -3.84 KCAL/MOL
REMARK 924 INTRA-LIGAND FREE ENERGY PREDICTED BY IDOCK:   -0.14 KCAL/MOL
REMARK 927      BINDING AFFINITY PREDICTED BY RF-SCORE:    0.00 PKD
ROOT
HETATM    1 BR   UNL     1      -8.510   5.270  64.241  1.00  0.00    -0.077 Br 
HETATM    2  C   UNL     2      -8.520   2.905  71.542  1.00  0.00    -0.064 C  
HETATM    3  C   UNL     2      -9.542   3.772  70.756  1.00  0.00    -0.249 C  
HETATM    4  C   UNL     2      -9.164   5.271  70.570  1.00  0.00    -0.146 C  
HETATM    5  C   UNL     2      -7.681   5.624  70.890  1.00  0.00    -0.096 C  
HETATM    6  C   UNL     2      -6.948   3.155  69.459  1.00  0.00    -0.041 C  
HETATM    7  C   UNL     2      -6.877   4.551  71.664  1.00  0.00    -0.035 C  
HETATM    8  C   UNL     2      -8.501   3.379  72.998  1.00  0.00    -0.082 C  
HETATM    9  O   UNL     2      -7.295   3.208  73.764  1.00  0.00    -0.048 OA 
HETATM   10  N   UNL     2      -7.102   3.171  70.978  1.00  0.00    -0.033 N  
HETATM   11  C   UNL     2      -6.096   2.101  71.469  1.00  0.00    -0.014 C  
HETATM   12  C   UNL     2      -7.463   4.444  73.067  1.00  0.00    -0.081 C  
ENDROOT
BRANCH   4  13
HETATM   13  O   UNL     2      -9.456   5.759  69.200  1.00  0.00    -0.124 OA 
BRANCH  13  14
HETATM   14  C   UNL     2     -10.515   6.614  69.008  1.00  0.00    -0.214 C  
HETATM   15  C   UNL     2     -10.749   9.159  69.436  1.00  0.00    -0.210 A  
HETATM   16  O   UNL     2     -11.321   6.435  68.116  1.00  0.00    -0.266 OA 
HETATM   17  C   UNL     2     -11.901   7.425  70.889  1.00  0.00    -0.290 C  
HETATM   18  C   UNL     2     -10.641   7.752  70.062  1.00  0.00    -0.238 C  
HETATM   19  O   UNL     2     -11.883   6.109  71.441  1.00  0.00    -0.260 OA 
HETATM   20  C   UNL     2     -11.725  10.111  69.816  1.00  0.00    -0.205 A  
HETATM   21  C   UNL     2     -11.877  11.329  69.137  1.00  0.00    -0.423 A  
HETATM   22  H   UNL     2     -12.660   5.908  71.950  1.00  0.00     0.000 HD 
HETATM   23  C   UNL     2     -11.019  11.638  68.088  1.00  0.00    -0.275 A  
HETATM   24  C   UNL     2      -9.974  10.773  67.777  1.00  0.00    -0.195 A  
HETATM   25  C   UNL     2      -9.830   9.556  68.457  1.00  0.00    -0.172 A  
ENDBRANCH  13  14
ENDBRANCH   4  13
TORSDOF 2
ENDMDL
MODEL      176
REMARK 921   NORMALIZED FREE ENERGY PREDICTED BY IDOCK:   -2.87 KCAL/MOL
REMARK 922        TOTAL FREE ENERGY PREDICTED BY IDOCK:   -3.90 KCAL/MOL
REMARK 923 INTER-LIGAND FREE ENERGY PREDICTED BY IDOCK:   -3.67 KCAL/MOL
REMARK 924 INTRA-LIGAND FREE ENERGY PREDICTED BY IDOCK:   -0.23 KCAL/MOL
REMARK 927      BINDING AFFINITY PREDICTED BY RF-SCORE:    0.00 PKD
ROOT
HETATM    1 BR   UNL     1     -10.103  10.585  69.379  1.00  0.00    -0.203 Br 
HETATM    2  C   UNL     2      -9.243   4.415  64.896  1.00  0.00    -0.157 C  
HETATM    3  C   UNL     2      -9.704   4.536  66.375  1.00  0.00    -0.218 C  
HETATM    4  C   UNL     2      -8.572   4.725  67.428  1.00  0.00    -0.104 C  
HETATM    5  C   UNL     2      -7.180   5.103  66.843  1.00  0.00    -0.077 C  
HETATM    6  C   UNL     2      -8.610   6.953  65.051  1.00  0.00     0.107 C  
HETATM    7  C   UNL     2      -7.007   4.911  65.317  1.00  0.00    -0.062 C  
HETATM    8  C   UNL     2      -8.478   3.098  64.734  1.00  0.00    -0.098 C  
HETATM    9  O   UNL     2      -7.465   3.008  63.717  1.00  0.00    -0.063 OA 
HETATM   10  N   UNL     2      -8.230   5.547  64.594  1.00  0.00    -0.127 N  
HETATM   11  C   UNL     2      -7.998   5.697  63.070  1.00  0.00    -0.104 C  
HETATM   12  C   UNL     2      -7.052   3.416  65.023  1.00  0.00    -0.065 C  
ENDROOT
BRANCH   4  13
HETATM   13  O   UNL     2      -8.920   5.740  68.452  1.00  0.00    -0.113 OA 
BRANCH  13  14
HETATM   14  C   UNL     2      -9.790   5.400  69.462  1.00  0.00    -0.196 C  
HETATM   15  C   UNL     2      -9.471   5.328  72.032  1.00  0.00    -0.173 A  
HETATM   16  O   UNL     2     -10.985   5.596  69.363  1.00  0.00    -0.320 OA 
HETATM   17  C   UNL     2      -9.655   3.222  70.626  1.00  0.00    -0.153 C  
HETATM   18  C   UNL     2      -9.137   4.674  70.674  1.00  0.00    -0.181 C  
HETATM   19  O   UNL     2      -9.428   2.587  69.368  1.00  0.00    -0.129 OA 
HETATM   20  C   UNL     2      -9.917   4.600  73.161  1.00  0.00    -0.185 A  
HETATM   21  C   UNL     2     -10.335   5.239  74.338  1.00  0.00    -0.302 A  
HETATM   22  H   UNL     2      -9.747   1.693  69.338  1.00  0.00     0.000 HD 
HETATM   23  C   UNL     2     -10.272   6.624  74.421  1.00  0.00    -0.289 A  
HETATM   24  C   UNL     2      -9.721   7.353  73.371  1.00  0.00    -0.319 A  
HETATM   25  C   UNL     2      -9.309   6.708  72.197  1.00  0.00    -0.142 A  
ENDBRANCH  13  14
ENDBRANCH   4  13
TORSDOF 2
ENDMDL
MODEL      177
REMARK 921   NORMALIZED FREE ENERGY PREDICTED BY IDOCK:   -2.87 KCAL/MOL
REMARK 922        TOTAL FREE ENERGY PREDICTED BY IDOCK:   -3.90 KCAL/MOL
REMARK 923 INTER-LIGAND FREE ENERGY PREDICTED BY IDOCK:   -3.43 KCAL/MOL
REMARK 924 INTRA-LIGAND FREE ENERGY PREDICTED BY IDOCK:   -0.47 KCAL/MOL
REMARK 927      BINDING AFFINITY PREDICTED BY RF-SCORE:    0.00 PKD
ROOT
HETATM    1 BR   UNL     1      -7.359   9.115  71.546  1.00  0.00     0.130 Br 
HETATM    2  C   UNL     2      -8.045   4.313  65.599  1.00  0.00    -0.105 C  
HETATM    3  C   UNL     2      -7.760   5.840  65.641  1.00  0.00    -0.093 C  
HETATM    4  C   UNL     2      -8.997   6.758  65.867  1.00  0.00    -0.070 C  
HETATM    5  C   UNL     2     -10.283   6.028  66.355  1.00  0.00    -0.135 C  
HETATM    6  C   UNL     2      -8.537   4.496  68.167  1.00  0.00    -0.101 C  
HETATM    7  C   UNL     2     -10.281   4.486  66.225  1.00  0.00    -0.239 C  
HETATM    8  C   UNL     2      -8.864   4.008  64.340  1.00  0.00    -0.129 C  
HETATM    9  O   UNL     2      -9.750   2.875  64.351  1.00  0.00    -0.152 OA 
HETATM   10  N   UNL     2      -8.943   3.940  66.804  1.00  0.00    -0.127 N  
HETATM   11  C   UNL     2      -8.980   2.406  67.019  1.00  0.00    -0.138 C  
HETATM   12  C   UNL     2     -10.292   4.138  64.741  1.00  0.00    -0.188 C  
ENDROOT
BRANCH   4  13
HETATM   13  O   UNL     2      -8.714   7.857  66.823  1.00  0.00    -0.125 OA 
BRANCH  13  14
HETATM   14  C   UNL     2      -8.526   9.131  66.340  1.00  0.00    -0.123 C  
HETATM   15  C   UNL     2      -9.841  10.494  64.572  1.00  0.00    -0.401 A  
HETATM   16  O   UNL     2      -8.055  10.010  67.035  1.00  0.00    -0.115 OA 
HETATM   17  C   UNL     2      -7.527   9.553  64.117  1.00  0.00    -0.122 C  
HETATM   18  C   UNL     2      -8.872   9.321  64.835  1.00  0.00    -0.233 C  
HETATM   19  O   UNL     2      -6.570   8.527  64.375  1.00  0.00    -0.066 OA 
HETATM   20  C   UNL     2      -9.624  11.479  63.580  1.00  0.00    -0.297 A  
HETATM   21  C   UNL     2     -10.456  12.602  63.455  1.00  0.00    -0.256 A  
HETATM   22  H   UNL     2      -5.741   8.671  63.934  1.00  0.00     0.000 HD 
HETATM   23  C   UNL     2     -11.552  12.737  64.298  1.00  0.00    -0.433 A  
HETATM   24  C   UNL     2     -11.856  11.720  65.199  1.00  0.00    -0.073 A  
HETATM   25  C   UNL     2     -11.019  10.603  65.320  1.00  0.00     0.161 A  
ENDBRANCH  13  14
ENDBRANCH   4  13
TORSDOF 2
ENDMDL
MODEL      178
REMARK 921   NORMALIZED FREE ENERGY PREDICTED BY IDOCK:   -2.83 KCAL/MOL
REMARK 922        TOTAL FREE ENERGY PREDICTED BY IDOCK:   -3.86 KCAL/MOL
REMARK 923 INTER-LIGAND FREE ENERGY PREDICTED BY IDOCK:   -3.73 KCAL/MOL
REMARK 924 INTRA-LIGAND FREE ENERGY PREDICTED BY IDOCK:   -0.13 KCAL/MOL
REMARK 927      BINDING AFFINITY PREDICTED BY RF-SCORE:    0.00 PKD
ROOT
HETATM    1 BR   UNL     1      -8.108   5.913  73.369  1.00  0.00    -0.111 Br 
HETATM    2  C   UNL     2      -6.843   4.734  65.892  1.00  0.00    -0.061 C  
HETATM    3  C   UNL     2      -6.864   6.048  66.721  1.00  0.00    -0.059 C  
HETATM    4  C   UNL     2      -8.273   6.625  67.048  1.00  0.00    -0.113 C  
HETATM    5  C   UNL     2      -9.462   5.650  66.802  1.00  0.00    -0.150 C  
HETATM    6  C   UNL     2      -7.793   3.556  68.032  1.00  0.00    -0.068 C  
HETATM    7  C   UNL     2      -9.146   4.389  65.960  1.00  0.00    -0.131 C  
HETATM    8  C   UNL     2      -7.362   5.042  64.483  1.00  0.00    -0.063 C  
HETATM    9  O   UNL     2      -8.006   3.993  63.740  1.00  0.00    -0.085 OA 
HETATM   10  N   UNL     2      -7.848   3.733  66.516  1.00  0.00    -0.088 N  
HETATM   11  C   UNL     2      -7.629   2.304  65.962  1.00  0.00    -0.068 C  
HETATM   12  C   UNL     2      -8.835   4.839  64.537  1.00  0.00    -0.147 C  
ENDROOT
BRANCH   4  13
HETATM   13  O   UNL     2      -8.371   7.109  68.447  1.00  0.00    -0.123 OA 
BRANCH  13  14
HETATM   14  C   UNL     2      -8.430   8.463  68.682  1.00  0.00    -0.128 C  
HETATM   15  C   UNL     2     -10.417  10.123  68.590  1.00  0.00    -0.225 A  
HETATM   16  O   UNL     2      -7.692   9.000  69.485  1.00  0.00    -0.077 OA 
HETATM   17  C   UNL     2      -8.577  10.107  66.840  1.00  0.00    -0.126 C  
HETATM   18  C   UNL     2      -9.436   9.243  67.786  1.00  0.00    -0.160 C  
HETATM   19  O   UNL     2      -7.608   9.351  66.116  1.00  0.00    -0.095 OA 
HETATM   20  C   UNL     2     -10.687  11.477  68.278  1.00  0.00    -0.247 A  
HETATM   21  C   UNL     2     -11.483  12.284  69.105  1.00  0.00    -0.352 A  
HETATM   22  H   UNL     2      -7.079   9.883  65.534  1.00  0.00     0.000 HD 
HETATM   23  C   UNL     2     -12.064  11.734  70.241  1.00  0.00    -0.426 A  
HETATM   24  C   UNL     2     -11.914  10.375  70.501  1.00  0.00    -0.427 A  
HETATM   25  C   UNL     2     -11.114   9.576  69.673  1.00  0.00    -0.196 A  
ENDBRANCH  13  14
ENDBRANCH   4  13
TORSDOF 2
ENDMDL
MODEL      179
REMARK 921   NORMALIZED FREE ENERGY PREDICTED BY IDOCK:   -2.81 KCAL/MOL
REMARK 922        TOTAL FREE ENERGY PREDICTED BY IDOCK:   -3.83 KCAL/MOL
REMARK 923 INTER-LIGAND FREE ENERGY PREDICTED BY IDOCK:   -3.66 KCAL/MOL
REMARK 924 INTRA-LIGAND FREE ENERGY PREDICTED BY IDOCK:   -0.18 KCAL/MOL
REMARK 927      BINDING AFFINITY PREDICTED BY RF-SCORE:    0.00 PKD
ROOT
HETATM    1 BR   UNL     1      -6.701   7.753  73.216  1.00  0.00    -0.093 Br 
HETATM    2  C   UNL     2      -6.363   6.029  65.745  1.00  0.00    -0.042 C  
HETATM    3  C   UNL     2      -7.047   7.214  66.482  1.00  0.00    -0.078 C  
HETATM    4  C   UNL     2      -8.419   6.902  67.149  1.00  0.00    -0.121 C  
HETATM    5  C   UNL     2      -8.760   5.388  67.283  1.00  0.00    -0.107 C  
HETATM    6  C   UNL     2      -5.962   4.992  68.119  1.00  0.00    -0.026 C  
HETATM    7  C   UNL     2      -7.887   4.416  66.453  1.00  0.00    -0.098 C  
HETATM    8  C   UNL     2      -7.205   5.672  64.516  1.00  0.00    -0.058 C  
HETATM    9  O   UNL     2      -7.177   4.319  64.029  1.00  0.00    -0.049 OA 
HETATM   10  N   UNL     2      -6.390   4.785  66.668  1.00  0.00    -0.039 N  
HETATM   11  C   UNL     2      -5.434   3.683  66.148  1.00  0.00    -0.017 C  
HETATM   12  C   UNL     2      -8.190   4.655  64.978  1.00  0.00    -0.115 C  
ENDROOT
BRANCH   4  13
HETATM   13  O   UNL     2      -8.541   7.511  68.495  1.00  0.00    -0.128 OA 
BRANCH  13  14
HETATM   14  C   UNL     2      -9.677   8.220  68.808  1.00  0.00    -0.157 C  
HETATM   15  C   UNL     2     -10.164  10.764  68.767  1.00  0.00    -0.207 A  
HETATM   16  O   UNL     2     -10.785   7.750  68.635  1.00  0.00    -0.159 OA 
HETATM   17  C   UNL     2      -9.901   9.465  70.932  1.00  0.00    -0.268 C  
HETATM   18  C   UNL     2      -9.427   9.605  69.471  1.00  0.00    -0.211 C  
HETATM   19  O   UNL     2      -9.297   8.368  71.615  1.00  0.00    -0.172 OA 
HETATM   20  C   UNL     2     -10.934  11.733  69.454  1.00  0.00    -0.185 A  
HETATM   21  C   UNL     2     -11.695  12.695  68.772  1.00  0.00    -0.364 A  
HETATM   22  H   UNL     2      -9.589   8.282  72.515  1.00  0.00     0.000 HD 
HETATM   23  C   UNL     2     -11.664  12.732  67.384  1.00  0.00    -0.425 A  
HETATM   24  C   UNL     2     -10.820  11.869  66.691  1.00  0.00    -0.315 A  
HETATM   25  C   UNL     2     -10.065  10.909  67.378  1.00  0.00    -0.223 A  
ENDBRANCH  13  14
ENDBRANCH   4  13
TORSDOF 2
ENDMDL
MODEL      180
REMARK 921   NORMALIZED FREE ENERGY PREDICTED BY IDOCK:   -2.79 KCAL/MOL
REMARK 922        TOTAL FREE ENERGY PREDICTED BY IDOCK:   -3.81 KCAL/MOL
REMARK 923 INTER-LIGAND FREE ENERGY PREDICTED BY IDOCK:   -3.62 KCAL/MOL
REMARK 924 INTRA-LIGAND FREE ENERGY PREDICTED BY IDOCK:   -0.19 KCAL/MOL
REMARK 927      BINDING AFFINITY PREDICTED BY RF-SCORE:    0.00 PKD
ROOT
HETATM    1 BR   UNL     1     -10.255   5.138  71.176  1.00  0.00    -0.276 Br 
HETATM    2  C   UNL     2     -11.511  11.749  67.485  1.00  0.00    -0.303 C  
HETATM    3  C   UNL     2     -11.006  10.376  66.961  1.00  0.00    -0.222 C  
HETATM    4  C   UNL     2      -9.503  10.060  67.215  1.00  0.00    -0.154 C  
HETATM    5  C   UNL     2      -8.794  10.993  68.241  1.00  0.00    -0.144 C  
HETATM    6  C   UNL     2     -11.222  10.757  69.894  1.00  0.00    -0.300 C  
HETATM    7  C   UNL     2      -9.546  12.294  68.612  1.00  0.00    -0.043 C  
HETATM    8  C   UNL     2     -10.842  12.856  66.664  1.00  0.00    -0.267 C  
HETATM    9  O   UNL     2     -10.637  14.142  67.276  1.00  0.00    -0.273 OA 
HETATM   10  N   UNL     2     -11.025  11.936  68.945  1.00  0.00    -0.231 N  
HETATM   11  C   UNL     2     -11.770  13.105  69.636  1.00  0.00    -0.303 C  
HETATM   12  C   UNL     2      -9.578  13.188  67.377  1.00  0.00    -0.219 C  
ENDROOT
BRANCH   4  13
HETATM   13  O   UNL     2      -9.289   8.661  67.657  1.00  0.00    -0.136 OA 
BRANCH  13  14
HETATM   14  C   UNL     2      -8.027   8.265  68.036  1.00  0.00    -0.123 C  
HETATM   15  C   UNL     2      -7.077   5.925  68.611  1.00  0.00    -0.081 A  
HETATM   16  O   UNL     2      -7.036   8.850  67.647  1.00  0.00    -0.073 OA 
HETATM   17  C   UNL     2      -7.484   7.699  70.381  1.00  0.00    -0.079 C  
HETATM   18  C   UNL     2      -7.986   7.091  69.056  1.00  0.00    -0.116 C  
HETATM   19  O   UNL     2      -8.252   8.823  70.809  1.00  0.00    -0.123 OA 
HETATM   20  C   UNL     2      -6.111   5.322  69.453  1.00  0.00    -0.025 A  
HETATM   21  C   UNL     2      -5.214   4.354  68.977  1.00  0.00    -0.007 A  
HETATM   22  H   UNL     2      -7.942   9.197  71.625  1.00  0.00     0.000 HD 
HETATM   23  C   UNL     2      -5.298   3.937  67.654  1.00  0.00    -0.016 A  
HETATM   24  C   UNL     2      -6.318   4.425  66.842  1.00  0.00    -0.037 A  
HETATM   25  C   UNL     2      -7.208   5.394  67.323  1.00  0.00    -0.075 A  
ENDBRANCH  13  14
ENDBRANCH   4  13
TORSDOF 2
ENDMDL
MODEL      181
REMARK 921   NORMALIZED FREE ENERGY PREDICTED BY IDOCK:   -2.78 KCAL/MOL
REMARK 922        TOTAL FREE ENERGY PREDICTED BY IDOCK:   -3.81 KCAL/MOL
REMARK 923 INTER-LIGAND FREE ENERGY PREDICTED BY IDOCK:   -3.93 KCAL/MOL
REMARK 924 INTRA-LIGAND FREE ENERGY PREDICTED BY IDOCK:    0.13 KCAL/MOL
REMARK 927      BINDING AFFINITY PREDICTED BY RF-SCORE:    0.00 PKD
ROOT
HETATM    1 BR   UNL     1     -12.454  15.101  73.844  1.00  0.00    -0.679 Br 
HETATM    2  C   UNL     2      -9.454   9.689  69.304  1.00  0.00    -0.179 C  
HETATM    3  C   UNL     2      -9.137  11.206  69.418  1.00  0.00     0.298 C  
HETATM    4  C   UNL     2     -10.131  12.166  68.699  1.00  0.00    -0.151 C  
HETATM    5  C   UNL     2     -11.476  11.517  68.257  1.00  0.00    -0.368 C  
HETATM    6  C   UNL     2     -11.501  10.161  70.873  1.00  0.00    -0.360 C  
HETATM    7  C   UNL     2     -11.522   9.969  68.269  1.00  0.00     0.084 C  
HETATM    8  C   UNL     2      -9.261   9.262  67.846  1.00  0.00    -0.129 C  
HETATM    9  O   UNL     2     -10.027   8.153  67.344  1.00  0.00    -0.173 OA 
HETATM   10  N   UNL     2     -10.953   9.466  69.629  1.00  0.00    -0.227 N  
HETATM   11  C   UNL     2     -11.254   7.967  69.872  1.00  0.00    -0.046 C  
HETATM   12  C   UNL     2     -10.580   9.461  67.184  1.00  0.00    -0.224 C  
ENDROOT
BRANCH   4  13
HETATM   13  O   UNL     2     -10.456  13.357  69.521  1.00  0.00     0.177 OA 
BRANCH  13  14
HETATM   14  C   UNL     2      -9.657  14.473  69.424  1.00  0.00     0.143 C  
HETATM   15  C   UNL     2      -8.919  15.866  67.369  1.00  0.00    -0.203 A  
HETATM   16  O   UNL     2      -9.608  15.296  70.317  1.00  0.00    -0.004 OA 
HETATM   17  C   UNL     2      -7.321  14.345  68.624  1.00  0.00    -0.123 C  
HETATM   18  C   UNL     2      -8.774  14.540  68.145  1.00  0.00    -0.171 C  
HETATM   19  O   UNL     2      -7.141  13.162  69.402  1.00  0.00    -0.307 OA 
HETATM   20  C   UNL     2      -7.817  16.631  66.914  1.00  0.00    -0.261 A  
HETATM   21  C   UNL     2      -7.983  17.895  66.327  1.00  0.00    -0.279 A  
HETATM   22  H   UNL     2      -6.247  13.042  69.697  1.00  0.00     0.000 HD 
HETATM   23  C   UNL     2      -9.264  18.399  66.143  1.00  0.00    -0.133 A  
HETATM   24  C   UNL     2     -10.367  17.614  66.469  1.00  0.00    -0.337 A  
HETATM   25  C   UNL     2     -10.194  16.354  67.058  1.00  0.00    -0.282 A  
ENDBRANCH  13  14
ENDBRANCH   4  13
TORSDOF 2
ENDMDL
MODEL      182
REMARK 921   NORMALIZED FREE ENERGY PREDICTED BY IDOCK:   -2.77 KCAL/MOL
REMARK 922        TOTAL FREE ENERGY PREDICTED BY IDOCK:   -3.80 KCAL/MOL
REMARK 923 INTER-LIGAND FREE ENERGY PREDICTED BY IDOCK:   -3.23 KCAL/MOL
REMARK 924 INTRA-LIGAND FREE ENERGY PREDICTED BY IDOCK:   -0.57 KCAL/MOL
REMARK 927      BINDING AFFINITY PREDICTED BY RF-SCORE:    0.00 PKD
ROOT
HETATM    1 BR   UNL     1     -11.174  10.741  68.977  1.00  0.00    -0.356 Br 
HETATM    2  C   UNL     2      -8.046   5.672  64.139  1.00  0.00    -0.129 C  
HETATM    3  C   UNL     2      -8.633   5.483  65.565  1.00  0.00    -0.150 C  
HETATM    4  C   UNL     2      -7.705   5.898  66.744  1.00  0.00    -0.100 C  
HETATM    5  C   UNL     2      -6.466   6.752  66.344  1.00  0.00    -0.047 C  
HETATM    6  C   UNL     2      -8.271   8.249  64.561  1.00  0.00    -0.135 C  
HETATM    7  C   UNL     2      -6.124   6.790  64.834  1.00  0.00    -0.036 C  
HETATM    8  C   UNL     2      -6.889   4.685  63.956  1.00  0.00    -0.044 C  
HETATM    9  O   UNL     2      -5.826   5.026  63.049  1.00  0.00    -0.016 OA 
HETATM   10  N   UNL     2      -7.428   7.090  64.037  1.00  0.00    -0.091 N  
HETATM   11  C   UNL     2      -7.140   7.469  62.563  1.00  0.00    -0.081 C  
HETATM   12  C   UNL     2      -5.667   5.397  64.419  1.00  0.00    -0.017 C  
ENDROOT
BRANCH   4  13
HETATM   13  O   UNL     2      -8.437   6.637  67.802  1.00  0.00    -0.121 OA 
BRANCH  13  14
HETATM   14  C   UNL     2      -8.186   6.338  69.121  1.00  0.00    -0.114 C  
HETATM   15  C   UNL     2      -9.017   7.452  71.307  1.00  0.00    -0.140 A  
HETATM   16  O   UNL     2      -7.977   5.197  69.484  1.00  0.00    -0.078 OA 
HETATM   17  C   UNL     2      -6.624   7.678  70.492  1.00  0.00    -0.038 C  
HETATM   18  C   UNL     2      -8.103   7.569  70.069  1.00  0.00    -0.127 C  
HETATM   19  O   UNL     2      -5.726   7.727  69.384  1.00  0.00    -0.026 OA 
HETATM   20  C   UNL     2      -8.580   7.709  72.629  1.00  0.00    -0.171 A  
HETATM   21  C   UNL     2      -9.400   7.467  73.742  1.00  0.00    -0.331 A  
HETATM   22  H   UNL     2      -4.815   7.794  69.644  1.00  0.00     0.000 HD 
HETATM   23  C   UNL     2     -10.695   7.004  73.548  1.00  0.00    -0.368 A  
HETATM   24  C   UNL     2     -11.188   6.861  72.254  1.00  0.00    -0.299 A  
HETATM   25  C   UNL     2     -10.363   7.101  71.147  1.00  0.00    -0.214 A  
ENDBRANCH  13  14
ENDBRANCH   4  13
TORSDOF 2
ENDMDL
MODEL      183
REMARK 921   NORMALIZED FREE ENERGY PREDICTED BY IDOCK:   -2.75 KCAL/MOL
REMARK 922        TOTAL FREE ENERGY PREDICTED BY IDOCK:   -3.77 KCAL/MOL
REMARK 923 INTER-LIGAND FREE ENERGY PREDICTED BY IDOCK:   -3.54 KCAL/MOL
REMARK 924 INTRA-LIGAND FREE ENERGY PREDICTED BY IDOCK:   -0.23 KCAL/MOL
REMARK 927      BINDING AFFINITY PREDICTED BY RF-SCORE:    0.00 PKD
ROOT
HETATM    1 BR   UNL     1     -11.160   4.945  65.523  1.00  0.00     0.446 Br 
HETATM    2  C   UNL     2      -9.501  12.354  66.644  1.00  0.00    -0.232 C  
HETATM    3  C   UNL     2      -8.858  11.070  67.239  1.00  0.00    -0.135 C  
HETATM    4  C   UNL     2      -9.632  10.403  68.414  1.00  0.00    -0.148 C  
HETATM    5  C   UNL     2     -11.094  10.901  68.613  1.00  0.00    -0.305 C  
HETATM    6  C   UNL     2     -11.365  10.782  65.681  1.00  0.00     0.567 C  
HETATM    7  C   UNL     2     -11.477  12.203  67.868  1.00  0.00    -0.328 C  
HETATM    8  C   UNL     2      -9.434  13.463  67.699  1.00  0.00    -0.216 C  
HETATM    9  O   UNL     2     -10.433  14.497  67.678  1.00  0.00    -0.244 OA 
HETATM   10  N   UNL     2     -11.006  12.086  66.389  1.00  0.00    -0.282 N  
HETATM   11  C   UNL     2     -11.623  13.186  65.488  1.00  0.00    -0.335 C  
HETATM   12  C   UNL     2     -10.689  13.350  68.490  1.00  0.00    -0.262 C  
ENDROOT
BRANCH   4  13
HETATM   13  O   UNL     2      -9.673   8.925  68.293  1.00  0.00    -0.151 OA 
BRANCH  13  14
HETATM   14  C   UNL     2      -8.789   8.169  69.027  1.00  0.00    -0.144 C  
HETATM   15  C   UNL     2      -9.182   6.487  70.958  1.00  0.00    -0.161 A  
HETATM   16  O   UNL     2      -7.751   7.761  68.545  1.00  0.00    -0.113 OA 
HETATM   17  C   UNL     2      -8.155   8.777  71.339  1.00  0.00    -0.142 C  
HETATM   18  C   UNL     2      -9.180   7.967  70.520  1.00  0.00    -0.154 C  
HETATM   19  O   UNL     2      -8.067  10.142  70.934  1.00  0.00    -0.252 OA 
HETATM   20  C   UNL     2      -8.551   6.019  72.136  1.00  0.00    -0.128 A  
HETATM   21  C   UNL     2      -8.459   4.651  72.435  1.00  0.00    -0.115 A  
HETATM   22  H   UNL     2      -7.436  10.641  71.439  1.00  0.00     0.000 HD 
HETATM   23  C   UNL     2      -9.041   3.725  71.579  1.00  0.00    -0.173 A  
HETATM   24  C   UNL     2      -9.772   4.167  70.480  1.00  0.00    -0.270 A  
HETATM   25  C   UNL     2      -9.856   5.534  70.185  1.00  0.00    -0.261 A  
ENDBRANCH  13  14
ENDBRANCH   4  13
TORSDOF 2
ENDMDL
MODEL      184
REMARK 921   NORMALIZED FREE ENERGY PREDICTED BY IDOCK:   -2.71 KCAL/MOL
REMARK 922        TOTAL FREE ENERGY PREDICTED BY IDOCK:   -3.73 KCAL/MOL
REMARK 923 INTER-LIGAND FREE ENERGY PREDICTED BY IDOCK:   -3.14 KCAL/MOL
REMARK 924 INTRA-LIGAND FREE ENERGY PREDICTED BY IDOCK:   -0.59 KCAL/MOL
REMARK 927      BINDING AFFINITY PREDICTED BY RF-SCORE:    0.00 PKD
ROOT
HETATM    1 BR   UNL     1      -6.309   2.009  72.061  1.00  0.00    -0.015 Br 
HETATM    2  C   UNL     2     -10.795   7.818  69.818  1.00  0.00    -0.209 C  
HETATM    3  C   UNL     2      -9.871   6.876  68.998  1.00  0.00    -0.152 C  
HETATM    4  C   UNL     2      -8.352   7.216  69.028  1.00  0.00    -0.126 C  
HETATM    5  C   UNL     2      -7.922   8.229  70.129  1.00  0.00    -0.106 C  
HETATM    6  C   UNL     2      -9.708   6.761  71.956  1.00  0.00    -0.153 C  
HETATM    7  C   UNL     2      -9.065   9.018  70.813  1.00  0.00    -0.245 C  
HETATM    8  C   UNL     2     -10.796   9.197  69.151  1.00  0.00    -0.110 C  
HETATM    9  O   UNL     2     -11.034  10.358  69.967  1.00  0.00    -0.276 OA 
HETATM   10  N   UNL     2     -10.182   8.015  71.227  1.00  0.00    -0.190 N  
HETATM   11  C   UNL     2     -11.208   8.650  72.199  1.00  0.00    -0.367 C  
HETATM   12  C   UNL     2      -9.677   9.953  69.777  1.00  0.00    -0.236 C  
ENDROOT
BRANCH   4  13
HETATM   13  O   UNL     2      -7.508   6.005  69.177  1.00  0.00    -0.082 OA 
BRANCH  13  14
HETATM   14  C   UNL     2      -6.986   5.412  68.051  1.00  0.00    -0.065 C  
HETATM   15  C   UNL     2      -7.985   5.075  65.684  1.00  0.00    -0.107 A  
HETATM   16  O   UNL     2      -5.793   5.431  67.819  1.00  0.00    -0.016 OA 
HETATM   17  C   UNL     2      -7.683   3.155  67.318  1.00  0.00    -0.074 C  
HETATM   18  C   UNL     2      -8.019   4.653  67.169  1.00  0.00    -0.102 C  
HETATM   19  O   UNL     2      -7.639   2.723  68.677  1.00  0.00    -0.048 OA 
HETATM   20  C   UNL     2      -7.946   4.153  64.611  1.00  0.00    -0.089 A  
HETATM   21  C   UNL     2      -7.784   4.571  63.281  1.00  0.00    -0.067 A  
HETATM   22  H   UNL     2      -7.431   1.801  68.769  1.00  0.00     0.000 HD 
HETATM   23  C   UNL     2      -7.704   5.928  62.996  1.00  0.00    -0.093 A  
HETATM   24  C   UNL     2      -7.863   6.857  64.021  1.00  0.00    -0.100 A  
HETATM   25  C   UNL     2      -8.021   6.433  65.347  1.00  0.00    -0.116 A  
ENDBRANCH  13  14
ENDBRANCH   4  13
TORSDOF 2
ENDMDL
MODEL      185
REMARK 921   NORMALIZED FREE ENERGY PREDICTED BY IDOCK:   -2.71 KCAL/MOL
REMARK 922        TOTAL FREE ENERGY PREDICTED BY IDOCK:   -3.73 KCAL/MOL
REMARK 923 INTER-LIGAND FREE ENERGY PREDICTED BY IDOCK:   -3.54 KCAL/MOL
REMARK 924 INTRA-LIGAND FREE ENERGY PREDICTED BY IDOCK:   -0.19 KCAL/MOL
REMARK 927      BINDING AFFINITY PREDICTED BY RF-SCORE:    0.00 PKD
ROOT
HETATM    1 BR   UNL     1      -7.595  10.339  67.943  1.00  0.00    -0.089 Br 
HETATM    2  C   UNL     2     -13.456  14.570  70.519  1.00  0.00     0.142 C  
HETATM    3  C   UNL     2     -12.306  14.924  69.536  1.00  0.00    -0.202 C  
HETATM    4  C   UNL     2     -10.934  15.268  70.188  1.00  0.00    -0.291 C  
HETATM    5  C   UNL     2     -10.802  14.887  71.692  1.00  0.00     0.504 C  
HETATM    6  C   UNL     2     -12.144  12.355  71.007  1.00  0.00     0.079 C  
HETATM    7  C   UNL     2     -12.121  14.545  72.427  1.00  0.00    -0.094 C  
HETATM    8  C   UNL     2     -13.822  15.830  71.311  1.00  0.00     0.118 C  
HETATM    9  O   UNL     2     -14.370  15.680  72.632  1.00  0.00    -0.487 OA 
HETATM   10  N   UNL     2     -12.931  13.543  71.553  1.00  0.00    -0.360 N  
HETATM   11  C   UNL     2     -14.099  12.892  72.336  1.00  0.00    -0.107 C  
HETATM   12  C   UNL     2     -12.953  15.819  72.519  1.00  0.00    -0.470 C  
ENDROOT
BRANCH   4  13
HETATM   13  O   UNL     2      -9.797  14.647  69.465  1.00  0.00    -0.068 OA 
BRANCH  13  14
HETATM   14  C   UNL     2      -8.727  15.431  69.105  1.00  0.00    -0.242 C  
HETATM   15  C   UNL     2      -8.276  16.821  66.966  1.00  0.00    -0.224 A  
HETATM   16  O   UNL     2      -8.070  16.028  69.936  1.00  0.00     0.153 OA 
HETATM   17  C   UNL     2      -7.035  14.665  67.472  1.00  0.00    -0.168 C  
HETATM   18  C   UNL     2      -8.379  15.412  67.588  1.00  0.00    -0.174 C  
HETATM   19  O   UNL     2      -7.054  13.378  68.087  1.00  0.00    -0.089 OA 
HETATM   20  C   UNL     2      -7.198  17.238  66.149  1.00  0.00    -0.304 A  
HETATM   21  C   UNL     2      -7.071  18.564  65.708  1.00  0.00    -0.255 A  
HETATM   22  H   UNL     2      -6.226  12.918  68.015  1.00  0.00     0.000 HD 
HETATM   23  C   UNL     2      -8.051  19.491  66.041  1.00  0.00    -0.299 A  
HETATM   24  C   UNL     2      -9.182  19.076  66.739  1.00  0.00    -0.345 A  
HETATM   25  C   UNL     2      -9.300  17.752  67.179  1.00  0.00    -0.264 A  
ENDBRANCH  13  14
ENDBRANCH   4  13
TORSDOF 2
ENDMDL
MODEL      186
REMARK 921   NORMALIZED FREE ENERGY PREDICTED BY IDOCK:   -2.66 KCAL/MOL
REMARK 922        TOTAL FREE ENERGY PREDICTED BY IDOCK:   -3.68 KCAL/MOL
REMARK 923 INTER-LIGAND FREE ENERGY PREDICTED BY IDOCK:   -3.09 KCAL/MOL
REMARK 924 INTRA-LIGAND FREE ENERGY PREDICTED BY IDOCK:   -0.59 KCAL/MOL
REMARK 927      BINDING AFFINITY PREDICTED BY RF-SCORE:    0.00 PKD
ROOT
HETATM    1 BR   UNL     1     -10.466   9.935  67.535  1.00  0.00    -0.328 Br 
HETATM    2  C   UNL     2      -8.309   4.719  72.735  1.00  0.00    -0.111 C  
HETATM    3  C   UNL     2      -7.589   5.235  71.459  1.00  0.00    -0.102 C  
HETATM    4  C   UNL     2      -8.077   4.629  70.109  1.00  0.00    -0.068 C  
HETATM    5  C   UNL     2      -9.427   3.856  70.180  1.00  0.00    -0.261 C  
HETATM    6  C   UNL     2     -10.409   6.043  71.893  1.00  0.00    -0.209 C  
HETATM    7  C   UNL     2      -9.931   3.494  71.598  1.00  0.00    -0.119 C  
HETATM    8  C   UNL     2      -7.945   3.244  72.934  1.00  0.00    -0.068 C  
HETATM    9  O   UNL     2      -8.880   2.388  73.613  1.00  0.00    -0.072 OA 
HETATM   10  N   UNL     2      -9.840   4.762  72.497  1.00  0.00    -0.151 N  
HETATM   11  C   UNL     2     -10.617   4.595  73.827  1.00  0.00    -0.263 C  
HETATM   12  C   UNL     2      -8.973   2.466  72.190  1.00  0.00    -0.078 C  
ENDROOT
BRANCH   4  13
HETATM   13  O   UNL     2      -8.201   5.655  69.045  1.00  0.00    -0.099 OA 
BRANCH  13  14
HETATM   14  C   UNL     2      -7.760   5.359  67.777  1.00  0.00    -0.092 C  
HETATM   15  C   UNL     2      -7.749   6.770  65.604  1.00  0.00    -0.102 A  
HETATM   16  O   UNL     2      -6.827   4.603  67.590  1.00  0.00    -0.056 OA 
HETATM   17  C   UNL     2      -9.326   4.809  65.943  1.00  0.00    -0.159 C  
HETATM   18  C   UNL     2      -8.600   5.986  66.626  1.00  0.00    -0.113 C  
HETATM   19  O   UNL     2     -10.080   4.011  66.854  1.00  0.00    -0.303 OA 
HETATM   20  C   UNL     2      -7.864   6.607  64.203  1.00  0.00    -0.108 A  
HETATM   21  C   UNL     2      -6.986   7.238  63.308  1.00  0.00    -0.059 A  
HETATM   22  H   UNL     2     -10.527   3.286  66.433  1.00  0.00     0.000 HD 
HETATM   23  C   UNL     2      -6.002   8.085  63.801  1.00  0.00    -0.062 A  
HETATM   24  C   UNL     2      -5.948   8.358  65.165  1.00  0.00    -0.045 A  
HETATM   25  C   UNL     2      -6.825   7.721  66.053  1.00  0.00    -0.057 A  
ENDBRANCH  13  14
ENDBRANCH   4  13
TORSDOF 2
ENDMDL
MODEL      187
REMARK 921   NORMALIZED FREE ENERGY PREDICTED BY IDOCK:   -2.54 KCAL/MOL
REMARK 922        TOTAL FREE ENERGY PREDICTED BY IDOCK:   -3.54 KCAL/MOL
REMARK 923 INTER-LIGAND FREE ENERGY PREDICTED BY IDOCK:   -2.86 KCAL/MOL
REMARK 924 INTRA-LIGAND FREE ENERGY PREDICTED BY IDOCK:   -0.68 KCAL/MOL
REMARK 927      BINDING AFFINITY PREDICTED BY RF-SCORE:    0.00 PKD
ROOT
HETATM    1 BR   UNL     1     -10.795  10.328  67.542  1.00  0.00    -0.340 Br 
HETATM    2  C   UNL     2      -9.038   3.004  66.067  1.00  0.00    -0.140 C  
HETATM    3  C   UNL     2      -9.452   3.700  67.394  1.00  0.00    -0.238 C  
HETATM    4  C   UNL     2      -8.329   4.492  68.127  1.00  0.00    -0.094 C  
HETATM    5  C   UNL     2      -7.051   4.766  67.280  1.00  0.00    -0.069 C  
HETATM    6  C   UNL     2      -8.860   5.412  65.046  1.00  0.00    -0.082 C  
HETATM    7  C   UNL     2      -6.910   3.946  65.974  1.00  0.00    -0.061 C  
HETATM    8  C   UNL     2      -8.058   1.874  66.398  1.00  0.00    -0.080 C  
HETATM    9  O   UNL     2      -7.089   1.489  65.408  1.00  0.00    -0.044 OA 
HETATM   10  N   UNL     2      -8.256   4.018  65.195  1.00  0.00    -0.101 N  
HETATM   11  C   UNL     2      -8.118   3.510  63.738  1.00  0.00    -0.089 C  
HETATM   12  C   UNL     2      -6.701   2.485  66.356  1.00  0.00    -0.043 C  
ENDROOT
BRANCH   4  13
HETATM   13  O   UNL     2      -8.809   5.795  68.650  1.00  0.00    -0.111 OA 
BRANCH  13  14
HETATM   14  C   UNL     2      -8.619   6.092  69.979  1.00  0.00    -0.136 C  
HETATM   15  C   UNL     2      -8.351   4.555  72.047  1.00  0.00    -0.112 A  
HETATM   16  O   UNL     2      -8.013   7.087  70.325  1.00  0.00    -0.113 OA 
HETATM   17  C   UNL     2     -10.449   5.922  71.633  1.00  0.00    -0.233 C  
HETATM   18  C   UNL     2      -9.310   5.117  70.976  1.00  0.00    -0.198 C  
HETATM   19  O   UNL     2     -11.333   6.518  70.685  1.00  0.00    -0.304 OA 
HETATM   20  C   UNL     2      -8.650   4.534  73.430  1.00  0.00    -0.101 A  
HETATM   21  C   UNL     2      -7.704   4.136  74.388  1.00  0.00    -0.079 A  
HETATM   22  H   UNL     2     -12.035   7.014  71.090  1.00  0.00     0.000 HD 
HETATM   23  C   UNL     2      -6.450   3.707  73.971  1.00  0.00    -0.037 A  
HETATM   24  C   UNL     2      -6.176   3.602  72.611  1.00  0.00    -0.009 A  
HETATM   25  C   UNL     2      -7.123   4.004  71.660  1.00  0.00    -0.045 A  
ENDBRANCH  13  14
ENDBRANCH   4  13
TORSDOF 2
ENDMDL
MODEL      188
REMARK 921   NORMALIZED FREE ENERGY PREDICTED BY IDOCK:   -2.49 KCAL/MOL
REMARK 922        TOTAL FREE ENERGY PREDICTED BY IDOCK:   -3.49 KCAL/MOL
REMARK 923 INTER-LIGAND FREE ENERGY PREDICTED BY IDOCK:   -3.20 KCAL/MOL
REMARK 924 INTRA-LIGAND FREE ENERGY PREDICTED BY IDOCK:   -0.28 KCAL/MOL
REMARK 927      BINDING AFFINITY PREDICTED BY RF-SCORE:    0.00 PKD
ROOT
HETATM    1 BR   UNL     1      -8.801  13.911  68.320  1.00  0.00    -0.179 Br 
HETATM    2  C   UNL     2      -7.596   8.179  63.361  1.00  0.00    -0.132 C  
HETATM    3  C   UNL     2      -8.799   8.470  64.300  1.00  0.00     0.215 C  
HETATM    4  C   UNL     2      -8.609   8.074  65.794  1.00  0.00    -0.153 C  
HETATM    5  C   UNL     2      -7.143   7.760  66.214  1.00  0.00    -0.070 C  
HETATM    6  C   UNL     2      -6.349  10.109  64.622  1.00  0.00    -0.130 C  
HETATM    7  C   UNL     2      -6.134   7.544  65.059  1.00  0.00    -0.038 C  
HETATM    8  C   UNL     2      -7.435   6.661  63.237  1.00  0.00    -0.079 C  
HETATM    9  O   UNL     2      -6.127   6.126  62.967  1.00  0.00    -0.025 OA 
HETATM   10  N   UNL     2      -6.301   8.702  64.031  1.00  0.00    -0.072 N  
HETATM   11  C   UNL     2      -5.131   8.759  63.017  1.00  0.00    -0.067 C  
HETATM   12  C   UNL     2      -6.515   6.257  64.336  1.00  0.00    -0.034 C  
ENDROOT
BRANCH   4  13
HETATM   13  O   UNL     2      -9.130   9.109  66.721  1.00  0.00    -0.137 OA 
BRANCH  13  14
HETATM   14  C   UNL     2      -9.709   8.715  67.904  1.00  0.00    -0.161 C  
HETATM   15  C   UNL     2      -8.907   7.053  69.723  1.00  0.00    -0.142 A  
HETATM   16  O   UNL     2     -10.416   9.467  68.545  1.00  0.00    -0.204 OA 
HETATM   17  C   UNL     2     -10.826   6.521  68.147  1.00  0.00    -0.295 C  
HETATM   18  C   UNL     2      -9.463   7.228  68.293  1.00  0.00    -0.141 C  
HETATM   19  O   UNL     2     -11.416   6.703  66.861  1.00  0.00    -0.777 OA 
HETATM   20  C   UNL     2      -9.434   6.131  70.659  1.00  0.00    -0.185 A  
HETATM   21  C   UNL     2      -8.991   6.089  71.990  1.00  0.00    -0.140 A  
HETATM   22  H   UNL     2     -12.256   6.268  66.772  1.00  0.00     0.000 HD 
HETATM   23  C   UNL     2      -7.976   6.945  72.398  1.00  0.00    -0.096 A  
HETATM   24  C   UNL     2      -7.358   7.775  71.466  1.00  0.00    -0.069 A  
HETATM   25  C   UNL     2      -7.808   7.813  70.140  1.00  0.00    -0.095 A  
ENDBRANCH  13  14
ENDBRANCH   4  13
TORSDOF 2
ENDMDL
MODEL      189
REMARK 921   NORMALIZED FREE ENERGY PREDICTED BY IDOCK:   -2.44 KCAL/MOL
REMARK 922        TOTAL FREE ENERGY PREDICTED BY IDOCK:   -3.43 KCAL/MOL
REMARK 923 INTER-LIGAND FREE ENERGY PREDICTED BY IDOCK:   -2.92 KCAL/MOL
REMARK 924 INTRA-LIGAND FREE ENERGY PREDICTED BY IDOCK:   -0.51 KCAL/MOL
REMARK 927      BINDING AFFINITY PREDICTED BY RF-SCORE:    0.00 PKD
ROOT
HETATM    1 BR   UNL     1     -10.767  10.309  67.543  1.00  0.00    -0.352 Br 
HETATM    2  C   UNL     2      -9.237   3.109  65.371  1.00  0.00    -0.148 C  
HETATM    3  C   UNL     2      -9.413   3.725  66.787  1.00  0.00    -0.216 C  
HETATM    4  C   UNL     2      -8.184   4.497  67.352  1.00  0.00    -0.101 C  
HETATM    5  C   UNL     2      -7.081   4.840  66.307  1.00  0.00    -0.075 C  
HETATM    6  C   UNL     2      -9.267   5.571  64.471  1.00  0.00     0.404 C  
HETATM    7  C   UNL     2      -7.169   4.094  64.954  1.00  0.00    -0.070 C  
HETATM    8  C   UNL     2      -8.204   1.981  65.458  1.00  0.00    -0.087 C  
HETATM    9  O   UNL     2      -7.424   1.668  64.291  1.00  0.00    -0.055 OA 
HETATM   10  N   UNL     2      -8.633   4.182  64.432  1.00  0.00    -0.110 N  
HETATM   11  C   UNL     2      -8.753   3.756  62.947  1.00  0.00    -0.096 C  
HETATM   12  C   UNL     2      -6.882   2.619  65.210  1.00  0.00    -0.044 C  
ENDROOT
BRANCH   4  13
HETATM   13  O   UNL     2      -8.575   5.761  68.024  1.00  0.00    -0.106 OA 
BRANCH  13  14
HETATM   14  C   UNL     2      -8.033   6.059  69.252  1.00  0.00    -0.103 C  
HETATM   15  C   UNL     2      -8.962   7.451  71.230  1.00  0.00    -0.140 A  
HETATM   16  O   UNL     2      -7.282   5.289  69.818  1.00  0.00    -0.060 OA 
HETATM   17  C   UNL     2      -7.071   8.281  69.753  1.00  0.00    -0.056 C  
HETATM   18  C   UNL     2      -8.384   7.473  69.799  1.00  0.00    -0.134 C  
HETATM   19  O   UNL     2      -6.459   8.284  68.464  1.00  0.00    -0.052 OA 
HETATM   20  C   UNL     2      -8.507   8.297  72.270  1.00  0.00    -0.248 A  
HETATM   21  C   UNL     2      -8.963   8.161  73.590  1.00  0.00    -0.275 A  
HETATM   22  H   UNL     2      -5.650   8.781  68.436  1.00  0.00     0.000 HD 
HETATM   23  C   UNL     2      -9.920   7.200  73.886  1.00  0.00    -0.360 A  
HETATM   24  C   UNL     2     -10.472   6.439  72.859  1.00  0.00    -0.243 A  
HETATM   25  C   UNL     2     -10.010   6.578  71.543  1.00  0.00    -0.193 A  
ENDBRANCH  13  14
ENDBRANCH   4  13
TORSDOF 2
ENDMDL
MODEL      190
REMARK 921   NORMALIZED FREE ENERGY PREDICTED BY IDOCK:   -2.44 KCAL/MOL
REMARK 922        TOTAL FREE ENERGY PREDICTED BY IDOCK:   -3.43 KCAL/MOL
REMARK 923 INTER-LIGAND FREE ENERGY PREDICTED BY IDOCK:   -2.83 KCAL/MOL
REMARK 924 INTRA-LIGAND FREE ENERGY PREDICTED BY IDOCK:   -0.60 KCAL/MOL
REMARK 927      BINDING AFFINITY PREDICTED BY RF-SCORE:    0.00 PKD
ROOT
HETATM    1 BR   UNL     1      -7.650   2.391  73.544  1.00  0.00    -0.043 Br 
HETATM    2  C   UNL     2     -10.865   8.147  69.617  1.00  0.00    -0.158 C  
HETATM    3  C   UNL     2      -9.887   7.030  69.159  1.00  0.00    -0.158 C  
HETATM    4  C   UNL     2      -8.386   7.254  69.508  1.00  0.00    -0.133 C  
HETATM    5  C   UNL     2      -8.108   8.377  70.549  1.00  0.00    -0.107 C  
HETATM    6  C   UNL     2     -10.406   7.326  72.064  1.00  0.00    -0.192 C  
HETATM    7  C   UNL     2      -9.284   9.341  70.842  1.00  0.00    -0.233 C  
HETATM    8  C   UNL     2     -10.568   9.413  68.808  1.00  0.00    -0.208 C  
HETATM    9  O   UNL     2     -10.856  10.693  69.397  1.00  0.00    -0.215 OA 
HETATM   10  N   UNL     2     -10.567   8.496  71.097  1.00  0.00    -0.210 N  
HETATM   11  C   UNL     2     -11.711   9.339  71.714  1.00  0.00    -0.386 C  
HETATM   12  C   UNL     2      -9.543  10.163  69.585  1.00  0.00    -0.210 C  
ENDROOT
BRANCH   4  13
HETATM   13  O   UNL     2      -7.732   6.015  69.997  1.00  0.00    -0.095 OA 
BRANCH  13  14
HETATM   14  C   UNL     2      -6.864   5.345  69.168  1.00  0.00    -0.054 C  
HETATM   15  C   UNL     2      -7.149   3.151  67.819  1.00  0.00    -0.050 A  
HETATM   16  O   UNL     2      -6.030   5.937  68.511  1.00  0.00    -0.018 OA 
HETATM   17  C   UNL     2      -5.686   3.294  69.889  1.00  0.00    -0.018 C  
HETATM   18  C   UNL     2      -6.978   3.794  69.212  1.00  0.00    -0.046 C  
HETATM   19  O   UNL     2      -5.445   3.903  71.156  1.00  0.00    -0.007 OA 
HETATM   20  C   UNL     2      -6.386   2.047  67.369  1.00  0.00    -0.024 A  
HETATM   21  C   UNL     2      -6.476   1.572  66.051  1.00  0.00    -0.023 A  
HETATM   22  H   UNL     2      -4.649   3.595  71.573  1.00  0.00     0.000 HD 
HETATM   23  C   UNL     2      -7.368   2.168  65.170  1.00  0.00    -0.058 A  
HETATM   24  C   UNL     2      -8.216   3.174  65.624  1.00  0.00    -0.091 A  
HETATM   25  C   UNL     2      -8.119   3.646  66.939  1.00  0.00    -0.095 A  
ENDBRANCH  13  14
ENDBRANCH   4  13
TORSDOF 2
ENDMDL
MODEL      191
REMARK 921   NORMALIZED FREE ENERGY PREDICTED BY IDOCK:   -2.35 KCAL/MOL
REMARK 922        TOTAL FREE ENERGY PREDICTED BY IDOCK:   -3.33 KCAL/MOL
REMARK 923 INTER-LIGAND FREE ENERGY PREDICTED BY IDOCK:   -4.95 KCAL/MOL
REMARK 924 INTRA-LIGAND FREE ENERGY PREDICTED BY IDOCK:    1.63 KCAL/MOL
REMARK 927      BINDING AFFINITY PREDICTED BY RF-SCORE:    0.00 PKD
ROOT
HETATM    1 BR   UNL     1     -10.549   7.519  67.302  1.00  0.00    -0.377 Br 
HETATM    2  C   UNL     2     -11.351  15.149  67.501  1.00  0.00    -0.320 C  
HETATM    3  C   UNL     2     -10.556  14.239  66.525  1.00  0.00    -0.286 C  
HETATM    4  C   UNL     2      -9.178  13.727  67.040  1.00  0.00    -0.251 C  
HETATM    5  C   UNL     2      -8.933  13.908  68.567  1.00  0.00    -0.141 C  
HETATM    6  C   UNL     2     -11.709  13.001  68.960  1.00  0.00    -0.329 C  
HETATM    7  C   UNL     2      -9.907  14.858  69.305  1.00  0.00    -0.159 C  
HETATM    8  C   UNL     2     -10.593  16.471  67.657  1.00  0.00    -0.321 C  
HETATM    9  O   UNL     2     -10.736  17.208  68.884  1.00  0.00    -0.323 OA 
HETATM   10  N   UNL     2     -11.365  14.487  68.902  1.00  0.00    -0.259 N  
HETATM   11  C   UNL     2     -12.416  15.153  69.824  1.00  0.00    -0.186 C  
HETATM   12  C   UNL     2      -9.659  16.274  68.799  1.00  0.00    -0.242 C  
ENDROOT
BRANCH   4  13
HETATM   13  O   UNL     2      -8.952  12.298  66.714  1.00  0.00    -0.204 OA 
BRANCH  13  14
HETATM   14  C   UNL     2      -7.797  11.689  67.145  1.00  0.00    -0.163 C  
HETATM   15  C   UNL     2      -6.947  11.144  69.531  1.00  0.00    -0.111 A  
HETATM   16  O   UNL     2      -7.244  10.835  66.481  1.00  0.00    -0.124 OA 
HETATM   17  C   UNL     2      -5.919  12.979  68.108  1.00  0.00    -0.092 C  
HETATM   18  C   UNL     2      -7.222  12.242  68.481  1.00  0.00    -0.103 C  
HETATM   19  O   UNL     2      -6.104  13.965  67.094  1.00  0.00    -0.368 OA 
HETATM   20  C   UNL     2      -5.734  11.040  70.254  1.00  0.00    -0.115 A  
HETATM   21  C   UNL     2      -5.468   9.956  71.104  1.00  0.00    -0.073 A  
HETATM   22  H   UNL     2      -5.302  14.418  66.864  1.00  0.00     0.000 HD 
HETATM   23  C   UNL     2      -6.434   8.974  71.280  1.00  0.00    -0.085 A  
HETATM   24  C   UNL     2      -7.680   9.117  70.677  1.00  0.00    -0.152 A  
HETATM   25  C   UNL     2      -7.938  10.201  69.827  1.00  0.00    -0.172 A  
ENDBRANCH  13  14
ENDBRANCH   4  13
TORSDOF 2
ENDMDL
MODEL      192
REMARK 921   NORMALIZED FREE ENERGY PREDICTED BY IDOCK:   -2.34 KCAL/MOL
REMARK 922        TOTAL FREE ENERGY PREDICTED BY IDOCK:   -3.31 KCAL/MOL
REMARK 923 INTER-LIGAND FREE ENERGY PREDICTED BY IDOCK:   -2.98 KCAL/MOL
REMARK 924 INTRA-LIGAND FREE ENERGY PREDICTED BY IDOCK:   -0.33 KCAL/MOL
REMARK 927      BINDING AFFINITY PREDICTED BY RF-SCORE:    0.00 PKD
ROOT
HETATM    1 BR   UNL     1      -7.795  10.422  62.455  1.00  0.00    -0.200 Br 
HETATM    2  C   UNL     2      -9.058  16.698  66.688  1.00  0.00    -0.250 C  
HETATM    3  C   UNL     2      -8.009  15.562  66.847  1.00  0.00    -0.264 C  
HETATM    4  C   UNL     2      -8.528  14.242  67.490  1.00  0.00    -0.187 C  
HETATM    5  C   UNL     2     -10.077  14.110  67.575  1.00  0.00    -0.236 C  
HETATM    6  C   UNL     2     -10.162  15.203  64.840  1.00  0.00    -0.196 C  
HETATM    7  C   UNL     2     -10.885  15.409  67.339  1.00  0.00    -0.309 C  
HETATM    8  C   UNL     2      -9.451  17.193  68.083  1.00  0.00    -0.269 C  
HETATM    9  O   UNL     2     -10.762  17.755  68.272  1.00  0.00    -0.343 OA 
HETATM   10  N   UNL     2     -10.343  16.106  66.057  1.00  0.00    -0.341 N  
HETATM   11  C   UNL     2     -11.286  17.228  65.556  1.00  0.00     0.806 C  
HETATM   12  C   UNL     2     -10.607  16.354  68.503  1.00  0.00    -0.304 C  
ENDROOT
BRANCH   4  13
HETATM   13  O   UNL     2      -8.011  13.038  66.795  1.00  0.00     0.030 OA 
BRANCH  13  14
HETATM   14  C   UNL     2      -7.125  12.216  67.451  1.00  0.00    -0.146 C  
HETATM   15  C   UNL     2      -7.375  10.833  69.628  1.00  0.00    -0.107 A  
HETATM   16  O   UNL     2      -6.280  11.584  66.848  1.00  0.00    -0.117 OA 
HETATM   17  C   UNL     2      -5.953  12.933  69.508  1.00  0.00    -0.111 C  
HETATM   18  C   UNL     2      -7.234  12.238  69.003  1.00  0.00    -0.023 C  
HETATM   19  O   UNL     2      -5.739  14.213  68.915  1.00  0.00    -0.082 OA 
HETATM   20  C   UNL     2      -6.600  10.383  70.723  1.00  0.00     0.099 A  
HETATM   21  C   UNL     2      -6.662   9.058  71.181  1.00  0.00    -0.090 A  
HETATM   22  H   UNL     2      -4.950  14.641  69.226  1.00  0.00     0.000 HD 
HETATM   23  C   UNL     2      -7.539   8.167  70.576  1.00  0.00    -0.079 A  
HETATM   24  C   UNL     2      -8.399   8.618  69.579  1.00  0.00    -0.117 A  
HETATM   25  C   UNL     2      -8.330   9.941  69.124  1.00  0.00    -0.145 A  
ENDBRANCH  13  14
ENDBRANCH   4  13
TORSDOF 2
ENDMDL
MODEL      193
REMARK 921   NORMALIZED FREE ENERGY PREDICTED BY IDOCK:   -2.29 KCAL/MOL
REMARK 922        TOTAL FREE ENERGY PREDICTED BY IDOCK:   -3.26 KCAL/MOL
REMARK 923 INTER-LIGAND FREE ENERGY PREDICTED BY IDOCK:   -3.12 KCAL/MOL
REMARK 924 INTRA-LIGAND FREE ENERGY PREDICTED BY IDOCK:   -0.14 KCAL/MOL
REMARK 927      BINDING AFFINITY PREDICTED BY RF-SCORE:    0.00 PKD
ROOT
HETATM    1 BR   UNL     1     -12.849  13.821  65.077  1.00  0.00    -0.226 Br 
HETATM    2  C   UNL     2      -7.648   8.393  66.623  1.00  0.00    -0.089 C  
HETATM    3  C   UNL     2      -8.144   9.594  67.476  1.00  0.00    -0.114 C  
HETATM    4  C   UNL     2      -7.534  10.981  67.118  1.00  0.00    -0.117 C  
HETATM    5  C   UNL     2      -6.779  11.043  65.757  1.00  0.00     0.087 C  
HETATM    6  C   UNL     2      -8.993   9.453  64.638  1.00  0.00    -0.187 C  
HETATM    7  C   UNL     2      -6.435   9.680  65.107  1.00  0.00    -0.088 C  
HETATM    8  C   UNL     2      -6.171   8.148  66.944  1.00  0.00    -0.055 C  
HETATM    9  O   UNL     2      -5.333   7.561  65.933  1.00  0.00    -0.027 OA 
HETATM   10  N   UNL     2      -7.709   8.786  65.125  1.00  0.00    -0.099 N  
HETATM   11  C   UNL     2      -7.564   7.540  64.216  1.00  0.00    -0.105 C  
HETATM   12  C   UNL     2      -5.400   8.987  65.986  1.00  0.00    -0.040 C  
ENDROOT
BRANCH   4  13
HETATM   13  O   UNL     2      -8.552  12.060  67.117  1.00  0.00    -0.168 OA 
BRANCH  13  14
HETATM   14  C   UNL     2      -8.394  13.130  67.966  1.00  0.00    -0.162 C  
HETATM   15  C   UNL     2      -6.838  15.197  67.831  1.00  0.00    -0.171 A  
HETATM   16  O   UNL     2      -9.319  13.555  68.630  1.00  0.00    -0.151 OA 
HETATM   17  C   UNL     2      -6.455  13.314  69.490  1.00  0.00    -0.078 C  
HETATM   18  C   UNL     2      -6.940  13.675  68.072  1.00  0.00    -0.135 C  
HETATM   19  O   UNL     2      -6.585  11.925  69.790  1.00  0.00    -0.259 OA 
HETATM   20  C   UNL     2      -6.125  16.076  68.680  1.00  0.00    -0.108 A  
HETATM   21  C   UNL     2      -6.161  17.468  68.505  1.00  0.00    -0.173 A  
HETATM   22  H   UNL     2      -6.286  11.703  70.664  1.00  0.00     0.000 HD 
HETATM   23  C   UNL     2      -6.878  18.004  67.443  1.00  0.00    -0.202 A  
HETATM   24  C   UNL     2      -7.485  17.154  66.523  1.00  0.00    -0.318 A  
HETATM   25  C   UNL     2      -7.448  15.765  66.706  1.00  0.00    -0.135 A  
ENDBRANCH  13  14
ENDBRANCH   4  13
TORSDOF 2
ENDMDL
MODEL      194
REMARK 921   NORMALIZED FREE ENERGY PREDICTED BY IDOCK:   -2.28 KCAL/MOL
REMARK 922        TOTAL FREE ENERGY PREDICTED BY IDOCK:   -3.24 KCAL/MOL
REMARK 923 INTER-LIGAND FREE ENERGY PREDICTED BY IDOCK:   -2.98 KCAL/MOL
REMARK 924 INTRA-LIGAND FREE ENERGY PREDICTED BY IDOCK:   -0.27 KCAL/MOL
REMARK 927      BINDING AFFINITY PREDICTED BY RF-SCORE:    0.00 PKD
ROOT
HETATM    1 BR   UNL     1     -11.053   6.708  67.211  1.00  0.00    -0.321 Br 
HETATM    2  C   UNL     2      -9.607  13.901  64.962  1.00  0.00     0.352 C  
HETATM    3  C   UNL     2      -8.960  13.041  66.083  1.00  0.00     0.181 C  
HETATM    4  C   UNL     2      -9.765  12.936  67.412  1.00  0.00    -0.201 C  
HETATM    5  C   UNL     2     -11.245  13.414  67.329  1.00  0.00    -0.319 C  
HETATM    6  C   UNL     2     -11.395  11.997  64.750  1.00  0.00    -0.313 C  
HETATM    7  C   UNL     2     -11.626  14.235  66.073  1.00  0.00    -0.360 C  
HETATM    8  C   UNL     2      -9.607  15.365  65.415  1.00  0.00    -0.126 C  
HETATM    9  O   UNL     2     -10.627  16.244  64.910  1.00  0.00    -0.650 OA 
HETATM   10  N   UNL     2     -11.094  13.492  64.813  1.00  0.00    -0.341 N  
HETATM   11  C   UNL     2     -11.698  14.053  63.502  1.00  0.00     0.310 C  
HETATM   12  C   UNL     2     -10.890  15.568  66.141  1.00  0.00    -0.295 C  
ENDROOT
BRANCH   4  13
HETATM   13  O   UNL     2      -9.768  11.557  67.959  1.00  0.00    -0.174 OA 
BRANCH  13  14
HETATM   14  C   UNL     2     -10.869  11.118  68.656  1.00  0.00    -0.209 C  
HETATM   15  C   UNL     2     -11.831  11.838  70.951  1.00  0.00     0.092 A  
HETATM   16  O   UNL     2     -11.862  10.713  68.084  1.00  0.00    -0.482 OA 
HETATM   17  C   UNL     2     -10.668   9.608  70.605  1.00  0.00    -0.322 C  
HETATM   18  C   UNL     2     -10.702  11.097  70.203  1.00  0.00     0.310 C  
HETATM   19  O   UNL     2      -9.681   8.860  69.897  1.00  0.00    -0.169 OA 
HETATM   20  C   UNL     2     -12.526  11.291  72.057  1.00  0.00     0.262 A  
HETATM   21  C   UNL     2     -13.633  11.937  72.630  1.00  0.00     0.701 A  
HETATM   22  H   UNL     2      -9.660   7.943  70.144  1.00  0.00     0.000 HD 
HETATM   23  C   UNL     2     -14.037  13.169  72.133  1.00  0.00    -0.280 A  
HETATM   24  C   UNL     2     -13.295  13.783  71.128  1.00  0.00    -0.218 A  
HETATM   25  C   UNL     2     -12.194  13.132  70.558  1.00  0.00    -0.405 A  
ENDBRANCH  13  14
ENDBRANCH   4  13
TORSDOF 2
ENDMDL
MODEL      195
REMARK 921   NORMALIZED FREE ENERGY PREDICTED BY IDOCK:   -2.25 KCAL/MOL
REMARK 922        TOTAL FREE ENERGY PREDICTED BY IDOCK:   -3.21 KCAL/MOL
REMARK 923 INTER-LIGAND FREE ENERGY PREDICTED BY IDOCK:   -3.78 KCAL/MOL
REMARK 924 INTRA-LIGAND FREE ENERGY PREDICTED BY IDOCK:    0.57 KCAL/MOL
REMARK 927      BINDING AFFINITY PREDICTED BY RF-SCORE:    0.00 PKD
ROOT
HETATM    1 BR   UNL     1      -5.898  13.187  71.001  1.00  0.00     0.142 Br 
HETATM    2  C   UNL     2      -6.395  19.791  67.124  1.00  0.00    -0.188 C  
HETATM    3  C   UNL     2      -7.003  19.370  68.491  1.00  0.00    -0.333 C  
HETATM    4  C   UNL     2      -8.287  18.491  68.424  1.00  0.00    -0.332 C  
HETATM    5  C   UNL     2      -8.594  17.873  67.027  1.00  0.00    -0.248 C  
HETATM    6  C   UNL     2      -5.715  17.277  66.832  1.00  0.00    -0.178 C  
HETATM    7  C   UNL     2      -7.811  18.469  65.832  1.00  0.00    -0.050 C  
HETATM    8  C   UNL     2      -7.368  20.755  66.438  1.00  0.00    -0.038 C  
HETATM    9  O   UNL     2      -7.380  20.816  65.001  1.00  0.00     0.059 OA 
HETATM   10  N   UNL     2      -6.303  18.542  66.213  1.00  0.00    -0.181 N  
HETATM   11  C   UNL     2      -5.400  18.813  64.983  1.00  0.00    -0.195 C  
HETATM   12  C   UNL     2      -8.283  19.904  65.628  1.00  0.00     0.062 C  
ENDROOT
BRANCH   4  13
HETATM   13  O   UNL     2      -8.261  17.383  69.409  1.00  0.00     0.089 OA 
BRANCH  13  14
HETATM   14  C   UNL     2      -8.741  16.148  69.039  1.00  0.00    -0.254 C  
HETATM   15  C   UNL     2     -10.894  15.469  67.767  1.00  0.00    -0.309 A  
HETATM   16  O   UNL     2      -7.991  15.231  68.772  1.00  0.00    -0.136 OA 
HETATM   17  C   UNL     2     -10.594  15.047  70.253  1.00  0.00    -0.084 C  
HETATM   18  C   UNL     2     -10.290  16.006  69.083  1.00  0.00    -0.247 C  
HETATM   19  O   UNL     2     -10.006  15.463  71.485  1.00  0.00     0.591 OA 
HETATM   20  C   UNL     2     -11.834  14.413  67.713  1.00  0.00    -0.402 A  
HETATM   21  C   UNL     2     -12.263  13.864  66.494  1.00  0.00    -0.482 A  
HETATM   22  H   UNL     2     -10.193  14.873  72.205  1.00  0.00     0.000 HD 
HETATM   23  C   UNL     2     -11.788  14.395  65.302  1.00  0.00    -0.373 A  
HETATM   24  C   UNL     2     -10.959  15.513  65.328  1.00  0.00    -0.391 A  
HETATM   25  C   UNL     2     -10.532  16.054  66.548  1.00  0.00    -0.303 A  
ENDBRANCH  13  14
ENDBRANCH   4  13
TORSDOF 2
ENDMDL
MODEL      196
REMARK 921   NORMALIZED FREE ENERGY PREDICTED BY IDOCK:   -2.20 KCAL/MOL
REMARK 922        TOTAL FREE ENERGY PREDICTED BY IDOCK:   -3.16 KCAL/MOL
REMARK 923 INTER-LIGAND FREE ENERGY PREDICTED BY IDOCK:   -3.91 KCAL/MOL
REMARK 924 INTRA-LIGAND FREE ENERGY PREDICTED BY IDOCK:    0.75 KCAL/MOL
REMARK 927      BINDING AFFINITY PREDICTED BY RF-SCORE:    0.00 PKD
ROOT
HETATM    1 BR   UNL     1     -10.783  20.172  65.194  1.00  0.00     0.676 Br 
HETATM    2  C   UNL     2      -5.761  15.462  68.584  1.00  0.00    -0.092 C  
HETATM    3  C   UNL     2      -6.832  15.186  67.493  1.00  0.00    -0.203 C  
HETATM    4  C   UNL     2      -8.296  15.031  68.000  1.00  0.00    -0.148 C  
HETATM    5  C   UNL     2      -8.544  15.504  69.463  1.00  0.00    -0.218 C  
HETATM    6  C   UNL     2      -6.853  17.832  68.830  1.00  0.00    -0.240 C  
HETATM    7  C   UNL     2      -7.281  15.737  70.327  1.00  0.00     0.610 C  
HETATM    8  C   UNL     2      -5.630  14.214  69.463  1.00  0.00    -0.093 C  
HETATM    9  O   UNL     2      -5.214  14.373  70.830  1.00  0.00    -0.112 OA 
HETATM   10  N   UNL     2      -6.271  16.595  69.510  1.00  0.00    -0.210 N  
HETATM   11  C   UNL     2      -5.127  17.153  70.392  1.00  0.00    -0.232 C  
HETATM   12  C   UNL     2      -6.617  14.385  70.564  1.00  0.00     0.037 C  
ENDROOT
BRANCH   4  13
HETATM   13  O   UNL     2      -9.270  15.734  67.129  1.00  0.00    -0.202 OA 
BRANCH  13  14
HETATM   14  C   UNL     2     -10.583  15.819  67.528  1.00  0.00    -0.309 C  
HETATM   15  C   UNL     2     -11.773  14.965  69.665  1.00  0.00    -0.356 A  
HETATM   16  O   UNL     2     -11.283  16.761  67.210  1.00  0.00    -0.017 OA 
HETATM   17  C   UNL     2     -12.119  13.885  67.394  1.00  0.00    -0.345 C  
HETATM   18  C   UNL     2     -11.109  14.589  68.323  1.00  0.00    -0.275 C  
HETATM   19  O   UNL     2     -11.575  13.569  66.113  1.00  0.00    -0.321 OA 
HETATM   20  C   UNL     2     -13.031  14.467  70.082  1.00  0.00    -0.019 A  
HETATM   21  C   UNL     2     -13.663  14.930  71.246  1.00  0.00    -0.505 A  
HETATM   22  H   UNL     2     -12.197  13.136  65.541  1.00  0.00     0.000 HD 
HETATM   23  C   UNL     2     -13.024  15.872  72.041  1.00  0.00    -0.445 A  
HETATM   24  C   UNL     2     -11.735  16.286  71.718  1.00  0.00    -0.504 A  
HETATM   25  C   UNL     2     -11.111  15.822  70.552  1.00  0.00    -0.383 A  
ENDBRANCH  13  14
ENDBRANCH   4  13
TORSDOF 2
ENDMDL
MODEL      197
REMARK 921   NORMALIZED FREE ENERGY PREDICTED BY IDOCK:   -2.10 KCAL/MOL
REMARK 922        TOTAL FREE ENERGY PREDICTED BY IDOCK:   -3.05 KCAL/MOL
REMARK 923 INTER-LIGAND FREE ENERGY PREDICTED BY IDOCK:   -2.50 KCAL/MOL
REMARK 924 INTRA-LIGAND FREE ENERGY PREDICTED BY IDOCK:   -0.54 KCAL/MOL
REMARK 927      BINDING AFFINITY PREDICTED BY RF-SCORE:    0.00 PKD
ROOT
HETATM    1 BR   UNL     1      -9.369   1.864  68.971  1.00  0.00    -0.172 Br 
HETATM    2  C   UNL     2     -12.262   8.871  70.166  1.00  0.00     0.582 C  
HETATM    3  C   UNL     2     -10.906   8.426  69.551  1.00  0.00    -0.126 C  
HETATM    4  C   UNL     2      -9.802   8.008  70.566  1.00  0.00    -0.182 C  
HETATM    5  C   UNL     2     -10.298   7.767  72.023  1.00  0.00    -0.267 C  
HETATM    6  C   UNL     2     -12.600   6.360  70.838  1.00  0.00     0.343 C  
HETATM    7  C   UNL     2     -11.716   8.292  72.355  1.00  0.00    -0.397 C  
HETATM    8  C   UNL     2     -12.045  10.190  70.913  1.00  0.00    -0.356 C  
HETATM    9  O   UNL     2     -12.900  10.501  72.028  1.00  0.00    -0.429 OA 
HETATM   10  N   UNL     2     -12.692   7.832  71.232  1.00  0.00    -0.287 N  
HETATM   11  C   UNL     2     -14.177   8.023  71.631  1.00  0.00    -0.452 C  
HETATM   12  C   UNL     2     -11.678   9.815  72.306  1.00  0.00     0.649 C  
ENDROOT
BRANCH   4  13
HETATM   13  O   UNL     2      -9.071   6.792  70.133  1.00  0.00    -0.154 OA 
BRANCH  13  14
HETATM   14  C   UNL     2      -8.088   6.908  69.179  1.00  0.00    -0.121 C  
HETATM   15  C   UNL     2      -8.208   6.825  66.592  1.00  0.00    -0.115 A  
HETATM   16  O   UNL     2      -7.104   7.596  69.363  1.00  0.00    -0.071 OA 
HETATM   17  C   UNL     2      -7.203   4.942  67.967  1.00  0.00    -0.066 C  
HETATM   18  C   UNL     2      -8.296   6.029  67.912  1.00  0.00    -0.116 C  
HETATM   19  O   UNL     2      -7.199   4.214  69.194  1.00  0.00    -0.050 OA 
HETATM   20  C   UNL     2      -7.431   6.415  65.482  1.00  0.00    -0.083 A  
HETATM   21  C   UNL     2      -7.270   7.227  64.349  1.00  0.00    -0.074 A  
HETATM   22  H   UNL     2      -6.525   3.545  69.228  1.00  0.00     0.000 HD 
HETATM   23  C   UNL     2      -7.923   8.451  64.288  1.00  0.00    -0.149 A  
HETATM   24  C   UNL     2      -8.790   8.820  65.312  1.00  0.00    -0.205 A  
HETATM   25  C   UNL     2      -8.943   8.007  66.442  1.00  0.00    -0.204 A  
ENDBRANCH  13  14
ENDBRANCH   4  13
TORSDOF 2
ENDMDL
MODEL      198
REMARK 921   NORMALIZED FREE ENERGY PREDICTED BY IDOCK:   -2.07 KCAL/MOL
REMARK 922        TOTAL FREE ENERGY PREDICTED BY IDOCK:   -3.02 KCAL/MOL
REMARK 923 INTER-LIGAND FREE ENERGY PREDICTED BY IDOCK:   -2.49 KCAL/MOL
REMARK 924 INTRA-LIGAND FREE ENERGY PREDICTED BY IDOCK:   -0.52 KCAL/MOL
REMARK 927      BINDING AFFINITY PREDICTED BY RF-SCORE:    0.00 PKD
ROOT
HETATM    1 BR   UNL     1      -9.772   4.841  66.726  1.00  0.00    -0.230 Br 
HETATM    2  C   UNL     2      -8.115  12.253  67.828  1.00  0.00    -0.155 C  
HETATM    3  C   UNL     2      -7.662  10.987  68.607  1.00  0.00    -0.132 C  
HETATM    4  C   UNL     2      -8.692  10.405  69.619  1.00  0.00    -0.035 C  
HETATM    5  C   UNL     2     -10.143  10.951  69.475  1.00  0.00    -0.056 C  
HETATM    6  C   UNL     2      -9.788  10.682  66.562  1.00  0.00    -0.204 C  
HETATM    7  C   UNL     2     -10.310  12.221  68.605  1.00  0.00    -0.188 C  
HETATM    8  C   UNL     2      -8.232  13.415  68.819  1.00  0.00     0.066 C  
HETATM    9  O   UNL     2      -9.165  14.473  68.536  1.00  0.00    -0.187 OA 
HETATM   10  N   UNL     2      -9.539  12.012  67.269  1.00  0.00    -0.181 N  
HETATM   11  C   UNL     2      -9.909  13.077  66.206  1.00  0.00    -0.278 C  
HETATM   12  C   UNL     2      -9.631  13.379  69.328  1.00  0.00     0.666 C  
ENDROOT
BRANCH   4  13
HETATM   13  O   UNL     2      -8.761   8.924  69.561  1.00  0.00    -0.135 OA 
BRANCH  13  14
HETATM   14  C   UNL     2      -8.767   8.209  70.736  1.00  0.00    -0.139 C  
HETATM   15  C   UNL     2      -8.139   5.745  71.233  1.00  0.00    -0.114 A  
HETATM   16  O   UNL     2      -8.549   8.744  71.805  1.00  0.00    -0.240 OA 
HETATM   17  C   UNL     2     -10.541   6.567  71.260  1.00  0.00    -0.227 C  
HETATM   18  C   UNL     2      -9.159   6.710  70.591  1.00  0.00    -0.155 C  
HETATM   19  O   UNL     2     -11.509   7.481  70.746  1.00  0.00    -0.281 OA 
HETATM   20  C   UNL     2      -8.503   4.685  72.098  1.00  0.00    -0.118 A  
HETATM   21  C   UNL     2      -7.543   3.910  72.767  1.00  0.00    -0.073 A  
HETATM   22  H   UNL     2     -12.360   7.393  71.159  1.00  0.00     0.000 HD 
HETATM   23  C   UNL     2      -6.194   4.155  72.545  1.00  0.00    -0.017 A  
HETATM   24  C   UNL     2      -5.812   5.109  71.606  1.00  0.00    -0.020 A  
HETATM   25  C   UNL     2      -6.776   5.881  70.945  1.00  0.00    -0.057 A  
ENDBRANCH  13  14
ENDBRANCH   4  13
TORSDOF 2
ENDMDL
MODEL      199
REMARK 921   NORMALIZED FREE ENERGY PREDICTED BY IDOCK:   -2.07 KCAL/MOL
REMARK 922        TOTAL FREE ENERGY PREDICTED BY IDOCK:   -3.01 KCAL/MOL
REMARK 923 INTER-LIGAND FREE ENERGY PREDICTED BY IDOCK:   -2.41 KCAL/MOL
REMARK 924 INTRA-LIGAND FREE ENERGY PREDICTED BY IDOCK:   -0.61 KCAL/MOL
REMARK 927      BINDING AFFINITY PREDICTED BY RF-SCORE:    0.00 PKD
ROOT
HETATM    1 BR   UNL     1      -9.331   1.467  67.759  1.00  0.00    -0.126 Br 
HETATM    2  C   UNL     2     -11.510   8.654  69.339  1.00  0.00     0.502 C  
HETATM    3  C   UNL     2     -10.522   8.106  68.272  1.00  0.00    -0.210 C  
HETATM    4  C   UNL     2      -9.098   7.742  68.786  1.00  0.00    -0.140 C  
HETATM    5  C   UNL     2      -8.955   7.652  70.335  1.00  0.00    -0.152 C  
HETATM    6  C   UNL     2     -11.535   6.228  70.331  1.00  0.00    -0.344 C  
HETATM    7  C   UNL     2     -10.116   8.256  71.162  1.00  0.00    -0.191 C  
HETATM    8  C   UNL     2     -11.012  10.027  69.801  1.00  0.00    -0.276 C  
HETATM    9  O   UNL     2     -11.338  10.468  71.131  1.00  0.00    -0.196 OA 
HETATM   10  N   UNL     2     -11.463   7.732  70.583  1.00  0.00    -0.271 N  
HETATM   11  C   UNL     2     -12.657   8.012  71.531  1.00  0.00    -0.312 C  
HETATM   12  C   UNL     2     -10.106   9.766  70.954  1.00  0.00    -0.065 C  
ENDROOT
BRANCH   4  13
HETATM   13  O   UNL     2      -8.603   6.466  68.214  1.00  0.00    -0.115 OA 
BRANCH  13  14
HETATM   14  C   UNL     2      -7.724   6.504  67.157  1.00  0.00    -0.100 C  
HETATM   15  C   UNL     2      -6.480   4.606  65.908  1.00  0.00    -0.040 A  
HETATM   16  O   UNL     2      -7.800   7.362  66.300  1.00  0.00    -0.100 OA 
HETATM   17  C   UNL     2      -5.288   6.213  67.471  1.00  0.00    -0.005 C  
HETATM   18  C   UNL     2      -6.593   5.436  67.205  1.00  0.00    -0.053 C  
HETATM   19  O   UNL     2      -5.358   7.047  68.626  1.00  0.00    -0.016 OA 
HETATM   20  C   UNL     2      -5.256   4.368  65.237  1.00  0.00    -0.009 A  
HETATM   21  C   UNL     2      -5.206   3.721  63.992  1.00  0.00    -0.009 A  
HETATM   22  H   UNL     2      -4.554   7.526  68.790  1.00  0.00     0.000 HD 
HETATM   23  C   UNL     2      -6.382   3.259  63.416  1.00  0.00    -0.022 A  
HETATM   24  C   UNL     2      -7.582   3.371  64.114  1.00  0.00    -0.076 A  
HETATM   25  C   UNL     2      -7.625   4.021  65.354  1.00  0.00    -0.082 A  
ENDBRANCH  13  14
ENDBRANCH   4  13
TORSDOF 2
ENDMDL
MODEL      200
REMARK 921   NORMALIZED FREE ENERGY PREDICTED BY IDOCK:   -2.05 KCAL/MOL
REMARK 922        TOTAL FREE ENERGY PREDICTED BY IDOCK:   -2.99 KCAL/MOL
REMARK 923 INTER-LIGAND FREE ENERGY PREDICTED BY IDOCK:   -2.32 KCAL/MOL
REMARK 924 INTRA-LIGAND FREE ENERGY PREDICTED BY IDOCK:   -0.66 KCAL/MOL
REMARK 927      BINDING AFFINITY PREDICTED BY RF-SCORE:    0.00 PKD
ROOT
HETATM    1 BR   UNL     1     -12.143  14.066  64.061  1.00  0.00    -0.319 Br 
HETATM    2  C   UNL     2     -11.945  15.311  71.631  1.00  0.00    -0.372 C  
HETATM    3  C   UNL     2     -10.933  14.594  70.696  1.00  0.00     0.072 C  
HETATM    4  C   UNL     2     -11.290  13.132  70.297  1.00  0.00     0.343 C  
HETATM    5  C   UNL     2     -12.756  12.702  70.602  1.00  0.00    -0.141 C  
HETATM    6  C   UNL     2     -13.577  15.340  69.580  1.00  0.00     1.661 C  
HETATM    7  C   UNL     2     -13.554  13.628  71.551  1.00  0.00    -0.219 C  
HETATM    8  C   UNL     2     -11.910  14.623  73.000  1.00  0.00     0.069 C  
HETATM    9  O   UNL     2     -13.094  14.650  73.816  1.00  0.00    -0.423 OA 
HETATM   10  N   UNL     2     -13.376  15.100  71.074  1.00  0.00    -0.443 N  
HETATM   11  C   UNL     2     -14.385  16.062  71.750  1.00  0.00     0.619 C  
HETATM   12  C   UNL     2     -12.927  13.537  72.937  1.00  0.00     0.107 C  
ENDROOT
BRANCH   4  13
HETATM   13  O   UNL     2     -11.032  12.862  68.861  1.00  0.00    -0.243 OA 
BRANCH  13  14
HETATM   14  C   UNL     2     -11.149  11.574  68.392  1.00  0.00    -0.235 C  
HETATM   15  C   UNL     2     -10.556   9.302  69.488  1.00  0.00    -0.236 A  
HETATM   16  O   UNL     2     -12.033  11.257  67.621  1.00  0.00    -0.634 OA 
HETATM   17  C   UNL     2      -9.192  10.292  67.589  1.00  0.00    -0.144 C  
HETATM   18  C   UNL     2     -10.022  10.604  68.851  1.00  0.00    -0.213 C  
HETATM   19  O   UNL     2      -8.724  11.464  66.923  1.00  0.00    -0.154 OA 
HETATM   20  C   UNL     2     -10.096   8.012  69.131  1.00  0.00    -0.202 A  
HETATM   21  C   UNL     2     -10.694   6.846  69.634  1.00  0.00    -0.276 A  
HETATM   22  H   UNL     2      -8.213  11.272  66.146  1.00  0.00     0.000 HD 
HETATM   23  C   UNL     2     -11.738   6.953  70.544  1.00  0.00    -0.401 A  
HETATM   24  C   UNL     2     -12.125   8.209  71.004  1.00  0.00    -0.223 A  
HETATM   25  C   UNL     2     -11.527   9.368  70.494  1.00  0.00    -0.317 A  
ENDBRANCH  13  14
ENDBRANCH   4  13
TORSDOF 2
ENDMDL
MODEL      201
REMARK 921   NORMALIZED FREE ENERGY PREDICTED BY IDOCK:   -1.95 KCAL/MOL
REMARK 922        TOTAL FREE ENERGY PREDICTED BY IDOCK:   -2.87 KCAL/MOL
REMARK 923 INTER-LIGAND FREE ENERGY PREDICTED BY IDOCK:   -4.48 KCAL/MOL
REMARK 924 INTRA-LIGAND FREE ENERGY PREDICTED BY IDOCK:    1.61 KCAL/MOL
REMARK 927      BINDING AFFINITY PREDICTED BY RF-SCORE:    0.00 PKD
ROOT
HETATM    1 BR   UNL     1      -8.064  16.912  68.090  1.00  0.00    -0.209 Br 
HETATM    2  C   UNL     2      -6.725   9.364  68.466  1.00  0.00    -0.058 C  
HETATM    3  C   UNL     2      -7.607  10.189  67.488  1.00  0.00    -0.091 C  
HETATM    4  C   UNL     2      -9.003  10.619  68.026  1.00  0.00    -0.140 C  
HETATM    5  C   UNL     2      -9.196  10.464  69.564  1.00  0.00    -0.143 C  
HETATM    6  C   UNL     2      -6.482  11.572  69.858  1.00  0.00    -0.106 C  
HETATM    7  C   UNL     2      -8.140   9.605  70.300  1.00  0.00    -0.183 C  
HETATM    8  C   UNL     2      -7.384   7.997  68.676  1.00  0.00    -0.089 C  
HETATM    9  O   UNL     2      -7.160   7.307  69.918  1.00  0.00    -0.062 OA 
HETATM   10  N   UNL     2      -6.723  10.064  69.848  1.00  0.00    -0.083 N  
HETATM   11  C   UNL     2      -5.604   9.499  70.758  1.00  0.00    -0.057 C  
HETATM   12  C   UNL     2      -8.302   8.161  69.837  1.00  0.00    -0.123 C  
ENDROOT
BRANCH   4  13
HETATM   13  O   UNL     2      -9.336  12.020  67.670  1.00  0.00    -0.176 OA 
BRANCH  13  14
HETATM   14  C   UNL     2     -10.607  12.486  67.913  1.00  0.00    -0.218 C  
HETATM   15  C   UNL     2     -11.661  13.533  70.036  1.00  0.00    -0.234 A  
HETATM   16  O   UNL     2     -11.282  12.978  67.029  1.00  0.00    -0.269 OA 
HETATM   17  C   UNL     2     -12.244  11.193  69.241  1.00  0.00    -0.226 C  
HETATM   18  C   UNL     2     -11.128  12.251  69.360  1.00  0.00    -0.166 C  
HETATM   19  O   UNL     2     -11.824  10.008  68.567  1.00  0.00    -0.575 OA 
HETATM   20  C   UNL     2     -12.904  13.602  70.709  1.00  0.00    -0.273 A  
HETATM   21  C   UNL     2     -13.416  14.814  71.198  1.00  0.00    -0.450 A  
HETATM   22  H   UNL     2     -12.512   9.357  68.493  1.00  0.00     0.000 HD 
HETATM   23  C   UNL     2     -12.667  15.976  71.061  1.00  0.00    -0.050 A  
HETATM   24  C   UNL     2     -11.389  15.911  70.513  1.00  0.00    -0.409 A  
HETATM   25  C   UNL     2     -10.886  14.698  70.024  1.00  0.00    -0.094 A  
ENDBRANCH  13  14
ENDBRANCH   4  13
TORSDOF 2
ENDMDL
MODEL      202
REMARK 921   NORMALIZED FREE ENERGY PREDICTED BY IDOCK:   -1.87 KCAL/MOL
REMARK 922        TOTAL FREE ENERGY PREDICTED BY IDOCK:   -2.79 KCAL/MOL
REMARK 923 INTER-LIGAND FREE ENERGY PREDICTED BY IDOCK:   -5.18 KCAL/MOL
REMARK 924 INTRA-LIGAND FREE ENERGY PREDICTED BY IDOCK:    2.39 KCAL/MOL
REMARK 927      BINDING AFFINITY PREDICTED BY RF-SCORE:    0.00 PKD
ROOT
HETATM    1 BR   UNL     1     -11.457  15.542  71.737  1.00  0.00    -0.492 Br 
HETATM    2  C   UNL     2      -7.389  11.330  66.776  1.00  0.00    -0.146 C  
HETATM    3  C   UNL     2      -8.908  11.321  67.106  1.00  0.00    -0.153 C  
HETATM    4  C   UNL     2      -9.319  10.562  68.403  1.00  0.00    -0.158 C  
HETATM    5  C   UNL     2      -8.146  10.210  69.364  1.00  0.00    -0.163 C  
HETATM    6  C   UNL     2      -7.111  12.919  68.842  1.00  0.00    -0.063 C  
HETATM    7  C   UNL     2      -6.720  10.339  68.775  1.00  0.00    -0.053 C  
HETATM    8  C   UNL     2      -6.963   9.902  66.421  1.00  0.00    -0.095 C  
HETATM    9  O   UNL     2      -5.602   9.507  66.666  1.00  0.00    -0.045 OA 
HETATM   10  N   UNL     2      -6.603  11.715  68.054  1.00  0.00    -0.060 N  
HETATM   11  C   UNL     2      -5.135  12.077  67.718  1.00  0.00    -0.067 C  
HETATM   12  C   UNL     2      -6.554   9.267  67.704  1.00  0.00    -0.064 C  
ENDROOT
BRANCH   4  13
HETATM   13  O   UNL     2     -10.337  11.303  69.188  1.00  0.00    -0.202 OA 
BRANCH  13  14
HETATM   14  C   UNL     2     -11.112  12.246  68.556  1.00  0.00    -0.249 C  
HETATM   15  C   UNL     2     -11.048  13.157  66.131  1.00  0.00    -0.301 A  
HETATM   16  O   UNL     2     -12.277  12.414  68.856  1.00  0.00    -0.183 OA 
HETATM   17  C   UNL     2     -10.289  14.538  68.122  1.00  0.00    -0.232 C  
HETATM   18  C   UNL     2     -10.360  13.123  67.513  1.00  0.00    -0.225 C  
HETATM   19  O   UNL     2      -9.717  14.558  69.429  1.00  0.00    -0.416 OA 
HETATM   20  C   UNL     2     -11.299  14.350  65.413  1.00  0.00    -0.339 A  
HETATM   21  C   UNL     2     -12.042  14.356  64.222  1.00  0.00    -0.461 A  
HETATM   22  H   UNL     2      -9.674  15.429  69.804  1.00  0.00     0.000 HD 
HETATM   23  C   UNL     2     -12.510  13.156  63.703  1.00  0.00    -0.374 A  
HETATM   24  C   UNL     2     -12.170  11.958  64.325  1.00  0.00    -0.331 A  
HETATM   25  C   UNL     2     -11.431  11.959  65.516  1.00  0.00    -0.311 A  
ENDBRANCH  13  14
ENDBRANCH   4  13
TORSDOF 2
ENDMDL
MODEL      203
REMARK 921   NORMALIZED FREE ENERGY PREDICTED BY IDOCK:   -1.85 KCAL/MOL
REMARK 922        TOTAL FREE ENERGY PREDICTED BY IDOCK:   -2.77 KCAL/MOL
REMARK 923 INTER-LIGAND FREE ENERGY PREDICTED BY IDOCK:   -2.54 KCAL/MOL
REMARK 924 INTRA-LIGAND FREE ENERGY PREDICTED BY IDOCK:   -0.22 KCAL/MOL
REMARK 927      BINDING AFFINITY PREDICTED BY RF-SCORE:    0.00 PKD
ROOT
HETATM    1 BR   UNL     1      -5.300  15.867  70.519  1.00  0.00    -0.146 Br 
HETATM    2  C   UNL     2      -6.103   9.411  66.448  1.00  0.00    -0.060 C  
HETATM    3  C   UNL     2      -6.524  10.872  66.125  1.00  0.00    -0.114 C  
HETATM    4  C   UNL     2      -7.835  11.368  66.802  1.00  0.00    -0.157 C  
HETATM    5  C   UNL     2      -8.363  10.473  67.962  1.00  0.00    -0.116 C  
HETATM    6  C   UNL     2      -5.566  10.269  68.866  1.00  0.00    -0.041 C  
HETATM    7  C   UNL     2      -7.738   9.060  68.069  1.00  0.00    -0.097 C  
HETATM    8  C   UNL     2      -7.128   8.462  65.820  1.00  0.00    -0.071 C  
HETATM    9  O   UNL     2      -7.344   7.177  66.430  1.00  0.00    -0.076 OA 
HETATM   10  N   UNL     2      -6.189   9.194  67.980  1.00  0.00    -0.050 N  
HETATM   11  C   UNL     2      -5.463   7.892  68.400  1.00  0.00    -0.032 C  
HETATM   12  C   UNL     2      -8.180   8.256  66.852  1.00  0.00    -0.103 C  
ENDROOT
BRANCH   4  13
HETATM   13  O   UNL     2      -7.710  12.751  67.324  1.00  0.00    -0.163 OA 
BRANCH  13  14
HETATM   14  C   UNL     2      -8.347  13.083  68.497  1.00  0.00    -0.057 C  
HETATM   15  C   UNL     2     -10.862  13.379  69.043  1.00  0.00    -0.220 A  
HETATM   16  O   UNL     2      -7.890  12.768  69.578  1.00  0.00     0.590 OA 
HETATM   17  C   UNL     2      -9.264  15.346  68.892  1.00  0.00    -0.216 C  
HETATM   18  C   UNL     2      -9.623  13.957  68.326  1.00  0.00    -0.218 C  
HETATM   19  O   UNL     2      -8.088  15.902  68.307  1.00  0.00    -0.139 OA 
HETATM   20  C   UNL     2     -11.708  14.144  69.881  1.00  0.00    -0.372 A  
HETATM   21  C   UNL     2     -12.748  13.558  70.620  1.00  0.00    -0.275 A  
HETATM   22  H   UNL     2      -7.866  16.757  68.656  1.00  0.00     0.000 HD 
HETATM   23  C   UNL     2     -12.988  12.196  70.498  1.00  0.00     0.221 A  
HETATM   24  C   UNL     2     -12.249  11.445  69.588  1.00  0.00    -0.316 A  
HETATM   25  C   UNL     2     -11.211  12.036  68.856  1.00  0.00    -0.315 A  
ENDBRANCH  13  14
ENDBRANCH   4  13
TORSDOF 2
ENDMDL
MODEL      204
REMARK 921   NORMALIZED FREE ENERGY PREDICTED BY IDOCK:   -1.71 KCAL/MOL
REMARK 922        TOTAL FREE ENERGY PREDICTED BY IDOCK:   -2.61 KCAL/MOL
REMARK 923 INTER-LIGAND FREE ENERGY PREDICTED BY IDOCK:   -2.76 KCAL/MOL
REMARK 924 INTRA-LIGAND FREE ENERGY PREDICTED BY IDOCK:    0.15 KCAL/MOL
REMARK 927      BINDING AFFINITY PREDICTED BY RF-SCORE:    0.00 PKD
ROOT
HETATM    1 BR   UNL     1     -10.584  10.095  67.171  1.00  0.00    -0.290 Br 
HETATM    2  C   UNL     2      -8.267   5.390  72.774  1.00  0.00    -0.109 C  
HETATM    3  C   UNL     2      -7.684   5.641  71.356  1.00  0.00    -0.109 C  
HETATM    4  C   UNL     2      -8.417   4.925  70.182  1.00  0.00    -0.087 C  
HETATM    5  C   UNL     2      -9.816   4.339  70.534  1.00  0.00    -0.269 C  
HETATM    6  C   UNL     2     -10.316   6.837  72.015  1.00  0.00    -0.196 C  
HETATM    7  C   UNL     2     -10.151   4.232  72.042  1.00  0.00    -0.174 C  
HETATM    8  C   UNL     2      -8.033   3.921  73.142  1.00  0.00    -0.087 C  
HETATM    9  O   UNL     2      -8.946   3.283  74.051  1.00  0.00    -0.083 OA 
HETATM   10  N   UNL     2      -9.803   5.588  72.725  1.00  0.00    -0.163 N  
HETATM   11  C   UNL     2     -10.398   5.695  74.152  1.00  0.00    -0.281 C  
HETATM   12  C   UNL     2      -9.230   3.183  72.655  1.00  0.00    -0.092 C  
ENDROOT
BRANCH   4  13
HETATM   13  O   UNL     2      -8.584   5.809  69.002  1.00  0.00    -0.106 OA 
BRANCH  13  14
HETATM   14  C   UNL     2      -7.680   6.825  68.796  1.00  0.00    -0.110 C  
HETATM   15  C   UNL     2      -6.537   7.673  66.631  1.00  0.00    -0.057 A  
HETATM   16  O   UNL     2      -7.680   7.824  69.488  1.00  0.00    -0.100 OA 
HETATM   17  C   UNL     2      -5.277   6.381  68.417  1.00  0.00    -0.008 C  
HETATM   18  C   UNL     2      -6.624   6.549  67.686  1.00  0.00    -0.061 C  
HETATM   19  O   UNL     2      -5.317   5.396  69.448  1.00  0.00    -0.003 OA 
HETATM   20  C   UNL     2      -5.317   8.249  66.202  1.00  0.00    -0.028 A  
HETATM   21  C   UNL     2      -5.282   9.355  65.340  1.00  0.00    -0.036 A  
HETATM   22  H   UNL     2      -4.487   5.293  69.898  1.00  0.00     0.000 HD 
HETATM   23  C   UNL     2      -6.472   9.880  64.854  1.00  0.00    -0.111 A  
HETATM   24  C   UNL     2      -7.677   9.255  65.164  1.00  0.00    -0.108 A  
HETATM   25  C   UNL     2      -7.705   8.153  66.028  1.00  0.00    -0.090 A  
ENDBRANCH  13  14
ENDBRANCH   4  13
TORSDOF 2
ENDMDL
MODEL      205
REMARK 921   NORMALIZED FREE ENERGY PREDICTED BY IDOCK:   -1.60 KCAL/MOL
REMARK 922        TOTAL FREE ENERGY PREDICTED BY IDOCK:   -2.48 KCAL/MOL
REMARK 923 INTER-LIGAND FREE ENERGY PREDICTED BY IDOCK:   -2.13 KCAL/MOL
REMARK 924 INTRA-LIGAND FREE ENERGY PREDICTED BY IDOCK:   -0.35 KCAL/MOL
REMARK 927      BINDING AFFINITY PREDICTED BY RF-SCORE:    0.00 PKD
ROOT
HETATM    1 BR   UNL     1     -10.582   8.376  66.814  1.00  0.00    -0.043 Br 
HETATM    2  C   UNL     2      -8.200   4.423  72.945  1.00  0.00    -0.095 C  
HETATM    3  C   UNL     2      -7.625   4.501  71.504  1.00  0.00    -0.081 C  
HETATM    4  C   UNL     2      -8.355   3.639  70.431  1.00  0.00    -0.056 C  
HETATM    5  C   UNL     2      -9.747   3.089  70.860  1.00  0.00    -0.155 C  
HETATM    6  C   UNL     2     -10.266   5.746  72.022  1.00  0.00    -0.201 C  
HETATM    7  C   UNL     2     -10.075   3.166  72.371  1.00  0.00    -0.157 C  
HETATM    8  C   UNL     2      -7.950   3.013  73.490  1.00  0.00    -0.068 C  
HETATM    9  O   UNL     2      -8.854   2.484  74.476  1.00  0.00    -0.070 OA 
HETATM   10  N   UNL     2      -9.738   4.599  72.879  1.00  0.00    -0.134 N  
HETATM   11  C   UNL     2     -10.328   4.876  74.284  1.00  0.00    -0.275 C  
HETATM   12  C   UNL     2      -9.142   2.209  73.104  1.00  0.00    -0.073 C  
ENDROOT
BRANCH   4  13
HETATM   13  O   UNL     2      -8.534   4.368  69.152  1.00  0.00    -0.077 OA 
BRANCH  13  14
HETATM   14  C   UNL     2      -7.471   4.468  68.285  1.00  0.00    -0.065 C  
HETATM   15  C   UNL     2      -7.324   4.119  65.722  1.00  0.00    -0.077 A  
HETATM   16  O   UNL     2      -6.561   5.248  68.485  1.00  0.00    -0.042 OA 
HETATM   17  C   UNL     2      -6.332   2.469  67.377  1.00  0.00    -0.032 C  
HETATM   18  C   UNL     2      -7.488   3.453  67.105  1.00  0.00    -0.071 C  
HETATM   19  O   UNL     2      -6.398   1.869  68.670  1.00  0.00    -0.025 OA 
HETATM   20  C   UNL     2      -6.413   3.664  64.739  1.00  0.00    -0.035 A  
HETATM   21  C   UNL     2      -6.197   4.370  63.545  1.00  0.00    -0.018 A  
HETATM   22  H   UNL     2      -5.686   1.264  68.837  1.00  0.00     0.000 HD 
HETATM   23  C   UNL     2      -6.926   5.525  63.294  1.00  0.00    -0.038 A  
HETATM   24  C   UNL     2      -7.915   5.923  64.189  1.00  0.00    -0.122 A  
HETATM   25  C   UNL     2      -8.123   5.216  65.380  1.00  0.00    -0.118 A  
ENDBRANCH  13  14
ENDBRANCH   4  13
TORSDOF 2
ENDMDL
MODEL      206
REMARK 921   NORMALIZED FREE ENERGY PREDICTED BY IDOCK:   -1.54 KCAL/MOL
REMARK 922        TOTAL FREE ENERGY PREDICTED BY IDOCK:   -2.42 KCAL/MOL
REMARK 923 INTER-LIGAND FREE ENERGY PREDICTED BY IDOCK:   -1.89 KCAL/MOL
REMARK 924 INTRA-LIGAND FREE ENERGY PREDICTED BY IDOCK:   -0.53 KCAL/MOL
REMARK 927      BINDING AFFINITY PREDICTED BY RF-SCORE:    0.00 PKD
ROOT
HETATM    1 BR   UNL     1      -7.480   9.169  72.629  1.00  0.00     0.890 Br 
HETATM    2  C   UNL     2      -7.471   8.233  65.012  1.00  0.00    -0.090 C  
HETATM    3  C   UNL     2      -8.418   7.659  66.103  1.00  0.00    -0.147 C  
HETATM    4  C   UNL     2      -7.877   6.434  66.898  1.00  0.00    -0.104 C  
HETATM    5  C   UNL     2      -6.352   6.161  66.738  1.00  0.00    -0.045 C  
HETATM    6  C   UNL     2      -5.965   9.071  66.987  1.00  0.00    -0.057 C  
HETATM    7  C   UNL     2      -5.647   6.899  65.575  1.00  0.00    -0.031 C  
HETATM    8  C   UNL     2      -7.340   7.197  63.891  1.00  0.00    -0.088 C  
HETATM    9  O   UNL     2      -6.132   7.175  63.110  1.00  0.00    -0.043 OA 
HETATM   10  N   UNL     2      -6.055   8.401  65.618  1.00  0.00    -0.045 N  
HETATM   11  C   UNL     2      -5.160   9.279  64.709  1.00  0.00    -0.044 C  
HETATM   12  C   UNL     2      -6.185   6.336  64.264  1.00  0.00    -0.030 C  
ENDROOT
BRANCH   4  13
HETATM   13  O   UNL     2      -8.166   6.535  68.350  1.00  0.00    -0.113 OA 
BRANCH  13  14
HETATM   14  C   UNL     2      -9.348   6.025  68.833  1.00  0.00    -0.123 C  
HETATM   15  C   UNL     2     -10.633   6.494  71.033  1.00  0.00    -0.275 A  
HETATM   16  O   UNL     2     -10.245   5.687  68.085  1.00  0.00    -0.160 OA 
HETATM   17  C   UNL     2      -9.403   4.313  70.616  1.00  0.00    -0.143 C  
HETATM   18  C   UNL     2      -9.401   5.836  70.376  1.00  0.00    -0.186 C  
HETATM   19  O   UNL     2      -8.317   3.643  69.978  1.00  0.00    -0.055 OA 
HETATM   20  C   UNL     2     -11.469   5.833  71.964  1.00  0.00    -0.260 A  
HETATM   21  C   UNL     2     -12.654   6.415  72.441  1.00  0.00     0.054 A  
HETATM   22  H   UNL     2      -8.319   2.705  70.125  1.00  0.00     0.000 HD 
HETATM   23  C   UNL     2     -13.001   7.694  72.027  1.00  0.00    -0.225 A  
HETATM   24  C   UNL     2     -12.133   8.412  71.209  1.00  0.00    -0.315 A  
HETATM   25  C   UNL     2     -10.953   7.824  70.734  1.00  0.00    -0.259 A  
ENDBRANCH  13  14
ENDBRANCH   4  13
TORSDOF 2
ENDMDL
MODEL      207
REMARK 921   NORMALIZED FREE ENERGY PREDICTED BY IDOCK:   -1.32 KCAL/MOL
REMARK 922        TOTAL FREE ENERGY PREDICTED BY IDOCK:   -2.17 KCAL/MOL
REMARK 923 INTER-LIGAND FREE ENERGY PREDICTED BY IDOCK:   -2.04 KCAL/MOL
REMARK 924 INTRA-LIGAND FREE ENERGY PREDICTED BY IDOCK:   -0.13 KCAL/MOL
REMARK 927      BINDING AFFINITY PREDICTED BY RF-SCORE:    0.00 PKD
ROOT
HETATM    1 BR   UNL     1     -13.818  13.198  72.203  1.00  0.00    -0.404 Br 
HETATM    2  C   UNL     2      -7.919  13.540  67.304  1.00  0.00    -0.112 C  
HETATM    3  C   UNL     2      -9.039  12.475  67.470  1.00  0.00    -0.187 C  
HETATM    4  C   UNL     2      -8.845  11.459  68.634  1.00  0.00    -0.125 C  
HETATM    5  C   UNL     2      -7.752  11.844  69.674  1.00  0.00     0.805 C  
HETATM    6  C   UNL     2      -8.809  14.590  69.535  1.00  0.00     0.334 C  
HETATM    7  C   UNL     2      -6.779  12.973  69.254  1.00  0.00    -0.062 C  
HETATM    8  C   UNL     2      -6.638  12.830  66.857  1.00  0.00     0.493 C  
HETATM    9  O   UNL     2      -5.369  13.413  67.204  1.00  0.00    -0.313 OA 
HETATM   10  N   UNL     2      -7.612  14.161  68.690  1.00  0.00    -0.123 N  
HETATM   11  C   UNL     2      -6.769  15.453  68.548  1.00  0.00    -0.113 C  
HETATM   12  C   UNL     2      -5.922  12.453  68.106  1.00  0.00    -0.062 C  
ENDROOT
BRANCH   4  13
HETATM   13  O   UNL     2     -10.104  11.209  69.378  1.00  0.00    -0.111 OA 
BRANCH  13  14
HETATM   14  C   UNL     2     -10.739   9.998  69.228  1.00  0.00    -0.224 C  
HETATM   15  C   UNL     2     -10.337   7.711  70.377  1.00  0.00    -0.214 A  
HETATM   16  O   UNL     2     -11.918   9.932  68.942  1.00  0.00     0.250 OA 
HETATM   17  C   UNL     2      -9.727   8.139  67.950  1.00  0.00    -0.161 C  
HETATM   18  C   UNL     2      -9.817   8.752  69.362  1.00  0.00    -0.186 C  
HETATM   19  O   UNL     2      -9.310   9.076  66.958  1.00  0.00    -0.140 OA 
HETATM   20  C   UNL     2     -10.427   6.326  70.099  1.00  0.00    -0.278 A  
HETATM   21  C   UNL     2     -11.025   5.427  70.995  1.00  0.00    -0.120 A  
HETATM   22  H   UNL     2      -9.255   8.698  66.088  1.00  0.00     0.000 HD 
HETATM   23  C   UNL     2     -11.506   5.894  72.212  1.00  0.00    -0.351 A  
HETATM   24  C   UNL     2     -11.318   7.229  72.559  1.00  0.00    -0.338 A  
HETATM   25  C   UNL     2     -10.723   8.122  71.658  1.00  0.00    -0.299 A  
ENDBRANCH  13  14
ENDBRANCH   4  13
TORSDOF 2
ENDMDL
MODEL      208
REMARK 921   NORMALIZED FREE ENERGY PREDICTED BY IDOCK:   -1.26 KCAL/MOL
REMARK 922        TOTAL FREE ENERGY PREDICTED BY IDOCK:   -2.10 KCAL/MOL
REMARK 923 INTER-LIGAND FREE ENERGY PREDICTED BY IDOCK:   -4.81 KCAL/MOL
REMARK 924 INTRA-LIGAND FREE ENERGY PREDICTED BY IDOCK:    2.71 KCAL/MOL
REMARK 927      BINDING AFFINITY PREDICTED BY RF-SCORE:    0.00 PKD
ROOT
HETATM    1 BR   UNL     1      -6.042  18.589  69.730  1.00  0.00    -0.199 Br 
HETATM    2  C   UNL     2     -10.172  12.172  68.915  1.00  0.00    -0.036 C  
HETATM    3  C   UNL     2      -8.936  12.688  68.128  1.00  0.00    -0.199 C  
HETATM    4  C   UNL     2      -9.220  13.773  67.048  1.00  0.00    -0.251 C  
HETATM    5  C   UNL     2     -10.627  14.436  67.130  1.00  0.00    -0.277 C  
HETATM    6  C   UNL     2     -10.238  14.535  70.049  1.00  0.00     0.407 C  
HETATM    7  C   UNL     2     -11.668  13.719  68.023  1.00  0.00    -0.355 C  
HETATM    8  C   UNL     2     -11.068  11.389  67.950  1.00  0.00    -0.261 C  
HETATM    9  O   UNL     2     -12.482  11.333  68.212  1.00  0.00    -0.317 OA 
HETATM   10  N   UNL     2     -11.004  13.389  69.392  1.00  0.00    -0.099 N  
HETATM   11  C   UNL     2     -12.043  12.970  70.462  1.00  0.00    -0.292 C  
HETATM   12  C   UNL     2     -12.010  12.385  67.369  1.00  0.00    -0.175 C  
ENDROOT
BRANCH   4  13
HETATM   13  O   UNL     2      -8.210  14.859  67.062  1.00  0.00    -0.206 OA 
BRANCH  13  14
HETATM   14  C   UNL     2      -8.433  15.989  66.311  1.00  0.00    -0.302 C  
HETATM   15  C   UNL     2      -9.999  18.015  66.704  1.00  0.00    -0.362 A  
HETATM   16  O   UNL     2      -7.556  16.479  65.627  1.00  0.00     0.427 OA 
HETATM   17  C   UNL     2     -10.465  16.261  64.929  1.00  0.00     0.014 C  
HETATM   18  C   UNL     2      -9.896  16.518  66.338  1.00  0.00    -0.311 C  
HETATM   19  O   UNL     2     -10.339  14.902  64.513  1.00  0.00    -0.489 OA 
HETATM   20  C   UNL     2     -10.774  18.947  65.972  1.00  0.00    -0.373 A  
HETATM   21  C   UNL     2     -10.742  20.321  66.254  1.00  0.00    -0.094 A  
HETATM   22  H   UNL     2     -10.689  14.744  63.644  1.00  0.00     0.000 HD 
HETATM   23  C   UNL     2      -9.965  20.784  67.308  1.00  0.00    -0.348 A  
HETATM   24  C   UNL     2      -9.292  19.874  68.119  1.00  0.00    -0.406 A  
HETATM   25  C   UNL     2      -9.326  18.503  67.830  1.00  0.00    -0.308 A  
ENDBRANCH  13  14
ENDBRANCH   4  13
TORSDOF 2
ENDMDL
MODEL      209
REMARK 921   NORMALIZED FREE ENERGY PREDICTED BY IDOCK:   -1.08 KCAL/MOL
REMARK 922        TOTAL FREE ENERGY PREDICTED BY IDOCK:   -1.90 KCAL/MOL
REMARK 923 INTER-LIGAND FREE ENERGY PREDICTED BY IDOCK:   -1.29 KCAL/MOL
REMARK 924 INTRA-LIGAND FREE ENERGY PREDICTED BY IDOCK:   -0.61 KCAL/MOL
REMARK 927      BINDING AFFINITY PREDICTED BY RF-SCORE:    0.00 PKD
ROOT
HETATM    1 BR   UNL     1     -11.133   6.563  66.681  1.00  0.00     0.224 Br 
HETATM    2  C   UNL     2      -6.761   4.118  72.496  1.00  0.00    -0.041 C  
HETATM    3  C   UNL     2      -6.670   3.835  70.971  1.00  0.00    -0.032 C  
HETATM    4  C   UNL     2      -7.654   2.764  70.416  1.00  0.00    -0.043 C  
HETATM    5  C   UNL     2      -8.813   2.369  71.377  1.00  0.00    -0.125 C  
HETATM    6  C   UNL     2      -9.075   5.239  71.988  1.00  0.00    -0.137 C  
HETATM    7  C   UNL     2      -8.657   2.812  72.852  1.00  0.00    -0.071 C  
HETATM    8  C   UNL     2      -6.284   2.872  73.249  1.00  0.00    -0.012 C  
HETATM    9  O   UNL     2      -6.807   2.618  74.564  1.00  0.00    -0.029 OA 
HETATM   10  N   UNL     2      -8.250   4.315  72.879  1.00  0.00    -0.093 N  
HETATM   11  C   UNL     2      -8.385   4.934  74.292  1.00  0.00    -0.102 C  
HETATM   12  C   UNL     2      -7.495   2.032  73.457  1.00  0.00    -0.037 C  
ENDROOT
BRANCH   4  13
HETATM   13  O   UNL     2      -8.260   3.172  69.125  1.00  0.00    -0.058 OA 
BRANCH  13  14
HETATM   14  C   UNL     2      -7.443   3.634  68.120  1.00  0.00    -0.061 C  
HETATM   15  C   UNL     2      -7.185   5.996  67.086  1.00  0.00    -0.075 A  
HETATM   16  O   UNL     2      -6.344   3.153  67.924  1.00  0.00    -0.031 OA 
HETATM   17  C   UNL     2      -8.295   4.082  65.842  1.00  0.00    -0.109 C  
HETATM   18  C   UNL     2      -8.069   4.738  67.219  1.00  0.00    -0.102 C  
HETATM   19  O   UNL     2      -9.057   2.877  65.913  1.00  0.00    -0.142 OA 
HETATM   20  C   UNL     2      -6.883   6.612  65.848  1.00  0.00    -0.053 A  
HETATM   21  C   UNL     2      -5.971   7.674  65.750  1.00  0.00    -0.038 A  
HETATM   22  H   UNL     2      -9.195   2.473  65.065  1.00  0.00     0.000 HD 
HETATM   23  C   UNL     2      -5.377   8.171  66.903  1.00  0.00    -0.032 A  
HETATM   24  C   UNL     2      -5.751   7.664  68.144  1.00  0.00    -0.028 A  
HETATM   25  C   UNL     2      -6.659   6.601  68.234  1.00  0.00    -0.059 A  
ENDBRANCH  13  14
ENDBRANCH   4  13
TORSDOF 2
ENDMDL
MODEL      210
REMARK 921   NORMALIZED FREE ENERGY PREDICTED BY IDOCK:   -0.93 KCAL/MOL
REMARK 922        TOTAL FREE ENERGY PREDICTED BY IDOCK:   -1.74 KCAL/MOL
REMARK 923 INTER-LIGAND FREE ENERGY PREDICTED BY IDOCK:   -1.63 KCAL/MOL
REMARK 924 INTRA-LIGAND FREE ENERGY PREDICTED BY IDOCK:   -0.11 KCAL/MOL
REMARK 927      BINDING AFFINITY PREDICTED BY RF-SCORE:    0.00 PKD
ROOT
HETATM    1 BR   UNL     1     -12.476  13.162  64.698  1.00  0.00    -0.408 Br 
HETATM    2  C   UNL     2      -6.043  11.166  68.376  1.00  0.00    -0.045 C  
HETATM    3  C   UNL     2      -6.812  10.462  67.224  1.00  0.00    -0.081 C  
HETATM    4  C   UNL     2      -8.069   9.644  67.644  1.00  0.00    -0.113 C  
HETATM    5  C   UNL     2      -8.581   9.912  69.089  1.00  0.00    -0.157 C  
HETATM    6  C   UNL     2      -8.107  12.771  68.559  1.00  0.00    -0.080 C  
HETATM    7  C   UNL     2      -7.610  10.671  70.027  1.00  0.00     0.177 C  
HETATM    8  C   UNL     2      -5.404  10.091  69.260  1.00  0.00    -0.035 C  
HETATM    9  O   UNL     2      -5.177  10.384  70.650  1.00  0.00    -0.051 OA 
HETATM   10  N   UNL     2      -7.062  11.916  69.270  1.00  0.00    -0.054 N  
HETATM   11  C   UNL     2      -6.346  12.910  70.219  1.00  0.00     0.125 C  
HETATM   12  C   UNL     2      -6.416   9.764  70.302  1.00  0.00    -0.093 C  
ENDROOT
BRANCH   4  13
HETATM   13  O   UNL     2      -9.209   9.850  66.717  1.00  0.00    -0.144 OA 
BRANCH  13  14
HETATM   14  C   UNL     2      -9.268   9.114  65.557  1.00  0.00    -0.224 C  
HETATM   15  C   UNL     2      -8.204   6.838  64.928  1.00  0.00    -0.082 A  
HETATM   16  O   UNL     2     -10.249   9.139  64.840  1.00  0.00     0.797 OA 
HETATM   17  C   UNL     2      -7.383   9.036  63.958  1.00  0.00    -0.100 C  
HETATM   18  C   UNL     2      -7.967   8.338  65.204  1.00  0.00    -0.128 C  
HETATM   19  O   UNL     2      -7.201  10.440  64.137  1.00  0.00    -0.287 OA 
HETATM   20  C   UNL     2      -7.681   6.158  63.801  1.00  0.00    -0.109 A  
HETATM   21  C   UNL     2      -8.023   4.828  63.513  1.00  0.00    -0.091 A  
HETATM   22  H   UNL     2      -6.842  10.870  63.370  1.00  0.00     0.000 HD 
HETATM   23  C   UNL     2      -8.864   4.137  64.376  1.00  0.00    -0.138 A  
HETATM   24  C   UNL     2      -9.291   4.744  65.553  1.00  0.00    -0.163 A  
HETATM   25  C   UNL     2      -8.948   6.073  65.834  1.00  0.00    -0.144 A  
ENDBRANCH  13  14
ENDBRANCH   4  13
TORSDOF 2
ENDMDL
MODEL      211
REMARK 921   NORMALIZED FREE ENERGY PREDICTED BY IDOCK:   -0.23 KCAL/MOL
REMARK 922        TOTAL FREE ENERGY PREDICTED BY IDOCK:   -0.96 KCAL/MOL
REMARK 923 INTER-LIGAND FREE ENERGY PREDICTED BY IDOCK:   -3.46 KCAL/MOL
REMARK 924 INTRA-LIGAND FREE ENERGY PREDICTED BY IDOCK:    2.50 KCAL/MOL
REMARK 927      BINDING AFFINITY PREDICTED BY RF-SCORE:    0.00 PKD
ROOT
HETATM    1 BR   UNL     1     -10.803  16.368  71.313  1.00  0.00     0.834 Br 
HETATM    2  C   UNL     2      -9.184  10.570  66.552  1.00  0.00    -0.161 C  
HETATM    3  C   UNL     2     -10.549  11.160  67.003  1.00  0.00    -0.295 C  
HETATM    4  C   UNL     2     -11.055  10.713  68.406  1.00  0.00    -0.272 C  
HETATM    5  C   UNL     2      -9.989  10.018  69.303  1.00  0.00    -0.226 C  
HETATM    6  C   UNL     2      -8.100  12.088  68.394  1.00  0.00    -0.154 C  
HETATM    7  C   UNL     2      -8.696   9.554  68.590  1.00  0.00    -0.127 C  
HETATM    8  C   UNL     2      -9.357   9.064  66.329  1.00  0.00    -0.225 C  
HETATM    9  O   UNL     2      -8.218   8.204  66.508  1.00  0.00    -0.102 OA 
HETATM   10  N   UNL     2      -8.166  10.725  67.711  1.00  0.00    -0.111 N  
HETATM   11  C   UNL     2      -6.718  10.480  67.218  1.00  0.00    -0.077 C  
HETATM   12  C   UNL     2      -9.063   8.421  67.639  1.00  0.00    -0.135 C  
ENDROOT
BRANCH   4  13
HETATM   13  O   UNL     2     -11.629  11.840  69.181  1.00  0.00    -0.257 OA 
BRANCH  13  14
HETATM   14  C   UNL     2     -11.946  13.008  68.528  1.00  0.00    -0.261 C  
HETATM   15  C   UNL     2     -10.746  15.303  68.463  1.00  0.00    -0.247 A  
HETATM   16  O   UNL     2     -12.530  13.000  67.462  1.00  0.00    -0.126 OA 
HETATM   17  C   UNL     2     -12.928  14.945  69.711  1.00  0.00     0.244 C  
HETATM   18  C   UNL     2     -11.584  14.311  69.298  1.00  0.00    -0.350 C  
HETATM   19  O   UNL     2     -13.771  14.049  70.434  1.00  0.00     0.004 OA 
HETATM   20  C   UNL     2     -11.047  16.682  68.356  1.00  0.00    -0.305 A  
HETATM   21  C   UNL     2     -10.342  17.529  67.487  1.00  0.00    -0.356 A  
HETATM   22  H   UNL     2     -14.599  14.439  70.688  1.00  0.00     0.000 HD 
HETATM   23  C   UNL     2      -9.290  17.017  66.738  1.00  0.00    -0.268 A  
HETATM   24  C   UNL     2      -8.898  15.694  66.918  1.00  0.00    -0.279 A  
HETATM   25  C   UNL     2      -9.607  14.853  67.786  1.00  0.00    -0.208 A  
ENDBRANCH  13  14
ENDBRANCH   4  13
TORSDOF 2
ENDMDL
MODEL      212
REMARK 921   NORMALIZED FREE ENERGY PREDICTED BY IDOCK:   -0.16 KCAL/MOL
REMARK 922        TOTAL FREE ENERGY PREDICTED BY IDOCK:   -0.88 KCAL/MOL
REMARK 923 INTER-LIGAND FREE ENERGY PREDICTED BY IDOCK:   -1.51 KCAL/MOL
REMARK 924 INTRA-LIGAND FREE ENERGY PREDICTED BY IDOCK:    0.63 KCAL/MOL
REMARK 927      BINDING AFFINITY PREDICTED BY RF-SCORE:    0.00 PKD
ROOT
HETATM    1 BR   UNL     1      -7.775  10.422  62.454  1.00  0.00    -0.186 Br 
HETATM    2  C   UNL     2      -8.633  16.741  66.723  1.00  0.00    -0.232 C  
HETATM    3  C   UNL     2      -7.561  15.618  66.781  1.00  0.00    -0.125 C  
HETATM    4  C   UNL     2      -7.991  14.301  67.493  1.00  0.00    -0.188 C  
HETATM    5  C   UNL     2      -9.520  14.156  67.749  1.00  0.00    -0.207 C  
HETATM    6  C   UNL     2      -9.918  15.211  65.027  1.00  0.00    -0.143 C  
HETATM    7  C   UNL     2     -10.364  15.444  67.588  1.00  0.00    -0.262 C  
HETATM    8  C   UNL     2      -8.876  17.252  68.147  1.00  0.00    -0.239 C  
HETATM    9  O   UNL     2     -10.164  17.804  68.472  1.00  0.00    -0.349 OA 
HETATM   10  N   UNL     2      -9.974  16.129  66.245  1.00  0.00    -0.296 N  
HETATM   11  C   UNL     2     -10.978  17.235  65.837  1.00  0.00     0.168 C  
HETATM   12  C   UNL     2      -9.970  16.407  68.702  1.00  0.00    -0.235 C  
ENDROOT
BRANCH   4  13
HETATM   13  O   UNL     2      -7.542  13.093  66.760  1.00  0.00     0.191 OA 
BRANCH  13  14
HETATM   14  C   UNL     2      -7.610  11.869  67.383  1.00  0.00    -0.151 C  
HETATM   15  C   UNL     2      -9.634  10.535  68.297  1.00  0.00    -0.164 A  
HETATM   16  O   UNL     2      -6.819  10.982  67.129  1.00  0.00    -0.084 OA 
HETATM   17  C   UNL     2      -7.948  11.662  69.825  1.00  0.00     1.148 C  
HETATM   18  C   UNL     2      -8.705  11.753  68.484  1.00  0.00    -0.118 C  
HETATM   19  O   UNL     2      -7.027  12.733  70.022  1.00  0.00    -0.244 OA 
HETATM   20  C   UNL     2      -9.959   9.633  69.339  1.00  0.00    -0.207 A  
HETATM   21  C   UNL     2     -10.700   8.464  69.105  1.00  0.00    -0.123 A  
HETATM   22  H   UNL     2      -6.561  12.677  70.848  1.00  0.00     0.000 HD 
HETATM   23  C   UNL     2     -11.170   8.200  67.825  1.00  0.00     0.575 A  
HETATM   24  C   UNL     2     -10.969   9.133  66.811  1.00  0.00     0.247 A  
HETATM   25  C   UNL     2     -10.225  10.295  67.051  1.00  0.00    -0.282 A  
ENDBRANCH  13  14
ENDBRANCH   4  13
TORSDOF 2
ENDMDL
MODEL      213
REMARK 921   NORMALIZED FREE ENERGY PREDICTED BY IDOCK:   -0.07 KCAL/MOL
REMARK 922        TOTAL FREE ENERGY PREDICTED BY IDOCK:   -0.78 KCAL/MOL
REMARK 923 INTER-LIGAND FREE ENERGY PREDICTED BY IDOCK:   -0.17 KCAL/MOL
REMARK 924 INTRA-LIGAND FREE ENERGY PREDICTED BY IDOCK:   -0.61 KCAL/MOL
REMARK 927      BINDING AFFINITY PREDICTED BY RF-SCORE:    0.00 PKD
ROOT
HETATM    1 BR   UNL     1      -7.535   9.176  72.591  1.00  0.00     0.890 Br 
HETATM    2  C   UNL     2      -7.236  10.041  64.971  1.00  0.00    -0.139 C  
HETATM    3  C   UNL     2      -8.083   9.079  65.849  1.00  0.00    -0.108 C  
HETATM    4  C   UNL     2      -7.346   7.813  66.379  1.00  0.00    -0.079 C  
HETATM    5  C   UNL     2      -5.795   7.846  66.248  1.00  0.00    -0.040 C  
HETATM    6  C   UNL     2      -5.935  10.643  67.166  1.00  0.00    -0.056 C  
HETATM    7  C   UNL     2      -5.213   8.942  65.322  1.00  0.00    -0.038 C  
HETATM    8  C   UNL     2      -6.904   9.330  63.655  1.00  0.00    -0.092 C  
HETATM    9  O   UNL     2      -5.699   9.694  62.959  1.00  0.00    -0.087 OA 
HETATM   10  N   UNL     2      -5.882  10.301  65.679  1.00  0.00    -0.085 N  
HETATM   11  C   UNL     2      -5.142  11.504  65.043  1.00  0.00     1.013 C  
HETATM   12  C   UNL     2      -5.620   8.614  63.891  1.00  0.00    -0.065 C  
ENDROOT
BRANCH   4  13
HETATM   13  O   UNL     2      -7.672   7.525  67.797  1.00  0.00    -0.110 OA 
BRANCH  13  14
HETATM   14  C   UNL     2      -8.633   6.584  68.084  1.00  0.00    -0.118 C  
HETATM   15  C   UNL     2      -9.129   5.264  70.257  1.00  0.00    -0.169 A  
HETATM   16  O   UNL     2      -9.726   6.611  67.552  1.00  0.00    -0.123 OA 
HETATM   17  C   UNL     2      -8.107   4.171  68.206  1.00  0.00    -0.081 C  
HETATM   18  C   UNL     2      -8.179   5.456  69.055  1.00  0.00    -0.094 C  
HETATM   19  O   UNL     2      -7.290   4.312  67.044  1.00  0.00    -0.071 OA 
HETATM   20  C   UNL     2      -9.617   4.001  70.673  1.00  0.00    -0.260 A  
HETATM   21  C   UNL     2     -10.579   3.876  71.686  1.00  0.00     0.326 A  
HETATM   22  H   UNL     2      -7.246   3.520  66.521  1.00  0.00     0.000 HD 
HETATM   23  C   UNL     2     -11.039   5.014  72.336  1.00  0.00    -0.161 A  
HETATM   24  C   UNL     2     -10.484   6.254  72.029  1.00  0.00    -0.239 A  
HETATM   25  C   UNL     2      -9.526   6.372  71.014  1.00  0.00    -0.181 A  
ENDBRANCH  13  14
ENDBRANCH   4  13
TORSDOF 2
ENDMDL
MODEL      214
REMARK 921   NORMALIZED FREE ENERGY PREDICTED BY IDOCK:    0.00 KCAL/MOL
REMARK 922        TOTAL FREE ENERGY PREDICTED BY IDOCK:   -0.70 KCAL/MOL
REMARK 923 INTER-LIGAND FREE ENERGY PREDICTED BY IDOCK:   -0.17 KCAL/MOL
REMARK 924 INTRA-LIGAND FREE ENERGY PREDICTED BY IDOCK:   -0.53 KCAL/MOL
REMARK 927      BINDING AFFINITY PREDICTED BY RF-SCORE:    0.00 PKD
ROOT
HETATM    1 BR   UNL     1     -11.448  12.389  63.389  1.00  0.00    -0.466 Br 
HETATM    2  C   UNL     2     -11.343  15.130  70.556  1.00  0.00    -0.298 C  
HETATM    3  C   UNL     2     -10.305  14.267  69.786  1.00  0.00     0.285 C  
HETATM    4  C   UNL     2     -10.623  12.745  69.688  1.00  0.00     0.626 C  
HETATM    5  C   UNL     2     -12.080  12.348  70.069  1.00  0.00    -0.335 C  
HETATM    6  C   UNL     2     -12.958  14.706  68.536  1.00  0.00     1.661 C  
HETATM    7  C   UNL     2     -12.909  13.425  70.810  1.00  0.00    -0.150 C  
HETATM    8  C   UNL     2     -11.302  14.732  72.035  1.00  0.00     0.197 C  
HETATM    9  O   UNL     2     -12.493  14.891  72.826  1.00  0.00    -0.349 OA 
HETATM   10  N   UNL     2     -12.763  14.775  70.048  1.00  0.00    -0.221 N  
HETATM   11  C   UNL     2     -13.801  15.826  70.514  1.00  0.00     1.058 C  
HETATM   12  C   UNL     2     -12.290  13.629  72.188  1.00  0.00     0.209 C  
ENDROOT
BRANCH   4  13
HETATM   13  O   UNL     2     -10.347  12.200  68.336  1.00  0.00    -0.219 OA 
BRANCH  13  14
HETATM   14  C   UNL     2      -9.501  11.123  68.211  1.00  0.00    -0.182 C  
HETATM   15  C   UNL     2      -9.440   9.197  66.479  1.00  0.00    -0.266 A  
HETATM   16  O   UNL     2      -8.337  11.188  68.556  1.00  0.00    -0.141 OA 
HETATM   17  C   UNL     2     -10.178   8.841  68.882  1.00  0.00    -0.207 C  
HETATM   18  C   UNL     2     -10.170   9.819  67.689  1.00  0.00    -0.261 C  
HETATM   19  O   UNL     2     -10.788   9.388  70.050  1.00  0.00    -0.223 OA 
HETATM   20  C   UNL     2      -9.099   7.826  66.392  1.00  0.00    -0.216 A  
HETATM   21  C   UNL     2      -8.322   7.321  65.338  1.00  0.00    -0.127 A  
HETATM   22  H   UNL     2     -10.792   8.786  70.785  1.00  0.00     0.000 HD 
HETATM   23  C   UNL     2      -7.907   8.175  64.325  1.00  0.00    -0.137 A  
HETATM   24  C   UNL     2      -8.333   9.501  64.325  1.00  0.00    -0.172 A  
HETATM   25  C   UNL     2      -9.107   9.999  65.381  1.00  0.00    -0.235 A  
ENDBRANCH  13  14
ENDBRANCH   4  13
TORSDOF 2
ENDMDL
MODEL      215
REMARK 921   NORMALIZED FREE ENERGY PREDICTED BY IDOCK:    0.31 KCAL/MOL
REMARK 922        TOTAL FREE ENERGY PREDICTED BY IDOCK:   -0.35 KCAL/MOL
REMARK 923 INTER-LIGAND FREE ENERGY PREDICTED BY IDOCK:   -0.64 KCAL/MOL
REMARK 924 INTRA-LIGAND FREE ENERGY PREDICTED BY IDOCK:    0.29 KCAL/MOL
REMARK 927      BINDING AFFINITY PREDICTED BY RF-SCORE:    0.00 PKD
ROOT
HETATM    1 BR   UNL     1     -13.480  14.061  64.742  1.00  0.00     1.633 Br 
HETATM    2  C   UNL     2      -6.429  13.171  67.638  1.00  0.00    -0.163 C  
HETATM    3  C   UNL     2      -7.331  12.184  66.847  1.00  0.00    -0.009 C  
HETATM    4  C   UNL     2      -8.453  11.480  67.666  1.00  0.00    -0.135 C  
HETATM    5  C   UNL     2      -8.738  12.100  69.066  1.00  0.00     0.385 C  
HETATM    6  C   UNL     2      -8.527  14.736  67.768  1.00  0.00    -0.164 C  
HETATM    7  C   UNL     2      -7.675  13.088  69.603  1.00  0.00     1.060 C  
HETATM    8  C   UNL     2      -5.592  12.367  68.638  1.00  0.00    -0.054 C  
HETATM    9  O   UNL     2      -5.161  13.009  69.851  1.00  0.00    -0.081 OA 
HETATM   10  N   UNL     2      -7.331  14.108  68.479  1.00  0.00    -0.112 N  
HETATM   11  C   UNL     2      -6.531  15.322  69.013  1.00  0.00    -0.111 C  
HETATM   12  C   UNL     2      -6.401  12.300  69.886  1.00  0.00    -0.060 C  
ENDROOT
BRANCH   4  13
HETATM   13  O   UNL     2      -9.738  11.425  66.928  1.00  0.00    -0.189 OA 
BRANCH  13  14
HETATM   14  C   UNL     2     -10.785  10.712  67.462  1.00  0.00    -0.272 C  
HETATM   15  C   UNL     2     -11.272   9.964  69.895  1.00  0.00    -0.298 A  
HETATM   16  O   UNL     2     -11.904  10.779  66.992  1.00  0.00    -0.112 OA 
HETATM   17  C   UNL     2     -10.562   8.329  68.087  1.00  0.00    -0.111 C  
HETATM   18  C   UNL     2     -10.403   9.762  68.634  1.00  0.00    -0.224 C  
HETATM   19  O   UNL     2      -9.828   8.104  66.884  1.00  0.00    -0.200 OA 
HETATM   20  C   UNL     2     -11.882   8.900  70.602  1.00  0.00    -0.159 A  
HETATM   21  C   UNL     2     -12.770   9.129  71.664  1.00  0.00    -0.429 A  
HETATM   22  H   UNL     2      -9.926   7.222  66.546  1.00  0.00     0.000 HD 
HETATM   23  C   UNL     2     -13.029  10.433  72.069  1.00  0.00    -0.499 A  
HETATM   24  C   UNL     2     -12.347  11.488  71.469  1.00  0.00    -0.136 A  
HETATM   25  C   UNL     2     -11.464  11.253  70.407  1.00  0.00    -0.203 A  
ENDBRANCH  13  14
ENDBRANCH   4  13
TORSDOF 2
ENDMDL
MODEL      216
REMARK 921   NORMALIZED FREE ENERGY PREDICTED BY IDOCK:    0.46 KCAL/MOL
REMARK 922        TOTAL FREE ENERGY PREDICTED BY IDOCK:   -0.19 KCAL/MOL
REMARK 923 INTER-LIGAND FREE ENERGY PREDICTED BY IDOCK:   -1.97 KCAL/MOL
REMARK 924 INTRA-LIGAND FREE ENERGY PREDICTED BY IDOCK:    1.78 KCAL/MOL
REMARK 927      BINDING AFFINITY PREDICTED BY RF-SCORE:    0.00 PKD
ROOT
HETATM    1 BR   UNL     1     -10.222  16.149  65.545  1.00  0.00    -0.303 Br 
HETATM    2  C   UNL     2      -8.935   8.657  64.494  1.00  0.00     0.221 C  
HETATM    3  C   UNL     2      -9.872   9.394  65.491  1.00  0.00    -0.231 C  
HETATM    4  C   UNL     2      -9.187   9.989  66.756  1.00  0.00    -0.148 C  
HETATM    5  C   UNL     2      -7.633  10.067  66.694  1.00  0.00    -0.104 C  
HETATM    6  C   UNL     2      -7.947  11.017  63.923  1.00  0.00     0.498 C  
HETATM    7  C   UNL     2      -6.955   9.250  65.568  1.00  0.00    -0.082 C  
HETATM    8  C   UNL     2      -8.418   7.382  65.168  1.00  0.00    -0.022 C  
HETATM    9  O   UNL     2      -7.139   6.859  64.768  1.00  0.00    -0.055 OA 
HETATM   10  N   UNL     2      -7.692   9.543  64.228  1.00  0.00    -0.117 N  
HETATM   11  C   UNL     2      -6.898   9.037  62.998  1.00  0.00    -0.089 C  
HETATM   12  C   UNL     2      -7.163   7.770  65.868  1.00  0.00    -0.072 C  
ENDROOT
BRANCH   4  13
HETATM   13  O   UNL     2      -9.692  11.345  67.083  1.00  0.00    -0.180 OA 
BRANCH  13  14
HETATM   14  C   UNL     2      -9.179  12.004  68.176  1.00  0.00    -0.195 C  
HETATM   15  C   UNL     2      -6.884  13.145  68.555  1.00  0.00    -0.099 A  
HETATM   16  O   UNL     2      -9.896  12.622  68.938  1.00  0.00    -0.027 OA 
HETATM   17  C   UNL     2      -7.513  10.954  69.673  1.00  0.00    -0.022 C  
HETATM   18  C   UNL     2      -7.651  11.814  68.400  1.00  0.00    -0.123 C  
HETATM   19  O   UNL     2      -8.254   9.736  69.609  1.00  0.00    -0.124 OA 
HETATM   20  C   UNL     2      -5.954  13.395  69.593  1.00  0.00    -0.119 A  
HETATM   21  C   UNL     2      -5.374  14.659  69.781  1.00  0.00    -0.093 A  
HETATM   22  H   UNL     2      -8.169   9.207  70.393  1.00  0.00     0.000 HD 
HETATM   23  C   UNL     2      -5.683  15.689  68.901  1.00  0.00    -0.103 A  
HETATM   24  C   UNL     2      -6.498  15.434  67.801  1.00  0.00    -0.183 A  
HETATM   25  C   UNL     2      -7.076  14.171  67.622  1.00  0.00    -0.199 A  
ENDBRANCH  13  14
ENDBRANCH   4  13
TORSDOF 2
ENDMDL
MODEL      217
REMARK 921   NORMALIZED FREE ENERGY PREDICTED BY IDOCK:    0.51 KCAL/MOL
REMARK 922        TOTAL FREE ENERGY PREDICTED BY IDOCK:   -0.13 KCAL/MOL
REMARK 923 INTER-LIGAND FREE ENERGY PREDICTED BY IDOCK:    0.09 KCAL/MOL
REMARK 924 INTRA-LIGAND FREE ENERGY PREDICTED BY IDOCK:   -0.22 KCAL/MOL
REMARK 927      BINDING AFFINITY PREDICTED BY RF-SCORE:    0.00 PKD
ROOT
HETATM    1 BR   UNL     1     -11.716  19.915  65.348  1.00  0.00     2.744 Br 
HETATM    2  C   UNL     2      -6.557  15.024  68.241  1.00  0.00    -0.113 C  
HETATM    3  C   UNL     2      -7.942  14.765  67.585  1.00  0.00    -0.191 C  
HETATM    4  C   UNL     2      -9.183  15.001  68.497  1.00  0.00    -0.192 C  
HETATM    5  C   UNL     2      -8.897  15.778  69.816  1.00  0.00     0.080 C  
HETATM    6  C   UNL     2      -7.194  17.566  68.209  1.00  0.00    -0.217 C  
HETATM    7  C   UNL     2      -7.408  15.914  70.218  1.00  0.00     0.827 C  
HETATM    8  C   UNL     2      -6.326  13.961  69.320  1.00  0.00    -0.112 C  
HETATM    9  O   UNL     2      -5.487  14.287  70.441  1.00  0.00    -0.102 OA 
HETATM   10  N   UNL     2      -6.599  16.388  68.975  1.00  0.00    -0.168 N  
HETATM   11  C   UNL     2      -5.173  16.864  69.350  1.00  0.00    -0.136 C  
HETATM   12  C   UNL     2      -6.889  14.526  70.577  1.00  0.00     0.240 C  
ENDROOT
BRANCH   4  13
HETATM   13  O   UNL     2     -10.277  15.707  67.787  1.00  0.00    -0.245 OA 
BRANCH  13  14
HETATM   14  C   UNL     2     -11.059  15.006  66.899  1.00  0.00    -0.331 C  
HETATM   15  C   UNL     2     -10.498  13.014  65.341  1.00  0.00    -0.308 A  
HETATM   16  O   UNL     2     -12.249  14.850  67.089  1.00  0.00    -0.153 OA 
HETATM   17  C   UNL     2     -10.901  15.359  64.457  1.00  0.00    -0.116 C  
HETATM   18  C   UNL     2     -10.323  14.523  65.616  1.00  0.00    -0.367 C  
HETATM   19  O   UNL     2     -10.822  16.765  64.686  1.00  0.00    -0.835 OA 
HETATM   20  C   UNL     2     -10.864  12.486  64.079  1.00  0.00    -0.446 A  
HETATM   21  C   UNL     2     -11.141  11.123  63.897  1.00  0.00    -0.168 A  
HETATM   22  H   UNL     2     -11.179  17.280  63.972  1.00  0.00     0.000 HD 
HETATM   23  C   UNL     2     -11.014  10.251  64.971  1.00  0.00     0.882 A  
HETATM   24  C   UNL     2     -10.537  10.726  66.190  1.00  0.00    -0.241 A  
HETATM   25  C   UNL     2     -10.265  12.089  66.366  1.00  0.00    -0.243 A  
ENDBRANCH  13  14
ENDBRANCH   4  13
TORSDOF 2
ENDMDL
MODEL      218
REMARK 921   NORMALIZED FREE ENERGY PREDICTED BY IDOCK:    0.59 KCAL/MOL
REMARK 922        TOTAL FREE ENERGY PREDICTED BY IDOCK:   -0.04 KCAL/MOL
REMARK 923 INTER-LIGAND FREE ENERGY PREDICTED BY IDOCK:   -0.34 KCAL/MOL
REMARK 924 INTRA-LIGAND FREE ENERGY PREDICTED BY IDOCK:    0.29 KCAL/MOL
REMARK 927      BINDING AFFINITY PREDICTED BY RF-SCORE:    0.00 PKD
ROOT
HETATM    1 BR   UNL     1      -8.040  16.899  68.116  1.00  0.00    -0.209 Br 
HETATM    2  C   UNL     2      -6.097   9.510  68.849  1.00  0.00    -0.042 C  
HETATM    3  C   UNL     2      -6.973  10.227  67.784  1.00  0.00    -0.083 C  
HETATM    4  C   UNL     2      -8.436  10.549  68.209  1.00  0.00    -0.123 C  
HETATM    5  C   UNL     2      -8.725  10.423  69.734  1.00  0.00     0.027 C  
HETATM    6  C   UNL     2      -6.143  11.770  70.176  1.00  0.00    -0.147 C  
HETATM    7  C   UNL     2      -7.656   9.680  70.571  1.00  0.00    -0.132 C  
HETATM    8  C   UNL     2      -6.652   8.098  69.061  1.00  0.00    -0.048 C  
HETATM    9  O   UNL     2      -6.460   7.466  70.339  1.00  0.00    -0.038 OA 
HETATM   10  N   UNL     2      -6.254  10.248  70.203  1.00  0.00    -0.084 N  
HETATM   11  C   UNL     2      -5.160   9.809  71.208  1.00  0.00    -0.053 C  
HETATM   12  C   UNL     2      -7.661   8.215  70.150  1.00  0.00    -0.077 C  
ENDROOT
BRANCH   4  13
HETATM   13  O   UNL     2      -8.860  11.904  67.781  1.00  0.00    -0.153 OA 
BRANCH  13  14
HETATM   14  C   UNL     2      -9.248  12.102  66.477  1.00  0.00    -0.216 C  
HETATM   15  C   UNL     2     -11.566  11.893  65.339  1.00  0.00    -0.284 A  
HETATM   16  O   UNL     2      -8.693  12.917  65.767  1.00  0.00     0.521 OA 
HETATM   17  C   UNL     2      -9.703  10.214  64.946  1.00  0.00    -0.324 C  
HETATM   18  C   UNL     2     -10.371  11.150  65.974  1.00  0.00    -0.308 C  
HETATM   19  O   UNL     2      -8.552   9.546  65.461  1.00  0.00    -0.133 OA 
HETATM   20  C   UNL     2     -12.136  11.536  64.093  1.00  0.00    -0.034 A  
HETATM   21  C   UNL     2     -13.135  12.312  63.486  1.00  0.00    -0.075 A  
HETATM   22  H   UNL     2      -8.141   8.970  64.828  1.00  0.00     0.000 HD 
HETATM   23  C   UNL     2     -13.616  13.440  64.139  1.00  0.00     2.377 A  
HETATM   24  C   UNL     2     -13.159  13.741  65.419  1.00  0.00    -0.217 A  
HETATM   25  C   UNL     2     -12.159  12.964  66.019  1.00  0.00    -0.484 A  
ENDBRANCH  13  14
ENDBRANCH   4  13
TORSDOF 2
ENDMDL
MODEL      219
REMARK 921   NORMALIZED FREE ENERGY PREDICTED BY IDOCK:    0.61 KCAL/MOL
REMARK 922        TOTAL FREE ENERGY PREDICTED BY IDOCK:   -0.01 KCAL/MOL
REMARK 923 INTER-LIGAND FREE ENERGY PREDICTED BY IDOCK:   -3.36 KCAL/MOL
REMARK 924 INTRA-LIGAND FREE ENERGY PREDICTED BY IDOCK:    3.34 KCAL/MOL
REMARK 927      BINDING AFFINITY PREDICTED BY RF-SCORE:    0.00 PKD
ROOT
HETATM    1 BR   UNL     1     -10.739   4.001  63.326  1.00  0.00     0.049 Br 
HETATM    2  C   UNL     2      -8.994   8.018  69.628  1.00  0.00    -0.145 C  
HETATM    3  C   UNL     2      -8.619   6.568  69.215  1.00  0.00    -0.127 C  
HETATM    4  C   UNL     2      -9.724   5.491  69.428  1.00  0.00    -0.160 C  
HETATM    5  C   UNL     2     -11.151   6.052  69.701  1.00  0.00    -0.474 C  
HETATM    6  C   UNL     2     -10.618   8.015  67.570  1.00  0.00    -0.232 C  
HETATM    7  C   UNL     2     -11.235   7.554  70.064  1.00  0.00    -0.157 C  
HETATM    8  C   UNL     2      -9.149   8.063  71.152  1.00  0.00    -0.149 C  
HETATM    9  O   UNL     2     -10.039   9.035  71.727  1.00  0.00    -0.326 OA 
HETATM   10  N   UNL     2     -10.386   8.361  69.039  1.00  0.00    -0.218 N  
HETATM   11  C   UNL     2     -10.664   9.883  69.115  1.00  0.00    -0.224 C  
HETATM   12  C   UNL     2     -10.578   7.747  71.426  1.00  0.00    -0.213 C  
ENDROOT
BRANCH   4  13
HETATM   13  O   UNL     2      -9.822   4.552  68.284  1.00  0.00    -0.147 OA 
BRANCH  13  14
HETATM   14  C   UNL     2      -8.666   4.064  67.720  1.00  0.00    -0.104 C  
HETATM   15  C   UNL     2      -8.292   2.489  65.697  1.00  0.00    -0.091 A  
HETATM   16  O   UNL     2      -7.634   4.704  67.734  1.00  0.00    -0.077 OA 
HETATM   17  C   UNL     2      -7.911   1.738  68.092  1.00  0.00    -0.057 C  
HETATM   18  C   UNL     2      -8.770   2.616  67.159  1.00  0.00    -0.135 C  
HETATM   19  O   UNL     2      -8.270   1.864  69.467  1.00  0.00    -0.044 OA 
HETATM   20  C   UNL     2      -7.395   1.488  65.252  1.00  0.00    -0.053 A  
HETATM   21  C   UNL     2      -6.880   1.481  63.946  1.00  0.00    -0.030 A  
HETATM   22  H   UNL     2      -7.740   1.324  70.041  1.00  0.00     0.000 HD 
HETATM   23  C   UNL     2      -7.291   2.456  63.045  1.00  0.00    -0.045 A  
HETATM   24  C   UNL     2      -8.264   3.376  63.423  1.00  0.00    -0.089 A  
HETATM   25  C   UNL     2      -8.772   3.380  64.729  1.00  0.00    -0.111 A  
ENDBRANCH  13  14
ENDBRANCH   4  13
TORSDOF 2
ENDMDL
MODEL      220
REMARK 921   NORMALIZED FREE ENERGY PREDICTED BY IDOCK:    0.62 KCAL/MOL
REMARK 922        TOTAL FREE ENERGY PREDICTED BY IDOCK:   -0.00 KCAL/MOL
REMARK 923 INTER-LIGAND FREE ENERGY PREDICTED BY IDOCK:   -1.75 KCAL/MOL
REMARK 924 INTRA-LIGAND FREE ENERGY PREDICTED BY IDOCK:    1.74 KCAL/MOL
REMARK 927      BINDING AFFINITY PREDICTED BY RF-SCORE:    0.00 PKD
ROOT
HETATM    1 BR   UNL     1      -5.146  13.082  70.181  1.00  0.00    -0.099 Br 
HETATM    2  C   UNL     2      -9.924  18.393  67.375  1.00  0.00    -0.334 C  
HETATM    3  C   UNL     2     -10.162  17.264  68.416  1.00  0.00    -0.358 C  
HETATM    4  C   UNL     2     -10.380  15.836  67.834  1.00  0.00    -0.261 C  
HETATM    5  C   UNL     2      -9.998  15.667  66.334  1.00  0.00    -0.298 C  
HETATM    6  C   UNL     2      -7.598  17.270  66.926  1.00  0.00    -0.213 C  
HETATM    7  C   UNL     2      -9.786  16.974  65.533  1.00  0.00     0.157 C  
HETATM    8  C   UNL     2     -11.217  18.601  66.581  1.00  0.00     0.574 C  
HETATM    9  O   UNL     2     -11.128  19.095  65.233  1.00  0.00    -0.406 OA 
HETATM   10  N   UNL     2      -8.858  17.916  66.356  1.00  0.00    -0.255 N  
HETATM   11  C   UNL     2      -8.325  19.099  65.511  1.00  0.00     0.700 C  
HETATM   12  C   UNL     2     -11.133  17.678  65.415  1.00  0.00     0.452 C  
ENDROOT
BRANCH   4  13
HETATM   13  O   UNL     2      -9.651  14.798  68.603  1.00  0.00    -0.207 OA 
BRANCH  13  14
HETATM   14  C   UNL     2      -9.228  13.661  67.956  1.00  0.00    -0.197 C  
HETATM   15  C   UNL     2      -8.325  11.414  68.876  1.00  0.00    -0.042 A  
HETATM   16  O   UNL     2      -9.706  13.322  66.891  1.00  0.00    -0.234 OA 
HETATM   17  C   UNL     2      -6.830  13.106  67.717  1.00  0.00    -0.149 C  
HETATM   18  C   UNL     2      -8.048  12.914  68.643  1.00  0.00    -0.007 C  
HETATM   19  O   UNL     2      -6.565  14.476  67.417  1.00  0.00    -0.286 OA 
HETATM   20  C   UNL     2      -7.412  10.388  68.532  1.00  0.00    -0.089 A  
HETATM   21  C   UNL     2      -7.749   9.029  68.637  1.00  0.00    -0.096 A  
HETATM   22  H   UNL     2      -5.815  14.594  66.846  1.00  0.00     0.000 HD 
HETATM   23  C   UNL     2      -8.996   8.672  69.134  1.00  0.00    -0.142 A  
HETATM   24  C   UNL     2      -9.862   9.659  69.595  1.00  0.00    -0.233 A  
HETATM   25  C   UNL     2      -9.521  11.014  69.483  1.00  0.00     0.274 A  
ENDBRANCH  13  14
ENDBRANCH   4  13
TORSDOF 2
ENDMDL
MODEL      221
REMARK 921   NORMALIZED FREE ENERGY PREDICTED BY IDOCK:    0.69 KCAL/MOL
REMARK 922        TOTAL FREE ENERGY PREDICTED BY IDOCK:    0.07 KCAL/MOL
REMARK 923 INTER-LIGAND FREE ENERGY PREDICTED BY IDOCK:    0.34 KCAL/MOL
REMARK 924 INTRA-LIGAND FREE ENERGY PREDICTED BY IDOCK:   -0.27 KCAL/MOL
REMARK 927      BINDING AFFINITY PREDICTED BY RF-SCORE:    0.00 PKD
ROOT
HETATM    1 BR   UNL     1     -12.315  13.701  63.336  1.00  0.00     0.107 Br 
HETATM    2  C   UNL     2     -11.906  16.149  70.598  1.00  0.00    -0.214 C  
HETATM    3  C   UNL     2     -10.792  15.941  69.535  1.00  0.00    -0.305 C  
HETATM    4  C   UNL     2     -10.314  14.473  69.327  1.00  0.00    -0.142 C  
HETATM    5  C   UNL     2     -11.234  13.383  69.951  1.00  0.00     0.032 C  
HETATM    6  C   UNL     2     -13.514  14.938  68.920  1.00  0.00     3.335 C  
HETATM    7  C   UNL     2     -12.289  13.882  70.968  1.00  0.00    -0.376 C  
HETATM    8  C   UNL     2     -11.320  15.839  71.980  1.00  0.00    -0.247 C  
HETATM    9  O   UNL     2     -12.202  15.365  73.013  1.00  0.00    -0.363 OA 
HETATM   10  N   UNL     2     -13.028  15.108  70.357  1.00  0.00    -0.302 N  
HETATM   11  C   UNL     2     -14.308  15.475  71.147  1.00  0.00    -0.011 C  
HETATM   12  C   UNL     2     -11.550  14.385  72.203  1.00  0.00     0.581 C  
ENDROOT
BRANCH   4  13
HETATM   13  O   UNL     2     -10.131  14.140  67.893  1.00  0.00    -0.227 OA 
BRANCH  13  14
HETATM   14  C   UNL     2      -9.374  13.043  67.553  1.00  0.00    -0.200 C  
HETATM   15  C   UNL     2      -8.671  10.966  68.933  1.00  0.00    -0.144 A  
HETATM   16  O   UNL     2      -9.362  12.607  66.419  1.00  0.00    -0.235 OA 
HETATM   17  C   UNL     2      -7.028  12.793  68.296  1.00  0.00    -0.097 C  
HETATM   18  C   UNL     2      -8.483  12.480  68.699  1.00  0.00     0.031 C  
HETATM   19  O   UNL     2      -6.811  14.174  68.006  1.00  0.00    -0.111 OA 
HETATM   20  C   UNL     2      -7.595  10.054  69.049  1.00  0.00    -0.090 A  
HETATM   21  C   UNL     2      -7.803   8.668  69.131  1.00  0.00    -0.099 A  
HETATM   22  H   UNL     2      -5.915  14.366  67.757  1.00  0.00     0.000 HD 
HETATM   23  C   UNL     2      -9.100   8.172  69.143  1.00  0.00    -0.148 A  
HETATM   24  C   UNL     2     -10.175   9.056  69.153  1.00  0.00    -0.213 A  
HETATM   25  C   UNL     2      -9.960  10.438  69.068  1.00  0.00    -0.224 A  
ENDBRANCH  13  14
ENDBRANCH   4  13
TORSDOF 2
ENDMDL
MODEL      222
REMARK 921   NORMALIZED FREE ENERGY PREDICTED BY IDOCK:    0.79 KCAL/MOL
REMARK 922        TOTAL FREE ENERGY PREDICTED BY IDOCK:    0.18 KCAL/MOL
REMARK 923 INTER-LIGAND FREE ENERGY PREDICTED BY IDOCK:    0.55 KCAL/MOL
REMARK 924 INTRA-LIGAND FREE ENERGY PREDICTED BY IDOCK:   -0.37 KCAL/MOL
REMARK 927      BINDING AFFINITY PREDICTED BY RF-SCORE:    0.00 PKD
ROOT
HETATM    1 BR   UNL     1      -7.319  11.109  62.581  1.00  0.00     0.395 Br 
HETATM    2  C   UNL     2      -5.143  14.374  69.177  1.00  0.00    -0.079 C  
HETATM    3  C   UNL     2      -5.604  12.923  68.869  1.00  0.00    -0.072 C  
HETATM    4  C   UNL     2      -7.141  12.711  68.737  1.00  0.00    -0.087 C  
HETATM    5  C   UNL     2      -7.980  14.015  68.594  1.00  0.00    -0.122 C  
HETATM    6  C   UNL     2      -5.898  14.964  66.737  1.00  0.00     1.904 C  
HETATM    7  C   UNL     2      -7.251  15.336  68.939  1.00  0.00    -0.137 C  
HETATM    8  C   UNL     2      -5.605  14.740  70.591  1.00  0.00    -0.147 C  
HETATM    9  O   UNL     2      -5.861  16.122  70.898  1.00  0.00     0.068 OA 
HETATM   10  N   UNL     2      -5.872  15.346  68.215  1.00  0.00    -0.108 N  
HETATM   11  C   UNL     2      -5.212  16.747  68.230  1.00  0.00    -0.115 C  
HETATM   12  C   UNL     2      -6.961  15.336  70.435  1.00  0.00     0.271 C  
ENDROOT
BRANCH   4  13
HETATM   13  O   UNL     2      -7.491  11.824  67.600  1.00  0.00    -0.107 OA 
BRANCH  13  14
HETATM   14  C   UNL     2      -7.327  10.466  67.737  1.00  0.00    -0.087 C  
HETATM   15  C   UNL     2      -8.808   8.485  66.965  1.00  0.00    -0.144 A  
HETATM   16  O   UNL     2      -6.223   9.959  67.761  1.00  0.00    -0.054 OA 
HETATM   17  C   UNL     2      -8.600   9.156  69.405  1.00  0.00    -0.138 C  
HETATM   18  C   UNL     2      -8.644   9.663  67.949  1.00  0.00    -0.122 C  
HETATM   19  O   UNL     2      -8.388  10.199  70.355  1.00  0.00    -0.380 OA 
HETATM   20  C   UNL     2      -9.165   7.175  67.367  1.00  0.00    -0.137 A  
HETATM   21  C   UNL     2      -9.178   6.101  66.465  1.00  0.00    -0.161 A  
HETATM   22  H   UNL     2      -8.361   9.887  71.252  1.00  0.00     0.000 HD 
HETATM   23  C   UNL     2      -8.876   6.327  65.128  1.00  0.00     0.119 A  
HETATM   24  C   UNL     2      -8.642   7.627  64.686  1.00  0.00     0.185 A  
HETATM   25  C   UNL     2      -8.627   8.695  65.593  1.00  0.00    -0.191 A  
ENDBRANCH  13  14
ENDBRANCH   4  13
TORSDOF 2
ENDMDL
MODEL      223
REMARK 921   NORMALIZED FREE ENERGY PREDICTED BY IDOCK:    0.96 KCAL/MOL
REMARK 922        TOTAL FREE ENERGY PREDICTED BY IDOCK:    0.37 KCAL/MOL
REMARK 923 INTER-LIGAND FREE ENERGY PREDICTED BY IDOCK:   -0.99 KCAL/MOL
REMARK 924 INTRA-LIGAND FREE ENERGY PREDICTED BY IDOCK:    1.35 KCAL/MOL
REMARK 927      BINDING AFFINITY PREDICTED BY RF-SCORE:    0.00 PKD
ROOT
HETATM    1 BR   UNL     1      -5.259  17.593  64.955  1.00  0.00     0.848 Br 
HETATM    2  C   UNL     2     -10.289  12.003  66.490  1.00  0.00    -0.210 C  
HETATM    3  C   UNL     2     -10.125  13.418  67.112  1.00  0.00    -0.240 C  
HETATM    4  C   UNL     2      -8.994  13.570  68.171  1.00  0.00    -0.187 C  
HETATM    5  C   UNL     2      -7.971  12.397  68.221  1.00  0.00    -0.160 C  
HETATM    6  C   UNL     2      -8.009  12.447  65.275  1.00  0.00     2.725 C  
HETATM    7  C   UNL     2      -8.383  11.101  67.480  1.00  0.00    -0.122 C  
HETATM    8  C   UNL     2     -10.787  11.050  67.580  1.00  0.00    -0.256 C  
HETATM    9  O   UNL     2     -10.455   9.654  67.481  1.00  0.00    -0.228 OA 
HETATM   10  N   UNL     2      -8.894  11.483  66.059  1.00  0.00    -0.181 N  
HETATM   11  C   UNL     2      -9.021  10.249  65.131  1.00  0.00    -0.191 C  
HETATM   12  C   UNL     2      -9.566  10.491  68.223  1.00  0.00    -0.158 C  
ENDROOT
BRANCH   4  13
HETATM   13  O   UNL     2      -8.227  14.828  67.999  1.00  0.00    -0.130 OA 
BRANCH  13  14
HETATM   14  C   UNL     2      -8.728  15.807  67.174  1.00  0.00    -0.205 C  
HETATM   15  C   UNL     2      -8.641  18.391  67.350  1.00  0.00    -0.261 A  
HETATM   16  O   UNL     2      -8.818  15.640  65.974  1.00  0.00    -0.318 OA 
HETATM   17  C   UNL     2     -10.776  17.073  67.739  1.00  0.00    -0.318 C  
HETATM   18  C   UNL     2      -9.243  17.082  67.904  1.00  0.00    -0.239 C  
HETATM   19  O   UNL     2     -11.381  15.858  68.179  1.00  0.00    -0.345 OA 
HETATM   20  C   UNL     2      -9.416  19.528  67.018  1.00  0.00    -0.426 A  
HETATM   21  C   UNL     2      -8.854  20.653  66.395  1.00  0.00     0.069 A  
HETATM   22  H   UNL     2     -12.325  15.853  68.077  1.00  0.00     0.000 HD 
HETATM   23  C   UNL     2      -7.490  20.677  66.133  1.00  0.00    -0.034 A  
HETATM   24  C   UNL     2      -6.688  19.623  66.561  1.00  0.00    -0.196 A  
HETATM   25  C   UNL     2      -7.256  18.502  67.179  1.00  0.00    -0.218 A  
ENDBRANCH  13  14
ENDBRANCH   4  13
TORSDOF 2
ENDMDL
MODEL      224
REMARK 921   NORMALIZED FREE ENERGY PREDICTED BY IDOCK:    1.00 KCAL/MOL
REMARK 922        TOTAL FREE ENERGY PREDICTED BY IDOCK:    0.42 KCAL/MOL
REMARK 923 INTER-LIGAND FREE ENERGY PREDICTED BY IDOCK:   -1.76 KCAL/MOL
REMARK 924 INTRA-LIGAND FREE ENERGY PREDICTED BY IDOCK:    2.18 KCAL/MOL
REMARK 927      BINDING AFFINITY PREDICTED BY RF-SCORE:    0.00 PKD
ROOT
HETATM    1 BR   UNL     1     -11.751  12.336  65.023  1.00  0.00    -0.389 Br 
HETATM    2  C   UNL     2      -6.015   8.950  68.835  1.00  0.00    -0.044 C  
HETATM    3  C   UNL     2      -7.175   8.341  68.000  1.00  0.00    -0.094 C  
HETATM    4  C   UNL     2      -8.557   8.255  68.714  1.00  0.00    -0.133 C  
HETATM    5  C   UNL     2      -8.678   9.087  70.025  1.00  0.00    -0.164 C  
HETATM    6  C   UNL     2      -7.263  11.244  68.601  1.00  0.00    -0.098 C  
HETATM    7  C   UNL     2      -7.349   9.603  70.630  1.00  0.00    -0.096 C  
HETATM    8  C   UNL     2      -5.687   7.988  69.981  1.00  0.00    -0.023 C  
HETATM    9  O   UNL     2      -5.134   8.525  71.196  1.00  0.00    -0.028 OA 
HETATM   10  N   UNL     2      -6.510  10.262  69.496  1.00  0.00    -0.052 N  
HETATM   11  C   UNL     2      -5.324  11.090  70.049  1.00  0.00    -0.056 C  
HETATM   12  C   UNL     2      -6.555   8.397  71.119  1.00  0.00    -0.050 C  
ENDROOT
BRANCH   4  13
HETATM   13  O   UNL     2      -9.675   8.653  67.824  1.00  0.00    -0.154 OA 
BRANCH  13  14
HETATM   14  C   UNL     2     -10.857   9.075  68.386  1.00  0.00    -0.011 C  
HETATM   15  C   UNL     2     -11.325  10.668  70.374  1.00  0.00    -0.389 A  
HETATM   16  O   UNL     2     -11.866   9.202  67.720  1.00  0.00     1.507 OA 
HETATM   17  C   UNL     2     -11.688   8.160  70.528  1.00  0.00    -0.063 C  
HETATM   18  C   UNL     2     -10.816   9.281  69.928  1.00  0.00    -0.252 C  
HETATM   19  O   UNL     2     -11.300   6.856  70.098  1.00  0.00    -0.298 OA 
HETATM   20  C   UNL     2     -12.265  10.857  71.416  1.00  0.00    -0.332 A  
HETATM   21  C   UNL     2     -12.804  12.120  71.708  1.00  0.00    -0.367 A  
HETATM   22  H   UNL     2     -11.838   6.166  70.468  1.00  0.00     0.000 HD 
HETATM   23  C   UNL     2     -12.376  13.228  70.989  1.00  0.00    -0.379 A  
HETATM   24  C   UNL     2     -11.363  13.086  70.044  1.00  0.00     0.039 A  
HETATM   25  C   UNL     2     -10.832  11.823  69.755  1.00  0.00     0.170 A  
ENDBRANCH  13  14
ENDBRANCH   4  13
TORSDOF 2
ENDMDL
MODEL      225
REMARK 921   NORMALIZED FREE ENERGY PREDICTED BY IDOCK:    1.02 KCAL/MOL
REMARK 922        TOTAL FREE ENERGY PREDICTED BY IDOCK:    0.44 KCAL/MOL
REMARK 923 INTER-LIGAND FREE ENERGY PREDICTED BY IDOCK:   -1.87 KCAL/MOL
REMARK 924 INTRA-LIGAND FREE ENERGY PREDICTED BY IDOCK:    2.30 KCAL/MOL
REMARK 927      BINDING AFFINITY PREDICTED BY RF-SCORE:    0.00 PKD
ROOT
HETATM    1 BR   UNL     1     -14.375  15.047  71.339  1.00  0.00    -0.558 Br 
HETATM    2  C   UNL     2      -9.326  18.131  66.451  1.00  0.00    -0.265 C  
HETATM    3  C   UNL     2      -9.112  17.198  67.675  1.00  0.00    -0.227 C  
HETATM    4  C   UNL     2      -9.152  17.887  69.071  1.00  0.00    -0.020 C  
HETATM    5  C   UNL     2      -9.732  19.332  69.081  1.00  0.00    -0.382 C  
HETATM    6  C   UNL     2     -11.814  18.341  67.248  1.00  0.00     2.314 C  
HETATM    7  C   UNL     2      -9.868  20.020  67.701  1.00  0.00    -0.413 C  
HETATM    8  C   UNL     2      -8.123  19.073  66.342  1.00  0.00    -0.297 C  
HETATM    9  O   UNL     2      -8.310  20.366  65.741  1.00  0.00    -0.059 OA 
HETATM   10  N   UNL     2     -10.560  19.030  66.718  1.00  0.00    -0.424 N  
HETATM   11  C   UNL     2     -11.034  19.728  65.419  1.00  0.00     0.090 C  
HETATM   12  C   UNL     2      -8.466  20.270  67.158  1.00  0.00    -0.339 C  
ENDROOT
BRANCH   4  13
HETATM   13  O   UNL     2      -9.911  17.092  70.068  1.00  0.00     0.306 OA 
BRANCH  13  14
HETATM   14  C   UNL     2     -10.075  15.742  69.861  1.00  0.00    -0.228 C  
HETATM   15  C   UNL     2      -9.302  14.211  67.919  1.00  0.00    -0.204 A  
HETATM   16  O   UNL     2     -10.133  14.960  70.789  1.00  0.00     0.362 OA 
HETATM   17  C   UNL     2     -11.734  14.857  68.254  1.00  0.00    -0.315 C  
HETATM   18  C   UNL     2     -10.270  15.324  68.374  1.00  0.00    -0.223 C  
HETATM   19  O   UNL     2     -12.672  15.827  68.720  1.00  0.00    -0.138 OA 
HETATM   20  C   UNL     2      -9.718  13.053  67.218  1.00  0.00    -0.225 A  
HETATM   21  C   UNL     2      -8.834  12.000  66.935  1.00  0.00    -0.197 A  
HETATM   22  H   UNL     2     -13.574  15.539  68.647  1.00  0.00     0.000 HD 
HETATM   23  C   UNL     2      -7.501  12.108  67.311  1.00  0.00    -0.152 A  
HETATM   24  C   UNL     2      -7.043  13.288  67.891  1.00  0.00    -0.133 A  
HETATM   25  C   UNL     2      -7.931  14.334  68.174  1.00  0.00    -0.140 A  
ENDBRANCH  13  14
ENDBRANCH   4  13
TORSDOF 2
ENDMDL
MODEL      226
REMARK 921   NORMALIZED FREE ENERGY PREDICTED BY IDOCK:    1.22 KCAL/MOL
REMARK 922        TOTAL FREE ENERGY PREDICTED BY IDOCK:    0.67 KCAL/MOL
REMARK 923 INTER-LIGAND FREE ENERGY PREDICTED BY IDOCK:    1.38 KCAL/MOL
REMARK 924 INTRA-LIGAND FREE ENERGY PREDICTED BY IDOCK:   -0.72 KCAL/MOL
REMARK 927      BINDING AFFINITY PREDICTED BY RF-SCORE:    0.00 PKD
ROOT
HETATM    1 BR   UNL     1     -13.480  14.061  64.742  1.00  0.00     1.633 Br 
HETATM    2  C   UNL     2      -6.452  13.166  67.691  1.00  0.00    -0.163 C  
HETATM    3  C   UNL     2      -7.351  12.178  66.898  1.00  0.00    -0.009 C  
HETATM    4  C   UNL     2      -8.480  11.481  67.713  1.00  0.00    -0.137 C  
HETATM    5  C   UNL     2      -8.774  12.107  69.108  1.00  0.00     0.569 C  
HETATM    6  C   UNL     2      -8.547  14.738  67.800  1.00  0.00    -0.166 C  
HETATM    7  C   UNL     2      -7.712  13.095  69.649  1.00  0.00     1.018 C  
HETATM    8  C   UNL     2      -5.624  12.365  68.701  1.00  0.00    -0.054 C  
HETATM    9  O   UNL     2      -5.200  13.011  69.914  1.00  0.00    -0.082 OA 
HETATM   10  N   UNL     2      -7.358  14.110  68.522  1.00  0.00    -0.112 N  
HETATM   11  C   UNL     2      -6.558  15.324  69.056  1.00  0.00    -0.118 C  
HETATM   12  C   UNL     2      -6.442  12.306  69.944  1.00  0.00     0.009 C  
ENDROOT
BRANCH   4  13
HETATM   13  O   UNL     2      -9.760  11.426  66.966  1.00  0.00    -0.187 OA 
BRANCH  13  14
HETATM   14  C   UNL     2     -10.212  10.212  66.503  1.00  0.00    -0.223 C  
HETATM   15  C   UNL     2      -9.882   7.811  67.417  1.00  0.00    -0.230 A  
HETATM   16  O   UNL     2     -11.269  10.113  65.912  1.00  0.00     0.489 OA 
HETATM   17  C   UNL     2      -8.729   8.633  65.310  1.00  0.00    -0.165 C  
HETATM   18  C   UNL     2      -9.232   9.022  66.715  1.00  0.00    -0.198 C  
HETATM   19  O   UNL     2      -8.173   9.732  64.590  1.00  0.00    -0.133 OA 
HETATM   20  C   UNL     2      -9.760   6.479  66.952  1.00  0.00    -0.199 A  
HETATM   21  C   UNL     2     -10.470   5.420  67.538  1.00  0.00    -0.235 A  
HETATM   22  H   UNL     2      -7.864   9.492  63.724  1.00  0.00     0.000 HD 
HETATM   23  C   UNL     2     -11.285   5.670  68.635  1.00  0.00     0.316 A  
HETATM   24  C   UNL     2     -11.325   6.947  69.186  1.00  0.00    -0.097 A  
HETATM   25  C   UNL     2     -10.617   8.001  68.594  1.00  0.00    -0.143 A  
ENDBRANCH  13  14
ENDBRANCH   4  13
TORSDOF 2
ENDMDL
MODEL      227
REMARK 921   NORMALIZED FREE ENERGY PREDICTED BY IDOCK:    1.39 KCAL/MOL
REMARK 922        TOTAL FREE ENERGY PREDICTED BY IDOCK:    0.85 KCAL/MOL
REMARK 923 INTER-LIGAND FREE ENERGY PREDICTED BY IDOCK:    0.90 KCAL/MOL
REMARK 924 INTRA-LIGAND FREE ENERGY PREDICTED BY IDOCK:   -0.05 KCAL/MOL
REMARK 927      BINDING AFFINITY PREDICTED BY RF-SCORE:    0.00 PKD
ROOT
HETATM    1 BR   UNL     1     -11.693  12.890  63.951  1.00  0.00    -0.564 Br 
HETATM    2  C   UNL     2     -11.903  15.077  71.304  1.00  0.00    -0.337 C  
HETATM    3  C   UNL     2     -10.837  14.263  70.519  1.00  0.00     0.493 C  
HETATM    4  C   UNL     2     -11.163  12.757  70.290  1.00  0.00     0.656 C  
HETATM    5  C   UNL     2     -12.639  12.348  70.571  1.00  0.00    -0.169 C  
HETATM    6  C   UNL     2     -13.425  14.826  69.185  1.00  0.00     2.812 C  
HETATM    7  C   UNL     2     -13.493  13.375  71.354  1.00  0.00    -0.122 C  
HETATM    8  C   UNL     2     -11.935  14.567  72.748  1.00  0.00     0.078 C  
HETATM    9  O   UNL     2     -13.160  14.679  73.493  1.00  0.00    -0.566 OA 
HETATM   10  N   UNL     2     -13.300  14.778  70.705  1.00  0.00    -0.319 N  
HETATM   11  C   UNL     2     -14.351  15.802  71.201  1.00  0.00     0.574 C  
HETATM   12  C   UNL     2     -12.938  13.467  72.770  1.00  0.00    -0.076 C  
ENDROOT
BRANCH   4  13
HETATM   13  O   UNL     2     -10.828  12.313  68.915  1.00  0.00    -0.223 OA 
BRANCH  13  14
HETATM   14  C   UNL     2     -10.216  11.094  68.737  1.00  0.00    -0.206 C  
HETATM   15  C   UNL     2      -7.712  10.457  68.548  1.00  0.00    -0.101 A  
HETATM   16  O   UNL     2     -10.703  10.070  69.174  1.00  0.00    -0.201 OA 
HETATM   17  C   UNL     2      -9.281  10.405  66.553  1.00  0.00    -0.160 C  
HETATM   18  C   UNL     2      -8.925  11.127  67.869  1.00  0.00    -0.143 C  
HETATM   19  O   UNL     2     -10.436  10.945  65.912  1.00  0.00    -0.254 OA 
HETATM   20  C   UNL     2      -6.877   9.513  67.903  1.00  0.00    -0.074 A  
HETATM   21  C   UNL     2      -5.864   8.826  68.590  1.00  0.00    -0.044 A  
HETATM   22  H   UNL     2     -10.655  10.500  65.103  1.00  0.00     0.000 HD 
HETATM   23  C   UNL     2      -5.637   9.108  69.931  1.00  0.00    -0.032 A  
HETATM   24  C   UNL     2      -6.363  10.120  70.554  1.00  0.00    -0.117 A  
HETATM   25  C   UNL     2      -7.375  10.798  69.863  1.00  0.00    -0.006 A  
ENDBRANCH  13  14
ENDBRANCH   4  13
TORSDOF 2
ENDMDL
MODEL      228
REMARK 921   NORMALIZED FREE ENERGY PREDICTED BY IDOCK:    1.60 KCAL/MOL
REMARK 922        TOTAL FREE ENERGY PREDICTED BY IDOCK:    1.08 KCAL/MOL
REMARK 923 INTER-LIGAND FREE ENERGY PREDICTED BY IDOCK:    1.06 KCAL/MOL
REMARK 924 INTRA-LIGAND FREE ENERGY PREDICTED BY IDOCK:    0.02 KCAL/MOL
REMARK 927      BINDING AFFINITY PREDICTED BY RF-SCORE:    0.00 PKD
ROOT
HETATM    1 BR   UNL     1      -7.665  10.329  71.291  1.00  0.00     2.655 Br 
HETATM    2  C   UNL     2      -7.474   7.244  64.266  1.00  0.00    -0.101 C  
HETATM    3  C   UNL     2      -8.103   8.571  64.773  1.00  0.00    -0.151 C  
HETATM    4  C   UNL     2      -9.479   8.443  65.491  1.00  0.00     0.201 C  
HETATM    5  C   UNL     2      -9.878   6.995  65.904  1.00  0.00     0.436 C  
HETATM    6  C   UNL     2      -7.089   6.648  66.789  1.00  0.00    -0.069 C  
HETATM    7  C   UNL     2      -9.053   5.852  65.265  1.00  0.00     0.130 C  
HETATM    8  C   UNL     2      -8.343   6.700  63.127  1.00  0.00     0.156 C  
HETATM    9  O   UNL     2      -8.372   5.281  62.899  1.00  0.00    -0.105 OA 
HETATM   10  N   UNL     2      -7.540   6.194  65.404  1.00  0.00    -0.083 N  
HETATM   11  C   UNL     2      -6.633   4.977  65.093  1.00  0.00    -0.040 C  
HETATM   12  C   UNL     2      -9.362   5.827  63.772  1.00  0.00     1.100 C  
ENDROOT
BRANCH   4  13
HETATM   13  O   UNL     2      -9.563   9.295  66.702  1.00  0.00    -0.173 OA 
BRANCH  13  14
HETATM   14  C   UNL     2      -9.367  10.651  66.580  1.00  0.00    -0.167 C  
HETATM   15  C   UNL     2     -10.932  12.651  67.092  1.00  0.00    -0.296 A  
HETATM   16  O   UNL     2      -8.268  11.148  66.725  1.00  0.00    -0.142 OA 
HETATM   17  C   UNL     2     -10.352  11.952  64.722  1.00  0.00    -0.281 C  
HETATM   18  C   UNL     2     -10.627  11.461  66.157  1.00  0.00    -0.316 C  
HETATM   19  O   UNL     2     -10.002  10.898  63.826  1.00  0.00    -0.293 OA 
HETATM   20  C   UNL     2     -11.210  13.959  66.628  1.00  0.00    -0.328 A  
HETATM   21  C   UNL     2     -11.354  15.043  67.507  1.00  0.00    -0.340 A  
HETATM   22  H   UNL     2      -9.832  11.201  62.942  1.00  0.00     0.000 HD 
HETATM   23  C   UNL     2     -11.266  14.828  68.876  1.00  0.00    -0.282 A  
HETATM   24  C   UNL     2     -11.117  13.532  69.361  1.00  0.00    -0.173 A  
HETATM   25  C   UNL     2     -10.970  12.454  68.478  1.00  0.00    -0.277 A  
ENDBRANCH  13  14
ENDBRANCH   4  13
TORSDOF 2
ENDMDL
MODEL      229
REMARK 921   NORMALIZED FREE ENERGY PREDICTED BY IDOCK:    2.30 KCAL/MOL
REMARK 922        TOTAL FREE ENERGY PREDICTED BY IDOCK:    1.87 KCAL/MOL
REMARK 923 INTER-LIGAND FREE ENERGY PREDICTED BY IDOCK:    2.60 KCAL/MOL
REMARK 924 INTRA-LIGAND FREE ENERGY PREDICTED BY IDOCK:   -0.73 KCAL/MOL
REMARK 927      BINDING AFFINITY PREDICTED BY RF-SCORE:    0.00 PKD
ROOT
HETATM    1 BR   UNL     1      -5.633  16.903  64.847  1.00  0.00     4.289 Br 
HETATM    2  C   UNL     2      -8.761   9.897  65.026  1.00  0.00    -0.174 C  
HETATM    3  C   UNL     2      -8.421  10.885  66.177  1.00  0.00    -0.171 C  
HETATM    4  C   UNL     2      -6.929  10.930  66.618  1.00  0.00    -0.135 C  
HETATM    5  C   UNL     2      -5.928  10.246  65.641  1.00  0.00    -0.103 C  
HETATM    6  C   UNL     2      -7.435  11.522  63.454  1.00  0.00     1.732 C  
HETATM    7  C   UNL     2      -6.550   9.329  64.560  1.00  0.00    -0.081 C  
HETATM    8  C   UNL     2      -8.570   8.467  65.544  1.00  0.00    -0.180 C  
HETATM    9  O   UNL     2      -8.222   7.434  64.605  1.00  0.00    -0.122 OA 
HETATM   10  N   UNL     2      -7.731  10.088  63.884  1.00  0.00    -0.144 N  
HETATM   11  C   UNL     2      -8.206   9.394  62.583  1.00  0.00    -0.159 C  
HETATM   12  C   UNL     2      -7.152   8.116  65.260  1.00  0.00    -0.063 C  
ENDROOT
BRANCH   4  13
HETATM   13  O   UNL     2      -6.454  12.316  66.851  1.00  0.00    -0.105 OA 
BRANCH  13  14
HETATM   14  C   UNL     2      -7.152  13.125  67.716  1.00  0.00    -0.148 C  
HETATM   15  C   UNL     2      -8.840  15.039  67.270  1.00  0.00    -0.216 A  
HETATM   16  O   UNL     2      -7.505  12.730  68.810  1.00  0.00    -0.111 OA 
HETATM   17  C   UNL     2      -6.492  15.472  68.133  1.00  0.00    -0.125 C  
HETATM   18  C   UNL     2      -7.365  14.586  67.222  1.00  0.00    -0.098 C  
HETATM   19  O   UNL     2      -5.127  15.059  68.176  1.00  0.00    -0.102 OA 
HETATM   20  C   UNL     2      -9.262  16.268  67.832  1.00  0.00    -0.201 A  
HETATM   21  C   UNL     2     -10.620  16.590  67.976  1.00  0.00    -0.328 A  
HETATM   22  H   UNL     2      -4.590  15.604  68.738  1.00  0.00     0.000 HD 
HETATM   23  C   UNL     2     -11.585  15.703  67.516  1.00  0.00    -0.041 A  
HETATM   24  C   UNL     2     -11.193  14.545  66.849  1.00  0.00    -0.340 A  
HETATM   25  C   UNL     2      -9.835  14.228  66.711  1.00  0.00    -0.274 A  
ENDBRANCH  13  14
ENDBRANCH   4  13
TORSDOF 2
ENDMDL
MODEL      230
REMARK 921   NORMALIZED FREE ENERGY PREDICTED BY IDOCK:    2.41 KCAL/MOL
REMARK 922        TOTAL FREE ENERGY PREDICTED BY IDOCK:    2.00 KCAL/MOL
REMARK 923 INTER-LIGAND FREE ENERGY PREDICTED BY IDOCK:    1.10 KCAL/MOL
REMARK 924 INTRA-LIGAND FREE ENERGY PREDICTED BY IDOCK:    0.89 KCAL/MOL
REMARK 927      BINDING AFFINITY PREDICTED BY RF-SCORE:    0.00 PKD
ROOT
HETATM    1 BR   UNL     1     -12.366  10.536  71.145  1.00  0.00    -0.524 Br 
HETATM    2  C   UNL     2      -8.576  16.157  67.548  1.00  0.00    -0.177 C  
HETATM    3  C   UNL     2      -8.676  14.639  67.232  1.00  0.00    -0.224 C  
HETATM    4  C   UNL     2      -7.772  13.703  68.087  1.00  0.00    -0.138 C  
HETATM    5  C   UNL     2      -7.151  14.360  69.355  1.00  0.00    -0.113 C  
HETATM    6  C   UNL     2      -9.784  15.604  69.808  1.00  0.00    -0.228 C  
HETATM    7  C   UNL     2      -7.219  15.905  69.425  1.00  0.00    -0.214 C  
HETATM    8  C   UNL     2      -7.184  16.646  67.136  1.00  0.00    -0.184 C  
HETATM    9  O   UNL     2      -6.613  17.770  67.829  1.00  0.00    -0.181 OA 
HETATM   10  N   UNL     2      -8.670  16.355  69.082  1.00  0.00    -0.225 N  
HETATM   11  C   UNL     2      -8.924  17.841  69.439  1.00  0.00     0.453 C  
HETATM   12  C   UNL     2      -6.316  16.466  68.332  1.00  0.00    -0.127 C  
ENDROOT
BRANCH   4  13
HETATM   13  O   UNL     2      -8.484  12.476  68.520  1.00  0.00    -0.146 OA 
BRANCH  13  14
HETATM   14  C   UNL     2      -7.753  11.348  68.813  1.00  0.00    -0.135 C  
HETATM   15  C   UNL     2      -7.046  10.319  71.083  1.00  0.00     0.999 A  
HETATM   16  O   UNL     2      -7.778  10.371  68.091  1.00  0.00    -0.090 OA 
HETATM   17  C   UNL     2      -5.392  11.471  69.540  1.00  0.00    -0.054 C  
HETATM   18  C   UNL     2      -6.841  11.464  70.069  1.00  0.00     0.138 C  
HETATM   19  O   UNL     2      -5.162  12.473  68.551  1.00  0.00    -0.051 OA 
HETATM   20  C   UNL     2      -5.982   9.583  71.657  1.00  0.00     0.002 A  
HETATM   21  C   UNL     2      -6.209   8.465  72.474  1.00  0.00    -0.074 A  
HETATM   22  H   UNL     2      -4.269  12.477  68.225  1.00  0.00     0.000 HD 
HETATM   23  C   UNL     2      -7.513   8.088  72.769  1.00  0.00    -0.145 A  
HETATM   24  C   UNL     2      -8.574   8.869  72.317  1.00  0.00     0.109 A  
HETATM   25  C   UNL     2      -8.340   9.982  71.499  1.00  0.00     2.431 A  
ENDBRANCH  13  14
ENDBRANCH   4  13
TORSDOF 2
ENDMDL
MODEL      231
REMARK 921   NORMALIZED FREE ENERGY PREDICTED BY IDOCK:    2.52 KCAL/MOL
REMARK 922        TOTAL FREE ENERGY PREDICTED BY IDOCK:    2.11 KCAL/MOL
REMARK 923 INTER-LIGAND FREE ENERGY PREDICTED BY IDOCK:    2.29 KCAL/MOL
REMARK 924 INTRA-LIGAND FREE ENERGY PREDICTED BY IDOCK:   -0.18 KCAL/MOL
REMARK 927      BINDING AFFINITY PREDICTED BY RF-SCORE:    0.00 PKD
ROOT
HETATM    1 BR   UNL     1      -7.031  14.162  74.445  1.00  0.00     3.495 Br 
HETATM    2  C   UNL     2     -10.426  16.636  68.022  1.00  0.00    -0.320 C  
HETATM    3  C   UNL     2     -10.901  16.680  69.501  1.00  0.00    -0.285 C  
HETATM    4  C   UNL     2     -11.491  15.354  70.066  1.00  0.00    -0.316 C  
HETATM    5  C   UNL     2     -11.219  14.087  69.203  1.00  0.00    -0.308 C  
HETATM    6  C   UNL     2      -8.474  15.101  68.861  1.00  0.00    -0.199 C  
HETATM    7  C   UNL     2     -10.715  14.340  67.761  1.00  0.00    -0.251 C  
HETATM    8  C   UNL     2     -11.654  16.462  67.123  1.00  0.00     0.611 C  
HETATM    9  O   UNL     2     -11.493  15.805  65.854  1.00  0.00     0.010 OA 
HETATM   10  N   UNL     2      -9.552  15.374  67.815  1.00  0.00    -0.209 N  
HETATM   11  C   UNL     2      -8.771  15.448  66.480  1.00  0.00    -0.300 C  
HETATM   12  C   UNL     2     -11.846  14.993  66.975  1.00  0.00    -0.109 C  
ENDROOT
BRANCH   4  13
HETATM   13  O   UNL     2     -11.017  15.070  71.443  1.00  0.00    -0.221 OA 
BRANCH  13  14
HETATM   14  C   UNL     2     -11.778  14.266  72.258  1.00  0.00     0.652 C  
HETATM   15  C   UNL     2     -13.055  12.065  71.769  1.00  0.00    -0.460 A  
HETATM   16  O   UNL     2     -11.539  14.159  73.445  1.00  0.00     0.782 OA 
HETATM   17  C   UNL     2     -14.249  14.270  72.163  1.00  0.00    -0.542 C  
HETATM   18  C   UNL     2     -12.999  13.595  71.565  1.00  0.00    -0.443 C  
HETATM   19  O   UNL     2     -14.222  15.693  72.058  1.00  0.00    -0.491 OA 
HETATM   20  C   UNL     2     -14.221  11.373  72.176  1.00  0.00     1.039 A  
HETATM   21  C   UNL     2     -14.203  10.003  72.478  1.00  0.00     0.496 A  
HETATM   22  H   UNL     2     -14.992  16.109  72.427  1.00  0.00     0.000 HD 
HETATM   23  C   UNL     2     -13.021   9.288  72.333  1.00  0.00    -0.450 A  
HETATM   24  C   UNL     2     -11.893   9.919  71.817  1.00  0.00    -0.259 A  
HETATM   25  C   UNL     2     -11.917  11.289  71.521  1.00  0.00     0.370 A  
ENDBRANCH  13  14
ENDBRANCH   4  13
TORSDOF 2
ENDMDL
MODEL      232
REMARK 921   NORMALIZED FREE ENERGY PREDICTED BY IDOCK:    3.85 KCAL/MOL
REMARK 922        TOTAL FREE ENERGY PREDICTED BY IDOCK:    3.60 KCAL/MOL
REMARK 923 INTER-LIGAND FREE ENERGY PREDICTED BY IDOCK:    3.03 KCAL/MOL
REMARK 924 INTRA-LIGAND FREE ENERGY PREDICTED BY IDOCK:    0.58 KCAL/MOL
REMARK 927      BINDING AFFINITY PREDICTED BY RF-SCORE:    0.00 PKD
ROOT
HETATM    1 BR   UNL     1      -5.140  10.983  66.403  1.00  0.00    -0.118 Br 
HETATM    2  C   UNL     2      -8.559   4.166  65.540  1.00  0.00    -0.118 C  
HETATM    3  C   UNL     2      -8.572   5.429  64.633  1.00  0.00    -0.097 C  
HETATM    4  C   UNL     2      -9.531   6.574  65.074  1.00  0.00     1.137 C  
HETATM    5  C   UNL     2     -10.087   6.451  66.524  1.00  0.00    -0.155 C  
HETATM    6  C   UNL     2      -7.366   5.661  67.333  1.00  0.00    -0.077 C  
HETATM    7  C   UNL     2      -9.906   5.074  67.208  1.00  0.00    -0.179 C  
HETATM    8  C   UNL     2      -9.916   3.468  65.417  1.00  0.00     0.037 C  
HETATM    9  O   UNL     2     -10.396   2.690  66.527  1.00  0.00     1.497 OA 
HETATM   10  N   UNL     2      -8.431   4.614  67.017  1.00  0.00    -0.105 N  
HETATM   11  C   UNL     2      -8.067   3.419  67.933  1.00  0.00    -0.079 C  
HETATM   12  C   UNL     2     -10.780   4.065  66.472  1.00  0.00     1.310 C  
ENDROOT
BRANCH   4  13
HETATM   13  O   UNL     2      -8.904   7.912  64.945  1.00  0.00     0.067 OA 
BRANCH  13  14
HETATM   14  C   UNL     2      -9.425   8.966  65.660  1.00  0.00    -0.159 C  
HETATM   15  C   UNL     2      -8.843  11.490  65.642  1.00  0.00    -0.016 A  
HETATM   16  O   UNL     2     -10.588   8.979  66.013  1.00  0.00     0.154 OA 
HETATM   17  C   UNL     2      -8.226   9.967  67.577  1.00  0.00    -0.114 C  
HETATM   18  C   UNL     2      -8.398  10.068  66.048  1.00  0.00    -0.126 C  
HETATM   19  O   UNL     2      -7.874   8.655  68.015  1.00  0.00    -0.101 OA 
HETATM   20  C   UNL     2      -8.804  12.601  66.518  1.00  0.00    -0.067 A  
HETATM   21  C   UNL     2      -9.337  13.849  66.158  1.00  0.00    -0.124 A  
HETATM   22  H   UNL     2      -7.768   8.593  68.957  1.00  0.00     0.000 HD 
HETATM   23  C   UNL     2      -9.881  14.018  64.891  1.00  0.00     0.002 A  
HETATM   24  C   UNL     2      -9.820  12.976  63.970  1.00  0.00     0.343 A  
HETATM   25  C   UNL     2      -9.289  11.733  64.337  1.00  0.00     0.115 A  
ENDBRANCH  13  14
ENDBRANCH   4  13
TORSDOF 2
ENDMDL
MODEL      233
REMARK 921   NORMALIZED FREE ENERGY PREDICTED BY IDOCK:    3.89 KCAL/MOL
REMARK 922        TOTAL FREE ENERGY PREDICTED BY IDOCK:    3.65 KCAL/MOL
REMARK 923 INTER-LIGAND FREE ENERGY PREDICTED BY IDOCK:    4.40 KCAL/MOL
REMARK 924 INTRA-LIGAND FREE ENERGY PREDICTED BY IDOCK:   -0.75 KCAL/MOL
REMARK 927      BINDING AFFINITY PREDICTED BY RF-SCORE:    0.00 PKD
ROOT
HETATM    1 BR   UNL     1     -11.893  19.651  64.736  1.00  0.00     5.294 Br 
HETATM    2  C   UNL     2      -5.985  16.425  68.423  1.00  0.00    -0.119 C  
HETATM    3  C   UNL     2      -7.067  15.799  67.500  1.00  0.00    -0.215 C  
HETATM    4  C   UNL     2      -8.454  15.534  68.158  1.00  0.00    -0.147 C  
HETATM    5  C   UNL     2      -8.679  16.231  69.532  1.00  0.00     0.103 C  
HETATM    6  C   UNL     2      -7.419  18.618  68.350  1.00  0.00    -0.297 C  
HETATM    7  C   UNL     2      -7.415  16.800  70.222  1.00  0.00     1.863 C  
HETATM    8  C   UNL     2      -5.604  15.395  69.490  1.00  0.00    -0.103 C  
HETATM    9  O   UNL     2      -5.131  15.864  70.765  1.00  0.00    -0.165 OA 
HETATM   10  N   UNL     2      -6.608  17.626  69.179  1.00  0.00    -0.246 N  
HETATM   11  C   UNL     2      -5.511  18.497  69.841  1.00  0.00    -0.227 C  
HETATM   12  C   UNL     2      -6.533  15.626  70.630  1.00  0.00     0.436 C  
ENDROOT
BRANCH   4  13
HETATM   13  O   UNL     2      -9.579  15.916  67.270  1.00  0.00    -0.216 OA 
BRANCH  13  14
HETATM   14  C   UNL     2     -10.688  15.104  67.211  1.00  0.00    -0.305 C  
HETATM   15  C   UNL     2     -11.056  12.663  67.997  1.00  0.00    -0.288 A  
HETATM   16  O   UNL     2     -11.812  15.561  67.276  1.00  0.00    -0.036 OA 
HETATM   17  C   UNL     2     -10.895  13.291  65.542  1.00  0.00    -0.284 C  
HETATM   18  C   UNL     2     -10.387  13.597  66.966  1.00  0.00    -0.260 C  
HETATM   19  O   UNL     2     -10.355  14.167  64.554  1.00  0.00    -0.557 OA 
HETATM   20  C   UNL     2     -11.793  11.508  67.642  1.00  0.00    -0.194 A  
HETATM   21  C   UNL     2     -12.496  10.755  68.595  1.00  0.00     0.769 A  
HETATM   22  H   UNL     2     -10.668  13.979  63.677  1.00  0.00     0.000 HD 
HETATM   23  C   UNL     2     -12.437  11.122  69.933  1.00  0.00    -0.257 A  
HETATM   24  C   UNL     2     -11.620  12.180  70.322  1.00  0.00    -0.105 A  
HETATM   25  C   UNL     2     -10.923  12.929  69.365  1.00  0.00    -0.048 A  
ENDBRANCH  13  14
ENDBRANCH   4  13
TORSDOF 2
ENDMDL
MODEL      234
REMARK 921   NORMALIZED FREE ENERGY PREDICTED BY IDOCK:    4.05 KCAL/MOL
REMARK 922        TOTAL FREE ENERGY PREDICTED BY IDOCK:    3.83 KCAL/MOL
REMARK 923 INTER-LIGAND FREE ENERGY PREDICTED BY IDOCK:    3.16 KCAL/MOL
REMARK 924 INTRA-LIGAND FREE ENERGY PREDICTED BY IDOCK:    0.67 KCAL/MOL
REMARK 927      BINDING AFFINITY PREDICTED BY RF-SCORE:    0.00 PKD
ROOT
HETATM    1 BR   UNL     1      -8.991  10.554  71.689  1.00  0.00     6.923 Br 
HETATM    2  C   UNL     2      -6.809   4.537  67.454  1.00  0.00    -0.059 C  
HETATM    3  C   UNL     2      -7.510   5.863  67.046  1.00  0.00    -0.084 C  
HETATM    4  C   UNL     2      -9.043   5.933  67.315  1.00  0.00    -0.111 C  
HETATM    5  C   UNL     2      -9.602   4.823  68.253  1.00  0.00    -0.204 C  
HETATM    6  C   UNL     2      -7.225   5.266  69.937  1.00  0.00    -0.063 C  
HETATM    7  C   UNL     2      -8.667   3.618  68.516  1.00  0.00    -0.103 C  
HETATM    8  C   UNL     2      -7.314   3.420  66.536  1.00  0.00    -0.075 C  
HETATM    9  O   UNL     2      -7.327   2.070  67.034  1.00  0.00    -0.057 OA 
HETATM   10  N   UNL     2      -7.254   4.157  68.888  1.00  0.00    -0.054 N  
HETATM   11  C   UNL     2      -6.343   3.054  69.482  1.00  0.00    -0.029 C  
HETATM   12  C   UNL     2      -8.512   2.848  67.210  1.00  0.00    -0.095 C  
ENDROOT
BRANCH   4  13
HETATM   13  O   UNL     2      -9.455   7.244  67.874  1.00  0.00    -0.135 OA 
BRANCH  13  14
HETATM   14  C   UNL     2      -8.975   8.397  67.299  1.00  0.00    -0.130 C  
HETATM   15  C   UNL     2     -10.172  10.248  65.938  1.00  0.00    -0.293 A  
HETATM   16  O   UNL     2      -8.040   9.005  67.782  1.00  0.00    -0.108 OA 
HETATM   17  C   UNL     2      -8.588   8.580  64.863  1.00  0.00    -0.108 C  
HETATM   18  C   UNL     2      -9.654   8.793  65.956  1.00  0.00    -0.297 C  
HETATM   19  O   UNL     2      -8.029   7.267  64.874  1.00  0.00    -0.120 OA 
HETATM   20  C   UNL     2      -9.917  11.154  64.881  1.00  0.00    -0.331 A  
HETATM   21  C   UNL     2     -10.291  12.505  64.956  1.00  0.00    -0.323 A  
HETATM   22  H   UNL     2      -7.372   7.136  64.201  1.00  0.00     0.000 HD 
HETATM   23  C   UNL     2     -10.969  12.964  66.078  1.00  0.00    -0.301 A  
HETATM   24  C   UNL     2     -11.338  12.065  67.075  1.00  0.00    -0.396 A  
HETATM   25  C   UNL     2     -10.960  10.719  66.995  1.00  0.00    -0.292 A  
ENDBRANCH  13  14
ENDBRANCH   4  13
TORSDOF 2
ENDMDL
MODEL      235
REMARK 921   NORMALIZED FREE ENERGY PREDICTED BY IDOCK:    4.06 KCAL/MOL
REMARK 922        TOTAL FREE ENERGY PREDICTED BY IDOCK:    3.83 KCAL/MOL
REMARK 923 INTER-LIGAND FREE ENERGY PREDICTED BY IDOCK:    2.16 KCAL/MOL
REMARK 924 INTRA-LIGAND FREE ENERGY PREDICTED BY IDOCK:    1.68 KCAL/MOL
REMARK 927      BINDING AFFINITY PREDICTED BY RF-SCORE:    0.00 PKD
ROOT
HETATM    1 BR   UNL     1      -7.205  11.158  68.845  1.00  0.00    -0.114 Br 
HETATM    2  C   UNL     2     -13.350  14.951  71.444  1.00  0.00    -0.413 C  
HETATM    3  C   UNL     2     -12.291  15.347  70.378  1.00  0.00    -0.443 C  
HETATM    4  C   UNL     2     -10.934  15.874  70.929  1.00  0.00    -0.187 C  
HETATM    5  C   UNL     2     -10.691  15.620  72.446  1.00  0.00     1.228 C  
HETATM    6  C   UNL     2     -11.791  12.922  72.009  1.00  0.00     2.255 C  
HETATM    7  C   UNL     2     -11.931  15.201  73.273  1.00  0.00    -0.362 C  
HETATM    8  C   UNL     2     -13.808  16.222  72.167  1.00  0.00     0.881 C  
HETATM    9  O   UNL     2     -14.274  16.115  73.523  1.00  0.00    -0.054 OA 
HETATM   10  N   UNL     2     -12.672  14.061  72.515  1.00  0.00    -0.270 N  
HETATM   11  C   UNL     2     -13.726  13.355  73.404  1.00  0.00     2.480 C  
HETATM   12  C   UNL     2     -12.886  16.388  73.324  1.00  0.00    -0.252 C  
ENDROOT
BRANCH   4  13
HETATM   13  O   UNL     2      -9.774  15.321  70.189  1.00  0.00    -0.135 OA 
BRANCH  13  14
HETATM   14  C   UNL     2      -9.951  14.886  68.896  1.00  0.00    -0.233 C  
HETATM   15  C   UNL     2      -9.544  12.571  67.806  1.00  0.00    -0.203 A  
HETATM   16  O   UNL     2     -10.822  15.348  68.186  1.00  0.00    -0.265 OA 
HETATM   17  C   UNL     2      -8.048  14.571  67.349  1.00  0.00    -0.200 C  
HETATM   18  C   UNL     2      -8.906  13.844  68.404  1.00  0.00    -0.177 C  
HETATM   19  O   UNL     2      -7.482  15.790  67.829  1.00  0.00    -0.126 OA 
HETATM   20  C   UNL     2      -9.152  12.009  66.568  1.00  0.00    -0.202 A  
HETATM   21  C   UNL     2      -9.840  10.929  65.993  1.00  0.00    -0.280 A  
HETATM   22  H   UNL     2      -6.955  16.238  67.179  1.00  0.00     0.000 HD 
HETATM   23  C   UNL     2     -10.911  10.362  66.673  1.00  0.00    -0.140 A  
HETATM   24  C   UNL     2     -11.236  10.819  67.947  1.00  0.00    -0.386 A  
HETATM   25  C   UNL     2     -10.547  11.899  68.514  1.00  0.00    -0.245 A  
ENDBRANCH  13  14
ENDBRANCH   4  13
TORSDOF 2
ENDMDL
MODEL      236
REMARK 921   NORMALIZED FREE ENERGY PREDICTED BY IDOCK:    4.67 KCAL/MOL
REMARK 922        TOTAL FREE ENERGY PREDICTED BY IDOCK:    4.52 KCAL/MOL
REMARK 923 INTER-LIGAND FREE ENERGY PREDICTED BY IDOCK:   -2.35 KCAL/MOL
REMARK 924 INTRA-LIGAND FREE ENERGY PREDICTED BY IDOCK:    6.87 KCAL/MOL
REMARK 927      BINDING AFFINITY PREDICTED BY RF-SCORE:    0.00 PKD
ROOT
HETATM    1 BR   UNL     1      -9.700  10.251  64.183  1.00  0.00    -0.296 Br 
HETATM    2  C   UNL     2      -6.988   4.273  68.159  1.00  0.00    -0.055 C  
HETATM    3  C   UNL     2      -8.209   4.385  67.204  1.00  0.00    -0.101 C  
HETATM    4  C   UNL     2      -9.491   5.028  67.811  1.00  0.00    -0.133 C  
HETATM    5  C   UNL     2      -9.283   5.773  69.162  1.00  0.00    -0.135 C  
HETATM    6  C   UNL     2      -6.819   6.884  67.991  1.00  0.00    -0.078 C  
HETATM    7  C   UNL     2      -7.947   5.497  69.893  1.00  0.00    -0.083 C  
HETATM    8  C   UNL     2      -7.324   3.261  69.259  1.00  0.00    -0.048 C  
HETATM    9  O   UNL     2      -6.692   3.402  70.543  1.00  0.00    -0.032 OA 
HETATM   10  N   UNL     2      -6.783   5.635  68.869  1.00  0.00    -0.051 N  
HETATM   11  C   UNL     2      -5.398   5.701  69.560  1.00  0.00    -0.004 C  
HETATM   12  C   UNL     2      -7.954   4.045  70.357  1.00  0.00    -0.051 C  
ENDROOT
BRANCH   4  13
HETATM   13  O   UNL     2     -10.144   5.973  66.872  1.00  0.00    -0.153 OA 
BRANCH  13  14
HETATM   14  C   UNL     2     -10.455   7.240  67.309  1.00  0.00    -0.310 C  
HETATM   15  C   UNL     2      -8.965   9.118  68.290  1.00  0.00    -0.129 A  
HETATM   16  O   UNL     2     -11.367   7.874  66.815  1.00  0.00     0.617 OA 
HETATM   17  C   UNL     2     -10.599   7.796  69.714  1.00  0.00    -0.241 C  
HETATM   18  C   UNL     2      -9.621   7.740  68.523  1.00  0.00    -0.151 C  
HETATM   19  O   UNL     2     -11.281   6.563  69.938  1.00  0.00    -0.329 OA 
HETATM   20  C   UNL     2      -9.033  10.183  69.221  1.00  0.00    -0.193 A  
HETATM   21  C   UNL     2      -8.538  11.461  68.921  1.00  0.00    -0.020 A  
HETATM   22  H   UNL     2     -11.884   6.597  70.671  1.00  0.00     0.000 HD 
HETATM   23  C   UNL     2      -7.923  11.686  67.696  1.00  0.00    -0.136 A  
HETATM   24  C   UNL     2      -7.736  10.624  66.815  1.00  0.00    -0.127 A  
HETATM   25  C   UNL     2      -8.235   9.351  67.119  1.00  0.00    -0.113 A  
ENDBRANCH  13  14
ENDBRANCH   4  13
TORSDOF 2
ENDMDL
MODEL      237
REMARK 921   NORMALIZED FREE ENERGY PREDICTED BY IDOCK:    5.90 KCAL/MOL
REMARK 922        TOTAL FREE ENERGY PREDICTED BY IDOCK:    5.89 KCAL/MOL
REMARK 923 INTER-LIGAND FREE ENERGY PREDICTED BY IDOCK:    6.17 KCAL/MOL
REMARK 924 INTRA-LIGAND FREE ENERGY PREDICTED BY IDOCK:   -0.28 KCAL/MOL
REMARK 927      BINDING AFFINITY PREDICTED BY RF-SCORE:    0.00 PKD
ROOT
HETATM    1 BR   UNL     1     -10.725  14.979  68.202  1.00  0.00    -0.263 Br 
HETATM    2  C   UNL     2      -7.482   8.219  66.563  1.00  0.00    -0.081 C  
HETATM    3  C   UNL     2      -8.537   8.603  67.637  1.00  0.00    -0.136 C  
HETATM    4  C   UNL     2      -7.984   9.282  68.924  1.00  0.00    -0.098 C  
HETATM    5  C   UNL     2      -6.515   9.791  68.825  1.00  0.00    -0.046 C  
HETATM    6  C   UNL     2      -7.208  10.792  66.142  1.00  0.00    -0.126 C  
HETATM    7  C   UNL     2      -5.692   9.268  67.623  1.00  0.00    -0.041 C  
HETATM    8  C   UNL     2      -6.604   7.097  67.126  1.00  0.00    -0.059 C  
HETATM    9  O   UNL     2      -5.251   6.976  66.653  1.00  0.00    -0.020 OA 
HETATM   10  N   UNL     2      -6.544   9.430  66.330  1.00  0.00    -0.070 N  
HETATM   11  C   UNL     2      -5.700   9.243  65.044  1.00  0.00    -0.058 C  
HETATM   12  C   UNL     2      -5.473   7.772  67.818  1.00  0.00    -0.032 C  
ENDROOT
BRANCH   4  13
HETATM   13  O   UNL     2      -8.826  10.422  69.364  1.00  0.00    -0.167 OA 
BRANCH  13  14
HETATM   14  C   UNL     2      -9.429  10.369  70.599  1.00  0.00     1.256 C  
HETATM   15  C   UNL     2     -11.660   9.293  71.360  1.00  0.00    -0.437 A  
HETATM   16  O   UNL     2      -8.775  10.343  71.624  1.00  0.00     3.004 OA 
HETATM   17  C   UNL     2     -11.356  11.807  71.177  1.00  0.00     1.992 C  
HETATM   18  C   UNL     2     -10.983  10.437  70.574  1.00  0.00    -0.270 C  
HETATM   19  O   UNL     2     -10.708  12.900  70.527  1.00  0.00     1.081 OA 
HETATM   20  C   UNL     2     -12.699   9.498  72.300  1.00  0.00    -0.388 A  
HETATM   21  C   UNL     2     -13.200   8.453  73.090  1.00  0.00     0.736 A  
HETATM   22  H   UNL     2     -10.938  13.743  70.898  1.00  0.00     0.000 HD 
HETATM   23  C   UNL     2     -12.699   7.168  72.921  1.00  0.00     1.017 A  
HETATM   24  C   UNL     2     -11.766   6.920  71.919  1.00  0.00    -0.334 A  
HETATM   25  C   UNL     2     -11.267   7.968  71.136  1.00  0.00    -0.287 A  
ENDBRANCH  13  14
ENDBRANCH   4  13
TORSDOF 2
ENDMDL
MODEL      238
REMARK 921   NORMALIZED FREE ENERGY PREDICTED BY IDOCK:    6.04 KCAL/MOL
REMARK 922        TOTAL FREE ENERGY PREDICTED BY IDOCK:    6.05 KCAL/MOL
REMARK 923 INTER-LIGAND FREE ENERGY PREDICTED BY IDOCK:   -3.01 KCAL/MOL
REMARK 924 INTRA-LIGAND FREE ENERGY PREDICTED BY IDOCK:    9.06 KCAL/MOL
REMARK 927      BINDING AFFINITY PREDICTED BY RF-SCORE:    0.00 PKD
ROOT
HETATM    1 BR   UNL     1     -10.951  16.685  71.233  1.00  0.00     0.889 Br 
HETATM    2  C   UNL     2      -9.742  13.260  64.472  1.00  0.00     0.294 C  
HETATM    3  C   UNL     2     -10.485  14.579  64.821  1.00  0.00    -0.365 C  
HETATM    4  C   UNL     2     -11.934  14.421  65.368  1.00  0.00    -0.369 C  
HETATM    5  C   UNL     2     -12.322  12.979  65.810  1.00  0.00    -0.477 C  
HETATM    6  C   UNL     2      -9.656  12.812  67.054  1.00  0.00    -0.229 C  
HETATM    7  C   UNL     2     -11.375  11.846  65.343  1.00  0.00    -0.277 C  
HETATM    8  C   UNL     2     -10.436  12.618  63.267  1.00  0.00     0.161 C  
HETATM    9  O   UNL     2     -10.377  11.189  63.117  1.00  0.00    -0.343 OA 
HETATM   10  N   UNL     2      -9.908  12.267  65.650  1.00  0.00    -0.248 N  
HETATM   11  C   UNL     2      -8.919  11.081  65.524  1.00  0.00    -0.194 C  
HETATM   12  C   UNL     2     -11.491  11.730  63.828  1.00  0.00    -0.420 C  
ENDROOT
BRANCH   4  13
HETATM   13  O   UNL     2     -12.206  15.329  66.509  1.00  0.00     0.253 OA 
BRANCH  13  14
HETATM   14  C   UNL     2     -11.170  15.687  67.340  1.00  0.00    -0.219 C  
HETATM   15  C   UNL     2      -9.885  17.922  67.593  1.00  0.00    -0.304 A  
HETATM   16  O   UNL     2     -11.047  15.200  68.447  1.00  0.00    -0.258 OA 
HETATM   17  C   UNL     2      -8.843  15.869  66.525  1.00  0.00    -0.305 C  
HETATM   18  C   UNL     2     -10.142  16.676  66.719  1.00  0.00    -0.293 C  
HETATM   19  O   UNL     2      -9.034  14.671  65.774  1.00  0.00    -0.419 OA 
HETATM   20  C   UNL     2      -8.591  18.400  67.911  1.00  0.00    -0.285 A  
HETATM   21  C   UNL     2      -8.391  19.456  68.814  1.00  0.00    -0.379 A  
HETATM   22  H   UNL     2      -8.234  14.173  65.655  1.00  0.00     0.000 HD 
HETATM   23  C   UNL     2      -9.492  20.085  69.383  1.00  0.00     0.161 A  
HETATM   24  C   UNL     2     -10.775  19.714  68.991  1.00  0.00     0.482 A  
HETATM   25  C   UNL     2     -10.967  18.657  68.092  1.00  0.00     0.126 A  
ENDBRANCH  13  14
ENDBRANCH   4  13
TORSDOF 2
ENDMDL
MODEL      239
REMARK 921   NORMALIZED FREE ENERGY PREDICTED BY IDOCK:    6.16 KCAL/MOL
REMARK 922        TOTAL FREE ENERGY PREDICTED BY IDOCK:    6.18 KCAL/MOL
REMARK 923 INTER-LIGAND FREE ENERGY PREDICTED BY IDOCK:    6.62 KCAL/MOL
REMARK 924 INTRA-LIGAND FREE ENERGY PREDICTED BY IDOCK:   -0.43 KCAL/MOL
REMARK 927      BINDING AFFINITY PREDICTED BY RF-SCORE:    0.00 PKD
ROOT
HETATM    1 BR   UNL     1      -9.791  13.547  64.479  1.00  0.00     0.498 Br 
HETATM    2  C   UNL     2     -11.970  13.764  71.835  1.00  0.00     0.627 C  
HETATM    3  C   UNL     2     -11.090  12.738  71.068  1.00  0.00     2.887 C  
HETATM    4  C   UNL     2     -11.857  11.693  70.205  1.00  0.00    -0.344 C  
HETATM    5  C   UNL     2     -13.359  12.018  69.953  1.00  0.00     1.877 C  
HETATM    6  C   UNL     2     -12.518  14.804  69.492  1.00  0.00    -0.100 C  
HETATM    7  C   UNL     2     -13.978  13.119  70.849  1.00  0.00     1.529 C  
HETATM    8  C   UNL     2     -12.754  13.016  72.918  1.00  0.00     1.143 C  
HETATM    9  O   UNL     2     -14.024  13.545  73.339  1.00  0.00     0.719 OA 
HETATM   10  N   UNL     2     -13.022  14.347  70.859  1.00  0.00    -0.351 N  
HETATM   11  C   UNL     2     -13.695  15.610  71.453  1.00  0.00    -0.298 C  
HETATM   12  C   UNL     2     -14.028  12.590  72.277  1.00  0.00     0.028 C  
ENDROOT
BRANCH   4  13
HETATM   13  O   UNL     2     -11.217  11.476  68.885  1.00  0.00    -0.206 OA 
BRANCH  13  14
HETATM   14  C   UNL     2      -9.929  10.997  68.838  1.00  0.00    -0.188 C  
HETATM   15  C   UNL     2      -7.950  11.579  67.270  1.00  0.00    -0.153 A  
HETATM   16  O   UNL     2      -9.352  10.628  69.843  1.00  0.00     0.102 OA 
HETATM   17  C   UNL     2      -9.198   9.373  67.122  1.00  0.00    -0.134 C  
HETATM   18  C   UNL     2      -9.321  10.883  67.410  1.00  0.00    -0.166 C  
HETATM   19  O   UNL     2     -10.426   8.667  67.297  1.00  0.00    -0.274 OA 
HETATM   20  C   UNL     2      -6.821  10.968  66.675  1.00  0.00    -0.137 A  
HETATM   21  C   UNL     2      -5.557  11.579  66.681  1.00  0.00    -0.140 A  
HETATM   22  H   UNL     2     -10.350   7.737  67.120  1.00  0.00     0.000 HD 
HETATM   23  C   UNL     2      -5.411  12.839  67.247  1.00  0.00     0.031 A  
HETATM   24  C   UNL     2      -6.531  13.511  67.728  1.00  0.00    -0.175 A  
HETATM   25  C   UNL     2      -7.789  12.894  67.721  1.00  0.00    -0.158 A  
ENDBRANCH  13  14
ENDBRANCH   4  13
TORSDOF 2
ENDMDL
MODEL      240
REMARK 921   NORMALIZED FREE ENERGY PREDICTED BY IDOCK:    6.48 KCAL/MOL
REMARK 922        TOTAL FREE ENERGY PREDICTED BY IDOCK:    6.53 KCAL/MOL
REMARK 923 INTER-LIGAND FREE ENERGY PREDICTED BY IDOCK:    3.93 KCAL/MOL
REMARK 924 INTRA-LIGAND FREE ENERGY PREDICTED BY IDOCK:    2.61 KCAL/MOL
REMARK 927      BINDING AFFINITY PREDICTED BY RF-SCORE:    0.00 PKD
ROOT
HETATM    1 BR   UNL     1     -14.368  15.528  71.968  1.00  0.00    -0.510 Br 
HETATM    2  C   UNL     2      -9.149  17.199  66.596  1.00  0.00    -0.258 C  
HETATM    3  C   UNL     2      -9.071  17.285  68.145  1.00  0.00    -0.257 C  
HETATM    4  C   UNL     2      -9.743  18.531  68.793  1.00  0.00    -0.357 C  
HETATM    5  C   UNL     2     -10.685  19.340  67.853  1.00  0.00    -0.417 C  
HETATM    6  C   UNL     2     -11.711  16.744  66.908  1.00  0.00     1.315 C  
HETATM    7  C   UNL     2     -10.573  19.024  66.341  1.00  0.00    -0.409 C  
HETATM    8  C   UNL     2      -8.295  18.326  66.005  1.00  0.00    -0.024 C  
HETATM    9  O   UNL     2      -8.647  18.854  64.714  1.00  0.00     2.325 OA 
HETATM   10  N   UNL     2     -10.607  17.479  66.153  1.00  0.00    -0.271 N  
HETATM   11  C   UNL     2     -10.828  17.073  64.674  1.00  0.00     0.491 C  
HETATM   12  C   UNL     2      -9.205  19.495  65.862  1.00  0.00    -0.071 C  
ENDROOT
BRANCH   4  13
HETATM   13  O   UNL     2     -10.515  18.184  70.012  1.00  0.00     0.556 OA 
BRANCH  13  14
HETATM   14  C   UNL     2     -10.338  16.946  70.584  1.00  0.00     1.254 C  
HETATM   15  C   UNL     2     -11.609  14.714  70.242  1.00  0.00    -0.335 A  
HETATM   16  O   UNL     2      -9.239  16.558  70.930  1.00  0.00     2.990 OA 
HETATM   17  C   UNL     2     -11.838  16.098  72.358  1.00  0.00    -0.538 C  
HETATM   18  C   UNL     2     -11.648  16.142  70.829  1.00  0.00    -0.382 C  
HETATM   19  O   UNL     2     -11.819  17.390  72.962  1.00  0.00     0.070 OA 
HETATM   20  C   UNL     2     -11.992  13.560  70.968  1.00  0.00    -0.081 A  
HETATM   21  C   UNL     2     -11.821  12.268  70.450  1.00  0.00    -0.259 A  
HETATM   22  H   UNL     2     -11.935  17.363  73.905  1.00  0.00     0.000 HD 
HETATM   23  C   UNL     2     -11.303  12.108  69.171  1.00  0.00    -0.333 A  
HETATM   24  C   UNL     2     -11.035  13.230  68.392  1.00  0.00    -0.289 A  
HETATM   25  C   UNL     2     -11.205  14.518  68.916  1.00  0.00    -0.283 A  
ENDBRANCH  13  14
ENDBRANCH   4  13
TORSDOF 2
ENDMDL
MODEL      241
REMARK 921   NORMALIZED FREE ENERGY PREDICTED BY IDOCK:    6.56 KCAL/MOL
REMARK 922        TOTAL FREE ENERGY PREDICTED BY IDOCK:    6.63 KCAL/MOL
REMARK 923 INTER-LIGAND FREE ENERGY PREDICTED BY IDOCK:    6.58 KCAL/MOL
REMARK 924 INTRA-LIGAND FREE ENERGY PREDICTED BY IDOCK:    0.05 KCAL/MOL
REMARK 927      BINDING AFFINITY PREDICTED BY RF-SCORE:    0.00 PKD
ROOT
HETATM    1 BR   UNL     1      -5.396  16.926  62.700  1.00  0.00     6.899 Br 
HETATM    2  C   UNL     2     -11.443  14.098  66.487  1.00  0.00    -0.358 C  
HETATM    3  C   UNL     2     -10.343  15.100  66.937  1.00  0.00    -0.272 C  
HETATM    4  C   UNL     2      -8.979  14.473  67.351  1.00  0.00    -0.200 C  
HETATM    5  C   UNL     2      -8.784  12.983  66.943  1.00  0.00    -0.158 C  
HETATM    6  C   UNL     2      -9.981  13.699  64.348  1.00  0.00     0.280 C  
HETATM    7  C   UNL     2     -10.059  12.225  66.500  1.00  0.00    -0.215 C  
HETATM    8  C   UNL     2     -11.866  13.265  67.701  1.00  0.00    -0.357 C  
HETATM    9  O   UNL     2     -12.368  11.935  67.485  1.00  0.00    -0.326 OA 
HETATM   10  N   UNL     2     -10.827  13.104  65.470  1.00  0.00    -0.280 N  
HETATM   11  C   UNL     2     -11.930  12.309  64.728  1.00  0.00    -0.362 C  
HETATM   12  C   UNL     2     -10.966  12.080  67.717  1.00  0.00    -0.232 C  
ENDROOT
BRANCH   4  13
HETATM   13  O   UNL     2      -7.825  15.239  66.821  1.00  0.00    -0.176 OA 
BRANCH  13  14
HETATM   14  C   UNL     2      -7.437  16.392  67.463  1.00  0.00    -0.141 C  
HETATM   15  C   UNL     2      -8.790  18.483  68.175  1.00  0.00    -0.327 A  
HETATM   16  O   UNL     2      -6.530  16.393  68.271  1.00  0.00    -0.125 OA 
HETATM   17  C   UNL     2      -7.135  18.526  66.251  1.00  0.00    -0.250 C  
HETATM   18  C   UNL     2      -8.180  17.681  67.006  1.00  0.00    -0.239 C  
HETATM   19  O   UNL     2      -6.493  17.812  65.196  1.00  0.00    -0.105 OA 
HETATM   20  C   UNL     2      -8.626  19.880  68.334  1.00  0.00    -0.219 A  
HETATM   21  C   UNL     2      -9.084  20.556  69.476  1.00  0.00     1.198 A  
HETATM   22  H   UNL     2      -5.849  18.334  64.731  1.00  0.00     0.000 HD 
HETATM   23  C   UNL     2      -9.756  19.848  70.464  1.00  0.00     1.124 A  
HETATM   24  C   UNL     2     -10.038  18.498  70.273  1.00  0.00     1.461 A  
HETATM   25  C   UNL     2      -9.575  17.829  69.132  1.00  0.00    -0.041 A  
ENDBRANCH  13  14
ENDBRANCH   4  13
TORSDOF 2
ENDMDL
MODEL      242
REMARK 921   NORMALIZED FREE ENERGY PREDICTED BY IDOCK:    6.95 KCAL/MOL
REMARK 922        TOTAL FREE ENERGY PREDICTED BY IDOCK:    7.06 KCAL/MOL
REMARK 923 INTER-LIGAND FREE ENERGY PREDICTED BY IDOCK:    6.05 KCAL/MOL
REMARK 924 INTRA-LIGAND FREE ENERGY PREDICTED BY IDOCK:    1.01 KCAL/MOL
REMARK 927      BINDING AFFINITY PREDICTED BY RF-SCORE:    0.00 PKD
ROOT
HETATM    1 BR   UNL     1     -10.101  18.732  72.928  1.00  0.00     5.692 Br 
HETATM    2  C   UNL     2      -7.661  18.801  65.651  1.00  0.00     0.170 C  
HETATM    3  C   UNL     2      -7.312  17.848  66.829  1.00  0.00    -0.234 C  
HETATM    4  C   UNL     2      -6.274  18.388  67.856  1.00  0.00    -0.184 C  
HETATM    5  C   UNL     2      -5.982  19.915  67.764  1.00  0.00    -0.220 C  
HETATM    6  C   UNL     2      -8.886  20.289  67.428  1.00  0.00    -0.344 C  
HETATM    7  C   UNL     2      -6.477  20.626  66.481  1.00  0.00    -0.252 C  
HETATM    8  C   UNL     2      -6.423  18.944  64.761  1.00  0.00     0.048 C  
HETATM    9  O   UNL     2      -6.252  20.158  64.008  1.00  0.00    -0.256 OA 
HETATM   10  N   UNL     2      -7.955  20.211  66.221  1.00  0.00    -0.277 N  
HETATM   11  C   UNL     2      -8.638  21.110  65.160  1.00  0.00     2.364 C  
HETATM   12  C   UNL     2      -5.660  20.100  65.306  1.00  0.00    -0.171 C  
ENDROOT
BRANCH   4  13
HETATM   13  O   UNL     2      -6.661  18.088  69.256  1.00  0.00    -0.250 OA 
BRANCH  13  14
HETATM   14  C   UNL     2      -7.168  16.846  69.558  1.00  0.00     0.048 C  
HETATM   15  C   UNL     2      -7.469  14.728  68.095  1.00  0.00    -0.119 A  
HETATM   16  O   UNL     2      -7.058  16.369  70.670  1.00  0.00     1.364 OA 
HETATM   17  C   UNL     2      -9.433  16.150  68.849  1.00  0.00    -0.244 C  
HETATM   18  C   UNL     2      -7.957  16.160  68.404  1.00  0.00    -0.162 C  
HETATM   19  O   UNL     2      -9.919  17.442  69.208  1.00  0.00    -0.227 OA 
HETATM   20  C   UNL     2      -8.339  13.620  67.956  1.00  0.00    -0.170 A  
HETATM   21  C   UNL     2      -7.854  12.312  67.805  1.00  0.00    -0.151 A  
HETATM   22  H   UNL     2     -10.829  17.436  69.482  1.00  0.00     0.000 HD 
HETATM   23  C   UNL     2      -6.484  12.094  67.746  1.00  0.00    -0.095 A  
HETATM   24  C   UNL     2      -5.613  13.180  67.757  1.00  0.00    -0.119 A  
HETATM   25  C   UNL     2      -6.103  14.483  67.911  1.00  0.00    -0.161 A  
ENDBRANCH  13  14
ENDBRANCH   4  13
TORSDOF 2
ENDMDL
MODEL      243
REMARK 921   NORMALIZED FREE ENERGY PREDICTED BY IDOCK:    9.95 KCAL/MOL
REMARK 922        TOTAL FREE ENERGY PREDICTED BY IDOCK:   10.42 KCAL/MOL
REMARK 923 INTER-LIGAND FREE ENERGY PREDICTED BY IDOCK:    4.40 KCAL/MOL
REMARK 924 INTRA-LIGAND FREE ENERGY PREDICTED BY IDOCK:    6.01 KCAL/MOL
REMARK 927      BINDING AFFINITY PREDICTED BY RF-SCORE:    0.00 PKD
ROOT
HETATM    1 BR   UNL     1     -11.661  12.712  71.758  1.00  0.00     2.930 Br 
HETATM    2  C   UNL     2      -9.197  11.710  64.559  1.00  0.00     0.156 C  
HETATM    3  C   UNL     2      -9.919  12.914  65.224  1.00  0.00    -0.192 C  
HETATM    4  C   UNL     2     -11.460  12.773  65.398  1.00  0.00    -0.327 C  
HETATM    5  C   UNL     2     -12.021  11.334  65.200  1.00  0.00     0.822 C  
HETATM    6  C   UNL     2      -9.709  10.389  66.764  1.00  0.00    -0.181 C  
HETATM    7  C   UNL     2     -11.063  10.316  64.534  1.00  0.00     1.832 C  
HETATM    8  C   UNL     2      -9.645  11.625  63.096  1.00  0.00    -0.323 C  
HETATM    9  O   UNL     2      -9.639  10.342  62.446  1.00  0.00    -0.278 OA 
HETATM   10  N   UNL     2      -9.677  10.402  65.238  1.00  0.00    -0.255 N  
HETATM   11  C   UNL     2      -8.757   9.212  64.870  1.00  0.00    -0.182 C  
HETATM   12  C   UNL     2     -10.849  10.749  63.088  1.00  0.00     0.604 C  
ENDROOT
BRANCH   4  13
HETATM   13  O   UNL     2     -11.923  13.258  66.722  1.00  0.00    -0.382 OA 
BRANCH  13  14
HETATM   14  C   UNL     2     -10.994  13.703  67.632  1.00  0.00    -0.267 C  
HETATM   15  C   UNL     2     -11.194  15.402  69.578  1.00  0.00    -0.289 A  
HETATM   16  O   UNL     2     -10.088  12.990  68.015  1.00  0.00    -0.222 OA 
HETATM   17  C   UNL     2      -9.935  15.930  67.438  1.00  0.00    -0.239 C  
HETATM   18  C   UNL     2     -11.145  15.195  68.049  1.00  0.00    -0.310 C  
HETATM   19  O   UNL     2      -9.805  15.722  66.032  1.00  0.00    -0.287 OA 
HETATM   20  C   UNL     2     -10.416  16.367  70.261  1.00  0.00     0.101 A  
HETATM   21  C   UNL     2     -10.388  16.440  71.663  1.00  0.00     2.643 A  
HETATM   22  H   UNL     2      -9.059  16.175  65.656  1.00  0.00     0.000 HD 
HETATM   23  C   UNL     2     -11.178  15.573  72.407  1.00  0.00    -0.175 A  
HETATM   24  C   UNL     2     -12.044  14.699  71.756  1.00  0.00    -0.391 A  
HETATM   25  C   UNL     2     -12.064  14.629  70.357  1.00  0.00    -0.383 A  
ENDBRANCH  13  14
ENDBRANCH   4  13
TORSDOF 2
ENDMDL
MODEL      244
REMARK 921   NORMALIZED FREE ENERGY PREDICTED BY IDOCK:   10.37 KCAL/MOL
REMARK 922        TOTAL FREE ENERGY PREDICTED BY IDOCK:   10.89 KCAL/MOL
REMARK 923 INTER-LIGAND FREE ENERGY PREDICTED BY IDOCK:   -5.21 KCAL/MOL
REMARK 924 INTRA-LIGAND FREE ENERGY PREDICTED BY IDOCK:   16.10 KCAL/MOL
REMARK 927      BINDING AFFINITY PREDICTED BY RF-SCORE:    0.00 PKD
ROOT
HETATM    1 BR   UNL     1     -10.517   8.026  67.154  1.00  0.00    -0.377 Br 
HETATM    2  C   UNL     2      -9.545  15.558  68.262  1.00  0.00    -0.201 C  
HETATM    3  C   UNL     2     -10.664  14.598  68.752  1.00  0.00    -0.252 C  
HETATM    4  C   UNL     2     -11.763  14.241  67.707  1.00  0.00    -0.374 C  
HETATM    5  C   UNL     2     -11.420  14.611  66.234  1.00  0.00    -0.351 C  
HETATM    6  C   UNL     2      -8.715  13.571  66.767  1.00  0.00    -0.083 C  
HETATM    7  C   UNL     2     -10.223  15.572  66.033  1.00  0.00    -0.330 C  
HETATM    8  C   UNL     2     -10.165  16.937  68.014  1.00  0.00    -0.310 C  
HETATM    9  O   UNL     2      -9.563  17.798  67.032  1.00  0.00    -0.268 OA 
HETATM   10  N   UNL     2      -9.027  15.061  66.889  1.00  0.00    -0.235 N  
HETATM   11  C   UNL     2      -7.695  15.756  66.510  1.00  0.00     0.017 C  
HETATM   12  C   UNL     2     -10.613  16.934  66.595  1.00  0.00    -0.189 C  
ENDROOT
BRANCH   4  13
HETATM   13  O   UNL     2     -12.121  12.802  67.738  1.00  0.00    -0.314 OA 
BRANCH  13  14
HETATM   14  C   UNL     2     -11.265  11.888  67.171  1.00  0.00    -0.319 C  
HETATM   15  C   UNL     2      -8.689  11.649  67.318  1.00  0.00    -0.159 A  
HETATM   16  O   UNL     2     -11.611  10.744  66.954  1.00  0.00    -0.255 OA 
HETATM   17  C   UNL     2      -9.862  12.449  65.213  1.00  0.00    -0.161 C  
HETATM   18  C   UNL     2      -9.877  12.458  66.755  1.00  0.00    -0.228 C  
HETATM   19  O   UNL     2     -10.974  13.132  64.637  1.00  0.00    -0.320 OA 
HETATM   20  C   UNL     2      -7.592  11.222  66.531  1.00  0.00    -0.111 A  
HETATM   21  C   UNL     2      -6.595  10.379  67.045  1.00  0.00    -0.075 A  
HETATM   22  H   UNL     2     -10.965  13.126  63.687  1.00  0.00     0.000 HD 
HETATM   23  C   UNL     2      -6.655   9.982  68.375  1.00  0.00    -0.054 A  
HETATM   24  C   UNL     2      -7.656  10.487  69.199  1.00  0.00    -0.123 A  
HETATM   25  C   UNL     2      -8.650  11.326  68.679  1.00  0.00    -0.139 A  
ENDBRANCH  13  14
ENDBRANCH   4  13
TORSDOF 2
ENDMDL
MODEL      245
REMARK 921   NORMALIZED FREE ENERGY PREDICTED BY IDOCK:   11.14 KCAL/MOL
REMARK 922        TOTAL FREE ENERGY PREDICTED BY IDOCK:   11.75 KCAL/MOL
REMARK 923 INTER-LIGAND FREE ENERGY PREDICTED BY IDOCK:   11.50 KCAL/MOL
REMARK 924 INTRA-LIGAND FREE ENERGY PREDICTED BY IDOCK:    0.25 KCAL/MOL
REMARK 927      BINDING AFFINITY PREDICTED BY RF-SCORE:    0.00 PKD
ROOT
HETATM    1 BR   UNL     1      -5.185   7.936  71.267  1.00  0.00    -0.030 Br 
HETATM    2  C   UNL     2     -12.226  10.888  70.486  1.00  0.00    -0.367 C  
HETATM    3  C   UNL     2     -11.704   9.441  70.264  1.00  0.00    -0.127 C  
HETATM    4  C   UNL     2     -10.966   9.182  68.918  1.00  0.00     0.017 C  
HETATM    5  C   UNL     2     -10.553  10.462  68.132  1.00  0.00    -0.246 C  
HETATM    6  C   UNL     2      -9.712  11.591  70.720  1.00  0.00     5.330 C  
HETATM    7  C   UNL     2     -11.211  11.786  68.592  1.00  0.00    -0.257 C  
HETATM    8  C   UNL     2     -13.355  11.154  69.484  1.00  0.00     1.870 C  
HETATM    9  O   UNL     2     -13.590  12.506  69.052  1.00  0.00     3.437 OA 
HETATM   10  N   UNL     2     -11.093  11.887  70.141  1.00  0.00     0.259 N  
HETATM   11  C   UNL     2     -11.423  13.307  70.663  1.00  0.00     0.588 C  
HETATM   12  C   UNL     2     -12.699  11.710  68.269  1.00  0.00     1.973 C  
ENDROOT
BRANCH   4  13
HETATM   13  O   UNL     2      -9.750   8.352  69.094  1.00  0.00    -0.166 OA 
BRANCH  13  14
HETATM   14  C   UNL     2      -9.059   7.933  67.981  1.00  0.00    -0.132 C  
HETATM   15  C   UNL     2      -9.152   8.733  65.518  1.00  0.00    -0.221 A  
HETATM   16  O   UNL     2      -7.926   7.502  68.062  1.00  0.00    -0.119 OA 
HETATM   17  C   UNL     2     -10.103   6.498  66.258  1.00  0.00     0.107 C  
HETATM   18  C   UNL     2      -9.870   7.970  66.653  1.00  0.00    -0.322 C  
HETATM   19  O   UNL     2     -10.709   5.729  67.295  1.00  0.00    -0.259 OA 
HETATM   20  C   UNL     2      -9.006   8.225  64.205  1.00  0.00     0.571 A  
HETATM   21  C   UNL     2      -8.236   8.885  63.236  1.00  0.00    -0.182 A  
HETATM   22  H   UNL     2     -10.851   4.822  67.052  1.00  0.00     0.000 HD 
HETATM   23  C   UNL     2      -7.633  10.096  63.552  1.00  0.00    -0.138 A  
HETATM   24  C   UNL     2      -7.864  10.676  64.796  1.00  0.00     0.067 A  
HETATM   25  C   UNL     2      -8.631  10.010  65.760  1.00  0.00    -0.156 A  
ENDBRANCH  13  14
ENDBRANCH   4  13
TORSDOF 2
ENDMDL
MODEL      246
REMARK 921   NORMALIZED FREE ENERGY PREDICTED BY IDOCK:   13.51 KCAL/MOL
REMARK 922        TOTAL FREE ENERGY PREDICTED BY IDOCK:   14.39 KCAL/MOL
REMARK 923 INTER-LIGAND FREE ENERGY PREDICTED BY IDOCK:    7.35 KCAL/MOL
REMARK 924 INTRA-LIGAND FREE ENERGY PREDICTED BY IDOCK:    7.03 KCAL/MOL
REMARK 927      BINDING AFFINITY PREDICTED BY RF-SCORE:    0.00 PKD
ROOT
HETATM    1 BR   UNL     1      -7.378  12.686  70.047  1.00  0.00     1.755 Br 
HETATM    2  C   UNL     2     -11.415  18.626  67.341  1.00  0.00     0.894 C  
HETATM    3  C   UNL     2     -11.356  17.145  66.875  1.00  0.00     0.709 C  
HETATM    4  C   UNL     2     -10.128  16.754  66.000  1.00  0.00    -0.332 C  
HETATM    5  C   UNL     2      -8.966  17.790  65.990  1.00  0.00    -0.023 C  
HETATM    6  C   UNL     2      -9.383  18.052  68.895  1.00  0.00    -0.157 C  
HETATM    7  C   UNL     2      -9.300  19.194  66.549  1.00  0.00    -0.348 C  
HETATM    8  C   UNL     2     -11.645  19.511  66.112  1.00  0.00     1.303 C  
HETATM    9  O   UNL     2     -11.152  20.862  66.133  1.00  0.00     1.502 OA 
HETATM   10  N   UNL     2     -10.031  19.025  67.913  1.00  0.00    -0.339 N  
HETATM   11  C   UNL     2     -10.117  20.355  68.702  1.00  0.00     0.005 C  
HETATM   12  C   UNL     2     -10.291  19.856  65.598  1.00  0.00    -0.326 C  
ENDROOT
BRANCH   4  13
HETATM   13  O   UNL     2      -9.557  15.441  66.388  1.00  0.00    -0.252 OA 
BRANCH  13  14
HETATM   14  C   UNL     2     -10.192  14.695  67.353  1.00  0.00    -0.240 C  
HETATM   15  C   UNL     2     -11.358  15.398  69.557  1.00  0.00    -0.308 A  
HETATM   16  O   UNL     2     -10.778  13.667  67.076  1.00  0.00    -0.275 OA 
HETATM   17  C   UNL     2      -9.127  14.188  69.526  1.00  0.00     0.690 C  
HETATM   18  C   UNL     2     -10.020  15.219  68.808  1.00  0.00    -0.215 C  
HETATM   19  O   UNL     2      -7.900  13.937  68.843  1.00  0.00    -0.252 OA 
HETATM   20  C   UNL     2     -11.593  14.910  70.864  1.00  0.00    -0.344 A  
HETATM   21  C   UNL     2     -12.861  14.976  71.464  1.00  0.00    -0.422 A  
HETATM   22  H   UNL     2      -7.350  13.301  69.285  1.00  0.00     0.000 HD 
HETATM   23  C   UNL     2     -13.910  15.575  70.778  1.00  0.00     0.043 A  
HETATM   24  C   UNL     2     -13.673  16.172  69.543  1.00  0.00     3.726 A  
HETATM   25  C   UNL     2     -12.407  16.100  68.949  1.00  0.00     0.559 A  
ENDBRANCH  13  14
ENDBRANCH   4  13
TORSDOF 2
ENDMDL
MODEL      247
REMARK 921   NORMALIZED FREE ENERGY PREDICTED BY IDOCK:   13.60 KCAL/MOL
REMARK 922        TOTAL FREE ENERGY PREDICTED BY IDOCK:   14.49 KCAL/MOL
REMARK 923 INTER-LIGAND FREE ENERGY PREDICTED BY IDOCK:   10.23 KCAL/MOL
REMARK 924 INTRA-LIGAND FREE ENERGY PREDICTED BY IDOCK:    4.27 KCAL/MOL
REMARK 927      BINDING AFFINITY PREDICTED BY RF-SCORE:    0.00 PKD
ROOT
HETATM    1 BR   UNL     1     -10.788  12.930  72.297  1.00  0.00    10.090 Br 
HETATM    2  C   UNL     2     -10.304  12.588  64.646  1.00  0.00    -0.317 C  
HETATM    3  C   UNL     2     -10.892  13.685  65.576  1.00  0.00    -0.295 C  
HETATM    4  C   UNL     2     -12.317  13.409  66.140  1.00  0.00    -0.380 C  
HETATM    5  C   UNL     2     -12.820  11.944  65.979  1.00  0.00     2.836 C  
HETATM    6  C   UNL     2     -10.118  11.093  66.791  1.00  0.00    -0.218 C  
HETATM    7  C   UNL     2     -12.017  11.052  65.001  1.00  0.00     1.447 C  
HETATM    8  C   UNL     2     -11.124  12.560  63.352  1.00  0.00    -0.361 C  
HETATM    9  O   UNL     2     -11.215  11.325  62.620  1.00  0.00     0.498 OA 
HETATM   10  N   UNL     2     -10.501  11.206  65.317  1.00  0.00    -0.272 N  
HETATM   11  C   UNL     2      -9.643  10.120  64.621  1.00  0.00    -0.315 C  
HETATM   12  C   UNL     2     -12.229  11.591  63.591  1.00  0.00    -0.048 C  
ENDROOT
BRANCH   4  13
HETATM   13  O   UNL     2     -12.434  13.769  67.574  1.00  0.00    -0.178 OA 
BRANCH  13  14
HETATM   14  C   UNL     2     -11.368  14.371  68.200  1.00  0.00    -0.294 C  
HETATM   15  C   UNL     2      -9.052  15.101  67.297  1.00  0.00    -0.210 A  
HETATM   16  O   UNL     2     -11.528  15.139  69.129  1.00  0.00    -0.270 OA 
HETATM   17  C   UNL     2      -9.341  13.105  68.839  1.00  0.00     0.273 C  
HETATM   18  C   UNL     2      -9.967  13.922  67.691  1.00  0.00    -0.237 C  
HETATM   19  O   UNL     2     -10.174  12.037  69.286  1.00  0.00    -0.418 OA 
HETATM   20  C   UNL     2      -7.709  15.225  67.727  1.00  0.00    -0.164 A  
HETATM   21  C   UNL     2      -6.947  16.373  67.458  1.00  0.00    -0.175 A  
HETATM   22  H   UNL     2      -9.789  11.534  69.993  1.00  0.00     0.000 HD 
HETATM   23  C   UNL     2      -7.505  17.403  66.712  1.00  0.00    -0.257 A  
HETATM   24  C   UNL     2      -8.780  17.252  66.174  1.00  0.00    -0.198 A  
HETATM   25  C   UNL     2      -9.536  16.105  66.449  1.00  0.00    -0.312 A  
ENDBRANCH  13  14
ENDBRANCH   4  13
TORSDOF 2
ENDMDL
MODEL      248
REMARK 921   NORMALIZED FREE ENERGY PREDICTED BY IDOCK:   16.92 KCAL/MOL
REMARK 922        TOTAL FREE ENERGY PREDICTED BY IDOCK:   18.20 KCAL/MOL
REMARK 923 INTER-LIGAND FREE ENERGY PREDICTED BY IDOCK:   16.82 KCAL/MOL
REMARK 924 INTRA-LIGAND FREE ENERGY PREDICTED BY IDOCK:    1.38 KCAL/MOL
REMARK 927      BINDING AFFINITY PREDICTED BY RF-SCORE:    0.00 PKD
ROOT
HETATM    1 BR   UNL     1     -10.163  12.502  72.704  1.00  0.00    19.176 Br 
HETATM    2  C   UNL     2     -10.271  14.970  65.438  1.00  0.00    -0.381 C  
HETATM    3  C   UNL     2     -10.504  15.734  66.772  1.00  0.00    -0.305 C  
HETATM    4  C   UNL     2     -11.913  15.571  67.413  1.00  0.00     0.364 C  
HETATM    5  C   UNL     2     -12.777  14.415  66.828  1.00  0.00     0.414 C  
HETATM    6  C   UNL     2     -10.330  12.776  66.870  1.00  0.00    -0.238 C  
HETATM    7  C   UNL     2     -12.289  13.810  65.490  1.00  0.00    -0.475 C  
HETATM    8  C   UNL     2     -11.153  15.603  64.357  1.00  0.00    -0.160 C  
HETATM    9  O   UNL     2     -11.598  14.784  63.262  1.00  0.00     0.828 OA 
HETATM   10  N   UNL     2     -10.765  13.512  65.606  1.00  0.00    -0.277 N  
HETATM   11  C   UNL     2     -10.254  12.613  64.452  1.00  0.00    -0.318 C  
HETATM   12  C   UNL     2     -12.448  14.871  64.407  1.00  0.00    -0.207 C  
ENDROOT
BRANCH   4  13
HETATM   13  O   UNL     2     -11.844  15.382  68.882  1.00  0.00    -0.349 OA 
BRANCH  13  14
HETATM   14  C   UNL     2     -10.869  16.040  69.595  1.00  0.00    -0.329 C  
HETATM   15  C   UNL     2      -9.101  17.783  68.855  1.00  0.00    -0.129 A  
HETATM   16  O   UNL     2     -11.021  16.320  70.768  1.00  0.00    -0.259 OA 
HETATM   17  C   UNL     2      -8.486  15.395  69.457  1.00  0.00    -0.213 C  
HETATM   18  C   UNL     2      -9.550  16.307  68.814  1.00  0.00    -0.242 C  
HETATM   19  O   UNL     2      -8.876  14.023  69.502  1.00  0.00    -0.096 OA 
HETATM   20  C   UNL     2      -7.782  18.190  69.166  1.00  0.00    -0.036 A  
HETATM   21  C   UNL     2      -7.440  19.543  69.322  1.00  0.00    -0.276 A  
HETATM   22  H   UNL     2      -8.221  13.462  69.899  1.00  0.00     0.000 HD 
HETATM   23  C   UNL     2      -8.409  20.518  69.125  1.00  0.00     0.993 A  
HETATM   24  C   UNL     2      -9.681  20.149  68.698  1.00  0.00    -0.218 A  
HETATM   25  C   UNL     2     -10.016  18.797  68.547  1.00  0.00    -0.450 A  
ENDBRANCH  13  14
ENDBRANCH   4  13
TORSDOF 2
ENDMDL
MODEL      249
REMARK 921   NORMALIZED FREE ENERGY PREDICTED BY IDOCK:   17.55 KCAL/MOL
REMARK 922        TOTAL FREE ENERGY PREDICTED BY IDOCK:   18.90 KCAL/MOL
REMARK 923 INTER-LIGAND FREE ENERGY PREDICTED BY IDOCK:    6.84 KCAL/MOL
REMARK 924 INTRA-LIGAND FREE ENERGY PREDICTED BY IDOCK:   12.06 KCAL/MOL
REMARK 927      BINDING AFFINITY PREDICTED BY RF-SCORE:    0.00 PKD
ROOT
HETATM    1 BR   UNL     1     -10.408  10.812  67.494  1.00  0.00    -0.261 Br 
HETATM    2  C   UNL     2      -7.346  17.532  69.584  1.00  0.00     0.432 C  
HETATM    3  C   UNL     2      -8.377  17.190  68.472  1.00  0.00    -0.262 C  
HETATM    4  C   UNL     2      -7.788  16.601  67.156  1.00  0.00    -0.179 C  
HETATM    5  C   UNL     2      -6.310  16.120  67.248  1.00  0.00    -0.204 C  
HETATM    6  C   UNL     2      -7.020  14.946  69.855  1.00  0.00    -0.143 C  
HETATM    7  C   UNL     2      -5.518  16.589  68.492  1.00  0.00    -0.116 C  
HETATM    8  C   UNL     2      -6.486  18.705  69.103  1.00  0.00    -0.269 C  
HETATM    9  O   UNL     2      -5.144  18.828  69.603  1.00  0.00    -0.176 OA 
HETATM   10  N   UNL     2      -6.384  16.330  69.760  1.00  0.00    -0.202 N  
HETATM   11  C   UNL     2      -5.564  16.459  71.067  1.00  0.00     0.175 C  
HETATM   12  C   UNL     2      -5.329  18.098  68.390  1.00  0.00    -0.163 C  
ENDROOT
BRANCH   4  13
HETATM   13  O   UNL     2      -8.597  15.471  66.635  1.00  0.00    -0.249 OA 
BRANCH  13  14
HETATM   14  C   UNL     2      -9.140  14.574  67.524  1.00  0.00    -0.193 C  
HETATM   15  C   UNL     2     -11.485  13.475  67.615  1.00  0.00    -0.351 A  
HETATM   16  O   UNL     2      -8.453  13.746  68.089  1.00  0.00    -0.157 OA 
HETATM   17  C   UNL     2     -10.759  15.268  69.260  1.00  0.00    -0.252 C  
HETATM   18  C   UNL     2     -10.659  14.765  67.805  1.00  0.00    -0.257 C  
HETATM   19  O   UNL     2      -9.964  16.426  69.509  1.00  0.00    -0.236 OA 
HETATM   20  C   UNL     2     -12.427  13.004  68.562  1.00  0.00     0.421 A  
HETATM   21  C   UNL     2     -13.064  11.762  68.418  1.00  0.00     3.663 A  
HETATM   22  H   UNL     2     -10.025  16.735  70.405  1.00  0.00     0.000 HD 
HETATM   23  C   UNL     2     -12.802  10.985  67.296  1.00  0.00     5.569 A  
HETATM   24  C   UNL     2     -11.974  11.482  66.293  1.00  0.00     0.616 A  
HETATM   25  C   UNL     2     -11.339  12.722  66.444  1.00  0.00    -0.369 A  
ENDBRANCH  13  14
ENDBRANCH   4  13
TORSDOF 2
ENDMDL
MODEL      250
REMARK 921   NORMALIZED FREE ENERGY PREDICTED BY IDOCK:   17.95 KCAL/MOL
REMARK 922        TOTAL FREE ENERGY PREDICTED BY IDOCK:   19.35 KCAL/MOL
REMARK 923 INTER-LIGAND FREE ENERGY PREDICTED BY IDOCK:   16.11 KCAL/MOL
REMARK 924 INTRA-LIGAND FREE ENERGY PREDICTED BY IDOCK:    3.23 KCAL/MOL
REMARK 927      BINDING AFFINITY PREDICTED BY RF-SCORE:    0.00 PKD
ROOT
HETATM    1 BR   UNL     1     -11.404  10.180  66.251  1.00  0.00     1.361 Br 
HETATM    2  C   UNL     2     -10.874  16.178  71.009  1.00  0.00     0.199 C  
HETATM    3  C   UNL     2     -12.098  15.586  70.258  1.00  0.00    -0.415 C  
HETATM    4  C   UNL     2     -12.227  15.971  68.755  1.00  0.00     0.287 C  
HETATM    5  C   UNL     2     -10.954  16.608  68.123  1.00  0.00    -0.327 C  
HETATM    6  C   UNL     2      -9.405  14.558  69.564  1.00  0.00     0.305 C  
HETATM    7  C   UNL     2      -9.867  17.087  69.116  1.00  0.00    -0.198 C  
HETATM    8  C   UNL     2     -11.058  17.695  71.116  1.00  0.00     2.149 C  
HETATM    9  O   UNL     2      -9.889  18.529  71.191  1.00  0.00     3.120 OA 
HETATM   10  N   UNL     2      -9.604  15.953  70.150  1.00  0.00     0.208 N  
HETATM   11  C   UNL     2      -8.319  16.201  70.978  1.00  0.00     4.421 C  
HETATM   12  C   UNL     2     -10.431  18.270  69.895  1.00  0.00     1.113 C  
ENDROOT
BRANCH   4  13
HETATM   13  O   UNL     2     -12.619  14.816  67.910  1.00  0.00     0.193 OA 
BRANCH  13  14
HETATM   14  C   UNL     2     -12.194  14.771  66.602  1.00  0.00     0.008 C  
HETATM   15  C   UNL     2     -11.932  12.780  64.966  1.00  0.00    -0.456 A  
HETATM   16  O   UNL     2     -12.385  15.698  65.841  1.00  0.00     0.869 OA 
HETATM   17  C   UNL     2      -9.936  13.971  65.987  1.00  0.00    -0.315 C  
HETATM   18  C   UNL     2     -11.386  13.498  66.218  1.00  0.00    -0.327 C  
HETATM   19  O   UNL     2      -9.401  14.697  67.093  1.00  0.00    -0.207 OA 
HETATM   20  C   UNL     2     -11.117  12.362  63.887  1.00  0.00    -0.475 A  
HETATM   21  C   UNL     2     -11.662  11.830  62.708  1.00  0.00     0.566 A  
HETATM   22  H   UNL     2      -8.508  14.989  66.950  1.00  0.00     0.000 HD 
HETATM   23  C   UNL     2     -13.037  11.665  62.605  1.00  0.00     1.490 A  
HETATM   24  C   UNL     2     -13.848  11.954  63.699  1.00  0.00     1.676 A  
HETATM   25  C   UNL     2     -13.298  12.488  64.872  1.00  0.00     0.869 A  
ENDBRANCH  13  14
ENDBRANCH   4  13
TORSDOF 2
ENDMDL
MODEL      251
REMARK 921   NORMALIZED FREE ENERGY PREDICTED BY IDOCK:   22.62 KCAL/MOL
REMARK 922        TOTAL FREE ENERGY PREDICTED BY IDOCK:   24.56 KCAL/MOL
REMARK 923 INTER-LIGAND FREE ENERGY PREDICTED BY IDOCK:   25.19 KCAL/MOL
REMARK 924 INTRA-LIGAND FREE ENERGY PREDICTED BY IDOCK:   -0.63 KCAL/MOL
REMARK 927      BINDING AFFINITY PREDICTED BY RF-SCORE:    0.00 PKD
ROOT
HETATM    1 BR   UNL     1      -7.977   9.207  73.270  1.00  0.00     1.504 Br 
HETATM    2  C   UNL     2      -7.961  10.812  65.765  1.00  0.00    -0.122 C  
HETATM    3  C   UNL     2      -8.765   9.756  66.574  1.00  0.00    -0.139 C  
HETATM    4  C   UNL     2      -7.996   8.456  66.952  1.00  0.00    -0.099 C  
HETATM    5  C   UNL     2      -6.451   8.525  66.772  1.00  0.00    -0.057 C  
HETATM    6  C   UNL     2      -6.590  11.217  67.962  1.00  0.00    -0.058 C  
HETATM    7  C   UNL     2      -5.914   9.714  65.938  1.00  0.00    -0.059 C  
HETATM    8  C   UNL     2      -7.669  10.237  64.376  1.00  0.00    -0.104 C  
HETATM    9  O   UNL     2      -6.494  10.684  63.677  1.00  0.00    -0.018 OA 
HETATM   10  N   UNL     2      -6.586  11.023  66.448  1.00  0.00    -0.133 N  
HETATM   11  C   UNL     2      -5.883  12.292  65.907  1.00  0.00     2.430 C  
HETATM   12  C   UNL     2      -6.369   9.520  64.496  1.00  0.00    -0.089 C  
ENDROOT
BRANCH   4  13
HETATM   13  O   UNL     2      -8.267   8.028  68.346  1.00  0.00    -0.120 OA 
BRANCH  13  14
HETATM   14  C   UNL     2      -9.306   7.160  68.587  1.00  0.00    -0.134 C  
HETATM   15  C   UNL     2     -11.535   7.485  69.868  1.00  0.00     0.019 A  
HETATM   16  O   UNL     2      -9.596   6.282  67.798  1.00  0.00    -0.118 OA 
HETATM   17  C   UNL     2      -9.628   6.086  70.792  1.00  0.00    -0.169 C  
HETATM   18  C   UNL     2     -10.001   7.335  69.969  1.00  0.00    -0.184 C  
HETATM   19  O   UNL     2      -8.221   5.863  70.865  1.00  0.00    -0.120 OA 
HETATM   20  C   UNL     2     -12.446   6.751  70.666  1.00  0.00    -0.142 A  
HETATM   21  C   UNL     2     -13.832   6.816  70.459  1.00  0.00     1.745 A  
HETATM   22  H   UNL     2      -7.991   5.093  71.372  1.00  0.00     0.000 HD 
HETATM   23  C   UNL     2     -14.336   7.656  69.473  1.00  0.00     7.641 A  
HETATM   24  C   UNL     2     -13.469   8.478  68.760  1.00  0.00    11.274 A  
HETATM   25  C   UNL     2     -12.086   8.406  68.970  1.00  0.00     2.443 A  
ENDBRANCH  13  14
ENDBRANCH   4  13
TORSDOF 2
ENDMDL
MODEL      252
REMARK 921   NORMALIZED FREE ENERGY PREDICTED BY IDOCK:   23.48 KCAL/MOL
REMARK 922        TOTAL FREE ENERGY PREDICTED BY IDOCK:   25.52 KCAL/MOL
REMARK 923 INTER-LIGAND FREE ENERGY PREDICTED BY IDOCK:   23.57 KCAL/MOL
REMARK 924 INTRA-LIGAND FREE ENERGY PREDICTED BY IDOCK:    1.95 KCAL/MOL
REMARK 927      BINDING AFFINITY PREDICTED BY RF-SCORE:    0.00 PKD
ROOT
HETATM    1 BR   UNL     1      -5.139  10.991  66.381  1.00  0.00    -0.118 Br 
HETATM    2  C   UNL     2      -9.602   4.847  65.270  1.00  0.00    -0.064 C  
HETATM    3  C   UNL     2      -9.300   6.060  64.347  1.00  0.00     1.082 C  
HETATM    4  C   UNL     2     -10.081   7.369  64.665  1.00  0.00     4.618 C  
HETATM    5  C   UNL     2     -10.795   7.395  66.049  1.00  0.00     2.053 C  
HETATM    6  C   UNL     2      -8.353   6.172  67.155  1.00  0.00    -0.105 C  
HETATM    7  C   UNL     2     -10.931   6.032  66.771  1.00  0.00    -0.225 C  
HETATM    8  C   UNL     2     -11.042   4.391  65.015  1.00  0.00     0.112 C  
HETATM    9  O   UNL     2     -11.761   3.747  66.081  1.00  0.00     3.857 OA 
HETATM   10  N   UNL     2      -9.548   5.316  66.746  1.00  0.00    -0.137 N  
HETATM   11  C   UNL     2      -9.495   4.108  67.714  1.00  0.00    -0.175 C  
HETATM   12  C   UNL     2     -11.889   5.165  65.963  1.00  0.00     2.378 C  
ENDROOT
BRANCH   4  13
HETATM   13  O   UNL     2      -9.218   8.573  64.581  1.00  0.00     0.251 OA 
BRANCH  13  14
HETATM   14  C   UNL     2      -9.639   9.738  65.178  1.00  0.00    -0.287 C  
HETATM   15  C   UNL     2     -10.662  10.183  67.516  1.00  0.00    -0.347 A  
HETATM   16  O   UNL     2      -9.112  10.805  64.927  1.00  0.00    -0.192 OA 
HETATM   17  C   UNL     2     -12.036  10.311  65.385  1.00  0.00     4.410 C  
HETATM   18  C   UNL     2     -10.879   9.591  66.107  1.00  0.00     0.496 C  
HETATM   19  O   UNL     2     -12.241   9.846  64.052  1.00  0.00     5.749 OA 
HETATM   20  C   UNL     2     -11.584  11.049  68.151  1.00  0.00    -0.345 A  
HETATM   21  C   UNL     2     -11.296  11.671  69.375  1.00  0.00    -0.342 A  
HETATM   22  H   UNL     2     -12.954  10.290  63.608  1.00  0.00     0.000 HD 
HETATM   23  C   UNL     2     -10.091  11.401  70.011  1.00  0.00     1.193 A  
HETATM   24  C   UNL     2      -9.222  10.459  69.468  1.00  0.00    -0.143 A  
HETATM   25  C   UNL     2      -9.514   9.844  68.244  1.00  0.00    -0.147 A  
ENDBRANCH  13  14
ENDBRANCH   4  13
TORSDOF 2
ENDMDL
MODEL      253
REMARK 921   NORMALIZED FREE ENERGY PREDICTED BY IDOCK:   29.38 KCAL/MOL
REMARK 922        TOTAL FREE ENERGY PREDICTED BY IDOCK:   32.11 KCAL/MOL
REMARK 923 INTER-LIGAND FREE ENERGY PREDICTED BY IDOCK:   27.86 KCAL/MOL
REMARK 924 INTRA-LIGAND FREE ENERGY PREDICTED BY IDOCK:    4.25 KCAL/MOL
REMARK 927      BINDING AFFINITY PREDICTED BY RF-SCORE:    0.00 PKD
ROOT
HETATM    1 BR   UNL     1      -8.302  16.547  72.250  1.00  0.00    14.685 Br 
HETATM    2  C   UNL     2      -6.263  19.637  65.528  1.00  0.00    -0.220 C  
HETATM    3  C   UNL     2      -6.817  20.298  66.820  1.00  0.00    -0.277 C  
HETATM    4  C   UNL     2      -8.356  20.191  67.034  1.00  0.00    -0.328 C  
HETATM    5  C   UNL     2      -9.081  19.161  66.119  1.00  0.00    -0.239 C  
HETATM    6  C   UNL     2      -6.829  17.338  66.651  1.00  0.00    -0.237 C  
HETATM    7  C   UNL     2      -8.273  18.638  64.908  1.00  0.00     3.201 C  
HETATM    8  C   UNL     2      -6.776  20.429  64.321  1.00  0.00     0.011 C  
HETATM    9  O   UNL     2      -6.941  19.744  63.066  1.00  0.00     1.389 OA 
HETATM   10  N   UNL     2      -6.858  18.213  65.400  1.00  0.00    -0.115 N  
HETATM   11  C   UNL     2      -6.093  17.381  64.341  1.00  0.00     3.761 C  
HETATM   12  C   UNL     2      -8.070  19.798  63.940  1.00  0.00     5.581 C  
ENDROOT
BRANCH   4  13
HETATM   13  O   UNL     2      -8.706  19.870  68.439  1.00  0.00    -0.281 OA 
BRANCH  13  14
HETATM   14  C   UNL     2      -8.857  18.553  68.806  1.00  0.00    -0.240 C  
HETATM   15  C   UNL     2     -10.120  16.601  67.663  1.00  0.00    -0.272 A  
HETATM   16  O   UNL     2      -7.994  17.964  69.426  1.00  0.00     0.104 OA 
HETATM   17  C   UNL     2     -10.960  17.702  69.790  1.00  0.00     1.109 C  
HETATM   18  C   UNL     2     -10.236  17.925  68.448  1.00  0.00    -0.398 C  
HETATM   19  O   UNL     2     -11.041  18.883  70.587  1.00  0.00     1.944 OA 
HETATM   20  C   UNL     2     -10.838  15.428  67.998  1.00  0.00    -0.292 A  
HETATM   21  C   UNL     2     -10.612  14.207  67.344  1.00  0.00    -0.279 A  
HETATM   22  H   UNL     2     -11.487  18.745  71.414  1.00  0.00     0.000 HD 
HETATM   23  C   UNL     2      -9.690  14.149  66.307  1.00  0.00    -0.315 A  
HETATM   24  C   UNL     2      -9.062  15.315  65.878  1.00  0.00    -0.138 A  
HETATM   25  C   UNL     2      -9.290  16.530  66.537  1.00  0.00    -0.295 A  
ENDBRANCH  13  14
ENDBRANCH   4  13
TORSDOF 2
ENDMDL
MODEL      254
REMARK 921   NORMALIZED FREE ENERGY PREDICTED BY IDOCK:   30.55 KCAL/MOL
REMARK 922        TOTAL FREE ENERGY PREDICTED BY IDOCK:   33.42 KCAL/MOL
REMARK 923 INTER-LIGAND FREE ENERGY PREDICTED BY IDOCK:   31.05 KCAL/MOL
REMARK 924 INTRA-LIGAND FREE ENERGY PREDICTED BY IDOCK:    2.37 KCAL/MOL
REMARK 927      BINDING AFFINITY PREDICTED BY RF-SCORE:    0.00 PKD
ROOT
HETATM    1 BR   UNL     1      -5.922  13.381  70.215  1.00  0.00    -0.108 Br 
HETATM    2  C   UNL     2     -11.496  18.147  67.956  1.00  0.00     1.039 C  
HETATM    3  C   UNL     2     -11.265  17.430  69.315  1.00  0.00     0.804 C  
HETATM    4  C   UNL     2     -11.689  15.934  69.377  1.00  0.00    -0.343 C  
HETATM    5  C   UNL     2     -11.968  15.266  67.998  1.00  0.00    -0.050 C  
HETATM    6  C   UNL     2      -9.559  16.651  67.018  1.00  0.00    -0.244 C  
HETATM    7  C   UNL     2     -12.125  16.228  66.795  1.00  0.00     1.726 C  
HETATM    8  C   UNL     2     -13.006  18.266  67.722  1.00  0.00     7.347 C  
HETATM    9  O   UNL     2     -13.494  18.309  66.370  1.00  0.00    10.696 OA 
HETATM   10  N   UNL     2     -10.949  17.248  66.818  1.00  0.00     0.057 N  
HETATM   11  C   UNL     2     -10.832  18.038  65.491  1.00  0.00     0.146 C  
HETATM   12  C   UNL     2     -13.406  17.029  66.997  1.00  0.00     8.333 C  
ENDROOT
BRANCH   4  13
HETATM   13  O   UNL     2     -10.693  15.096  70.089  1.00  0.00    -0.260 OA 
BRANCH  13  14
HETATM   14  C   UNL     2     -10.537  13.782  69.716  1.00  0.00     0.448 C  
HETATM   15  C   UNL     2     -11.549  12.439  67.745  1.00  0.00    -0.413 A  
HETATM   16  O   UNL     2      -9.500  13.183  69.922  1.00  0.00     1.886 OA 
HETATM   17  C   UNL     2     -12.282  12.083  70.149  1.00  0.00    -0.231 C  
HETATM   18  C   UNL     2     -11.806  13.116  69.108  1.00  0.00    -0.364 C  
HETATM   19  O   UNL     2     -12.477  12.644  71.447  1.00  0.00    -0.257 OA 
HETATM   20  C   UNL     2     -11.976  11.126  67.432  1.00  0.00     0.413 A  
HETATM   21  C   UNL     2     -11.613  10.494  66.233  1.00  0.00     1.244 A  
HETATM   22  H   UNL     2     -12.769  12.007  72.088  1.00  0.00     0.000 HD 
HETATM   23  C   UNL     2     -10.849  11.185  65.301  1.00  0.00    -0.222 A  
HETATM   24  C   UNL     2     -10.521  12.518  65.533  1.00  0.00    -0.305 A  
HETATM   25  C   UNL     2     -10.884  13.142  66.734  1.00  0.00    -0.289 A  
ENDBRANCH  13  14
ENDBRANCH   4  13
TORSDOF 2
ENDMDL
MODEL      255
REMARK 921   NORMALIZED FREE ENERGY PREDICTED BY IDOCK:   32.92 KCAL/MOL
REMARK 922        TOTAL FREE ENERGY PREDICTED BY IDOCK:   36.07 KCAL/MOL
REMARK 923 INTER-LIGAND FREE ENERGY PREDICTED BY IDOCK:   36.22 KCAL/MOL
REMARK 924 INTRA-LIGAND FREE ENERGY PREDICTED BY IDOCK:   -0.15 KCAL/MOL
REMARK 927      BINDING AFFINITY PREDICTED BY RF-SCORE:    0.00 PKD
ROOT
HETATM    1 BR   UNL     1      -5.176  10.984  66.384  1.00  0.00    -0.123 Br 
HETATM    2  C   UNL     2     -10.316   5.330  65.672  1.00  0.00     0.135 C  
HETATM    3  C   UNL     2      -9.941   6.487  64.705  1.00  0.00     3.112 C  
HETATM    4  C   UNL     2     -10.562   7.877  65.033  1.00  0.00     5.710 C  
HETATM    5  C   UNL     2     -11.188   8.005  66.453  1.00  0.00     2.167 C  
HETATM    6  C   UNL     2      -8.828   6.550  67.452  1.00  0.00    -0.115 C  
HETATM    7  C   UNL     2     -11.425   6.678  67.214  1.00  0.00     0.257 C  
HETATM    8  C   UNL     2     -11.808   5.025  65.508  1.00  0.00     2.030 C  
HETATM    9  O   UNL     2     -12.529   4.481  66.628  1.00  0.00     7.596 OA 
HETATM   10  N   UNL     2     -10.129   5.819  67.131  1.00  0.00    -0.160 N  
HETATM   11  C   UNL     2     -10.148   4.630  68.124  1.00  0.00    -0.002 C  
HETATM   12  C   UNL     2     -12.514   5.902  66.482  1.00  0.00     5.672 C  
ENDROOT
BRANCH   4  13
HETATM   13  O   UNL     2      -9.583   8.981  64.872  1.00  0.00     0.066 OA 
BRANCH  13  14
HETATM   14  C   UNL     2     -10.042  10.241  64.568  1.00  0.00    -0.216 C  
HETATM   15  C   UNL     2     -11.968  11.644  65.585  1.00  0.00     0.352 A  
HETATM   16  O   UNL     2      -9.295  11.104  64.152  1.00  0.00    -0.213 OA 
HETATM   17  C   UNL     2     -12.120  10.600  63.276  1.00  0.00     2.968 C  
HETATM   18  C   UNL     2     -11.580  10.432  64.711  1.00  0.00     2.610 C  
HETATM   19  O   UNL     2     -11.738   9.536  62.405  1.00  0.00     5.033 OA 
HETATM   20  C   UNL     2     -12.927  12.611  65.200  1.00  0.00     0.091 A  
HETATM   21  C   UNL     2     -13.161  13.768  65.959  1.00  0.00     0.124 A  
HETATM   22  H   UNL     2     -12.071   9.640  61.522  1.00  0.00     0.000 HD 
HETATM   23  C   UNL     2     -12.466  13.957  67.147  1.00  0.00    -0.084 A  
HETATM   24  C   UNL     2     -11.608  12.962  67.608  1.00  0.00    -0.406 A  
HETATM   25  C   UNL     2     -11.377  11.811  66.844  1.00  0.00    -0.386 A  
ENDBRANCH  13  14
ENDBRANCH   4  13
TORSDOF 2
ENDMDL
MODEL      256
REMARK 921   NORMALIZED FREE ENERGY PREDICTED BY IDOCK:   44.84 KCAL/MOL
REMARK 922        TOTAL FREE ENERGY PREDICTED BY IDOCK:   49.38 KCAL/MOL
REMARK 923 INTER-LIGAND FREE ENERGY PREDICTED BY IDOCK:   36.71 KCAL/MOL
REMARK 924 INTRA-LIGAND FREE ENERGY PREDICTED BY IDOCK:   12.67 KCAL/MOL
REMARK 927      BINDING AFFINITY PREDICTED BY RF-SCORE:    0.00 PKD
ROOT
HETATM    1 BR   UNL     1      -8.926  12.081  74.242  1.00  0.00    20.427 Br 
HETATM    2  C   UNL     2      -8.114  12.635  66.631  1.00  0.00     0.193 C  
HETATM    3  C   UNL     2      -8.071  13.726  67.736  1.00  0.00    -0.176 C  
HETATM    4  C   UNL     2      -9.452  14.211  68.269  1.00  0.00    -0.211 C  
HETATM    5  C   UNL     2     -10.664  13.314  67.879  1.00  0.00    -0.252 C  
HETATM    6  C   UNL     2      -8.951  10.999  68.500  1.00  0.00    -0.163 C  
HETATM    7  C   UNL     2     -10.412  12.279  66.756  1.00  0.00    -0.218 C  
HETATM    8  C   UNL     2      -8.710  13.254  65.362  1.00  0.00     1.827 C  
HETATM    9  O   UNL     2      -9.409  12.399  64.440  1.00  0.00     0.234 OA 
HETATM   10  N   UNL     2      -9.092  11.516  67.071  1.00  0.00    -0.170 N  
HETATM   11  C   UNL     2      -8.923  10.250  66.194  1.00  0.00    -0.154 C  
HETATM   12  C   UNL     2     -10.181  13.041  65.457  1.00  0.00    -0.285 C  
ENDROOT
BRANCH   4  13
HETATM   13  O   UNL     2      -9.462  14.364  69.745  1.00  0.00     0.388 OA 
BRANCH  13  14
HETATM   14  C   UNL     2      -9.990  13.356  70.517  1.00  0.00     4.060 C  
HETATM   15  C   UNL     2      -9.674  10.786  70.411  1.00  0.00     1.323 A  
HETATM   16  O   UNL     2     -10.254  13.528  71.691  1.00  0.00     6.020 OA 
HETATM   17  C   UNL     2     -11.836  11.920  69.713  1.00  0.00    -0.340 C  
HETATM   18  C   UNL     2     -10.299  12.036  69.753  1.00  0.00     0.940 C  
HETATM   19  O   UNL     2     -12.470  13.077  69.169  1.00  0.00    -0.003 OA 
HETATM   20  C   UNL     2     -10.394   9.593  70.662  1.00  0.00    -0.365 A  
HETATM   21  C   UNL     2      -9.832   8.525  71.379  1.00  0.00    -0.296 A  
HETATM   22  H   UNL     2     -13.417  13.006  69.145  1.00  0.00     0.000 HD 
HETATM   23  C   UNL     2      -8.519   8.616  71.821  1.00  0.00    -0.221 A  
HETATM   24  C   UNL     2      -7.753   9.727  71.480  1.00  0.00     1.151 A  
HETATM   25  C   UNL     2      -8.321  10.791  70.767  1.00  0.00     3.002 A  
ENDBRANCH  13  14
ENDBRANCH   4  13
TORSDOF 2
ENDMDL
MODEL      257
REMARK 921   NORMALIZED FREE ENERGY PREDICTED BY IDOCK:   70.44 KCAL/MOL
REMARK 922        TOTAL FREE ENERGY PREDICTED BY IDOCK:   77.98 KCAL/MOL
REMARK 923 INTER-LIGAND FREE ENERGY PREDICTED BY IDOCK:   73.71 KCAL/MOL
REMARK 924 INTRA-LIGAND FREE ENERGY PREDICTED BY IDOCK:    4.27 KCAL/MOL
REMARK 927      BINDING AFFINITY PREDICTED BY RF-SCORE:    0.00 PKD
ROOT
HETATM    1 BR   UNL     1     -11.391  11.374  65.892  1.00  0.00     0.036 Br 
HETATM    2  C   UNL     2      -9.837  14.728  72.618  1.00  0.00     5.588 C  
HETATM    3  C   UNL     2     -11.138  14.717  71.767  1.00  0.00     0.637 C  
HETATM    4  C   UNL     2     -11.168  15.696  70.556  1.00  0.00    -0.362 C  
HETATM    5  C   UNL     2      -9.789  16.299  70.158  1.00  0.00     0.530 C  
HETATM    6  C   UNL     2      -8.670  13.603  70.558  1.00  0.00     4.563 C  
HETATM    7  C   UNL     2      -8.649  16.135  71.192  1.00  0.00     4.935 C  
HETATM    8  C   UNL     2      -9.740  16.077  73.336  1.00  0.00    10.356 C  
HETATM    9  O   UNL     2      -8.438  16.590  73.669  1.00  0.00    15.946 OA 
HETATM   10  N   UNL     2      -8.617  14.652  71.665  1.00  0.00     4.361 N  
HETATM   11  C   UNL     2      -7.322  14.313  72.444  1.00  0.00     4.601 C  
HETATM   12  C   UNL     2      -8.997  16.978  72.413  1.00  0.00    14.207 C  
ENDROOT
BRANCH   4  13
HETATM   13  O   UNL     2     -11.753  15.072  69.344  1.00  0.00    -0.291 OA 
BRANCH  13  14
HETATM   14  C   UNL     2     -11.858  15.818  68.194  1.00  0.00    -0.044 C  
HETATM   15  C   UNL     2     -10.798  15.495  65.852  1.00  0.00    -0.317 A  
HETATM   16  O   UNL     2     -12.872  16.434  67.928  1.00  0.00     2.132 OA 
HETATM   17  C   UNL     2     -10.048  17.327  67.443  1.00  0.00    -0.307 C  
HETATM   18  C   UNL     2     -10.566  15.878  67.329  1.00  0.00    -0.314 C  
HETATM   19  O   UNL     2      -9.874  17.755  68.792  1.00  0.00    -0.332 OA 
HETATM   20  C   UNL     2     -10.320  16.262  64.762  1.00  0.00     0.386 A  
HETATM   21  C   UNL     2     -10.660  15.956  63.435  1.00  0.00     5.387 A  
HETATM   22  H   UNL     2      -9.556  18.648  68.862  1.00  0.00     0.000 HD 
HETATM   23  C   UNL     2     -11.452  14.845  63.172  1.00  0.00     2.775 A  
HETATM   24  C   UNL     2     -11.831  14.007  64.216  1.00  0.00    -0.435 A  
HETATM   25  C   UNL     2     -11.491  14.320  65.539  1.00  0.00    -0.329 A  
ENDBRANCH  13  14
ENDBRANCH   4  13
TORSDOF 2
ENDMDL
