MODEL        1
REMARK 921   NORMALIZED FREE ENERGY PREDICTED BY IDOCK:   -5.89 KCAL/MOL
REMARK 922        TOTAL FREE ENERGY PREDICTED BY IDOCK:   -6.22 KCAL/MOL
REMARK 923 INTER-LIGAND FREE ENERGY PREDICTED BY IDOCK:   -6.23 KCAL/MOL
REMARK 924 INTRA-LIGAND FREE ENERGY PREDICTED BY IDOCK:    0.01 KCAL/MOL
REMARK 927      BINDING AFFINITY PREDICTED BY RF-SCORE:    0.00 PKD
ROOT
HETATM    1  C   UNL     1     -12.877  11.850  63.498  1.00  0.00    -0.305 C  
HETATM    2  O   UNL     1     -13.259  12.227  64.822  1.00  0.00    -0.697 OA 
ENDROOT
BRANCH   2   3
HETATM    3  C   UNL     1     -12.404  13.108  65.422  1.00  0.00    -0.481 C  
HETATM    4  C   UNL     1     -11.391  12.357  66.283  1.00  0.00    -0.388 C  
HETATM    5  O   UNL     1     -12.442  14.322  65.268  1.00  0.00    -0.441 OA 
HETATM    6  C   UNL     1      -9.939  12.740  65.847  1.00  0.00    -0.266 C  
HETATM    7  C   UNL     1     -11.676  12.582  67.766  1.00  0.00    -0.419 A  
HETATM    8  C   UNL     1      -8.840  12.079  66.708  1.00  0.00    -0.198 C  
HETATM    9  C   UNL     1     -11.897  11.479  68.608  1.00  0.00    -0.382 A  
HETATM   10  C   UNL     1      -8.716  10.581  66.441  1.00  0.00    -0.152 C  
HETATM   11  C   UNL     1     -12.150  11.656  69.969  1.00  0.00    -0.395 A  
HETATM   12  C   UNL     1     -12.193  12.939  70.509  1.00  0.00    -0.395 A  
HETATM   13  C   UNL     1      -8.485  10.331  64.955  1.00  0.00    -0.177 C  
HETATM   14  C   UNL     1     -11.978  14.044  69.689  1.00  0.00    -0.393 A  
HETATM   15  C   UNL     1      -9.529  11.043  64.098  1.00  0.00    -0.242 C  
HETATM   16  C   UNL     1     -11.714  13.869  68.328  1.00  0.00    -0.396 A  
HETATM   17  N   UNL     1      -9.624  12.465  64.425  1.00  0.00    -0.504 NA 
HETATM   18  H   UNL     1      -8.773  12.954  64.147  1.00  0.00     0.000 HD 
ENDBRANCH   2   3
TORSDOF 1
ENDMDL
MODEL        2
REMARK 921   NORMALIZED FREE ENERGY PREDICTED BY IDOCK:   -5.82 KCAL/MOL
REMARK 922        TOTAL FREE ENERGY PREDICTED BY IDOCK:   -6.15 KCAL/MOL
REMARK 923 INTER-LIGAND FREE ENERGY PREDICTED BY IDOCK:   -6.10 KCAL/MOL
REMARK 924 INTRA-LIGAND FREE ENERGY PREDICTED BY IDOCK:   -0.05 KCAL/MOL
REMARK 927      BINDING AFFINITY PREDICTED BY RF-SCORE:    0.00 PKD
ROOT
HETATM    1  C   UNL     1      -7.612  16.204  69.271  1.00  0.00    -0.218 C  
HETATM    2  O   UNL     1      -8.745  15.531  69.824  1.00  0.00    -0.220 OA 
ENDROOT
BRANCH   2   3
HETATM    3  C   UNL     1      -9.934  15.865  69.240  1.00  0.00    -0.254 C  
HETATM    4  C   UNL     1     -11.004  14.834  69.596  1.00  0.00    -0.285 C  
HETATM    5  O   UNL     1     -10.110  16.860  68.549  1.00  0.00    -0.262 OA 
HETATM    6  C   UNL     1     -12.231  15.551  70.249  1.00  0.00    -0.400 C  
HETATM    7  C   UNL     1     -11.355  13.983  68.379  1.00  0.00    -0.321 A  
HETATM    8  C   UNL     1     -13.397  14.596  70.585  1.00  0.00    -0.181 C  
HETATM    9  C   UNL     1     -11.229  12.585  68.447  1.00  0.00    -0.313 A  
HETATM   10  C   UNL     1     -13.078  13.681  71.764  1.00  0.00    -0.468 C  
HETATM   11  C   UNL     1     -11.553  11.782  67.352  1.00  0.00    -0.352 A  
HETATM   12  C   UNL     1     -12.000  12.364  66.169  1.00  0.00    -0.397 A  
HETATM   13  C   UNL     1     -12.672  14.511  72.976  1.00  0.00    -0.491 C  
HETATM   14  C   UNL     1     -12.129  13.748  66.083  1.00  0.00    -0.477 A  
HETATM   15  C   UNL     1     -11.567  15.507  72.629  1.00  0.00    -0.400 C  
HETATM   16  C   UNL     1     -11.816  14.554  67.181  1.00  0.00    -0.412 A  
HETATM   17  N   UNL     1     -11.919  16.328  71.472  1.00  0.00    -0.650 NA 
HETATM   18  H   UNL     1     -12.688  16.958  71.701  1.00  0.00     0.000 HD 
ENDBRANCH   2   3
TORSDOF 1
ENDMDL
MODEL        3
REMARK 921   NORMALIZED FREE ENERGY PREDICTED BY IDOCK:   -5.74 KCAL/MOL
REMARK 922        TOTAL FREE ENERGY PREDICTED BY IDOCK:   -6.06 KCAL/MOL
REMARK 923 INTER-LIGAND FREE ENERGY PREDICTED BY IDOCK:   -5.95 KCAL/MOL
REMARK 924 INTRA-LIGAND FREE ENERGY PREDICTED BY IDOCK:   -0.11 KCAL/MOL
REMARK 927      BINDING AFFINITY PREDICTED BY RF-SCORE:    0.00 PKD
ROOT
HETATM    1  C   UNL     1     -12.427  10.810  70.337  1.00  0.00    -0.347 C  
HETATM    2  O   UNL     1     -12.519  11.074  68.936  1.00  0.00    -0.460 OA 
ENDROOT
BRANCH   2   3
HETATM    3  C   UNL     1     -11.314  11.273  68.324  1.00  0.00    -0.289 C  
HETATM    4  C   UNL     1     -11.344  12.564  67.508  1.00  0.00    -0.368 C  
HETATM    5  O   UNL     1     -10.350  10.526  68.436  1.00  0.00    -0.162 OA 
HETATM    6  C   UNL     1     -10.176  13.500  67.958  1.00  0.00    -0.243 C  
HETATM    7  C   UNL     1     -11.352  12.254  66.013  1.00  0.00    -0.398 A  
HETATM    8  C   UNL     1     -10.083  14.808  67.142  1.00  0.00    -0.240 C  
HETATM    9  C   UNL     1     -12.389  12.749  65.204  1.00  0.00    -0.555 A  
HETATM   10  C   UNL     1     -11.219  15.776  67.462  1.00  0.00    -0.218 C  
HETATM   11  C   UNL     1     -12.415  12.489  63.834  1.00  0.00    -0.540 A  
HETATM   12  C   UNL     1     -11.410  11.723  63.250  1.00  0.00    -0.347 A  
HETATM   13  C   UNL     1     -11.263  16.056  68.959  1.00  0.00    -0.347 C  
HETATM   14  C   UNL     1     -10.375  11.222  64.036  1.00  0.00    -0.430 A  
HETATM   15  C   UNL     1     -11.283  14.763  69.772  1.00  0.00    -0.273 C  
HETATM   16  C   UNL     1     -10.341  11.490  65.407  1.00  0.00    -0.322 A  
HETATM   17  N   UNL     1     -10.191  13.866  69.395  1.00  0.00    -0.414 NA 
HETATM   18  H   UNL     1      -9.292  14.260  69.673  1.00  0.00     0.000 HD 
ENDBRANCH   2   3
TORSDOF 1
ENDMDL
MODEL        4
REMARK 921   NORMALIZED FREE ENERGY PREDICTED BY IDOCK:   -5.67 KCAL/MOL
REMARK 922        TOTAL FREE ENERGY PREDICTED BY IDOCK:   -5.98 KCAL/MOL
REMARK 923 INTER-LIGAND FREE ENERGY PREDICTED BY IDOCK:   -5.85 KCAL/MOL
REMARK 924 INTRA-LIGAND FREE ENERGY PREDICTED BY IDOCK:   -0.13 KCAL/MOL
REMARK 927      BINDING AFFINITY PREDICTED BY RF-SCORE:    0.00 PKD
ROOT
HETATM    1  C   UNL     1      -8.565  17.977  66.452  1.00  0.00    -0.228 C  
HETATM    2  O   UNL     1      -8.836  16.761  65.753  1.00  0.00    -0.505 OA 
ENDROOT
BRANCH   2   3
HETATM    3  C   UNL     1     -10.166  16.479  65.616  1.00  0.00    -0.292 C  
HETATM    4  C   UNL     1     -10.504  15.170  66.328  1.00  0.00    -0.312 C  
HETATM    5  O   UNL     1     -10.966  17.191  65.022  1.00  0.00    -0.614 OA 
HETATM    6  C   UNL     1     -11.652  15.412  67.361  1.00  0.00    -0.130 C  
HETATM    7  C   UNL     1     -10.800  14.069  65.313  1.00  0.00    -0.352 A  
HETATM    8  C   UNL     1     -12.111  14.128  68.087  1.00  0.00    -0.297 C  
HETATM    9  C   UNL     1     -10.057  12.877  65.343  1.00  0.00    -0.265 A  
HETATM   10  C   UNL     1     -11.074  13.625  69.088  1.00  0.00    -0.275 C  
HETATM   11  C   UNL     1     -10.314  11.850  64.433  1.00  0.00    -0.341 A  
HETATM   12  C   UNL     1     -11.313  12.001  63.475  1.00  0.00    -0.528 A  
HETATM   13  C   UNL     1     -10.724  14.729  70.078  1.00  0.00    -0.103 C  
HETATM   14  C   UNL     1     -12.058  13.176  63.430  1.00  0.00    -0.558 A  
HETATM   15  C   UNL     1     -10.338  16.023  69.363  1.00  0.00    -0.272 C  
HETATM   16  C   UNL     1     -11.810  14.202  64.346  1.00  0.00    -0.447 A  
HETATM   17  N   UNL     1     -11.354  16.432  68.394  1.00  0.00    -0.335 NA 
HETATM   18  H   UNL     1     -12.210  16.717  68.872  1.00  0.00     0.000 HD 
ENDBRANCH   2   3
TORSDOF 1
ENDMDL
MODEL        5
REMARK 921   NORMALIZED FREE ENERGY PREDICTED BY IDOCK:   -5.61 KCAL/MOL
REMARK 922        TOTAL FREE ENERGY PREDICTED BY IDOCK:   -5.92 KCAL/MOL
REMARK 923 INTER-LIGAND FREE ENERGY PREDICTED BY IDOCK:   -5.80 KCAL/MOL
REMARK 924 INTRA-LIGAND FREE ENERGY PREDICTED BY IDOCK:   -0.12 KCAL/MOL
REMARK 927      BINDING AFFINITY PREDICTED BY RF-SCORE:    0.00 PKD
ROOT
HETATM    1  C   UNL     1     -12.573  13.633  65.533  1.00  0.00    -0.496 C  
HETATM    2  O   UNL     1     -11.986  14.931  65.423  1.00  0.00    -0.262 OA 
ENDROOT
BRANCH   2   3
HETATM    3  C   UNL     1     -10.715  15.013  65.916  1.00  0.00    -0.331 C  
HETATM    4  C   UNL     1     -10.704  15.810  67.219  1.00  0.00    -0.313 C  
HETATM    5  O   UNL     1      -9.735  14.502  65.389  1.00  0.00    -0.285 OA 
HETATM    6  C   UNL     1     -10.053  14.955  68.355  1.00  0.00    -0.225 C  
HETATM    7  C   UNL     1     -10.048  17.172  67.011  1.00  0.00    -0.297 A  
HETATM    8  C   UNL     1      -9.937  15.703  69.702  1.00  0.00    -0.290 C  
HETATM    9  C   UNL     1     -10.760  18.343  67.322  1.00  0.00    -0.389 A  
HETATM   10  C   UNL     1     -11.291  15.895  70.379  1.00  0.00    -0.399 C  
HETATM   11  C   UNL     1     -10.180  19.601  67.150  1.00  0.00    -0.558 A  
HETATM   12  C   UNL     1      -8.882  19.709  66.657  1.00  0.00    -0.403 A  
HETATM   13  C   UNL     1     -11.988  14.550  70.547  1.00  0.00    -0.387 C  
HETATM   14  C   UNL     1      -8.162  18.560  66.342  1.00  0.00    -0.289 A  
HETATM   15  C   UNL     1     -12.041  13.776  69.231  1.00  0.00    -0.329 C  
HETATM   16  C   UNL     1      -8.737  17.298  66.523  1.00  0.00    -0.293 A  
HETATM   17  N   UNL     1     -10.719  13.657  68.616  1.00  0.00    -0.253 NA 
HETATM   18  H   UNL     1     -10.117  13.053  69.177  1.00  0.00     0.000 HD 
ENDBRANCH   2   3
TORSDOF 1
ENDMDL
MODEL        6
REMARK 921   NORMALIZED FREE ENERGY PREDICTED BY IDOCK:   -5.56 KCAL/MOL
REMARK 922        TOTAL FREE ENERGY PREDICTED BY IDOCK:   -5.88 KCAL/MOL
REMARK 923 INTER-LIGAND FREE ENERGY PREDICTED BY IDOCK:   -5.75 KCAL/MOL
REMARK 924 INTRA-LIGAND FREE ENERGY PREDICTED BY IDOCK:   -0.13 KCAL/MOL
REMARK 927      BINDING AFFINITY PREDICTED BY RF-SCORE:    0.00 PKD
ROOT
HETATM    1  C   UNL     1     -12.104  14.076  70.318  1.00  0.00    -0.355 C  
HETATM    2  O   UNL     1     -12.250  13.608  68.976  1.00  0.00    -0.334 OA 
ENDROOT
BRANCH   2   3
HETATM    3  C   UNL     1     -11.068  13.419  68.318  1.00  0.00    -0.262 C  
HETATM    4  C   UNL     1     -10.985  14.346  67.106  1.00  0.00    -0.305 C  
HETATM    5  O   UNL     1     -10.199  12.631  68.668  1.00  0.00    -0.222 OA 
HETATM    6  C   UNL     1      -9.686  15.211  67.190  1.00  0.00    -0.228 C  
HETATM    7  C   UNL     1     -11.120  13.550  65.811  1.00  0.00    -0.295 A  
HETATM    8  C   UNL     1      -9.479  16.137  65.971  1.00  0.00    -0.374 C  
HETATM    9  C   UNL     1     -12.134  13.877  64.894  1.00  0.00    -0.434 A  
HETATM   10  C   UNL     1     -10.466  17.301  65.951  1.00  0.00    -0.267 C  
HETATM   11  C   UNL     1     -12.273  13.172  63.698  1.00  0.00    -0.553 A  
HETATM   12  C   UNL     1     -11.407  12.122  63.402  1.00  0.00    -0.495 A  
HETATM   13  C   UNL     1     -10.385  18.078  67.260  1.00  0.00    -0.387 C  
HETATM   14  C   UNL     1     -10.398  11.782  64.300  1.00  0.00    -0.359 A  
HETATM   15  C   UNL     1     -10.518  17.155  68.470  1.00  0.00    -0.377 C  
HETATM   16  C   UNL     1     -10.249  12.494  65.493  1.00  0.00    -0.295 A  
HETATM   17  N   UNL     1      -9.570  16.043  68.412  1.00  0.00    -0.203 NA 
HETATM   18  H   UNL     1      -8.614  16.381  68.525  1.00  0.00     0.000 HD 
ENDBRANCH   2   3
TORSDOF 1
ENDMDL
MODEL        7
REMARK 921   NORMALIZED FREE ENERGY PREDICTED BY IDOCK:   -5.55 KCAL/MOL
REMARK 922        TOTAL FREE ENERGY PREDICTED BY IDOCK:   -5.87 KCAL/MOL
REMARK 923 INTER-LIGAND FREE ENERGY PREDICTED BY IDOCK:   -5.74 KCAL/MOL
REMARK 924 INTRA-LIGAND FREE ENERGY PREDICTED BY IDOCK:   -0.13 KCAL/MOL
REMARK 927      BINDING AFFINITY PREDICTED BY RF-SCORE:    0.00 PKD
ROOT
HETATM    1  C   UNL     1     -12.180  12.551  64.326  1.00  0.00    -0.452 C  
HETATM    2  O   UNL     1     -12.644  12.472  65.675  1.00  0.00    -0.612 OA 
ENDROOT
BRANCH   2   3
HETATM    3  C   UNL     1     -11.904  13.197  66.564  1.00  0.00    -0.400 C  
HETATM    4  C   UNL     1     -11.121  12.262  67.485  1.00  0.00    -0.326 C  
HETATM    5  O   UNL     1     -11.866  14.421  66.597  1.00  0.00    -0.389 OA 
HETATM    6  C   UNL     1      -9.598  12.607  67.416  1.00  0.00    -0.194 C  
HETATM    7  C   UNL     1     -11.703  12.289  68.896  1.00  0.00    -0.380 A  
HETATM    8  C   UNL     1      -8.728  11.755  68.367  1.00  0.00    -0.155 C  
HETATM    9  C   UNL     1     -12.135  11.092  69.494  1.00  0.00    -0.396 A  
HETATM   10  C   UNL     1      -8.603  10.307  67.901  1.00  0.00    -0.118 C  
HETATM   11  C   UNL     1     -12.661  11.087  70.786  1.00  0.00    -0.463 A  
HETATM   12  C   UNL     1     -12.771  12.278  71.500  1.00  0.00    -0.339 A  
HETATM   13  C   UNL     1      -8.075  10.261  66.472  1.00  0.00    -0.121 C  
HETATM   14  C   UNL     1     -12.350  13.473  70.923  1.00  0.00    -0.437 A  
HETATM   15  C   UNL     1      -8.890  11.159  65.543  1.00  0.00    -0.136 C  
HETATM   16  C   UNL     1     -11.813  13.480  69.632  1.00  0.00    -0.398 A  
HETATM   17  N   UNL     1      -9.001  12.521  66.062  1.00  0.00    -0.421 NA 
HETATM   18  H   UNL     1      -8.093  12.987  66.041  1.00  0.00     0.000 HD 
ENDBRANCH   2   3
TORSDOF 1
ENDMDL
MODEL        8
REMARK 921   NORMALIZED FREE ENERGY PREDICTED BY IDOCK:   -5.53 KCAL/MOL
REMARK 922        TOTAL FREE ENERGY PREDICTED BY IDOCK:   -5.84 KCAL/MOL
REMARK 923 INTER-LIGAND FREE ENERGY PREDICTED BY IDOCK:   -5.70 KCAL/MOL
REMARK 924 INTRA-LIGAND FREE ENERGY PREDICTED BY IDOCK:   -0.13 KCAL/MOL
REMARK 927      BINDING AFFINITY PREDICTED BY RF-SCORE:    0.00 PKD
ROOT
HETATM    1  C   UNL     1      -9.114  17.254  66.590  1.00  0.00    -0.265 C  
HETATM    2  O   UNL     1      -8.936  15.986  65.956  1.00  0.00    -0.337 OA 
ENDROOT
BRANCH   2   3
HETATM    3  C   UNL     1     -10.095  15.412  65.518  1.00  0.00    -0.373 C  
HETATM    4  C   UNL     1     -10.397  14.151  66.327  1.00  0.00    -0.294 C  
HETATM    5  O   UNL     1     -10.793  15.862  64.619  1.00  0.00    -0.557 OA 
HETATM    6  C   UNL     1     -11.824  14.258  66.958  1.00  0.00    -0.428 C  
HETATM    7  C   UNL     1     -10.185  12.903  65.475  1.00  0.00    -0.299 A  
HETATM    8  C   UNL     1     -12.249  12.997  67.743  1.00  0.00    -0.079 C  
HETATM    9  C   UNL     1      -9.290  11.909  65.906  1.00  0.00    -0.193 A  
HETATM   10  C   UNL     1     -11.486  12.846  69.056  1.00  0.00    -0.358 C  
HETATM   11  C   UNL     1      -9.085  10.754  65.151  1.00  0.00    -0.225 A  
HETATM   12  C   UNL     1      -9.765  10.576  63.949  1.00  0.00    -0.384 A  
HETATM   13  C   UNL     1     -11.640  14.106  69.900  1.00  0.00    -0.329 C  
HETATM   14  C   UNL     1     -10.654  11.551  63.505  1.00  0.00    -0.487 A  
HETATM   15  C   UNL     1     -11.290  15.361  69.103  1.00  0.00    -0.315 C  
HETATM   16  C   UNL     1     -10.870  12.704  64.264  1.00  0.00    -0.411 A  
HETATM   17  N   UNL     1     -12.027  15.430  67.842  1.00  0.00    -0.369 NA 
HETATM   18  H   UNL     1     -13.022  15.578  68.017  1.00  0.00     0.000 HD 
ENDBRANCH   2   3
TORSDOF 1
ENDMDL
MODEL        9
REMARK 921   NORMALIZED FREE ENERGY PREDICTED BY IDOCK:   -5.50 KCAL/MOL
REMARK 922        TOTAL FREE ENERGY PREDICTED BY IDOCK:   -5.81 KCAL/MOL
REMARK 923 INTER-LIGAND FREE ENERGY PREDICTED BY IDOCK:   -5.73 KCAL/MOL
REMARK 924 INTRA-LIGAND FREE ENERGY PREDICTED BY IDOCK:   -0.08 KCAL/MOL
REMARK 927      BINDING AFFINITY PREDICTED BY RF-SCORE:    0.00 PKD
ROOT
HETATM    1  C   UNL     1     -10.136  18.034  66.898  1.00  0.00    -0.348 C  
HETATM    2  O   UNL     1     -11.027  17.388  67.809  1.00  0.00    -0.317 OA 
ENDROOT
BRANCH   2   3
HETATM    3  C   UNL     1     -10.404  16.642  68.768  1.00  0.00    -0.301 C  
HETATM    4  C   UNL     1     -11.183  15.353  69.024  1.00  0.00    -0.295 C  
HETATM    5  O   UNL     1      -9.360  16.961  69.323  1.00  0.00    -0.177 OA 
HETATM    6  C   UNL     1     -10.244  14.119  68.826  1.00  0.00    -0.215 C  
HETATM    7  C   UNL     1     -11.869  15.402  70.387  1.00  0.00    -0.366 A  
HETATM    8  C   UNL     1     -10.927  12.767  69.128  1.00  0.00    -0.185 C  
HETATM    9  C   UNL     1     -13.261  15.229  70.473  1.00  0.00    -0.278 A  
HETATM   10  C   UNL     1     -11.951  12.383  68.063  1.00  0.00    -0.264 C  
HETATM   11  C   UNL     1     -13.911  15.259  71.708  1.00  0.00    -0.622 A  
HETATM   12  C   UNL     1     -13.182  15.470  72.875  1.00  0.00    -0.633 A  
HETATM   13  C   UNL     1     -11.299  12.382  66.686  1.00  0.00    -0.394 C  
HETATM   14  C   UNL     1     -11.802  15.645  72.808  1.00  0.00    -0.580 A  
HETATM   15  C   UNL     1     -10.561  13.691  66.412  1.00  0.00    -0.284 C  
HETATM   16  C   UNL     1     -11.147  15.605  71.575  1.00  0.00    -0.252 A  
HETATM   17  N   UNL     1      -9.622  14.020  67.484  1.00  0.00    -0.223 NA 
HETATM   18  H   UNL     1      -8.847  13.355  67.497  1.00  0.00     0.000 HD 
ENDBRANCH   2   3
TORSDOF 1
ENDMDL
MODEL       10
REMARK 921   NORMALIZED FREE ENERGY PREDICTED BY IDOCK:   -5.48 KCAL/MOL
REMARK 922        TOTAL FREE ENERGY PREDICTED BY IDOCK:   -5.79 KCAL/MOL
REMARK 923 INTER-LIGAND FREE ENERGY PREDICTED BY IDOCK:   -5.66 KCAL/MOL
REMARK 924 INTRA-LIGAND FREE ENERGY PREDICTED BY IDOCK:   -0.13 KCAL/MOL
REMARK 927      BINDING AFFINITY PREDICTED BY RF-SCORE:    0.00 PKD
ROOT
HETATM    1  C   UNL     1      -7.673  15.630  67.234  1.00  0.00    -0.206 C  
HETATM    2  O   UNL     1      -8.431  14.809  68.124  1.00  0.00    -0.139 OA 
ENDROOT
BRANCH   2   3
HETATM    3  C   UNL     1      -8.572  13.515  67.708  1.00  0.00    -0.183 C  
HETATM    4  C   UNL     1     -10.048  13.192  67.484  1.00  0.00    -0.222 C  
HETATM    5  O   UNL     1      -7.641  12.742  67.526  1.00  0.00    -0.140 OA 
HETATM    6  C   UNL     1     -10.258  12.666  66.026  1.00  0.00    -0.272 C  
HETATM    7  C   UNL     1     -10.561  12.247  68.567  1.00  0.00    -0.254 A  
HETATM    8  C   UNL     1     -11.715  12.248  65.724  1.00  0.00    -0.445 C  
HETATM    9  C   UNL     1     -11.664  12.622  69.353  1.00  0.00    -0.387 A  
HETATM   10  C   UNL     1     -12.653  13.447  65.616  1.00  0.00    -0.496 C  
HETATM   11  C   UNL     1     -12.159  11.773  70.344  1.00  0.00    -0.440 A  
HETATM   12  C   UNL     1     -11.556  10.538  70.570  1.00  0.00    -0.441 A  
HETATM   13  C   UNL     1     -12.129  14.430  64.577  1.00  0.00    -0.498 C  
HETATM   14  C   UNL     1     -10.461  10.151  69.802  1.00  0.00    -0.301 A  
HETATM   15  C   UNL     1     -10.666  14.790  64.832  1.00  0.00    -0.417 C  
HETATM   16  C   UNL     1      -9.969  10.995  68.802  1.00  0.00    -0.215 A  
HETATM   17  N   UNL     1      -9.827  13.600  64.959  1.00  0.00    -0.600 NA 
HETATM   18  H   UNL     1      -9.758  13.113  64.065  1.00  0.00     0.000 HD 
ENDBRANCH   2   3
TORSDOF 1
ENDMDL
MODEL       11
REMARK 921   NORMALIZED FREE ENERGY PREDICTED BY IDOCK:   -5.44 KCAL/MOL
REMARK 922        TOTAL FREE ENERGY PREDICTED BY IDOCK:   -5.74 KCAL/MOL
REMARK 923 INTER-LIGAND FREE ENERGY PREDICTED BY IDOCK:   -5.67 KCAL/MOL
REMARK 924 INTRA-LIGAND FREE ENERGY PREDICTED BY IDOCK:   -0.08 KCAL/MOL
REMARK 927      BINDING AFFINITY PREDICTED BY RF-SCORE:    0.00 PKD
ROOT
HETATM    1  C   UNL     1     -11.828  13.236  67.583  1.00  0.00    -0.357 C  
HETATM    2  O   UNL     1     -11.966  14.657  67.540  1.00  0.00    -0.375 OA 
ENDROOT
BRANCH   2   3
HETATM    3  C   UNL     1     -11.156  15.271  66.627  1.00  0.00    -0.276 C  
HETATM    4  C   UNL     1      -9.952  15.898  67.329  1.00  0.00    -0.240 C  
HETATM    5  O   UNL     1     -11.365  15.293  65.421  1.00  0.00    -0.326 OA 
HETATM    6  C   UNL     1      -8.630  15.356  66.695  1.00  0.00    -0.283 C  
HETATM    7  C   UNL     1     -10.064  17.420  67.329  1.00  0.00    -0.310 A  
HETATM    8  C   UNL     1      -7.353  15.984  67.295  1.00  0.00    -0.243 C  
HETATM    9  C   UNL     1     -10.033  18.121  68.546  1.00  0.00    -0.408 A  
HETATM   10  C   UNL     1      -7.080  15.499  68.717  1.00  0.00    -0.124 C  
HETATM   11  C   UNL     1     -10.124  19.513  68.574  1.00  0.00    -0.543 A  
HETATM   12  C   UNL     1     -10.254  20.228  67.385  1.00  0.00    -0.494 A  
HETATM   13  C   UNL     1      -7.019  13.977  68.748  1.00  0.00    -0.106 C  
HETATM   14  C   UNL     1     -10.288  19.550  66.170  1.00  0.00    -0.614 A  
HETATM   15  C   UNL     1      -8.248  13.352  68.090  1.00  0.00    -0.160 C  
HETATM   16  C   UNL     1     -10.187  18.156  66.138  1.00  0.00    -0.372 A  
HETATM   17  N   UNL     1      -8.474  13.882  66.746  1.00  0.00    -0.439 NA 
HETATM   18  H   UNL     1      -7.734  13.579  66.113  1.00  0.00     0.000 HD 
ENDBRANCH   2   3
TORSDOF 1
ENDMDL
MODEL       12
REMARK 921   NORMALIZED FREE ENERGY PREDICTED BY IDOCK:   -5.42 KCAL/MOL
REMARK 922        TOTAL FREE ENERGY PREDICTED BY IDOCK:   -5.73 KCAL/MOL
REMARK 923 INTER-LIGAND FREE ENERGY PREDICTED BY IDOCK:   -5.60 KCAL/MOL
REMARK 924 INTRA-LIGAND FREE ENERGY PREDICTED BY IDOCK:   -0.13 KCAL/MOL
REMARK 927      BINDING AFFINITY PREDICTED BY RF-SCORE:    0.00 PKD
ROOT
HETATM    1  C   UNL     1      -6.315  14.061  67.715  1.00  0.00    -0.159 C  
HETATM    2  O   UNL     1      -6.988  15.263  67.338  1.00  0.00    -0.186 OA 
ENDROOT
BRANCH   2   3
HETATM    3  C   UNL     1      -7.830  15.756  68.294  1.00  0.00    -0.129 C  
HETATM    4  C   UNL     1      -9.259  15.816  67.757  1.00  0.00    -0.197 C  
HETATM    5  O   UNL     1      -7.482  16.080  69.422  1.00  0.00    -0.226 OA 
HETATM    6  C   UNL     1     -10.214  15.019  68.704  1.00  0.00    -0.231 C  
HETATM    7  C   UNL     1      -9.682  17.264  67.521  1.00  0.00    -0.264 A  
HETATM    8  C   UNL     1     -11.698  15.078  68.279  1.00  0.00    -0.338 C  
HETATM    9  C   UNL     1     -10.117  17.663  66.246  1.00  0.00    -0.344 A  
HETATM   10  C   UNL     1     -11.974  14.261  67.020  1.00  0.00    -0.463 C  
HETATM   11  C   UNL     1     -10.520  18.978  66.005  1.00  0.00    -0.530 A  
HETATM   12  C   UNL     1     -10.486  19.917  67.033  1.00  0.00    -0.570 A  
HETATM   13  C   UNL     1     -11.508  12.823  67.216  1.00  0.00    -0.393 C  
HETATM   14  C   UNL     1     -10.056  19.539  68.303  1.00  0.00    -0.542 A  
HETATM   15  C   UNL     1     -10.062  12.763  67.705  1.00  0.00    -0.224 C  
HETATM   16  C   UNL     1      -9.663  18.221  68.549  1.00  0.00    -0.379 A  
HETATM   17  N   UNL     1      -9.855  13.593  68.892  1.00  0.00    -0.424 NA 
HETATM   18  H   UNL     1     -10.352  13.202  69.693  1.00  0.00     0.000 HD 
ENDBRANCH   2   3
TORSDOF 1
ENDMDL
MODEL       13
REMARK 921   NORMALIZED FREE ENERGY PREDICTED BY IDOCK:   -5.41 KCAL/MOL
REMARK 922        TOTAL FREE ENERGY PREDICTED BY IDOCK:   -5.72 KCAL/MOL
REMARK 923 INTER-LIGAND FREE ENERGY PREDICTED BY IDOCK:   -5.62 KCAL/MOL
REMARK 924 INTRA-LIGAND FREE ENERGY PREDICTED BY IDOCK:   -0.10 KCAL/MOL
REMARK 927      BINDING AFFINITY PREDICTED BY RF-SCORE:    0.00 PKD
ROOT
HETATM    1  C   UNL     1      -8.372  17.227  67.287  1.00  0.00    -0.201 C  
HETATM    2  O   UNL     1      -8.396  16.127  66.375  1.00  0.00    -0.286 OA 
ENDROOT
BRANCH   2   3
HETATM    3  C   UNL     1      -9.642  15.808  65.917  1.00  0.00    -0.347 C  
HETATM    4  C   UNL     1     -10.148  14.541  66.604  1.00  0.00    -0.275 C  
HETATM    5  O   UNL     1     -10.262  16.462  65.088  1.00  0.00    -0.582 OA 
HETATM    6  C   UNL     1     -11.528  14.824  67.283  1.00  0.00    -0.366 C  
HETATM    7  C   UNL     1     -10.165  13.370  65.625  1.00  0.00    -0.300 A  
HETATM    8  C   UNL     1     -12.155  13.580  67.951  1.00  0.00    -0.304 C  
HETATM    9  C   UNL     1      -9.450  12.199  65.928  1.00  0.00    -0.187 A  
HETATM   10  C   UNL     1     -11.414  13.166  69.219  1.00  0.00    -0.348 C  
HETATM   11  C   UNL     1      -9.457  11.110  65.055  1.00  0.00    -0.259 A  
HETATM   12  C   UNL     1     -10.171  11.176  63.862  1.00  0.00    -0.420 A  
HETATM   13  C   UNL     1     -11.338  14.339  70.189  1.00  0.00    -0.187 C  
HETATM   14  C   UNL     1     -10.884  12.330  63.544  1.00  0.00    -0.508 A  
HETATM   15  C   UNL     1     -10.785  15.592  69.512  1.00  0.00    -0.272 C  
HETATM   16  C   UNL     1     -10.888  13.418  64.421  1.00  0.00    -0.422 A  
HETATM   17  N   UNL     1     -11.515  15.915  68.287  1.00  0.00    -0.352 NA 
HETATM   18  H   UNL     1     -12.466  16.212  68.505  1.00  0.00     0.000 HD 
ENDBRANCH   2   3
TORSDOF 1
ENDMDL
MODEL       14
REMARK 921   NORMALIZED FREE ENERGY PREDICTED BY IDOCK:   -5.36 KCAL/MOL
REMARK 922        TOTAL FREE ENERGY PREDICTED BY IDOCK:   -5.66 KCAL/MOL
REMARK 923 INTER-LIGAND FREE ENERGY PREDICTED BY IDOCK:   -5.53 KCAL/MOL
REMARK 924 INTRA-LIGAND FREE ENERGY PREDICTED BY IDOCK:   -0.13 KCAL/MOL
REMARK 927      BINDING AFFINITY PREDICTED BY RF-SCORE:    0.00 PKD
ROOT
HETATM    1  C   UNL     1      -8.137  11.161  66.711  1.00  0.00    -0.155 C  
HETATM    2  O   UNL     1      -8.323  12.574  66.819  1.00  0.00    -0.139 OA 
ENDROOT
BRANCH   2   3
HETATM    3  C   UNL     1      -9.503  12.939  67.403  1.00  0.00    -0.198 C  
HETATM    4  C   UNL     1     -10.329  13.786  66.437  1.00  0.00    -0.290 C  
HETATM    5  O   UNL     1      -9.846  12.613  68.532  1.00  0.00    -0.216 OA 
HETATM    6  C   UNL     1     -11.741  13.142  66.244  1.00  0.00    -0.375 C  
HETATM    7  C   UNL     1     -10.366  15.242  66.895  1.00  0.00    -0.278 A  
HETATM    8  C   UNL     1     -12.676  13.965  65.331  1.00  0.00    -0.525 C  
HETATM    9  C   UNL     1      -9.924  16.256  66.030  1.00  0.00    -0.370 A  
HETATM   10  C   UNL     1     -12.255  13.910  63.865  1.00  0.00    -0.375 C  
HETATM   11  C   UNL     1      -9.956  17.596  66.420  1.00  0.00    -0.337 A  
HETATM   12  C   UNL     1     -10.424  17.942  67.686  1.00  0.00    -0.406 A  
HETATM   13  C   UNL     1     -12.159  12.461  63.402  1.00  0.00    -0.620 C  
HETATM   14  C   UNL     1     -10.865  16.950  68.557  1.00  0.00    -0.335 A  
HETATM   15  C   UNL     1     -11.292  11.627  64.343  1.00  0.00    -0.260 C  
HETATM   16  C   UNL     1     -10.843  15.609  68.165  1.00  0.00    -0.301 A  
HETATM   17  N   UNL     1     -11.725  11.750  65.735  1.00  0.00    -0.349 NA 
HETATM   18  H   UNL     1     -12.637  11.311  65.865  1.00  0.00     0.000 HD 
ENDBRANCH   2   3
TORSDOF 1
ENDMDL
MODEL       15
REMARK 921   NORMALIZED FREE ENERGY PREDICTED BY IDOCK:   -5.35 KCAL/MOL
REMARK 922        TOTAL FREE ENERGY PREDICTED BY IDOCK:   -5.65 KCAL/MOL
REMARK 923 INTER-LIGAND FREE ENERGY PREDICTED BY IDOCK:   -5.53 KCAL/MOL
REMARK 924 INTRA-LIGAND FREE ENERGY PREDICTED BY IDOCK:   -0.12 KCAL/MOL
REMARK 927      BINDING AFFINITY PREDICTED BY RF-SCORE:    0.00 PKD
ROOT
HETATM    1  C   UNL     1     -10.081   9.646  68.258  1.00  0.00    -0.177 C  
HETATM    2  O   UNL     1     -10.151  10.917  68.906  1.00  0.00    -0.187 OA 
ENDROOT
BRANCH   2   3
HETATM    3  C   UNL     1     -11.369  11.528  68.811  1.00  0.00    -0.265 C  
HETATM    4  C   UNL     1     -11.211  12.930  68.225  1.00  0.00    -0.304 C  
HETATM    5  O   UNL     1     -12.430  11.009  69.134  1.00  0.00    -0.432 OA 
HETATM    6  C   UNL     1     -12.119  13.079  66.961  1.00  0.00    -0.267 C  
HETATM    7  C   UNL     1     -11.456  13.990  69.296  1.00  0.00    -0.344 A  
HETATM    8  C   UNL     1     -12.078  14.490  66.334  1.00  0.00    -0.320 C  
HETATM    9  C   UNL     1     -10.461  14.943  69.574  1.00  0.00    -0.213 A  
HETATM   10  C   UNL     1     -10.752  14.777  65.635  1.00  0.00    -0.345 C  
HETATM   11  C   UNL     1     -10.664  15.928  70.540  1.00  0.00    -0.204 A  
HETATM   12  C   UNL     1     -11.860  15.973  71.252  1.00  0.00    -0.502 A  
HETATM   13  C   UNL     1     -10.462  13.699  64.598  1.00  0.00    -0.442 C  
HETATM   14  C   UNL     1     -12.856  15.036  70.991  1.00  0.00    -0.451 A  
HETATM   15  C   UNL     1     -10.571  12.299  65.198  1.00  0.00    -0.285 C  
HETATM   16  C   UNL     1     -12.661  14.054  70.016  1.00  0.00    -0.250 A  
HETATM   17  N   UNL     1     -11.848  12.099  65.882  1.00  0.00    -0.546 NA 
HETATM   18  H   UNL     1     -12.616  12.086  65.210  1.00  0.00     0.000 HD 
ENDBRANCH   2   3
TORSDOF 1
ENDMDL
MODEL       16
REMARK 921   NORMALIZED FREE ENERGY PREDICTED BY IDOCK:   -5.17 KCAL/MOL
REMARK 922        TOTAL FREE ENERGY PREDICTED BY IDOCK:   -5.46 KCAL/MOL
REMARK 923 INTER-LIGAND FREE ENERGY PREDICTED BY IDOCK:   -5.38 KCAL/MOL
REMARK 924 INTRA-LIGAND FREE ENERGY PREDICTED BY IDOCK:   -0.07 KCAL/MOL
REMARK 927      BINDING AFFINITY PREDICTED BY RF-SCORE:    0.00 PKD
ROOT
HETATM    1  C   UNL     1     -11.807  11.261  69.868  1.00  0.00    -0.360 C  
HETATM    2  O   UNL     1     -12.092  11.689  68.535  1.00  0.00    -0.491 OA 
ENDROOT
BRANCH   2   3
HETATM    3  C   UNL     1     -11.772  12.993  68.286  1.00  0.00    -0.353 C  
HETATM    4  C   UNL     1     -10.834  13.085  67.083  1.00  0.00    -0.278 C  
HETATM    5  O   UNL     1     -12.197  13.945  68.929  1.00  0.00    -0.354 OA 
HETATM    6  C   UNL     1     -11.447  14.040  66.007  1.00  0.00    -0.338 C  
HETATM    7  C   UNL     1      -9.426  13.472  67.530  1.00  0.00    -0.222 A  
HETATM    8  C   UNL     1     -10.537  14.250  64.777  1.00  0.00    -0.434 C  
HETATM    9  C   UNL     1      -8.340  12.641  67.206  1.00  0.00    -0.189 A  
HETATM   10  C   UNL     1     -10.461  13.009  63.891  1.00  0.00    -0.241 C  
HETATM   11  C   UNL     1      -7.042  12.976  67.593  1.00  0.00    -0.156 A  
HETATM   12  C   UNL     1      -6.809  14.144  68.316  1.00  0.00    -0.107 A  
HETATM   13  C   UNL     1     -11.862  12.574  63.479  1.00  0.00    -0.616 C  
HETATM   14  C   UNL     1      -7.873  14.978  68.646  1.00  0.00    -0.138 A  
HETATM   15  C   UNL     1     -12.785  12.435  64.688  1.00  0.00    -0.283 C  
HETATM   16  C   UNL     1      -9.173  14.651  68.251  1.00  0.00    -0.198 A  
HETATM   17  N   UNL     1     -12.787  13.642  65.514  1.00  0.00    -0.627 NA 
HETATM   18  H   UNL     1     -13.229  14.415  65.016  1.00  0.00     0.000 HD 
ENDBRANCH   2   3
TORSDOF 1
ENDMDL
MODEL       17
REMARK 921   NORMALIZED FREE ENERGY PREDICTED BY IDOCK:   -5.10 KCAL/MOL
REMARK 922        TOTAL FREE ENERGY PREDICTED BY IDOCK:   -5.39 KCAL/MOL
REMARK 923 INTER-LIGAND FREE ENERGY PREDICTED BY IDOCK:   -5.28 KCAL/MOL
REMARK 924 INTRA-LIGAND FREE ENERGY PREDICTED BY IDOCK:   -0.11 KCAL/MOL
REMARK 927      BINDING AFFINITY PREDICTED BY RF-SCORE:    0.00 PKD
ROOT
HETATM    1  C   UNL     1      -9.472  16.771  66.115  1.00  0.00    -0.264 C  
HETATM    2  O   UNL     1      -9.084  15.400  66.017  1.00  0.00    -0.322 OA 
ENDROOT
BRANCH   2   3
HETATM    3  C   UNL     1     -10.065  14.573  65.547  1.00  0.00    -0.366 C  
HETATM    4  C   UNL     1     -10.226  13.367  66.472  1.00  0.00    -0.282 C  
HETATM    5  O   UNL     1     -10.728  14.788  64.540  1.00  0.00    -0.316 OA 
HETATM    6  C   UNL     1     -11.710  13.263  66.952  1.00  0.00    -0.388 C  
HETATM    7  C   UNL     1      -9.698  12.102  65.799  1.00  0.00    -0.245 A  
HETATM    8  C   UNL     1     -11.987  12.031  67.842  1.00  0.00    -0.204 C  
HETATM    9  C   UNL     1      -8.694  11.347  66.428  1.00  0.00    -0.185 A  
HETATM   10  C   UNL     1     -11.361  12.164  69.228  1.00  0.00    -0.327 C  
HETATM   11  C   UNL     1      -8.201  10.181  65.840  1.00  0.00    -0.138 A  
HETATM   12  C   UNL     1      -8.699   9.755  64.611  1.00  0.00    -0.218 A  
HETATM   13  C   UNL     1     -11.833  13.450  69.895  1.00  0.00    -0.385 C  
HETATM   14  C   UNL     1      -9.693  10.492  63.973  1.00  0.00    -0.383 A  
HETATM   15  C   UNL     1     -11.626  14.661  68.988  1.00  0.00    -0.298 C  
HETATM   16  C   UNL     1     -10.196  11.654  64.564  1.00  0.00    -0.337 A  
HETATM   17  N   UNL     1     -12.218  14.459  67.666  1.00  0.00    -0.623 NA 
HETATM   18  H   UNL     1     -13.236  14.431  67.730  1.00  0.00     0.000 HD 
ENDBRANCH   2   3
TORSDOF 1
ENDMDL
MODEL       18
REMARK 921   NORMALIZED FREE ENERGY PREDICTED BY IDOCK:   -5.09 KCAL/MOL
REMARK 922        TOTAL FREE ENERGY PREDICTED BY IDOCK:   -5.37 KCAL/MOL
REMARK 923 INTER-LIGAND FREE ENERGY PREDICTED BY IDOCK:   -5.29 KCAL/MOL
REMARK 924 INTRA-LIGAND FREE ENERGY PREDICTED BY IDOCK:   -0.09 KCAL/MOL
REMARK 927      BINDING AFFINITY PREDICTED BY RF-SCORE:    0.00 PKD
ROOT
HETATM    1  C   UNL     1     -12.034  15.016  69.506  1.00  0.00    -0.313 C  
HETATM    2  O   UNL     1     -11.834  15.048  68.092  1.00  0.00    -0.334 OA 
ENDROOT
BRANCH   2   3
HETATM    3  C   UNL     1     -10.622  14.564  67.688  1.00  0.00    -0.251 C  
HETATM    4  C   UNL     1     -10.810  13.276  66.888  1.00  0.00    -0.286 C  
HETATM    5  O   UNL     1      -9.548  15.103  67.923  1.00  0.00    -0.201 OA 
HETATM    6  C   UNL     1     -10.132  13.421  65.487  1.00  0.00    -0.266 C  
HETATM    7  C   UNL     1     -10.328  12.070  67.691  1.00  0.00    -0.213 A  
HETATM    8  C   UNL     1     -10.212  12.141  64.626  1.00  0.00    -0.312 C  
HETATM    9  C   UNL     1     -11.210  11.006  67.947  1.00  0.00    -0.375 A  
HETATM   10  C   UNL     1     -11.624  11.872  64.113  1.00  0.00    -0.434 C  
HETATM   11  C   UNL     1     -10.792   9.888  68.670  1.00  0.00    -0.244 A  
HETATM   12  C   UNL     1      -9.488   9.818  69.155  1.00  0.00    -0.191 A  
HETATM   13  C   UNL     1     -12.145  13.086  63.354  1.00  0.00    -0.591 C  
HETATM   14  C   UNL     1      -8.602  10.864  68.912  1.00  0.00    -0.143 A  
HETATM   15  C   UNL     1     -12.002  14.366  64.175  1.00  0.00    -0.346 C  
HETATM   16  C   UNL     1      -9.014  11.980  68.180  1.00  0.00    -0.190 A  
HETATM   17  N   UNL     1     -10.636  14.548  64.666  1.00  0.00    -0.594 NA 
HETATM   18  H   UNL     1     -10.000  14.738  63.891  1.00  0.00     0.000 HD 
ENDBRANCH   2   3
TORSDOF 1
ENDMDL
MODEL       19
REMARK 921   NORMALIZED FREE ENERGY PREDICTED BY IDOCK:   -5.07 KCAL/MOL
REMARK 922        TOTAL FREE ENERGY PREDICTED BY IDOCK:   -5.35 KCAL/MOL
REMARK 923 INTER-LIGAND FREE ENERGY PREDICTED BY IDOCK:   -5.29 KCAL/MOL
REMARK 924 INTRA-LIGAND FREE ENERGY PREDICTED BY IDOCK:   -0.06 KCAL/MOL
REMARK 927      BINDING AFFINITY PREDICTED BY RF-SCORE:    0.00 PKD
ROOT
HETATM    1  C   UNL     1      -8.117   8.211  74.270  1.00  0.00    -0.251 C  
HETATM    2  O   UNL     1      -8.487   7.583  73.041  1.00  0.00    -0.116 OA 
ENDROOT
BRANCH   2   3
HETATM    3  C   UNL     1      -9.814   7.271  72.951  1.00  0.00    -0.196 C  
HETATM    4  C   UNL     1     -10.303   7.458  71.516  1.00  0.00    -0.216 C  
HETATM    5  O   UNL     1     -10.498   6.880  73.888  1.00  0.00    -0.366 OA 
HETATM    6  C   UNL     1     -10.948   6.131  71.000  1.00  0.00    -0.293 C  
HETATM    7  C   UNL     1     -11.218   8.676  71.415  1.00  0.00    -0.345 A  
HETATM    8  C   UNL     1     -11.534   6.242  69.575  1.00  0.00    -0.387 C  
HETATM    9  C   UNL     1     -10.906   9.710  70.517  1.00  0.00    -0.371 A  
HETATM   10  C   UNL     1     -10.448   6.339  68.506  1.00  0.00    -0.273 C  
HETATM   11  C   UNL     1     -11.731  10.829  70.398  1.00  0.00    -0.445 A  
HETATM   12  C   UNL     1     -12.878  10.937  71.181  1.00  0.00    -0.508 A  
HETATM   13  C   UNL     1      -9.490   5.159  68.624  1.00  0.00    -0.178 C  
HETATM   14  C   UNL     1     -13.202   9.922  72.078  1.00  0.00    -0.555 A  
HETATM   15  C   UNL     1      -8.964   5.004  70.049  1.00  0.00    -0.110 C  
HETATM   16  C   UNL     1     -12.384   8.795  72.191  1.00  0.00    -0.458 A  
HETATM   17  N   UNL     1     -10.050   4.952  71.027  1.00  0.00    -0.220 NA 
HETATM   18  H   UNL     1     -10.588   4.091  70.920  1.00  0.00     0.000 HD 
ENDBRANCH   2   3
TORSDOF 1
ENDMDL
MODEL       20
REMARK 921   NORMALIZED FREE ENERGY PREDICTED BY IDOCK:   -5.06 KCAL/MOL
REMARK 922        TOTAL FREE ENERGY PREDICTED BY IDOCK:   -5.34 KCAL/MOL
REMARK 923 INTER-LIGAND FREE ENERGY PREDICTED BY IDOCK:   -5.33 KCAL/MOL
REMARK 924 INTRA-LIGAND FREE ENERGY PREDICTED BY IDOCK:   -0.01 KCAL/MOL
REMARK 927      BINDING AFFINITY PREDICTED BY RF-SCORE:    0.00 PKD
ROOT
HETATM    1  C   UNL     1      -8.302  12.680  67.797  1.00  0.00    -0.172 C  
HETATM    2  O   UNL     1      -8.886  11.595  68.520  1.00  0.00    -0.165 OA 
ENDROOT
BRANCH   2   3
HETATM    3  C   UNL     1     -10.239  11.692  68.679  1.00  0.00    -0.206 C  
HETATM    4  C   UNL     1     -10.751  12.990  68.056  1.00  0.00    -0.248 C  
HETATM    5  O   UNL     1     -10.934  10.846  69.227  1.00  0.00    -0.212 OA 
HETATM    6  C   UNL     1     -11.870  12.669  67.012  1.00  0.00    -0.345 C  
HETATM    7  C   UNL     1     -11.175  13.975  69.141  1.00  0.00    -0.308 A  
HETATM    8  C   UNL     1     -12.499  13.927  66.374  1.00  0.00    -0.414 C  
HETATM    9  C   UNL     1     -10.593  15.253  69.188  1.00  0.00    -0.250 A  
HETATM   10  C   UNL     1     -11.548  14.624  65.404  1.00  0.00    -0.345 C  
HETATM   11  C   UNL     1     -10.970  16.177  70.163  1.00  0.00    -0.359 A  
HETATM   12  C   UNL     1     -11.930  15.836  71.113  1.00  0.00    -0.469 A  
HETATM   13  C   UNL     1     -11.069  13.641  64.343  1.00  0.00    -0.378 C  
HETATM   14  C   UNL     1     -12.517  14.574  71.083  1.00  0.00    -0.411 A  
HETATM   15  C   UNL     1     -10.512  12.365  64.970  1.00  0.00    -0.294 C  
HETATM   16  C   UNL     1     -12.149  13.650  70.101  1.00  0.00    -0.431 A  
HETATM   17  N   UNL     1     -11.455  11.765  65.913  1.00  0.00    -0.324 NA 
HETATM   18  H   UNL     1     -12.272  11.403  65.420  1.00  0.00     0.000 HD 
ENDBRANCH   2   3
TORSDOF 1
ENDMDL
MODEL       21
REMARK 921   NORMALIZED FREE ENERGY PREDICTED BY IDOCK:   -5.06 KCAL/MOL
REMARK 922        TOTAL FREE ENERGY PREDICTED BY IDOCK:   -5.34 KCAL/MOL
REMARK 923 INTER-LIGAND FREE ENERGY PREDICTED BY IDOCK:   -5.23 KCAL/MOL
REMARK 924 INTRA-LIGAND FREE ENERGY PREDICTED BY IDOCK:   -0.11 KCAL/MOL
REMARK 927      BINDING AFFINITY PREDICTED BY RF-SCORE:    0.00 PKD
ROOT
HETATM    1  C   UNL     1     -11.804  13.513  70.174  1.00  0.00    -0.278 C  
HETATM    2  O   UNL     1     -10.793  14.276  69.513  1.00  0.00    -0.210 OA 
ENDROOT
BRANCH   2   3
HETATM    3  C   UNL     1     -11.275  15.175  68.604  1.00  0.00    -0.286 C  
HETATM    4  C   UNL     1     -10.578  14.988  67.257  1.00  0.00    -0.279 C  
HETATM    5  O   UNL     1     -12.152  15.995  68.841  1.00  0.00    -0.283 OA 
HETATM    6  C   UNL     1     -11.644  14.751  66.139  1.00  0.00    -0.292 C  
HETATM    7  C   UNL     1      -9.630  16.151  66.977  1.00  0.00    -0.233 A  
HETATM    8  C   UNL     1     -11.038  14.616  64.725  1.00  0.00    -0.394 C  
HETATM    9  C   UNL     1      -8.271  15.898  66.728  1.00  0.00    -0.307 A  
HETATM   10  C   UNL     1     -10.288  13.300  64.537  1.00  0.00    -0.394 C  
HETATM   11  C   UNL     1      -7.385  16.943  66.459  1.00  0.00    -0.317 A  
HETATM   12  C   UNL     1      -7.842  18.258  66.443  1.00  0.00    -0.290 A  
HETATM   13  C   UNL     1     -11.202  12.125  64.864  1.00  0.00    -0.374 C  
HETATM   14  C   UNL     1      -9.186  18.528  66.690  1.00  0.00    -0.306 A  
HETATM   15  C   UNL     1     -11.860  12.290  66.233  1.00  0.00    -0.317 C  
HETATM   16  C   UNL     1     -10.077  17.483  66.949  1.00  0.00    -0.324 A  
HETATM   17  N   UNL     1     -12.530  13.583  66.362  1.00  0.00    -0.346 NA 
HETATM   18  H   UNL     1     -13.343  13.628  65.746  1.00  0.00     0.000 HD 
ENDBRANCH   2   3
TORSDOF 1
ENDMDL
MODEL       22
REMARK 921   NORMALIZED FREE ENERGY PREDICTED BY IDOCK:   -5.06 KCAL/MOL
REMARK 922        TOTAL FREE ENERGY PREDICTED BY IDOCK:   -5.34 KCAL/MOL
REMARK 923 INTER-LIGAND FREE ENERGY PREDICTED BY IDOCK:   -5.24 KCAL/MOL
REMARK 924 INTRA-LIGAND FREE ENERGY PREDICTED BY IDOCK:   -0.10 KCAL/MOL
REMARK 927      BINDING AFFINITY PREDICTED BY RF-SCORE:    0.00 PKD
ROOT
HETATM    1  C   UNL     1     -10.204   5.366  67.602  1.00  0.00    -0.186 C  
HETATM    2  O   UNL     1     -11.152   6.006  68.458  1.00  0.00    -0.313 OA 
ENDROOT
BRANCH   2   3
HETATM    3  C   UNL     1     -10.594   6.820  69.402  1.00  0.00    -0.233 C  
HETATM    4  C   UNL     1     -11.187   6.517  70.777  1.00  0.00    -0.377 C  
HETATM    5  O   UNL     1      -9.729   7.655  69.171  1.00  0.00    -0.161 OA 
HETATM    6  C   UNL     1     -10.040   6.179  71.784  1.00  0.00    -0.185 C  
HETATM    7  C   UNL     1     -12.100   7.654  71.229  1.00  0.00    -0.337 A  
HETATM    8  C   UNL     1     -10.538   5.922  73.224  1.00  0.00    -0.277 C  
HETATM    9  C   UNL     1     -13.438   7.383  71.560  1.00  0.00    -0.445 A  
HETATM   10  C   UNL     1     -11.284   4.597  73.353  1.00  0.00    -0.423 C  
HETATM   11  C   UNL     1     -14.291   8.402  71.986  1.00  0.00    -0.555 A  
HETATM   12  C   UNL     1     -13.822   9.710  72.082  1.00  0.00    -0.319 A  
HETATM   13  C   UNL     1     -10.409   3.453  72.854  1.00  0.00    -0.248 C  
HETATM   14  C   UNL     1     -12.499   9.997  71.757  1.00  0.00    -0.475 A  
HETATM   15  C   UNL     1      -9.856   3.736  71.459  1.00  0.00    -0.165 C  
HETATM   16  C   UNL     1     -11.639   8.977  71.340  1.00  0.00    -0.396 A  
HETATM   17  N   UNL     1      -9.185   5.034  71.392  1.00  0.00    -0.143 NA 
HETATM   18  H   UNL     1      -8.328   5.022  71.946  1.00  0.00     0.000 HD 
ENDBRANCH   2   3
TORSDOF 1
ENDMDL
MODEL       23
REMARK 921   NORMALIZED FREE ENERGY PREDICTED BY IDOCK:   -5.05 KCAL/MOL
REMARK 922        TOTAL FREE ENERGY PREDICTED BY IDOCK:   -5.34 KCAL/MOL
REMARK 923 INTER-LIGAND FREE ENERGY PREDICTED BY IDOCK:   -5.26 KCAL/MOL
REMARK 924 INTRA-LIGAND FREE ENERGY PREDICTED BY IDOCK:   -0.08 KCAL/MOL
REMARK 927      BINDING AFFINITY PREDICTED BY RF-SCORE:    0.00 PKD
ROOT
HETATM    1  C   UNL     1      -6.464  15.013  69.523  1.00  0.00    -0.146 C  
HETATM    2  O   UNL     1      -6.859  16.080  68.658  1.00  0.00    -0.122 OA 
ENDROOT
BRANCH   2   3
HETATM    3  C   UNL     1      -7.917  15.779  67.847  1.00  0.00    -0.138 C  
HETATM    4  C   UNL     1      -9.081  16.727  68.126  1.00  0.00    -0.227 C  
HETATM    5  O   UNL     1      -7.913  14.887  67.008  1.00  0.00    -0.207 OA 
HETATM    6  C   UNL     1      -9.513  17.437  66.802  1.00  0.00    -0.273 C  
HETATM    7  C   UNL     1     -10.215  15.991  68.836  1.00  0.00    -0.231 A  
HETATM    8  C   UNL     1     -10.733  18.371  66.970  1.00  0.00    -0.330 C  
HETATM    9  C   UNL     1     -10.679  16.459  70.077  1.00  0.00    -0.258 A  
HETATM   10  C   UNL     1     -10.391  19.639  67.748  1.00  0.00    -0.586 C  
HETATM   11  C   UNL     1     -11.720  15.811  70.743  1.00  0.00    -0.430 A  
HETATM   12  C   UNL     1     -12.309  14.680  70.183  1.00  0.00    -0.390 A  
HETATM   13  C   UNL     1      -9.224  20.361  67.085  1.00  0.00    -0.511 C  
HETATM   14  C   UNL     1     -11.861  14.201  68.955  1.00  0.00    -0.382 A  
HETATM   15  C   UNL     1      -8.042  19.422  66.852  1.00  0.00    -0.277 C  
HETATM   16  C   UNL     1     -10.825  14.854  68.281  1.00  0.00    -0.257 A  
HETATM   17  N   UNL     1      -8.441  18.213  66.134  1.00  0.00    -0.490 NA 
HETATM   18  H   UNL     1      -8.707  18.437  65.174  1.00  0.00     0.000 HD 
ENDBRANCH   2   3
TORSDOF 1
ENDMDL
MODEL       24
REMARK 921   NORMALIZED FREE ENERGY PREDICTED BY IDOCK:   -5.04 KCAL/MOL
REMARK 922        TOTAL FREE ENERGY PREDICTED BY IDOCK:   -5.32 KCAL/MOL
REMARK 923 INTER-LIGAND FREE ENERGY PREDICTED BY IDOCK:   -5.26 KCAL/MOL
REMARK 924 INTRA-LIGAND FREE ENERGY PREDICTED BY IDOCK:   -0.06 KCAL/MOL
REMARK 927      BINDING AFFINITY PREDICTED BY RF-SCORE:    0.00 PKD
ROOT
HETATM    1  C   UNL     1      -6.587  14.765  69.679  1.00  0.00    -0.161 C  
HETATM    2  O   UNL     1      -7.286  15.927  69.229  1.00  0.00    -0.198 OA 
ENDROOT
BRANCH   2   3
HETATM    3  C   UNL     1      -7.556  15.934  67.890  1.00  0.00    -0.133 C  
HETATM    4  C   UNL     1      -8.948  16.509  67.635  1.00  0.00    -0.198 C  
HETATM    5  O   UNL     1      -6.778  15.550  67.026  1.00  0.00    -0.266 OA 
HETATM    6  C   UNL     1      -8.849  17.710  66.639  1.00  0.00    -0.263 C  
HETATM    7  C   UNL     1      -9.910  15.409  67.193  1.00  0.00    -0.221 A  
HETATM    8  C   UNL     1     -10.220  18.318  66.266  1.00  0.00    -0.414 C  
HETATM    9  C   UNL     1     -11.092  15.184  67.919  1.00  0.00    -0.322 A  
HETATM   10  C   UNL     1     -10.843  19.097  67.421  1.00  0.00    -0.533 C  
HETATM   11  C   UNL     1     -11.993  14.192  67.530  1.00  0.00    -0.419 A  
HETATM   12  C   UNL     1     -11.724  13.404  66.413  1.00  0.00    -0.409 A  
HETATM   13  C   UNL     1      -9.875  20.166  67.914  1.00  0.00    -0.525 C  
HETATM   14  C   UNL     1     -10.557  13.612  65.683  1.00  0.00    -0.294 A  
HETATM   15  C   UNL     1      -8.497  19.580  68.216  1.00  0.00    -0.340 C  
HETATM   16  C   UNL     1      -9.658  14.612  66.064  1.00  0.00    -0.322 A  
HETATM   17  N   UNL     1      -7.971  18.817  67.084  1.00  0.00    -0.242 NA 
HETATM   18  H   UNL     1      -7.755  19.439  66.304  1.00  0.00     0.000 HD 
ENDBRANCH   2   3
TORSDOF 1
ENDMDL
MODEL       25
REMARK 921   NORMALIZED FREE ENERGY PREDICTED BY IDOCK:   -5.03 KCAL/MOL
REMARK 922        TOTAL FREE ENERGY PREDICTED BY IDOCK:   -5.31 KCAL/MOL
REMARK 923 INTER-LIGAND FREE ENERGY PREDICTED BY IDOCK:   -5.18 KCAL/MOL
REMARK 924 INTRA-LIGAND FREE ENERGY PREDICTED BY IDOCK:   -0.13 KCAL/MOL
REMARK 927      BINDING AFFINITY PREDICTED BY RF-SCORE:    0.00 PKD
ROOT
HETATM    1  C   UNL     1      -8.146  17.386  66.783  1.00  0.00    -0.250 C  
HETATM    2  O   UNL     1      -8.890  16.510  65.936  1.00  0.00    -0.464 OA 
ENDROOT
BRANCH   2   3
HETATM    3  C   UNL     1      -9.869  15.808  66.580  1.00  0.00    -0.269 C  
HETATM    4  C   UNL     1      -9.576  14.310  66.512  1.00  0.00    -0.313 C  
HETATM    5  O   UNL     1     -10.830  16.317  67.143  1.00  0.00    -0.290 OA 
HETATM    6  C   UNL     1      -9.543  13.712  67.956  1.00  0.00    -0.216 C  
HETATM    7  C   UNL     1     -10.556  13.613  65.571  1.00  0.00    -0.300 A  
HETATM    8  C   UNL     1      -9.317  12.184  67.987  1.00  0.00    -0.197 C  
HETATM    9  C   UNL     1     -10.068  12.870  64.483  1.00  0.00    -0.259 A  
HETATM   10  C   UNL     1      -7.891  11.799  67.603  1.00  0.00    -0.138 C  
HETATM   11  C   UNL     1     -10.942  12.215  63.614  1.00  0.00    -0.527 A  
HETATM   12  C   UNL     1     -12.318  12.298  63.814  1.00  0.00    -0.637 A  
HETATM   13  C   UNL     1      -6.893  12.528  68.496  1.00  0.00    -0.083 C  
HETATM   14  C   UNL     1     -12.819  13.032  64.886  1.00  0.00    -0.368 A  
HETATM   15  C   UNL     1      -7.158  14.031  68.524  1.00  0.00    -0.102 C  
HETATM   16  C   UNL     1     -11.946  13.680  65.764  1.00  0.00    -0.425 A  
HETATM   17  N   UNL     1      -8.549  14.333  68.863  1.00  0.00    -0.340 NA 
HETATM   18  H   UNL     1      -8.742  14.080  69.833  1.00  0.00     0.000 HD 
ENDBRANCH   2   3
TORSDOF 1
ENDMDL
MODEL       26
REMARK 921   NORMALIZED FREE ENERGY PREDICTED BY IDOCK:   -4.99 KCAL/MOL
REMARK 922        TOTAL FREE ENERGY PREDICTED BY IDOCK:   -5.27 KCAL/MOL
REMARK 923 INTER-LIGAND FREE ENERGY PREDICTED BY IDOCK:   -5.21 KCAL/MOL
REMARK 924 INTRA-LIGAND FREE ENERGY PREDICTED BY IDOCK:   -0.07 KCAL/MOL
REMARK 927      BINDING AFFINITY PREDICTED BY RF-SCORE:    0.00 PKD
ROOT
HETATM    1  C   UNL     1     -11.015  14.736  66.175  1.00  0.00    -0.332 C  
HETATM    2  O   UNL     1     -11.109  13.674  67.126  1.00  0.00    -0.287 OA 
ENDROOT
BRANCH   2   3
HETATM    3  C   UNL     1     -11.419  12.461  66.581  1.00  0.00    -0.370 C  
HETATM    4  C   UNL     1     -10.517  11.375  67.164  1.00  0.00    -0.259 C  
HETATM    5  O   UNL     1     -12.308  12.279  65.758  1.00  0.00    -0.622 OA 
HETATM    6  C   UNL     1     -11.392  10.236  67.781  1.00  0.00    -0.059 C  
HETATM    7  C   UNL     1      -9.514  10.893  66.119  1.00  0.00    -0.230 A  
HETATM    8  C   UNL     1     -10.566   9.055  68.339  1.00  0.00    -0.200 C  
HETATM    9  C   UNL     1      -8.137  10.958  66.392  1.00  0.00    -0.164 A  
HETATM   10  C   UNL     1      -9.822   9.421  69.620  1.00  0.00    -0.205 C  
HETATM   11  C   UNL     1      -7.200  10.515  65.458  1.00  0.00    -0.103 A  
HETATM   12  C   UNL     1      -7.622  10.006  64.233  1.00  0.00    -0.141 A  
HETATM   13  C   UNL     1     -10.799   9.957  70.659  1.00  0.00    -0.400 C  
HETATM   14  C   UNL     1      -8.983   9.935  63.944  1.00  0.00    -0.280 A  
HETATM   15  C   UNL     1     -11.667  11.077  70.089  1.00  0.00    -0.356 C  
HETATM   16  C   UNL     1      -9.924  10.368  64.881  1.00  0.00    -0.409 A  
HETATM   17  N   UNL     1     -12.325  10.676  68.846  1.00  0.00    -0.790 NA 
HETATM   18  H   UNL     1     -13.025   9.956  69.027  1.00  0.00     0.000 HD 
ENDBRANCH   2   3
TORSDOF 1
ENDMDL
MODEL       27
REMARK 921   NORMALIZED FREE ENERGY PREDICTED BY IDOCK:   -4.98 KCAL/MOL
REMARK 922        TOTAL FREE ENERGY PREDICTED BY IDOCK:   -5.25 KCAL/MOL
REMARK 923 INTER-LIGAND FREE ENERGY PREDICTED BY IDOCK:   -5.24 KCAL/MOL
REMARK 924 INTRA-LIGAND FREE ENERGY PREDICTED BY IDOCK:   -0.01 KCAL/MOL
REMARK 927      BINDING AFFINITY PREDICTED BY RF-SCORE:    0.00 PKD
ROOT
HETATM    1  C   UNL     1     -11.982  12.400  69.262  1.00  0.00    -0.253 C  
HETATM    2  O   UNL     1     -10.928  11.439  69.197  1.00  0.00    -0.220 OA 
ENDROOT
BRANCH   2   3
HETATM    3  C   UNL     1     -10.030  11.661  68.192  1.00  0.00    -0.195 C  
HETATM    4  C   UNL     1     -10.423  12.905  67.398  1.00  0.00    -0.235 C  
HETATM    5  O   UNL     1      -9.044  10.966  67.979  1.00  0.00    -0.144 OA 
HETATM    6  C   UNL     1      -9.231  13.916  67.377  1.00  0.00    -0.224 C  
HETATM    7  C   UNL     1     -10.937  12.519  66.014  1.00  0.00    -0.318 A  
HETATM    8  C   UNL     1      -9.510  15.184  66.539  1.00  0.00    -0.308 C  
HETATM    9  C   UNL     1     -12.220  12.924  65.609  1.00  0.00    -0.519 A  
HETATM   10  C   UNL     1     -10.518  16.113  67.209  1.00  0.00    -0.309 C  
HETATM   11  C   UNL     1     -12.711  12.593  64.346  1.00  0.00    -0.417 A  
HETATM   12  C   UNL     1     -11.930  11.845  63.468  1.00  0.00    -0.567 A  
HETATM   13  C   UNL     1     -10.050  16.468  68.615  1.00  0.00    -0.255 C  
HETATM   14  C   UNL     1     -10.657  11.433  63.853  1.00  0.00    -0.452 A  
HETATM   15  C   UNL     1      -9.704  15.219  69.423  1.00  0.00    -0.247 C  
HETATM   16  C   UNL     1     -10.159  11.772  65.114  1.00  0.00    -0.298 A  
HETATM   17  N   UNL     1      -8.762  14.354  68.713  1.00  0.00    -0.282 NA 
HETATM   18  H   UNL     1      -7.848  14.803  68.642  1.00  0.00     0.000 HD 
ENDBRANCH   2   3
TORSDOF 1
ENDMDL
MODEL       28
REMARK 921   NORMALIZED FREE ENERGY PREDICTED BY IDOCK:   -4.98 KCAL/MOL
REMARK 922        TOTAL FREE ENERGY PREDICTED BY IDOCK:   -5.25 KCAL/MOL
REMARK 923 INTER-LIGAND FREE ENERGY PREDICTED BY IDOCK:   -5.17 KCAL/MOL
REMARK 924 INTRA-LIGAND FREE ENERGY PREDICTED BY IDOCK:   -0.08 KCAL/MOL
REMARK 927      BINDING AFFINITY PREDICTED BY RF-SCORE:    0.00 PKD
ROOT
HETATM    1  C   UNL     1     -10.905  12.342  63.468  1.00  0.00    -0.454 C  
HETATM    2  O   UNL     1     -10.499  11.937  64.777  1.00  0.00    -0.264 OA 
ENDROOT
BRANCH   2   3
HETATM    3  C   UNL     1     -11.311  12.389  65.778  1.00  0.00    -0.352 C  
HETATM    4  C   UNL     1     -10.474  12.811  66.985  1.00  0.00    -0.245 C  
HETATM    5  O   UNL     1     -12.531  12.458  65.702  1.00  0.00    -0.640 OA 
HETATM    6  C   UNL     1     -10.804  14.291  67.365  1.00  0.00    -0.285 C  
HETATM    7  C   UNL     1     -10.649  11.819  68.132  1.00  0.00    -0.230 A  
HETATM    8  C   UNL     1     -10.053  14.789  68.619  1.00  0.00    -0.238 C  
HETATM    9  C   UNL     1      -9.523  11.180  68.678  1.00  0.00    -0.196 A  
HETATM   10  C   UNL     1      -8.564  15.001  68.359  1.00  0.00    -0.162 C  
HETATM   11  C   UNL     1      -9.653  10.277  69.734  1.00  0.00    -0.146 A  
HETATM   12  C   UNL     1     -10.912   9.992  70.257  1.00  0.00    -0.377 A  
HETATM   13  C   UNL     1      -8.368  15.947  67.180  1.00  0.00    -0.231 C  
HETATM   14  C   UNL     1     -12.039  10.615  69.727  1.00  0.00    -0.343 A  
HETATM   15  C   UNL     1      -9.167  15.496  65.959  1.00  0.00    -0.326 C  
HETATM   16  C   UNL     1     -11.911  11.528  68.677  1.00  0.00    -0.382 A  
HETATM   17  N   UNL     1     -10.577  15.277  66.282  1.00  0.00    -0.302 NA 
HETATM   18  H   UNL     1     -11.035  16.162  66.502  1.00  0.00     0.000 HD 
ENDBRANCH   2   3
TORSDOF 1
ENDMDL
MODEL       29
REMARK 921   NORMALIZED FREE ENERGY PREDICTED BY IDOCK:   -4.97 KCAL/MOL
REMARK 922        TOTAL FREE ENERGY PREDICTED BY IDOCK:   -5.25 KCAL/MOL
REMARK 923 INTER-LIGAND FREE ENERGY PREDICTED BY IDOCK:   -5.25 KCAL/MOL
REMARK 924 INTRA-LIGAND FREE ENERGY PREDICTED BY IDOCK:    0.00 KCAL/MOL
REMARK 927      BINDING AFFINITY PREDICTED BY RF-SCORE:    0.00 PKD
ROOT
HETATM    1  C   UNL     1     -10.201  19.409  66.008  1.00  0.00    -0.457 C  
HETATM    2  O   UNL     1     -10.600  20.003  67.245  1.00  0.00    -0.395 OA 
ENDROOT
BRANCH   2   3
HETATM    3  C   UNL     1     -10.146  19.346  68.353  1.00  0.00    -0.444 C  
HETATM    4  C   UNL     1      -9.480  18.032  67.951  1.00  0.00    -0.273 C  
HETATM    5  O   UNL     1     -10.248  19.770  69.498  1.00  0.00    -0.298 OA 
HETATM    6  C   UNL     1      -8.022  17.985  68.514  1.00  0.00    -0.303 C  
HETATM    7  C   UNL     1     -10.345  16.844  68.363  1.00  0.00    -0.338 A  
HETATM    8  C   UNL     1      -7.286  16.660  68.215  1.00  0.00    -0.179 C  
HETATM    9  C   UNL     1     -10.763  15.917  67.392  1.00  0.00    -0.313 A  
HETATM   10  C   UNL     1      -6.911  16.524  66.741  1.00  0.00    -0.241 C  
HETATM   11  C   UNL     1     -11.546  14.816  67.743  1.00  0.00    -0.378 A  
HETATM   12  C   UNL     1     -11.931  14.628  69.068  1.00  0.00    -0.318 A  
HETATM   13  C   UNL     1      -6.092  17.729  66.296  1.00  0.00    -0.255 C  
HETATM   14  C   UNL     1     -11.528  15.538  70.043  1.00  0.00    -0.344 A  
HETATM   15  C   UNL     1      -6.784  19.042  66.655  1.00  0.00    -0.193 C  
HETATM   16  C   UNL     1     -10.735  16.635  69.696  1.00  0.00    -0.286 A  
HETATM   17  N   UNL     1      -7.148  19.096  68.070  1.00  0.00    -0.238 NA 
HETATM   18  H   UNL     1      -6.311  19.148  68.653  1.00  0.00     0.000 HD 
ENDBRANCH   2   3
TORSDOF 1
ENDMDL
MODEL       30
REMARK 921   NORMALIZED FREE ENERGY PREDICTED BY IDOCK:   -4.96 KCAL/MOL
REMARK 922        TOTAL FREE ENERGY PREDICTED BY IDOCK:   -5.24 KCAL/MOL
REMARK 923 INTER-LIGAND FREE ENERGY PREDICTED BY IDOCK:   -5.11 KCAL/MOL
REMARK 924 INTRA-LIGAND FREE ENERGY PREDICTED BY IDOCK:   -0.13 KCAL/MOL
REMARK 927      BINDING AFFINITY PREDICTED BY RF-SCORE:    0.00 PKD
ROOT
HETATM    1  C   UNL     1      -9.227   8.344  66.514  1.00  0.00    -0.189 C  
HETATM    2  O   UNL     1      -9.862   9.464  65.894  1.00  0.00    -0.281 OA 
ENDROOT
BRANCH   2   3
HETATM    3  C   UNL     1      -9.362  10.675  66.280  1.00  0.00    -0.171 C  
HETATM    4  C   UNL     1     -10.437  11.483  67.004  1.00  0.00    -0.263 C  
HETATM    5  O   UNL     1      -8.210  11.041  66.085  1.00  0.00    -0.167 OA 
HETATM    6  C   UNL     1      -9.919  11.906  68.417  1.00  0.00    -0.203 C  
HETATM    7  C   UNL     1     -10.906  12.649  66.138  1.00  0.00    -0.301 A  
HETATM    8  C   UNL     1     -10.915  12.787  69.203  1.00  0.00    -0.185 C  
HETATM    9  C   UNL     1     -12.268  12.773  65.814  1.00  0.00    -0.469 A  
HETATM   10  C   UNL     1     -12.129  12.000  69.688  1.00  0.00    -0.295 C  
HETATM   11  C   UNL     1     -12.725  13.835  65.033  1.00  0.00    -0.379 A  
HETATM   12  C   UNL     1     -11.827  14.786  64.555  1.00  0.00    -0.428 A  
HETATM   13  C   UNL     1     -11.680  10.798  70.511  1.00  0.00    -0.449 C  
HETATM   14  C   UNL     1     -10.474  14.679  64.864  1.00  0.00    -0.415 A  
HETATM   15  C   UNL     1     -10.641   9.964  69.765  1.00  0.00    -0.264 C  
HETATM   16  C   UNL     1     -10.015  13.622  65.656  1.00  0.00    -0.261 A  
HETATM   17  N   UNL     1      -9.522  10.781  69.296  1.00  0.00    -0.388 NA 
HETATM   18  H   UNL     1      -8.972  11.121  70.086  1.00  0.00     0.000 HD 
ENDBRANCH   2   3
TORSDOF 1
ENDMDL
MODEL       31
REMARK 921   NORMALIZED FREE ENERGY PREDICTED BY IDOCK:   -4.95 KCAL/MOL
REMARK 922        TOTAL FREE ENERGY PREDICTED BY IDOCK:   -5.23 KCAL/MOL
REMARK 923 INTER-LIGAND FREE ENERGY PREDICTED BY IDOCK:   -5.16 KCAL/MOL
REMARK 924 INTRA-LIGAND FREE ENERGY PREDICTED BY IDOCK:   -0.08 KCAL/MOL
REMARK 927      BINDING AFFINITY PREDICTED BY RF-SCORE:    0.00 PKD
ROOT
HETATM    1  C   UNL     1     -12.266  12.733  63.211  1.00  0.00    -0.410 C  
HETATM    2  O   UNL     1     -12.185  13.976  63.910  1.00  0.00    -0.584 OA 
ENDROOT
BRANCH   2   3
HETATM    3  C   UNL     1     -12.302  13.863  65.267  1.00  0.00    -0.464 C  
HETATM    4  C   UNL     1     -10.920  13.764  65.909  1.00  0.00    -0.283 C  
HETATM    5  O   UNL     1     -13.367  13.862  65.871  1.00  0.00    -0.396 OA 
HETATM    6  C   UNL     1     -10.756  14.884  66.987  1.00  0.00    -0.307 C  
HETATM    7  C   UNL     1     -10.673  12.352  66.434  1.00  0.00    -0.277 A  
HETATM    8  C   UNL     1      -9.410  14.824  67.742  1.00  0.00    -0.199 C  
HETATM    9  C   UNL     1      -9.555  11.628  65.987  1.00  0.00    -0.249 A  
HETATM   10  C   UNL     1      -8.234  15.248  66.866  1.00  0.00    -0.263 C  
HETATM   11  C   UNL     1      -9.300  10.340  66.459  1.00  0.00    -0.200 A  
HETATM   12  C   UNL     1     -10.162   9.751  67.380  1.00  0.00    -0.284 A  
HETATM   13  C   UNL     1      -8.486  16.635  66.286  1.00  0.00    -0.355 C  
HETATM   14  C   UNL     1     -11.276  10.453  67.833  1.00  0.00    -0.332 A  
HETATM   15  C   UNL     1      -9.849  16.718  65.601  1.00  0.00    -0.079 C  
HETATM   16  C   UNL     1     -11.528  11.747  67.371  1.00  0.00    -0.375 A  
HETATM   17  N   UNL     1     -10.927  16.266  66.479  1.00  0.00    -0.099 NA 
HETATM   18  H   UNL     1     -11.055  16.918  67.254  1.00  0.00     0.000 HD 
ENDBRANCH   2   3
TORSDOF 1
ENDMDL
MODEL       32
REMARK 921   NORMALIZED FREE ENERGY PREDICTED BY IDOCK:   -4.95 KCAL/MOL
REMARK 922        TOTAL FREE ENERGY PREDICTED BY IDOCK:   -5.23 KCAL/MOL
REMARK 923 INTER-LIGAND FREE ENERGY PREDICTED BY IDOCK:   -5.14 KCAL/MOL
REMARK 924 INTRA-LIGAND FREE ENERGY PREDICTED BY IDOCK:   -0.09 KCAL/MOL
REMARK 927      BINDING AFFINITY PREDICTED BY RF-SCORE:    0.00 PKD
ROOT
HETATM    1  C   UNL     1     -10.659  12.612  64.189  1.00  0.00    -0.407 C  
HETATM    2  O   UNL     1     -10.677  13.926  64.750  1.00  0.00    -0.382 OA 
ENDROOT
BRANCH   2   3
HETATM    3  C   UNL     1     -11.432  14.041  65.882  1.00  0.00    -0.330 C  
HETATM    4  C   UNL     1     -10.531  14.082  67.115  1.00  0.00    -0.270 C  
HETATM    5  O   UNL     1     -12.654  14.118  65.893  1.00  0.00    -0.486 OA 
HETATM    6  C   UNL     1     -10.832  15.371  67.946  1.00  0.00    -0.300 C  
HETATM    7  C   UNL     1     -10.651  12.785  67.911  1.00  0.00    -0.232 A  
HETATM    8  C   UNL     1     -10.014  15.470  69.253  1.00  0.00    -0.264 C  
HETATM    9  C   UNL     1      -9.502  12.021  68.176  1.00  0.00    -0.200 A  
HETATM   10  C   UNL     1      -8.539  15.767  68.994  1.00  0.00    -0.236 C  
HETATM   11  C   UNL     1      -9.582  10.837  68.909  1.00  0.00    -0.204 A  
HETATM   12  C   UNL     1     -10.814  10.393  69.384  1.00  0.00    -0.287 A  
HETATM   13  C   UNL     1      -8.399  17.030  68.153  1.00  0.00    -0.222 C  
HETATM   14  C   UNL     1     -11.964  11.136  69.130  1.00  0.00    -0.413 A  
HETATM   15  C   UNL     1      -9.263  16.965  66.895  1.00  0.00    -0.238 C  
HETATM   16  C   UNL     1     -11.885  12.328  68.404  1.00  0.00    -0.358 A  
HETATM   17  N   UNL     1     -10.655  16.644  67.207  1.00  0.00    -0.310 NA 
HETATM   18  H   UNL     1     -11.096  17.414  67.711  1.00  0.00     0.000 HD 
ENDBRANCH   2   3
TORSDOF 1
ENDMDL
MODEL       33
REMARK 921   NORMALIZED FREE ENERGY PREDICTED BY IDOCK:   -4.94 KCAL/MOL
REMARK 922        TOTAL FREE ENERGY PREDICTED BY IDOCK:   -5.22 KCAL/MOL
REMARK 923 INTER-LIGAND FREE ENERGY PREDICTED BY IDOCK:   -5.17 KCAL/MOL
REMARK 924 INTRA-LIGAND FREE ENERGY PREDICTED BY IDOCK:   -0.05 KCAL/MOL
REMARK 927      BINDING AFFINITY PREDICTED BY RF-SCORE:    0.00 PKD
ROOT
HETATM    1  C   UNL     1      -7.627  14.856  67.476  1.00  0.00    -0.195 C  
HETATM    2  O   UNL     1      -8.037  13.505  67.256  1.00  0.00    -0.168 OA 
ENDROOT
BRANCH   2   3
HETATM    3  C   UNL     1      -9.355  13.270  67.525  1.00  0.00    -0.218 C  
HETATM    4  C   UNL     1      -9.759  11.888  67.014  1.00  0.00    -0.204 C  
HETATM    5  O   UNL     1     -10.093  14.054  68.109  1.00  0.00    -0.231 OA 
HETATM    6  C   UNL     1     -10.369  11.050  68.184  1.00  0.00    -0.182 C  
HETATM    7  C   UNL     1     -10.669  12.011  65.795  1.00  0.00    -0.319 A  
HETATM    8  C   UNL     1     -10.870   9.655  67.749  1.00  0.00    -0.278 C  
HETATM    9  C   UNL     1     -10.307  11.389  64.589  1.00  0.00    -0.362 A  
HETATM   10  C   UNL     1      -9.724   8.700  67.427  1.00  0.00    -0.227 C  
HETATM   11  C   UNL     1     -11.126  11.477  63.462  1.00  0.00    -0.434 A  
HETATM   12  C   UNL     1     -12.318  12.196  63.521  1.00  0.00    -0.682 A  
HETATM   13  C   UNL     1      -8.772   8.605  68.613  1.00  0.00    -0.138 C  
HETATM   14  C   UNL     1     -12.692  12.821  64.708  1.00  0.00    -0.469 A  
HETATM   15  C   UNL     1      -8.331   9.987  69.091  1.00  0.00    -0.146 C  
HETATM   16  C   UNL     1     -11.879  12.725  65.840  1.00  0.00    -0.490 A  
HETATM   17  N   UNL     1      -9.472  10.863  69.349  1.00  0.00    -0.423 NA 
HETATM   18  H   UNL     1     -10.000  10.534  70.158  1.00  0.00     0.000 HD 
ENDBRANCH   2   3
TORSDOF 1
ENDMDL
MODEL       34
REMARK 921   NORMALIZED FREE ENERGY PREDICTED BY IDOCK:   -4.92 KCAL/MOL
REMARK 922        TOTAL FREE ENERGY PREDICTED BY IDOCK:   -5.20 KCAL/MOL
REMARK 923 INTER-LIGAND FREE ENERGY PREDICTED BY IDOCK:   -5.15 KCAL/MOL
REMARK 924 INTRA-LIGAND FREE ENERGY PREDICTED BY IDOCK:   -0.05 KCAL/MOL
REMARK 927      BINDING AFFINITY PREDICTED BY RF-SCORE:    0.00 PKD
ROOT
HETATM    1  C   UNL     1     -10.171  10.698  68.696  1.00  0.00    -0.182 C  
HETATM    2  O   UNL     1     -10.066  12.081  69.038  1.00  0.00    -0.072 OA 
ENDROOT
BRANCH   2   3
HETATM    3  C   UNL     1     -11.165  12.824  68.709  1.00  0.00    -0.283 C  
HETATM    4  C   UNL     1     -10.922  14.296  69.035  1.00  0.00    -0.282 C  
HETATM    5  O   UNL     1     -12.184  12.366  68.208  1.00  0.00    -0.275 OA 
HETATM    6  C   UNL     1     -11.151  15.165  67.756  1.00  0.00    -0.313 C  
HETATM    7  C   UNL     1     -11.760  14.725  70.238  1.00  0.00    -0.351 A  
HETATM    8  C   UNL     1     -10.994  16.682  68.002  1.00  0.00    -0.311 C  
HETATM    9  C   UNL     1     -11.129  15.274  71.366  1.00  0.00    -0.285 A  
HETATM   10  C   UNL     1      -9.539  17.085  68.233  1.00  0.00    -0.273 C  
HETATM   11  C   UNL     1     -11.872  15.684  72.474  1.00  0.00    -0.583 A  
HETATM   12  C   UNL     1     -13.257  15.543  72.476  1.00  0.00    -0.565 A  
HETATM   13  C   UNL     1      -8.676  16.618  67.067  1.00  0.00    -0.223 C  
HETATM   14  C   UNL     1     -13.900  14.998  71.367  1.00  0.00    -0.560 A  
HETATM   15  C   UNL     1      -8.883  15.133  66.775  1.00  0.00    -0.271 C  
HETATM   16  C   UNL     1     -13.159  14.598  70.251  1.00  0.00    -0.054 A  
HETATM   17  N   UNL     1     -10.297  14.806  66.599  1.00  0.00    -0.268 NA 
HETATM   18  H   UNL     1     -10.658  15.228  65.743  1.00  0.00     0.000 HD 
ENDBRANCH   2   3
TORSDOF 1
ENDMDL
MODEL       35
REMARK 921   NORMALIZED FREE ENERGY PREDICTED BY IDOCK:   -4.90 KCAL/MOL
REMARK 922        TOTAL FREE ENERGY PREDICTED BY IDOCK:   -5.18 KCAL/MOL
REMARK 923 INTER-LIGAND FREE ENERGY PREDICTED BY IDOCK:   -5.04 KCAL/MOL
REMARK 924 INTRA-LIGAND FREE ENERGY PREDICTED BY IDOCK:   -0.13 KCAL/MOL
REMARK 927      BINDING AFFINITY PREDICTED BY RF-SCORE:    0.00 PKD
ROOT
HETATM    1  C   UNL     1     -10.541  19.297  66.084  1.00  0.00    -0.459 C  
HETATM    2  O   UNL     1     -10.969  18.694  67.307  1.00  0.00    -0.387 OA 
ENDROOT
BRANCH   2   3
HETATM    3  C   UNL     1     -10.227  17.613  67.688  1.00  0.00    -0.351 C  
HETATM    4  C   UNL     1     -11.078  16.346  67.639  1.00  0.00    -0.150 C  
HETATM    5  O   UNL     1      -9.045  17.662  68.003  1.00  0.00    -0.254 OA 
HETATM    6  C   UNL     1     -10.388  15.280  66.727  1.00  0.00    -0.279 C  
HETATM    7  C   UNL     1     -11.386  15.851  69.050  1.00  0.00    -0.371 A  
HETATM    8  C   UNL     1     -11.143  13.934  66.667  1.00  0.00    -0.310 C  
HETATM    9  C   UNL     1     -12.722  15.683  69.453  1.00  0.00     0.338 A  
HETATM   10  C   UNL     1     -12.443  14.032  65.873  1.00  0.00    -0.513 C  
HETATM   11  C   UNL     1     -13.031  15.223  70.734  1.00  0.00    -0.492 A  
HETATM   12  C   UNL     1     -12.010  14.931  71.636  1.00  0.00    -0.427 A  
HETATM   13  C   UNL     1     -12.164  14.576  64.477  1.00  0.00    -0.483 C  
HETATM   14  C   UNL     1     -10.681  15.094  71.254  1.00  0.00     0.130 A  
HETATM   15  C   UNL     1     -11.355  15.870  64.530  1.00  0.00    -0.309 C  
HETATM   16  C   UNL     1     -10.368  15.544  69.969  1.00  0.00    -0.315 A  
HETATM   17  N   UNL     1     -10.142  15.721  65.333  1.00  0.00    -0.412 NA 
HETATM   18  H   UNL     1      -9.482  15.094  64.871  1.00  0.00     0.000 HD 
ENDBRANCH   2   3
TORSDOF 1
ENDMDL
MODEL       36
REMARK 921   NORMALIZED FREE ENERGY PREDICTED BY IDOCK:   -4.90 KCAL/MOL
REMARK 922        TOTAL FREE ENERGY PREDICTED BY IDOCK:   -5.17 KCAL/MOL
REMARK 923 INTER-LIGAND FREE ENERGY PREDICTED BY IDOCK:   -5.12 KCAL/MOL
REMARK 924 INTRA-LIGAND FREE ENERGY PREDICTED BY IDOCK:   -0.05 KCAL/MOL
REMARK 927      BINDING AFFINITY PREDICTED BY RF-SCORE:    0.00 PKD
ROOT
HETATM    1  C   UNL     1     -10.163  20.027  65.909  1.00  0.00    -0.421 C  
HETATM    2  O   UNL     1      -9.811  18.645  65.830  1.00  0.00    -0.510 OA 
ENDROOT
BRANCH   2   3
HETATM    3  C   UNL     1     -10.182  17.910  66.920  1.00  0.00    -0.358 C  
HETATM    4  C   UNL     1      -9.394  16.603  66.968  1.00  0.00    -0.236 C  
HETATM    5  O   UNL     1     -11.015  18.267  67.744  1.00  0.00    -0.321 OA 
HETATM    6  C   UNL     1      -8.660  16.478  68.342  1.00  0.00    -0.213 C  
HETATM    7  C   UNL     1     -10.299  15.419  66.635  1.00  0.00    -0.281 A  
HETATM    8  C   UNL     1      -7.886  15.152  68.512  1.00  0.00    -0.135 C  
HETATM    9  C   UNL     1      -9.964  14.564  65.571  1.00  0.00    -0.373 A  
HETATM   10  C   UNL     1      -6.636  15.092  67.638  1.00  0.00    -0.195 C  
HETATM   11  C   UNL     1     -10.768  13.469  65.253  1.00  0.00    -0.328 A  
HETATM   12  C   UNL     1     -11.924  13.214  65.987  1.00  0.00    -0.488 A  
HETATM   13  C   UNL     1      -5.745  16.296  67.916  1.00  0.00    -0.143 C  
HETATM   14  C   UNL     1     -12.271  14.051  67.044  1.00  0.00    -0.387 A  
HETATM   15  C   UNL     1      -6.524  17.606  67.819  1.00  0.00    -0.174 C  
HETATM   16  C   UNL     1     -11.463  15.143  67.372  1.00  0.00    -0.284 A  
HETATM   17  N   UNL     1      -7.726  17.587  68.651  1.00  0.00    -0.271 NA 
HETATM   18  H   UNL     1      -7.476  17.579  69.641  1.00  0.00     0.000 HD 
ENDBRANCH   2   3
TORSDOF 1
ENDMDL
MODEL       37
REMARK 921   NORMALIZED FREE ENERGY PREDICTED BY IDOCK:   -4.77 KCAL/MOL
REMARK 922        TOTAL FREE ENERGY PREDICTED BY IDOCK:   -5.04 KCAL/MOL
REMARK 923 INTER-LIGAND FREE ENERGY PREDICTED BY IDOCK:   -4.90 KCAL/MOL
REMARK 924 INTRA-LIGAND FREE ENERGY PREDICTED BY IDOCK:   -0.13 KCAL/MOL
REMARK 927      BINDING AFFINITY PREDICTED BY RF-SCORE:    0.00 PKD
ROOT
HETATM    1  C   UNL     1      -9.918   4.609  69.141  1.00  0.00    -0.138 C  
HETATM    2  O   UNL     1     -10.800   5.697  69.421  1.00  0.00    -0.320 OA 
ENDROOT
BRANCH   2   3
HETATM    3  C   UNL     1     -10.169   6.844  69.811  1.00  0.00    -0.196 C  
HETATM    4  C   UNL     1     -10.485   7.149  71.274  1.00  0.00    -0.219 C  
HETATM    5  O   UNL     1      -9.440   7.512  69.088  1.00  0.00    -0.150 OA 
HETATM    6  C   UNL     1      -9.155   7.290  72.084  1.00  0.00    -0.132 C  
HETATM    7  C   UNL     1     -11.411   8.358  71.382  1.00  0.00    -0.317 A  
HETATM    8  C   UNL     1      -9.371   7.666  73.567  1.00  0.00    -0.339 C  
HETATM    9  C   UNL     1     -12.641   8.236  72.051  1.00  0.00    -0.387 A  
HETATM   10  C   UNL     1      -9.953   6.512  74.380  1.00  0.00    -0.374 C  
HETATM   11  C   UNL     1     -13.501   9.328  72.172  1.00  0.00    -0.539 A  
HETATM   12  C   UNL     1     -13.150  10.558  71.621  1.00  0.00    -0.551 A  
HETATM   13  C   UNL     1      -9.071   5.277  74.241  1.00  0.00    -0.117 C  
HETATM   14  C   UNL     1     -11.936  10.697  70.953  1.00  0.00    -0.469 A  
HETATM   15  C   UNL     1      -8.796   4.945  72.776  1.00  0.00    -0.121 C  
HETATM   16  C   UNL     1     -11.068   9.608  70.839  1.00  0.00    -0.422 A  
HETATM   17  N   UNL     1      -8.274   6.098  72.045  1.00  0.00    -0.110 NA 
HETATM   18  H   UNL     1      -7.337   6.336  72.373  1.00  0.00     0.000 HD 
ENDBRANCH   2   3
TORSDOF 1
ENDMDL
MODEL       38
REMARK 921   NORMALIZED FREE ENERGY PREDICTED BY IDOCK:   -4.77 KCAL/MOL
REMARK 922        TOTAL FREE ENERGY PREDICTED BY IDOCK:   -5.03 KCAL/MOL
REMARK 923 INTER-LIGAND FREE ENERGY PREDICTED BY IDOCK:   -4.90 KCAL/MOL
REMARK 924 INTRA-LIGAND FREE ENERGY PREDICTED BY IDOCK:   -0.13 KCAL/MOL
REMARK 927      BINDING AFFINITY PREDICTED BY RF-SCORE:    0.00 PKD
ROOT
HETATM    1  C   UNL     1     -14.017   9.074  72.213  1.00  0.00    -0.455 C  
HETATM    2  O   UNL     1     -13.302   7.950  71.697  1.00  0.00    -0.336 OA 
ENDROOT
BRANCH   2   3
HETATM    3  C   UNL     1     -11.946   8.035  71.844  1.00  0.00    -0.314 C  
HETATM    4  C   UNL     1     -11.272   8.124  70.476  1.00  0.00    -0.249 C  
HETATM    5  O   UNL     1     -11.367   8.054  72.923  1.00  0.00    -0.408 OA 
HETATM    6  C   UNL     1     -10.373   9.401  70.413  1.00  0.00    -0.262 C  
HETATM    7  C   UNL     1     -10.534   6.826  70.156  1.00  0.00    -0.240 A  
HETATM    8  C   UNL     1      -9.594   9.544  69.086  1.00  0.00    -0.170 C  
HETATM    9  C   UNL     1     -10.847   6.118  68.983  1.00  0.00    -0.416 A  
HETATM   10  C   UNL     1     -10.503   9.908  67.915  1.00  0.00    -0.282 C  
HETATM   11  C   UNL     1     -10.180   4.935  68.662  1.00  0.00    -0.112 A  
HETATM   12  C   UNL     1      -9.196   4.436  69.511  1.00  0.00    -0.196 A  
HETATM   13  C   UNL     1     -11.290  11.173  68.237  1.00  0.00    -0.365 C  
HETATM   14  C   UNL     1      -8.874   5.123  70.679  1.00  0.00    -0.150 A  
HETATM   15  C   UNL     1     -12.004  11.062  69.583  1.00  0.00    -0.353 C  
HETATM   16  C   UNL     1      -9.532   6.314  70.998  1.00  0.00    -0.187 A  
HETATM   17  N   UNL     1     -11.087  10.677  70.655  1.00  0.00    -0.405 NA 
HETATM   18  H   UNL     1     -10.423  11.428  70.845  1.00  0.00     0.000 HD 
ENDBRANCH   2   3
TORSDOF 1
ENDMDL
MODEL       39
REMARK 921   NORMALIZED FREE ENERGY PREDICTED BY IDOCK:   -4.73 KCAL/MOL
REMARK 922        TOTAL FREE ENERGY PREDICTED BY IDOCK:   -5.00 KCAL/MOL
REMARK 923 INTER-LIGAND FREE ENERGY PREDICTED BY IDOCK:   -4.94 KCAL/MOL
REMARK 924 INTRA-LIGAND FREE ENERGY PREDICTED BY IDOCK:   -0.06 KCAL/MOL
REMARK 927      BINDING AFFINITY PREDICTED BY RF-SCORE:    0.00 PKD
ROOT
HETATM    1  C   UNL     1     -11.999  15.999  72.541  1.00  0.00    -0.545 C  
HETATM    2  O   UNL     1     -11.551  15.085  71.538  1.00  0.00    -0.347 OA 
ENDROOT
BRANCH   2   3
HETATM    3  C   UNL     1     -11.904  15.433  70.265  1.00  0.00    -0.338 C  
HETATM    4  C   UNL     1     -10.791  15.057  69.289  1.00  0.00    -0.263 C  
HETATM    5  O   UNL     1     -12.969  15.954  69.961  1.00  0.00    -0.158 OA 
HETATM    6  C   UNL     1     -11.366  14.139  68.162  1.00  0.00    -0.290 C  
HETATM    7  C   UNL     1     -10.084  16.308  68.773  1.00  0.00    -0.243 A  
HETATM    8  C   UNL     1     -10.326  13.758  67.084  1.00  0.00    -0.261 C  
HETATM    9  C   UNL     1      -8.696  16.443  68.941  1.00  0.00    -0.253 A  
HETATM   10  C   UNL     1      -9.285  12.770  67.605  1.00  0.00    -0.192 C  
HETATM   11  C   UNL     1      -8.024  17.572  68.470  1.00  0.00    -0.271 A  
HETATM   12  C   UNL     1      -8.730  18.588  67.830  1.00  0.00    -0.301 A  
HETATM   13  C   UNL     1      -9.974  11.536  68.175  1.00  0.00    -0.197 C  
HETATM   14  C   UNL     1     -10.106  18.472  67.657  1.00  0.00    -0.390 A  
HETATM   15  C   UNL     1     -11.053  11.912  69.188  1.00  0.00    -0.228 C  
HETATM   16  C   UNL     1     -10.780  17.338  68.118  1.00  0.00    -0.363 A  
HETATM   17  N   UNL     1     -11.997  12.886  68.642  1.00  0.00    -0.297 NA 
HETATM   18  H   UNL     1     -12.559  12.463  67.902  1.00  0.00     0.000 HD 
ENDBRANCH   2   3
TORSDOF 1
ENDMDL
MODEL       40
REMARK 921   NORMALIZED FREE ENERGY PREDICTED BY IDOCK:   -4.72 KCAL/MOL
REMARK 922        TOTAL FREE ENERGY PREDICTED BY IDOCK:   -4.99 KCAL/MOL
REMARK 923 INTER-LIGAND FREE ENERGY PREDICTED BY IDOCK:   -4.88 KCAL/MOL
REMARK 924 INTRA-LIGAND FREE ENERGY PREDICTED BY IDOCK:   -0.11 KCAL/MOL
REMARK 927      BINDING AFFINITY PREDICTED BY RF-SCORE:    0.00 PKD
ROOT
HETATM    1  C   UNL     1      -9.575  10.128  69.401  1.00  0.00    -0.232 C  
HETATM    2  O   UNL     1     -10.049  11.347  68.825  1.00  0.00    -0.205 OA 
ENDROOT
BRANCH   2   3
HETATM    3  C   UNL     1     -10.949  11.173  67.813  1.00  0.00    -0.262 C  
HETATM    4  C   UNL     1     -10.290  11.465  66.466  1.00  0.00    -0.277 C  
HETATM    5  O   UNL     1     -12.110  10.817  67.973  1.00  0.00    -0.474 OA 
HETATM    6  C   UNL     1     -10.452  10.231  65.520  1.00  0.00    -0.069 C  
HETATM    7  C   UNL     1     -10.821  12.772  65.881  1.00  0.00    -0.295 A  
HETATM    8  C   UNL     1      -9.874  10.455  64.105  1.00  0.00    -0.379 C  
HETATM    9  C   UNL     1      -9.925  13.804  65.555  1.00  0.00    -0.260 A  
HETATM   10  C   UNL     1      -8.347  10.484  64.100  1.00  0.00    -0.095 C  
HETATM   11  C   UNL     1     -10.382  15.004  65.010  1.00  0.00    -0.390 A  
HETATM   12  C   UNL     1     -11.744  15.196  64.788  1.00  0.00    -0.331 A  
HETATM   13  C   UNL     1      -7.797   9.211  64.730  1.00  0.00    -0.119 C  
HETATM   14  C   UNL     1     -12.647  14.184  65.107  1.00  0.00    -0.426 A  
HETATM   15  C   UNL     1      -8.421   8.947  66.099  1.00  0.00    -0.125 C  
HETATM   16  C   UNL     1     -12.190  12.977  65.643  1.00  0.00    -0.521 A  
HETATM   17  N   UNL     1      -9.882   8.967  66.044  1.00  0.00    -0.417 NA 
HETATM   18  H   UNL     1     -10.231   8.169  65.511  1.00  0.00     0.000 HD 
ENDBRANCH   2   3
TORSDOF 1
ENDMDL
MODEL       41
REMARK 921   NORMALIZED FREE ENERGY PREDICTED BY IDOCK:   -4.71 KCAL/MOL
REMARK 922        TOTAL FREE ENERGY PREDICTED BY IDOCK:   -4.97 KCAL/MOL
REMARK 923 INTER-LIGAND FREE ENERGY PREDICTED BY IDOCK:   -4.89 KCAL/MOL
REMARK 924 INTRA-LIGAND FREE ENERGY PREDICTED BY IDOCK:   -0.07 KCAL/MOL
REMARK 927      BINDING AFFINITY PREDICTED BY RF-SCORE:    0.00 PKD
ROOT
HETATM    1  C   UNL     1      -9.279  11.132  62.791  1.00  0.00    -0.348 C  
HETATM    2  O   UNL     1      -9.847  12.340  63.300  1.00  0.00    -0.390 OA 
ENDROOT
BRANCH   2   3
HETATM    3  C   UNL     1     -10.864  12.148  64.191  1.00  0.00    -0.360 C  
HETATM    4  C   UNL     1     -10.560  12.869  65.503  1.00  0.00    -0.298 C  
HETATM    5  O   UNL     1     -11.879  11.504  63.954  1.00  0.00    -0.306 OA 
HETATM    6  C   UNL     1     -11.730  13.844  65.854  1.00  0.00    -0.359 C  
HETATM    7  C   UNL     1     -10.234  11.864  66.605  1.00  0.00    -0.236 A  
HETATM    8  C   UNL     1     -11.544  14.573  67.203  1.00  0.00    -0.406 C  
HETATM    9  C   UNL     1      -9.008  11.951  67.287  1.00  0.00    -0.176 A  
HETATM   10  C   UNL     1     -10.445  15.630  67.145  1.00  0.00    -0.303 C  
HETATM   11  C   UNL     1      -8.690  11.051  68.305  1.00  0.00    -0.144 A  
HETATM   12  C   UNL     1      -9.588  10.045  68.653  1.00  0.00    -0.158 A  
HETATM   13  C   UNL     1     -10.723  16.614  66.015  1.00  0.00    -0.153 C  
HETATM   14  C   UNL     1     -10.807   9.943  67.986  1.00  0.00    -0.294 A  
HETATM   15  C   UNL     1     -10.979  15.892  64.693  1.00  0.00    -0.305 C  
HETATM   16  C   UNL     1     -11.133  10.849  66.974  1.00  0.00    -0.271 A  
HETATM   17  N   UNL     1     -12.016  14.870  64.823  1.00  0.00    -0.389 NA 
HETATM   18  H   UNL     1     -12.925  15.302  64.991  1.00  0.00     0.000 HD 
ENDBRANCH   2   3
TORSDOF 1
ENDMDL
MODEL       42
REMARK 921   NORMALIZED FREE ENERGY PREDICTED BY IDOCK:   -4.69 KCAL/MOL
REMARK 922        TOTAL FREE ENERGY PREDICTED BY IDOCK:   -4.95 KCAL/MOL
REMARK 923 INTER-LIGAND FREE ENERGY PREDICTED BY IDOCK:   -4.85 KCAL/MOL
REMARK 924 INTRA-LIGAND FREE ENERGY PREDICTED BY IDOCK:   -0.10 KCAL/MOL
REMARK 927      BINDING AFFINITY PREDICTED BY RF-SCORE:    0.00 PKD
ROOT
HETATM    1  C   UNL     1      -8.138  11.359  68.531  1.00  0.00    -0.149 C  
HETATM    2  O   UNL     1      -8.595  10.466  69.548  1.00  0.00    -0.159 OA 
ENDROOT
BRANCH   2   3
HETATM    3  C   UNL     1      -9.709   9.753  69.207  1.00  0.00    -0.196 C  
HETATM    4  C   UNL     1     -10.734   9.802  70.338  1.00  0.00    -0.368 C  
HETATM    5  O   UNL     1      -9.860   9.177  68.137  1.00  0.00    -0.154 OA 
HETATM    6  C   UNL     1     -12.096  10.343  69.794  1.00  0.00    -0.138 C  
HETATM    7  C   UNL     1     -10.834   8.445  71.030  1.00  0.00    -0.280 A  
HETATM    8  C   UNL     1     -13.220  10.366  70.854  1.00  0.00    -0.321 C  
HETATM    9  C   UNL     1     -10.609   8.350  72.414  1.00  0.00    -0.405 A  
HETATM   10  C   UNL     1     -13.005  11.453  71.904  1.00  0.00    -0.466 C  
HETATM   11  C   UNL     1     -10.704   7.124  73.073  1.00  0.00    -0.359 A  
HETATM   12  C   UNL     1     -11.019   5.970  72.358  1.00  0.00    -0.303 A  
HETATM   13  C   UNL     1     -12.847  12.810  71.229  1.00  0.00    -0.355 C  
HETATM   14  C   UNL     1     -11.243   6.045  70.986  1.00  0.00    -0.332 A  
HETATM   15  C   UNL     1     -11.786  12.771  70.131  1.00  0.00    -0.251 C  
HETATM   16  C   UNL     1     -11.159   7.273  70.325  1.00  0.00    -0.289 A  
HETATM   17  N   UNL     1     -12.029  11.689  69.178  1.00  0.00    -0.327 NA 
HETATM   18  H   UNL     1     -12.871  11.875  68.633  1.00  0.00     0.000 HD 
ENDBRANCH   2   3
TORSDOF 1
ENDMDL
MODEL       43
REMARK 921   NORMALIZED FREE ENERGY PREDICTED BY IDOCK:   -4.68 KCAL/MOL
REMARK 922        TOTAL FREE ENERGY PREDICTED BY IDOCK:   -4.94 KCAL/MOL
REMARK 923 INTER-LIGAND FREE ENERGY PREDICTED BY IDOCK:   -4.87 KCAL/MOL
REMARK 924 INTRA-LIGAND FREE ENERGY PREDICTED BY IDOCK:   -0.07 KCAL/MOL
REMARK 927      BINDING AFFINITY PREDICTED BY RF-SCORE:    0.00 PKD
ROOT
HETATM    1  C   UNL     1     -10.256  19.120  66.063  1.00  0.00    -0.424 C  
HETATM    2  O   UNL     1     -10.526  17.862  66.684  1.00  0.00    -0.354 OA 
ENDROOT
BRANCH   2   3
HETATM    3  C   UNL     1     -10.215  17.816  68.013  1.00  0.00    -0.377 C  
HETATM    4  C   UNL     1      -9.696  16.428  68.385  1.00  0.00    -0.229 C  
HETATM    5  O   UNL     1     -10.324  18.762  68.782  1.00  0.00    -0.323 OA 
HETATM    6  C   UNL     1      -8.287  16.552  69.052  1.00  0.00    -0.202 C  
HETATM    7  C   UNL     1     -10.722  15.681  69.234  1.00  0.00    -0.239 A  
HETATM    8  C   UNL     1      -7.706  15.202  69.525  1.00  0.00    -0.197 C  
HETATM    9  C   UNL     1     -11.199  14.429  68.808  1.00  0.00    -0.282 A  
HETATM   10  C   UNL     1      -7.273  14.315  68.360  1.00  0.00    -0.113 C  
HETATM   11  C   UNL     1     -12.129  13.721  69.570  1.00  0.00    -0.386 A  
HETATM   12  C   UNL     1     -12.604  14.255  70.765  1.00  0.00    -0.427 A  
HETATM   13  C   UNL     1      -6.289  15.063  67.470  1.00  0.00    -0.089 C  
HETATM   14  C   UNL     1     -12.145  15.495  71.201  1.00  0.00    -0.433 A  
HETATM   15  C   UNL     1      -6.831  16.430  67.058  1.00  0.00    -0.210 C  
HETATM   16  C   UNL     1     -11.205  16.202  70.446  1.00  0.00    -0.394 A  
HETATM   17  N   UNL     1      -7.260  17.217  68.214  1.00  0.00    -0.195 NA 
HETATM   18  H   UNL     1      -6.455  17.485  68.782  1.00  0.00     0.000 HD 
ENDBRANCH   2   3
TORSDOF 1
ENDMDL
MODEL       44
REMARK 921   NORMALIZED FREE ENERGY PREDICTED BY IDOCK:   -4.68 KCAL/MOL
REMARK 922        TOTAL FREE ENERGY PREDICTED BY IDOCK:   -4.94 KCAL/MOL
REMARK 923 INTER-LIGAND FREE ENERGY PREDICTED BY IDOCK:   -4.90 KCAL/MOL
REMARK 924 INTRA-LIGAND FREE ENERGY PREDICTED BY IDOCK:   -0.04 KCAL/MOL
REMARK 927      BINDING AFFINITY PREDICTED BY RF-SCORE:    0.00 PKD
ROOT
HETATM    1  C   UNL     1      -5.949  17.365  66.448  1.00  0.00    -0.212 C  
HETATM    2  O   UNL     1      -6.150  16.335  67.417  1.00  0.00    -0.145 OA 
ENDROOT
BRANCH   2   3
HETATM    3  C   UNL     1      -7.061  16.647  68.386  1.00  0.00    -0.167 C  
HETATM    4  C   UNL     1      -8.474  16.323  67.904  1.00  0.00    -0.166 C  
HETATM    5  O   UNL     1      -6.773  17.103  69.485  1.00  0.00    -0.232 OA 
HETATM    6  C   UNL     1      -9.170  15.360  68.920  1.00  0.00    -0.216 C  
HETATM    7  C   UNL     1      -9.254  17.606  67.627  1.00  0.00    -0.245 A  
HETATM    8  C   UNL     1     -10.633  15.025  68.552  1.00  0.00    -0.235 C  
HETATM    9  C   UNL     1      -9.812  17.821  66.355  1.00  0.00    -0.328 A  
HETATM   10  C   UNL     1     -10.731  14.104  67.338  1.00  0.00    -0.284 C  
HETATM   11  C   UNL     1     -10.538  18.980  66.079  1.00  0.00    -0.499 A  
HETATM   12  C   UNL     1     -10.712  19.947  67.066  1.00  0.00    -0.478 A  
HETATM   13  C   UNL     1      -9.913  12.840  67.573  1.00  0.00    -0.210 C  
HETATM   14  C   UNL     1     -10.165  19.751  68.331  1.00  0.00    -0.568 A  
HETATM   15  C   UNL     1      -8.486  13.167  68.007  1.00  0.00    -0.181 C  
HETATM   16  C   UNL     1      -9.446  18.586  68.615  1.00  0.00    -0.373 A  
HETATM   17  N   UNL     1      -8.460  14.079  69.150  1.00  0.00    -0.356 NA 
HETATM   18  H   UNL     1      -8.819  13.616  69.985  1.00  0.00     0.000 HD 
ENDBRANCH   2   3
TORSDOF 1
ENDMDL
MODEL       45
REMARK 921   NORMALIZED FREE ENERGY PREDICTED BY IDOCK:   -4.67 KCAL/MOL
REMARK 922        TOTAL FREE ENERGY PREDICTED BY IDOCK:   -4.94 KCAL/MOL
REMARK 923 INTER-LIGAND FREE ENERGY PREDICTED BY IDOCK:   -4.88 KCAL/MOL
REMARK 924 INTRA-LIGAND FREE ENERGY PREDICTED BY IDOCK:   -0.05 KCAL/MOL
REMARK 927      BINDING AFFINITY PREDICTED BY RF-SCORE:    0.00 PKD
ROOT
HETATM    1  C   UNL     1     -10.879  19.332  67.426  1.00  0.00    -0.446 C  
HETATM    2  O   UNL     1     -10.900  17.908  67.537  1.00  0.00    -0.364 OA 
ENDROOT
BRANCH   2   3
HETATM    3  C   UNL     1     -10.011  17.269  66.720  1.00  0.00    -0.301 C  
HETATM    4  C   UNL     1      -9.565  15.953  67.352  1.00  0.00    -0.221 C  
HETATM    5  O   UNL     1      -9.647  17.693  65.630  1.00  0.00    -0.503 OA 
HETATM    6  C   UNL     1      -9.839  14.772  66.365  1.00  0.00    -0.280 C  
HETATM    7  C   UNL     1      -8.115  16.048  67.823  1.00  0.00    -0.154 A  
HETATM    8  C   UNL     1      -9.358  13.402  66.890  1.00  0.00    -0.253 C  
HETATM    9  C   UNL     1      -7.801  15.790  69.168  1.00  0.00    -0.227 A  
HETATM   10  C   UNL     1     -10.225  12.881  68.034  1.00  0.00    -0.229 C  
HETATM   11  C   UNL     1      -6.483  15.860  69.621  1.00  0.00    -0.186 A  
HETATM   12  C   UNL     1      -5.459  16.196  68.740  1.00  0.00    -0.108 A  
HETATM   13  C   UNL     1     -11.686  12.830  67.602  1.00  0.00    -0.422 C  
HETATM   14  C   UNL     1      -5.752  16.456  67.404  1.00  0.00    -0.183 A  
HETATM   15  C   UNL     1     -12.144  14.164  67.015  1.00  0.00    -0.414 C  
HETATM   16  C   UNL     1      -7.069  16.376  66.944  1.00  0.00    -0.256 A  
HETATM   17  N   UNL     1     -11.254  14.625  65.950  1.00  0.00    -0.333 NA 
HETATM   18  H   UNL     1     -11.326  14.014  65.135  1.00  0.00     0.000 HD 
ENDBRANCH   2   3
TORSDOF 1
ENDMDL
MODEL       46
REMARK 921   NORMALIZED FREE ENERGY PREDICTED BY IDOCK:   -4.67 KCAL/MOL
REMARK 922        TOTAL FREE ENERGY PREDICTED BY IDOCK:   -4.93 KCAL/MOL
REMARK 923 INTER-LIGAND FREE ENERGY PREDICTED BY IDOCK:   -4.81 KCAL/MOL
REMARK 924 INTRA-LIGAND FREE ENERGY PREDICTED BY IDOCK:   -0.13 KCAL/MOL
REMARK 927      BINDING AFFINITY PREDICTED BY RF-SCORE:    0.00 PKD
ROOT
HETATM    1  C   UNL     1     -10.830   6.372  67.154  1.00  0.00    -0.393 C  
HETATM    2  O   UNL     1     -10.818   7.789  66.978  1.00  0.00    -0.316 OA 
ENDROOT
BRANCH   2   3
HETATM    3  C   UNL     1      -9.959   8.449  67.810  1.00  0.00    -0.186 C  
HETATM    4  C   UNL     1     -10.740   9.229  68.865  1.00  0.00    -0.182 C  
HETATM    5  O   UNL     1      -8.738   8.400  67.723  1.00  0.00    -0.136 OA 
HETATM    6  C   UNL     1     -10.265   8.806  70.294  1.00  0.00    -0.196 C  
HETATM    7  C   UNL     1     -10.653  10.729  68.598  1.00  0.00    -0.226 A  
HETATM    8  C   UNL     1     -10.954   9.591  71.432  1.00  0.00    -0.415 C  
HETATM    9  C   UNL     1     -11.830  11.478  68.434  1.00  0.00    -0.353 A  
HETATM   10  C   UNL     1     -12.418   9.196  71.608  1.00  0.00    -0.434 C  
HETATM   11  C   UNL     1     -11.779  12.852  68.199  1.00  0.00    -0.395 A  
HETATM   12  C   UNL     1     -10.549  13.500  68.117  1.00  0.00    -0.253 A  
HETATM   13  C   UNL     1     -12.532   7.691  71.821  1.00  0.00    -0.358 C  
HETATM   14  C   UNL     1      -9.371  12.775  68.276  1.00  0.00    -0.194 A  
HETATM   15  C   UNL     1     -11.791   6.913  70.736  1.00  0.00    -0.377 C  
HETATM   16  C   UNL     1      -9.420  11.400  68.522  1.00  0.00    -0.183 A  
HETATM   17  N   UNL     1     -10.406   7.361  70.594  1.00  0.00    -0.210 NA 
HETATM   18  H   UNL     1      -9.863   7.113  71.421  1.00  0.00     0.000 HD 
ENDBRANCH   2   3
TORSDOF 1
ENDMDL
MODEL       47
REMARK 921   NORMALIZED FREE ENERGY PREDICTED BY IDOCK:   -4.66 KCAL/MOL
REMARK 922        TOTAL FREE ENERGY PREDICTED BY IDOCK:   -4.92 KCAL/MOL
REMARK 923 INTER-LIGAND FREE ENERGY PREDICTED BY IDOCK:   -4.87 KCAL/MOL
REMARK 924 INTRA-LIGAND FREE ENERGY PREDICTED BY IDOCK:   -0.05 KCAL/MOL
REMARK 927      BINDING AFFINITY PREDICTED BY RF-SCORE:    0.00 PKD
ROOT
HETATM    1  C   UNL     1      -6.906   8.970  71.069  1.00  0.00    -0.092 C  
HETATM    2  O   UNL     1      -8.302   9.130  71.327  1.00  0.00    -0.288 OA 
ENDROOT
BRANCH   2   3
HETATM    3  C   UNL     1      -9.087   8.152  70.787  1.00  0.00    -0.146 C  
HETATM    4  C   UNL     1     -10.338   7.950  71.639  1.00  0.00    -0.250 C  
HETATM    5  O   UNL     1      -8.824   7.544  69.757  1.00  0.00    -0.140 OA 
HETATM    6  C   UNL     1     -11.615   8.117  70.752  1.00  0.00    -0.238 C  
HETATM    7  C   UNL     1     -10.270   6.620  72.387  1.00  0.00    -0.200 A  
HETATM    8  C   UNL     1     -12.935   7.865  71.513  1.00  0.00    -0.338 C  
HETATM    9  C   UNL     1     -10.376   6.602  73.788  1.00  0.00    -0.373 A  
HETATM   10  C   UNL     1     -13.258   8.982  72.502  1.00  0.00    -0.467 C  
HETATM   11  C   UNL     1     -10.327   5.400  74.494  1.00  0.00    -0.272 A  
HETATM   12  C   UNL     1     -10.162   4.197  73.813  1.00  0.00    -0.214 A  
HETATM   13  C   UNL     1     -13.278  10.327  71.784  1.00  0.00    -0.534 C  
HETATM   14  C   UNL     1     -10.054   4.195  72.425  1.00  0.00    -0.243 A  
HETATM   15  C   UNL     1     -12.003  10.548  70.972  1.00  0.00    -0.364 C  
HETATM   16  C   UNL     1     -10.114   5.397  71.714  1.00  0.00    -0.251 A  
HETATM   17  N   UNL     1     -11.731   9.429  70.071  1.00  0.00    -0.456 NA 
HETATM   18  H   UNL     1     -12.432   9.387  69.331  1.00  0.00     0.000 HD 
ENDBRANCH   2   3
TORSDOF 1
ENDMDL
MODEL       48
REMARK 921   NORMALIZED FREE ENERGY PREDICTED BY IDOCK:   -4.66 KCAL/MOL
REMARK 922        TOTAL FREE ENERGY PREDICTED BY IDOCK:   -4.91 KCAL/MOL
REMARK 923 INTER-LIGAND FREE ENERGY PREDICTED BY IDOCK:   -4.86 KCAL/MOL
REMARK 924 INTRA-LIGAND FREE ENERGY PREDICTED BY IDOCK:   -0.05 KCAL/MOL
REMARK 927      BINDING AFFINITY PREDICTED BY RF-SCORE:    0.00 PKD
ROOT
HETATM    1  C   UNL     1     -11.736  14.788  66.983  1.00  0.00    -0.315 C  
HETATM    2  O   UNL     1     -11.482  13.692  67.864  1.00  0.00    -0.279 OA 
ENDROOT
BRANCH   2   3
HETATM    3  C   UNL     1     -11.444  12.474  67.245  1.00  0.00    -0.353 C  
HETATM    4  C   UNL     1     -10.582  11.502  68.047  1.00  0.00    -0.222 C  
HETATM    5  O   UNL     1     -12.037  12.207  66.207  1.00  0.00    -0.626 OA 
HETATM    6  C   UNL     1     -11.410  10.220  68.389  1.00  0.00    -0.178 C  
HETATM    7  C   UNL     1      -9.271  11.220  67.318  1.00  0.00    -0.170 A  
HETATM    8  C   UNL     1     -10.599   9.144  69.146  1.00  0.00    -0.224 C  
HETATM    9  C   UNL     1      -8.047  11.469  67.963  1.00  0.00    -0.136 A  
HETATM   10  C   UNL     1     -10.297   9.550  70.586  1.00  0.00    -0.369 C  
HETATM   11  C   UNL     1      -6.835  11.211  67.322  1.00  0.00    -0.095 A  
HETATM   12  C   UNL     1      -6.825  10.707  66.024  1.00  0.00    -0.129 A  
HETATM   13  C   UNL     1     -11.590   9.889  71.317  1.00  0.00    -0.456 C  
HETATM   14  C   UNL     1      -8.027  10.456  65.369  1.00  0.00    -0.147 A  
HETATM   15  C   UNL     1     -12.428  10.899  70.536  1.00  0.00    -0.351 C  
HETATM   16  C   UNL     1      -9.243  10.703  66.012  1.00  0.00    -0.208 A  
HETATM   17  N   UNL     1     -12.653  10.470  69.157  1.00  0.00    -0.603 NA 
HETATM   18  H   UNL     1     -13.259   9.649  69.132  1.00  0.00     0.000 HD 
ENDBRANCH   2   3
TORSDOF 1
ENDMDL
MODEL       49
REMARK 921   NORMALIZED FREE ENERGY PREDICTED BY IDOCK:   -4.61 KCAL/MOL
REMARK 922        TOTAL FREE ENERGY PREDICTED BY IDOCK:   -4.86 KCAL/MOL
REMARK 923 INTER-LIGAND FREE ENERGY PREDICTED BY IDOCK:   -4.78 KCAL/MOL
REMARK 924 INTRA-LIGAND FREE ENERGY PREDICTED BY IDOCK:   -0.08 KCAL/MOL
REMARK 927      BINDING AFFINITY PREDICTED BY RF-SCORE:    0.00 PKD
ROOT
HETATM    1  C   UNL     1     -12.691  13.843  65.300  1.00  0.00    -0.449 C  
HETATM    2  O   UNL     1     -11.847  12.717  65.547  1.00  0.00    -0.374 OA 
ENDROOT
BRANCH   2   3
HETATM    3  C   UNL     1     -10.736  13.003  66.288  1.00  0.00    -0.276 C  
HETATM    4  C   UNL     1     -10.799  12.282  67.633  1.00  0.00    -0.262 C  
HETATM    5  O   UNL     1      -9.818  13.721  65.911  1.00  0.00    -0.298 OA 
HETATM    6  C   UNL     1      -9.517  11.408  67.825  1.00  0.00    -0.165 C  
HETATM    7  C   UNL     1     -11.051  13.276  68.764  1.00  0.00    -0.303 A  
HETATM    8  C   UNL     1      -9.458  10.688  69.191  1.00  0.00    -0.185 C  
HETATM    9  C   UNL     1     -12.161  13.104  69.609  1.00  0.00    -0.317 A  
HETATM   10  C   UNL     1     -10.466   9.547  69.290  1.00  0.00    -0.226 C  
HETATM   11  C   UNL     1     -12.408  13.992  70.656  1.00  0.00    -0.446 A  
HETATM   12  C   UNL     1     -11.554  15.071  70.872  1.00  0.00    -0.364 A  
HETATM   13  C   UNL     1     -10.267   8.570  68.137  1.00  0.00    -0.254 C  
HETATM   14  C   UNL     1     -10.451  15.258  70.044  1.00  0.00    -0.266 A  
HETATM   15  C   UNL     1     -10.254   9.288  66.789  1.00  0.00    -0.255 C  
HETATM   16  C   UNL     1     -10.194  14.364  69.001  1.00  0.00    -0.185 A  
HETATM   17  N   UNL     1      -9.294  10.391  66.770  1.00  0.00    -0.155 NA 
HETATM   18  H   UNL     1      -8.338  10.034  66.814  1.00  0.00     0.000 HD 
ENDBRANCH   2   3
TORSDOF 1
ENDMDL
MODEL       50
REMARK 921   NORMALIZED FREE ENERGY PREDICTED BY IDOCK:   -4.60 KCAL/MOL
REMARK 922        TOTAL FREE ENERGY PREDICTED BY IDOCK:   -4.85 KCAL/MOL
REMARK 923 INTER-LIGAND FREE ENERGY PREDICTED BY IDOCK:   -4.80 KCAL/MOL
REMARK 924 INTRA-LIGAND FREE ENERGY PREDICTED BY IDOCK:   -0.05 KCAL/MOL
REMARK 927      BINDING AFFINITY PREDICTED BY RF-SCORE:    0.00 PKD
ROOT
HETATM    1  C   UNL     1     -11.816  12.634  66.257  1.00  0.00    -0.410 C  
HETATM    2  O   UNL     1     -12.148  13.374  67.433  1.00  0.00    -0.355 OA 
ENDROOT
BRANCH   2   3
HETATM    3  C   UNL     1     -11.111  13.527  68.309  1.00  0.00    -0.261 C  
HETATM    4  C   UNL     1     -11.380  14.704  69.244  1.00  0.00    -0.313 C  
HETATM    5  O   UNL     1     -10.122  12.806  68.343  1.00  0.00    -0.232 OA 
HETATM    6  C   UNL     1     -11.296  14.228  70.731  1.00  0.00     0.095 C  
HETATM    7  C   UNL     1     -10.458  15.875  68.912  1.00  0.00    -0.233 A  
HETATM    8  C   UNL     1     -11.489  15.367  71.757  1.00  0.00    -0.497 C  
HETATM    9  C   UNL     1     -11.010  17.129  68.598  1.00  0.00    -0.171 A  
HETATM   10  C   UNL     1     -12.932  15.862  71.811  1.00  0.00    -0.405 C  
HETATM   11  C   UNL     1     -10.190  18.218  68.300  1.00  0.00    -0.405 A  
HETATM   12  C   UNL     1      -8.805  18.070  68.304  1.00  0.00    -0.291 A  
HETATM   13  C   UNL     1     -13.875  14.697  72.088  1.00  0.00    -0.569 C  
HETATM   14  C   UNL     1      -8.241  16.834  68.611  1.00  0.00    -0.252 A  
HETATM   15  C   UNL     1     -13.638  13.540  71.120  1.00  0.00     0.103 C  
HETATM   16  C   UNL     1      -9.060  15.745  68.920  1.00  0.00    -0.225 A  
HETATM   17  N   UNL     1     -12.233  13.136  71.088  1.00  0.00    -0.383 NA 
HETATM   18  H   UNL     1     -11.963  12.710  71.976  1.00  0.00     0.000 HD 
ENDBRANCH   2   3
TORSDOF 1
ENDMDL
MODEL       51
REMARK 921   NORMALIZED FREE ENERGY PREDICTED BY IDOCK:   -4.57 KCAL/MOL
REMARK 922        TOTAL FREE ENERGY PREDICTED BY IDOCK:   -4.82 KCAL/MOL
REMARK 923 INTER-LIGAND FREE ENERGY PREDICTED BY IDOCK:   -4.73 KCAL/MOL
REMARK 924 INTRA-LIGAND FREE ENERGY PREDICTED BY IDOCK:   -0.10 KCAL/MOL
REMARK 927      BINDING AFFINITY PREDICTED BY RF-SCORE:    0.00 PKD
ROOT
HETATM    1  C   UNL     1     -10.817  15.639  64.882  1.00  0.00    -0.418 C  
HETATM    2  O   UNL     1      -9.652  15.206  65.587  1.00  0.00    -0.334 OA 
ENDROOT
BRANCH   2   3
HETATM    3  C   UNL     1      -9.697  15.431  66.933  1.00  0.00    -0.231 C  
HETATM    4  C   UNL     1      -8.820  16.627  67.298  1.00  0.00    -0.206 C  
HETATM    5  O   UNL     1     -10.364  14.773  67.722  1.00  0.00    -0.241 OA 
HETATM    6  C   UNL     1      -9.669  17.689  68.070  1.00  0.00    -0.301 C  
HETATM    7  C   UNL     1      -7.569  16.167  68.043  1.00  0.00    -0.140 A  
HETATM    8  C   UNL     1      -8.850  18.911  68.542  1.00  0.00    -0.387 C  
HETATM    9  C   UNL     1      -6.299  16.500  67.543  1.00  0.00    -0.187 A  
HETATM   10  C   UNL     1      -8.441  19.818  67.384  1.00  0.00    -0.360 C  
HETATM   11  C   UNL     1      -5.140  16.101  68.210  1.00  0.00    -0.105 A  
HETATM   12  C   UNL     1      -5.231  15.357  69.384  1.00  0.00    -0.093 A  
HETATM   13  C   UNL     1      -9.672  20.244  66.593  1.00  0.00    -0.550 C  
HETATM   14  C   UNL     1      -6.482  15.017  69.893  1.00  0.00    -0.169 A  
HETATM   15  C   UNL     1     -10.523  19.042  66.187  1.00  0.00    -0.467 C  
HETATM   16  C   UNL     1      -7.644  15.424  69.233  1.00  0.00    -0.216 A  
HETATM   17  N   UNL     1     -10.851  18.195  67.333  1.00  0.00    -0.324 NA 
HETATM   18  H   UNL     1     -11.486  18.682  67.967  1.00  0.00     0.000 HD 
ENDBRANCH   2   3
TORSDOF 1
ENDMDL
MODEL       52
REMARK 921   NORMALIZED FREE ENERGY PREDICTED BY IDOCK:   -4.53 KCAL/MOL
REMARK 922        TOTAL FREE ENERGY PREDICTED BY IDOCK:   -4.78 KCAL/MOL
REMARK 923 INTER-LIGAND FREE ENERGY PREDICTED BY IDOCK:   -4.71 KCAL/MOL
REMARK 924 INTRA-LIGAND FREE ENERGY PREDICTED BY IDOCK:   -0.07 KCAL/MOL
REMARK 927      BINDING AFFINITY PREDICTED BY RF-SCORE:    0.00 PKD
ROOT
HETATM    1  C   UNL     1     -10.497   8.633  67.249  1.00  0.00    -0.289 C  
HETATM    2  O   UNL     1      -9.677   8.339  68.382  1.00  0.00    -0.152 OA 
ENDROOT
BRANCH   2   3
HETATM    3  C   UNL     1      -9.914   9.137  69.465  1.00  0.00    -0.189 C  
HETATM    4  C   UNL     1     -10.187   8.280  70.700  1.00  0.00    -0.214 C  
HETATM    5  O   UNL     1      -9.889  10.361  69.442  1.00  0.00    -0.220 OA 
HETATM    6  C   UNL     1      -9.196   8.672  71.845  1.00  0.00    -0.275 C  
HETATM    7  C   UNL     1     -11.659   8.364  71.096  1.00  0.00    -0.317 A  
HETATM    8  C   UNL     1      -9.439   7.903  73.162  1.00  0.00    -0.344 C  
HETATM    9  C   UNL     1     -12.423   7.188  71.188  1.00  0.00    -0.400 A  
HETATM   10  C   UNL     1      -9.026   6.437  73.064  1.00  0.00    -0.133 C  
HETATM   11  C   UNL     1     -13.768   7.235  71.558  1.00  0.00    -0.451 A  
HETATM   12  C   UNL     1     -14.374   8.458  71.832  1.00  0.00    -0.561 A  
HETATM   13  C   UNL     1      -7.573   6.331  72.617  1.00  0.00    -0.100 C  
HETATM   14  C   UNL     1     -13.633   9.634  71.744  1.00  0.00    -0.424 A  
HETATM   15  C   UNL     1      -7.313   7.148  71.353  1.00  0.00    -0.078 C  
HETATM   16  C   UNL     1     -12.283   9.589  71.385  1.00  0.00    -0.455 A  
HETATM   17  N   UNL     1      -7.761   8.533  71.499  1.00  0.00    -0.110 NA 
HETATM   18  H   UNL     1      -7.181   9.027  72.178  1.00  0.00     0.000 HD 
ENDBRANCH   2   3
TORSDOF 1
ENDMDL
MODEL       53
REMARK 921   NORMALIZED FREE ENERGY PREDICTED BY IDOCK:   -4.53 KCAL/MOL
REMARK 922        TOTAL FREE ENERGY PREDICTED BY IDOCK:   -4.78 KCAL/MOL
REMARK 923 INTER-LIGAND FREE ENERGY PREDICTED BY IDOCK:   -4.65 KCAL/MOL
REMARK 924 INTRA-LIGAND FREE ENERGY PREDICTED BY IDOCK:   -0.13 KCAL/MOL
REMARK 927      BINDING AFFINITY PREDICTED BY RF-SCORE:    0.00 PKD
ROOT
HETATM    1  C   UNL     1      -6.098   9.514  70.649  1.00  0.00    -0.071 C  
HETATM    2  O   UNL     1      -7.424   9.841  71.068  1.00  0.00    -0.318 OA 
ENDROOT
BRANCH   2   3
HETATM    3  C   UNL     1      -8.292   8.786  71.053  1.00  0.00    -0.171 C  
HETATM    4  C   UNL     1      -9.406   9.035  70.038  1.00  0.00    -0.198 C  
HETATM    5  O   UNL     1      -8.173   7.783  71.744  1.00  0.00    -0.102 OA 
HETATM    6  C   UNL     1      -9.467   7.850  69.019  1.00  0.00    -0.151 C  
HETATM    7  C   UNL     1     -10.728   9.312  70.750  1.00  0.00    -0.350 A  
HETATM    8  C   UNL     1     -10.610   7.979  67.989  1.00  0.00    -0.190 C  
HETATM    9  C   UNL     1     -11.421  10.507  70.492  1.00  0.00    -0.433 A  
HETATM   10  C   UNL     1     -10.349   9.080  66.965  1.00  0.00    -0.339 C  
HETATM   11  C   UNL     1     -12.636  10.781  71.121  1.00  0.00    -0.532 A  
HETATM   12  C   UNL     1     -13.175   9.868  72.024  1.00  0.00    -0.555 A  
HETATM   13  C   UNL     1      -9.007   8.852  66.281  1.00  0.00    -0.207 C  
HETATM   14  C   UNL     1     -12.502   8.679  72.293  1.00  0.00    -0.460 A  
HETATM   15  C   UNL     1      -7.885   8.653  67.298  1.00  0.00    -0.097 C  
HETATM   16  C   UNL     1     -11.290   8.398  71.657  1.00  0.00    -0.349 A  
HETATM   17  N   UNL     1      -8.210   7.610  68.270  1.00  0.00    -0.124 NA 
HETATM   18  H   UNL     1      -8.233   6.695  67.819  1.00  0.00     0.000 HD 
ENDBRANCH   2   3
TORSDOF 1
ENDMDL
MODEL       54
REMARK 921   NORMALIZED FREE ENERGY PREDICTED BY IDOCK:   -4.53 KCAL/MOL
REMARK 922        TOTAL FREE ENERGY PREDICTED BY IDOCK:   -4.78 KCAL/MOL
REMARK 923 INTER-LIGAND FREE ENERGY PREDICTED BY IDOCK:   -4.71 KCAL/MOL
REMARK 924 INTRA-LIGAND FREE ENERGY PREDICTED BY IDOCK:   -0.06 KCAL/MOL
REMARK 927      BINDING AFFINITY PREDICTED BY RF-SCORE:    0.00 PKD
ROOT
HETATM    1  C   UNL     1     -12.090  13.843  69.883  1.00  0.00    -0.344 C  
HETATM    2  O   UNL     1     -11.447  12.569  69.942  1.00  0.00    -0.207 OA 
ENDROOT
BRANCH   2   3
HETATM    3  C   UNL     1     -11.591  11.816  68.811  1.00  0.00    -0.307 C  
HETATM    4  C   UNL     1     -10.441  12.092  67.844  1.00  0.00    -0.224 C  
HETATM    5  O   UNL     1     -12.504  11.023  68.620  1.00  0.00    -0.462 OA 
HETATM    6  C   UNL     1      -9.724  10.752  67.480  1.00  0.00    -0.166 C  
HETATM    7  C   UNL     1     -10.936  12.883  66.635  1.00  0.00    -0.302 A  
HETATM    8  C   UNL     1      -8.584  10.921  66.451  1.00  0.00    -0.160 C  
HETATM    9  C   UNL     1     -10.341  14.116  66.319  1.00  0.00    -0.294 A  
HETATM   10  C   UNL     1      -7.364  11.619  67.045  1.00  0.00    -0.143 C  
HETATM   11  C   UNL     1     -10.767  14.854  65.213  1.00  0.00    -0.409 A  
HETATM   12  C   UNL     1     -11.799  14.375  64.411  1.00  0.00    -0.433 A  
HETATM   13  C   UNL     1      -6.887  10.876  68.286  1.00  0.00    -0.067 C  
HETATM   14  C   UNL     1     -12.401  13.156  64.710  1.00  0.00    -0.477 A  
HETATM   15  C   UNL     1      -8.028  10.644  69.275  1.00  0.00    -0.135 C  
HETATM   16  C   UNL     1     -11.970  12.409  65.810  1.00  0.00    -0.437 A  
HETATM   17  N   UNL     1      -9.178  10.004  68.638  1.00  0.00    -0.147 NA 
HETATM   18  H   UNL     1      -8.951   9.046  68.369  1.00  0.00     0.000 HD 
ENDBRANCH   2   3
TORSDOF 1
ENDMDL
MODEL       55
REMARK 921   NORMALIZED FREE ENERGY PREDICTED BY IDOCK:   -4.51 KCAL/MOL
REMARK 922        TOTAL FREE ENERGY PREDICTED BY IDOCK:   -4.76 KCAL/MOL
REMARK 923 INTER-LIGAND FREE ENERGY PREDICTED BY IDOCK:   -4.68 KCAL/MOL
REMARK 924 INTRA-LIGAND FREE ENERGY PREDICTED BY IDOCK:   -0.09 KCAL/MOL
REMARK 927      BINDING AFFINITY PREDICTED BY RF-SCORE:    0.00 PKD
ROOT
HETATM    1  C   UNL     1     -12.713   9.890  71.506  1.00  0.00    -0.415 C  
HETATM    2  O   UNL     1     -12.277   8.807  72.329  1.00  0.00    -0.364 OA 
ENDROOT
BRANCH   2   3
HETATM    3  C   UNL     1     -12.352   7.582  71.729  1.00  0.00    -0.326 C  
HETATM    4  C   UNL     1     -10.949   7.025  71.492  1.00  0.00    -0.260 C  
HETATM    5  O   UNL     1     -13.398   7.014  71.444  1.00  0.00    -0.354 OA 
HETATM    6  C   UNL     1     -10.821   5.616  72.157  1.00  0.00    -0.245 C  
HETATM    7  C   UNL     1     -10.608   7.045  70.004  1.00  0.00    -0.251 A  
HETATM    8  C   UNL     1      -9.454   4.939  71.914  1.00  0.00    -0.194 C  
HETATM    9  C   UNL     1      -9.463   7.728  69.561  1.00  0.00    -0.160 A  
HETATM   10  C   UNL     1      -8.328   5.608  72.698  1.00  0.00    -0.117 C  
HETATM   11  C   UNL     1      -9.123   7.753  68.208  1.00  0.00    -0.130 A  
HETATM   12  C   UNL     1      -9.926   7.103  67.274  1.00  0.00    -0.243 A  
HETATM   13  C   UNL     1      -8.674   5.647  74.181  1.00  0.00    -0.119 C  
HETATM   14  C   UNL     1     -11.066   6.422  67.695  1.00  0.00    -0.388 A  
HETATM   15  C   UNL     1     -10.056   6.250  74.420  1.00  0.00    -0.340 C  
HETATM   16  C   UNL     1     -11.403   6.386  69.051  1.00  0.00    -0.332 A  
HETATM   17  N   UNL     1     -11.084   5.590  73.615  1.00  0.00    -0.439 NA 
HETATM   18  H   UNL     1     -11.228   4.632  73.936  1.00  0.00     0.000 HD 
ENDBRANCH   2   3
TORSDOF 1
ENDMDL
MODEL       56
REMARK 921   NORMALIZED FREE ENERGY PREDICTED BY IDOCK:   -4.48 KCAL/MOL
REMARK 922        TOTAL FREE ENERGY PREDICTED BY IDOCK:   -4.73 KCAL/MOL
REMARK 923 INTER-LIGAND FREE ENERGY PREDICTED BY IDOCK:   -4.60 KCAL/MOL
REMARK 924 INTRA-LIGAND FREE ENERGY PREDICTED BY IDOCK:   -0.13 KCAL/MOL
REMARK 927      BINDING AFFINITY PREDICTED BY RF-SCORE:    0.00 PKD
ROOT
HETATM    1  C   UNL     1     -11.850  12.850  67.372  1.00  0.00    -0.360 C  
HETATM    2  O   UNL     1     -12.018  11.463  67.667  1.00  0.00    -0.630 OA 
ENDROOT
BRANCH   2   3
HETATM    3  C   UNL     1     -11.341  11.041  68.776  1.00  0.00    -0.283 C  
HETATM    4  C   UNL     1     -10.201  10.106  68.374  1.00  0.00    -0.192 C  
HETATM    5  O   UNL     1     -11.607  11.384  69.921  1.00  0.00    -0.293 OA 
HETATM    6  C   UNL     1      -8.849  10.648  68.942  1.00  0.00    -0.157 C  
HETATM    7  C   UNL     1     -10.517   8.669  68.780  1.00  0.00    -0.209 A  
HETATM    8  C   UNL     1      -7.642   9.732  68.643  1.00  0.00    -0.079 C  
HETATM    9  C   UNL     1     -10.524   7.655  67.807  1.00  0.00    -0.282 A  
HETATM   10  C   UNL     1      -7.240   9.762  67.170  1.00  0.00    -0.087 C  
HETATM   11  C   UNL     1     -10.799   6.332  68.153  1.00  0.00    -0.401 A  
HETATM   12  C   UNL     1     -11.079   6.001  69.476  1.00  0.00    -0.468 A  
HETATM   13  C   UNL     1      -6.974  11.197  66.730  1.00  0.00    -0.137 C  
HETATM   14  C   UNL     1     -11.079   6.992  70.454  1.00  0.00    -0.323 A  
HETATM   15  C   UNL     1      -8.136  12.120  67.089  1.00  0.00    -0.175 C  
HETATM   16  C   UNL     1     -10.793   8.317  70.112  1.00  0.00    -0.237 A  
HETATM   17  N   UNL     1      -8.495  12.019  68.503  1.00  0.00    -0.283 NA 
HETATM   18  H   UNL     1      -7.751  12.400  69.089  1.00  0.00     0.000 HD 
ENDBRANCH   2   3
TORSDOF 1
ENDMDL
MODEL       57
REMARK 921   NORMALIZED FREE ENERGY PREDICTED BY IDOCK:   -4.46 KCAL/MOL
REMARK 922        TOTAL FREE ENERGY PREDICTED BY IDOCK:   -4.71 KCAL/MOL
REMARK 923 INTER-LIGAND FREE ENERGY PREDICTED BY IDOCK:   -4.60 KCAL/MOL
REMARK 924 INTRA-LIGAND FREE ENERGY PREDICTED BY IDOCK:   -0.11 KCAL/MOL
REMARK 927      BINDING AFFINITY PREDICTED BY RF-SCORE:    0.00 PKD
ROOT
HETATM    1  C   UNL     1     -10.159   5.747  67.555  1.00  0.00    -0.171 C  
HETATM    2  O   UNL     1     -10.931   6.540  68.459  1.00  0.00    -0.278 OA 
ENDROOT
BRANCH   2   3
HETATM    3  C   UNL     1     -10.325   7.704  68.839  1.00  0.00    -0.212 C  
HETATM    4  C   UNL     1     -10.344   7.836  70.361  1.00  0.00    -0.212 C  
HETATM    5  O   UNL     1      -9.825   8.509  68.063  1.00  0.00    -0.157 OA 
HETATM    6  C   UNL     1      -8.887   8.036  70.892  1.00  0.00    -0.139 C  
HETATM    7  C   UNL     1     -11.319   8.927  70.793  1.00  0.00    -0.325 A  
HETATM    8  C   UNL     1      -8.809   8.245  72.420  1.00  0.00    -0.286 C  
HETATM    9  C   UNL     1     -12.363   8.617  71.681  1.00  0.00    -0.384 A  
HETATM   10  C   UNL     1      -9.107   6.966  73.198  1.00  0.00    -0.154 C  
HETATM   11  C   UNL     1     -13.263   9.598  72.100  1.00  0.00    -0.535 A  
HETATM   12  C   UNL     1     -13.139  10.904  71.632  1.00  0.00    -0.538 A  
HETATM   13  C   UNL     1      -8.179   5.848  72.742  1.00  0.00    -0.118 C  
HETATM   14  C   UNL     1     -12.112  11.229  70.750  1.00  0.00    -0.450 A  
HETATM   15  C   UNL     1      -8.199   5.685  71.224  1.00  0.00    -0.125 C  
HETATM   16  C   UNL     1     -11.203  10.251  70.337  1.00  0.00    -0.407 A  
HETATM   17  N   UNL     1      -7.941   6.950  70.537  1.00  0.00    -0.112 NA 
HETATM   18  H   UNL     1      -6.978   7.251  70.691  1.00  0.00     0.000 HD 
ENDBRANCH   2   3
TORSDOF 1
ENDMDL
MODEL       58
REMARK 921   NORMALIZED FREE ENERGY PREDICTED BY IDOCK:   -4.43 KCAL/MOL
REMARK 922        TOTAL FREE ENERGY PREDICTED BY IDOCK:   -4.68 KCAL/MOL
REMARK 923 INTER-LIGAND FREE ENERGY PREDICTED BY IDOCK:   -4.55 KCAL/MOL
REMARK 924 INTRA-LIGAND FREE ENERGY PREDICTED BY IDOCK:   -0.13 KCAL/MOL
REMARK 927      BINDING AFFINITY PREDICTED BY RF-SCORE:    0.00 PKD
ROOT
HETATM    1  C   UNL     1      -6.293  10.931  69.756  1.00  0.00    -0.114 C  
HETATM    2  O   UNL     1      -7.356  10.237  70.410  1.00  0.00    -0.258 OA 
ENDROOT
BRANCH   2   3
HETATM    3  C   UNL     1      -8.195   9.570  69.563  1.00  0.00    -0.134 C  
HETATM    4  C   UNL     1      -9.622  10.095  69.712  1.00  0.00    -0.213 C  
HETATM    5  O   UNL     1      -7.839   8.693  68.786  1.00  0.00    -0.102 OA 
HETATM    6  C   UNL     1     -10.160  10.565  68.322  1.00  0.00    -0.160 C  
HETATM    7  C   UNL     1     -10.504   9.059  70.405  1.00  0.00    -0.254 A  
HETATM    8  C   UNL     1     -11.626  11.052  68.359  1.00  0.00    -0.372 C  
HETATM    9  C   UNL     1     -11.187   9.403  71.584  1.00  0.00    -0.431 A  
HETATM   10  C   UNL     1     -11.773  12.395  69.069  1.00  0.00    -0.372 C  
HETATM   11  C   UNL     1     -12.008   8.478  72.231  1.00  0.00    -0.454 A  
HETATM   12  C   UNL     1     -12.154   7.193  71.714  1.00  0.00    -0.363 A  
HETATM   13  C   UNL     1     -10.858  13.431  68.427  1.00  0.00    -0.284 C  
HETATM   14  C   UNL     1     -11.484   6.835  70.548  1.00  0.00    -0.413 A  
HETATM   15  C   UNL     1      -9.422  12.923  68.323  1.00  0.00    -0.206 C  
HETATM   16  C   UNL     1     -10.669   7.762  69.892  1.00  0.00    -0.245 A  
HETATM   17  N   UNL     1      -9.351  11.619  67.665  1.00  0.00    -0.174 NA 
HETATM   18  H   UNL     1      -9.603  11.702  66.680  1.00  0.00     0.000 HD 
ENDBRANCH   2   3
TORSDOF 1
ENDMDL
MODEL       59
REMARK 921   NORMALIZED FREE ENERGY PREDICTED BY IDOCK:   -4.41 KCAL/MOL
REMARK 922        TOTAL FREE ENERGY PREDICTED BY IDOCK:   -4.66 KCAL/MOL
REMARK 923 INTER-LIGAND FREE ENERGY PREDICTED BY IDOCK:   -4.53 KCAL/MOL
REMARK 924 INTRA-LIGAND FREE ENERGY PREDICTED BY IDOCK:   -0.13 KCAL/MOL
REMARK 927      BINDING AFFINITY PREDICTED BY RF-SCORE:    0.00 PKD
ROOT
HETATM    1  C   UNL     1      -9.794   7.018  74.042  1.00  0.00    -0.308 C  
HETATM    2  O   UNL     1      -9.783   8.175  73.204  1.00  0.00    -0.277 OA 
ENDROOT
BRANCH   2   3
HETATM    3  C   UNL     1     -10.877   8.289  72.393  1.00  0.00    -0.351 C  
HETATM    4  C   UNL     1     -10.478   8.065  70.936  1.00  0.00    -0.223 C  
HETATM    5  O   UNL     1     -12.012   8.518  72.791  1.00  0.00    -0.335 OA 
HETATM    6  C   UNL     1     -11.345   6.918  70.321  1.00  0.00    -0.324 C  
HETATM    7  C   UNL     1     -10.535   9.376  70.156  1.00  0.00    -0.280 A  
HETATM    8  C   UNL     1     -11.060   6.662  68.824  1.00  0.00    -0.297 C  
HETATM    9  C   UNL     1      -9.390   9.838  69.486  1.00  0.00    -0.226 A  
HETATM   10  C   UNL     1      -9.703   6.000  68.597  1.00  0.00    -0.149 C  
HETATM   11  C   UNL     1      -9.418  11.028  68.758  1.00  0.00    -0.190 A  
HETATM   12  C   UNL     1     -10.589  11.780  68.694  1.00  0.00    -0.250 A  
HETATM   13  C   UNL     1      -9.605   4.715  69.410  1.00  0.00    -0.257 C  
HETATM   14  C   UNL     1     -11.733  11.338  69.353  1.00  0.00    -0.409 A  
HETATM   15  C   UNL     1      -9.956   4.951  70.878  1.00  0.00    -0.217 C  
HETATM   16  C   UNL     1     -11.711  10.141  70.075  1.00  0.00    -0.294 A  
HETATM   17  N   UNL     1     -11.249   5.619  71.027  1.00  0.00    -0.141 NA 
HETATM   18  H   UNL     1     -12.007   4.999  70.739  1.00  0.00     0.000 HD 
ENDBRANCH   2   3
TORSDOF 1
ENDMDL
MODEL       60
REMARK 921   NORMALIZED FREE ENERGY PREDICTED BY IDOCK:   -4.38 KCAL/MOL
REMARK 922        TOTAL FREE ENERGY PREDICTED BY IDOCK:   -4.62 KCAL/MOL
REMARK 923 INTER-LIGAND FREE ENERGY PREDICTED BY IDOCK:   -4.57 KCAL/MOL
REMARK 924 INTRA-LIGAND FREE ENERGY PREDICTED BY IDOCK:   -0.05 KCAL/MOL
REMARK 927      BINDING AFFINITY PREDICTED BY RF-SCORE:    0.00 PKD
ROOT
HETATM    1  C   UNL     1     -12.321  14.923  70.549  1.00  0.00    -0.342 C  
HETATM    2  O   UNL     1     -11.418  14.085  69.828  1.00  0.00    -0.258 OA 
ENDROOT
BRANCH   2   3
HETATM    3  C   UNL     1     -11.353  14.352  68.490  1.00  0.00    -0.282 C  
HETATM    4  C   UNL     1     -10.173  13.615  67.860  1.00  0.00    -0.250 C  
HETATM    5  O   UNL     1     -12.145  15.068  67.889  1.00  0.00    -0.218 OA 
HETATM    6  C   UNL     1     -10.675  12.729  66.674  1.00  0.00    -0.261 C  
HETATM    7  C   UNL     1      -9.068  14.597  67.480  1.00  0.00    -0.192 A  
HETATM    8  C   UNL     1      -9.541  11.991  65.929  1.00  0.00    -0.238 C  
HETATM    9  C   UNL     1      -7.773  14.423  67.997  1.00  0.00    -0.140 A  
HETATM   10  C   UNL     1      -8.943  10.857  66.758  1.00  0.00    -0.158 C  
HETATM   11  C   UNL     1      -6.742  15.300  67.657  1.00  0.00    -0.198 A  
HETATM   12  C   UNL     1      -6.991  16.370  66.800  1.00  0.00    -0.212 A  
HETATM   13  C   UNL     1     -10.040   9.893  67.194  1.00  0.00    -0.270 C  
HETATM   14  C   UNL     1      -8.268  16.558  66.279  1.00  0.00    -0.360 A  
HETATM   15  C   UNL     1     -11.197  10.628  67.868  1.00  0.00    -0.308 C  
HETATM   16  C   UNL     1      -9.300  15.675  66.609  1.00  0.00    -0.291 A  
HETATM   17  N   UNL     1     -11.702  11.723  67.041  1.00  0.00    -0.594 NA 
HETATM   18  H   UNL     1     -12.159  11.358  66.204  1.00  0.00     0.000 HD 
ENDBRANCH   2   3
TORSDOF 1
ENDMDL
MODEL       61
REMARK 921   NORMALIZED FREE ENERGY PREDICTED BY IDOCK:   -4.37 KCAL/MOL
REMARK 922        TOTAL FREE ENERGY PREDICTED BY IDOCK:   -4.62 KCAL/MOL
REMARK 923 INTER-LIGAND FREE ENERGY PREDICTED BY IDOCK:   -5.12 KCAL/MOL
REMARK 924 INTRA-LIGAND FREE ENERGY PREDICTED BY IDOCK:    0.50 KCAL/MOL
REMARK 927      BINDING AFFINITY PREDICTED BY RF-SCORE:    0.00 PKD
ROOT
HETATM    1  C   UNL     1     -10.629  16.856  68.355  1.00  0.00    -0.365 C  
HETATM    2  O   UNL     1     -10.635  18.210  67.898  1.00  0.00    -0.400 OA 
ENDROOT
BRANCH   2   3
HETATM    3  C   UNL     1      -9.661  18.496  66.984  1.00  0.00    -0.310 C  
HETATM    4  C   UNL     1      -8.314  17.958  67.463  1.00  0.00    -0.228 C  
HETATM    5  O   UNL     1      -9.855  19.084  65.928  1.00  0.00    -0.472 OA 
HETATM    6  C   UNL     1      -7.705  17.014  66.375  1.00  0.00    -0.315 C  
HETATM    7  C   UNL     1      -7.395  19.104  67.878  1.00  0.00    -0.279 A  
HETATM    8  C   UNL     1      -6.306  16.471  66.741  1.00  0.00    -0.091 C  
HETATM    9  C   UNL     1      -6.858  19.131  69.177  1.00  0.00    -0.361 A  
HETATM   10  C   UNL     1      -6.360  15.436  67.863  1.00  0.00    -0.170 C  
HETATM   11  C   UNL     1      -6.008  20.162  69.579  1.00  0.00    -0.371 A  
HETATM   12  C   UNL     1      -5.686  21.187  68.692  1.00  0.00    -0.306 A  
HETATM   13  C   UNL     1      -7.316  14.309  67.490  1.00  0.00    -0.199 C  
HETATM   14  C   UNL     1      -6.210  21.177  67.403  1.00  0.00    -0.420 A  
HETATM   15  C   UNL     1      -8.678  14.848  67.059  1.00  0.00    -0.238 C  
HETATM   16  C   UNL     1      -7.054  20.141  66.994  1.00  0.00    -0.278 A  
HETATM   17  N   UNL     1      -8.557  15.858  66.008  1.00  0.00    -0.316 NA 
HETATM   18  H   UNL     1      -8.228  15.433  65.141  1.00  0.00     0.000 HD 
ENDBRANCH   2   3
TORSDOF 1
ENDMDL
MODEL       62
REMARK 921   NORMALIZED FREE ENERGY PREDICTED BY IDOCK:   -4.37 KCAL/MOL
REMARK 922        TOTAL FREE ENERGY PREDICTED BY IDOCK:   -4.61 KCAL/MOL
REMARK 923 INTER-LIGAND FREE ENERGY PREDICTED BY IDOCK:   -4.54 KCAL/MOL
REMARK 924 INTRA-LIGAND FREE ENERGY PREDICTED BY IDOCK:   -0.07 KCAL/MOL
REMARK 927      BINDING AFFINITY PREDICTED BY RF-SCORE:    0.00 PKD
ROOT
HETATM    1  C   UNL     1     -10.675   5.509  66.686  1.00  0.00    -0.261 C  
HETATM    2  O   UNL     1     -10.941   6.897  66.896  1.00  0.00    -0.377 OA 
ENDROOT
BRANCH   2   3
HETATM    3  C   UNL     1      -9.944   7.565  67.548  1.00  0.00    -0.174 C  
HETATM    4  C   UNL     1     -10.533   8.685  68.405  1.00  0.00    -0.220 C  
HETATM    5  O   UNL     1      -8.755   7.285  67.466  1.00  0.00    -0.121 OA 
HETATM    6  C   UNL     1     -10.069   8.515  69.888  1.00  0.00    -0.195 C  
HETATM    7  C   UNL     1     -10.206  10.049  67.802  1.00  0.00    -0.235 A  
HETATM    8  C   UNL     1     -10.561   9.642  70.823  1.00  0.00    -0.392 C  
HETATM    9  C   UNL     1     -11.248  10.936  67.481  1.00  0.00    -0.364 A  
HETATM   10  C   UNL     1     -12.060   9.558  71.095  1.00  0.00    -0.429 C  
HETATM   11  C   UNL     1     -10.977  12.192  66.938  1.00  0.00    -0.317 A  
HETATM   12  C   UNL     1      -9.661  12.581  66.701  1.00  0.00    -0.239 A  
HETATM   13  C   UNL     1     -12.416   8.182  71.647  1.00  0.00    -0.349 C  
HETATM   14  C   UNL     1      -8.616  11.714  67.012  1.00  0.00    -0.169 A  
HETATM   15  C   UNL     1     -11.868   7.064  70.762  1.00  0.00    -0.355 C  
HETATM   16  C   UNL     1      -8.884  10.459  67.565  1.00  0.00    -0.134 A  
HETATM   17  N   UNL     1     -10.436   7.221  70.510  1.00  0.00    -0.214 NA 
HETATM   18  H   UNL     1      -9.904   7.073  71.368  1.00  0.00     0.000 HD 
ENDBRANCH   2   3
TORSDOF 1
ENDMDL
MODEL       63
REMARK 921   NORMALIZED FREE ENERGY PREDICTED BY IDOCK:   -4.35 KCAL/MOL
REMARK 922        TOTAL FREE ENERGY PREDICTED BY IDOCK:   -4.59 KCAL/MOL
REMARK 923 INTER-LIGAND FREE ENERGY PREDICTED BY IDOCK:   -4.51 KCAL/MOL
REMARK 924 INTRA-LIGAND FREE ENERGY PREDICTED BY IDOCK:   -0.09 KCAL/MOL
REMARK 927      BINDING AFFINITY PREDICTED BY RF-SCORE:    0.00 PKD
ROOT
HETATM    1  C   UNL     1      -8.693   8.088  73.096  1.00  0.00    -0.237 C  
HETATM    2  O   UNL     1      -8.772   8.963  71.970  1.00  0.00    -0.365 OA 
ENDROOT
BRANCH   2   3
HETATM    3  C   UNL     1      -9.993   8.979  71.358  1.00  0.00    -0.318 C  
HETATM    4  C   UNL     1      -9.947   8.162  70.068  1.00  0.00    -0.192 C  
HETATM    5  O   UNL     1     -10.981   9.553  71.799  1.00  0.00    -0.333 OA 
HETATM    6  C   UNL     1     -11.056   7.060  70.100  1.00  0.00    -0.285 C  
HETATM    7  C   UNL     1     -10.015   9.079  68.849  1.00  0.00    -0.197 A  
HETATM    8  C   UNL     1     -11.132   6.222  68.805  1.00  0.00    -0.424 C  
HETATM    9  C   UNL     1      -8.995   9.033  67.884  1.00  0.00    -0.135 A  
HETATM   10  C   UNL     1      -9.944   5.274  68.656  1.00  0.00    -0.234 C  
HETATM   11  C   UNL     1      -9.038   9.853  66.756  1.00  0.00    -0.164 A  
HETATM   12  C   UNL     1     -10.098  10.739  66.578  1.00  0.00    -0.277 A  
HETATM   13  C   UNL     1      -9.826   4.386  69.888  1.00  0.00    -0.290 C  
HETATM   14  C   UNL     1     -11.117  10.800  67.525  1.00  0.00    -0.374 A  
HETATM   15  C   UNL     1      -9.822   5.208  71.175  1.00  0.00    -0.186 C  
HETATM   16  C   UNL     1     -11.082   9.972  68.650  1.00  0.00    -0.223 A  
HETATM   17  N   UNL     1     -10.964   6.119  71.242  1.00  0.00    -0.271 NA 
HETATM   18  H   UNL     1     -11.834   5.595  71.344  1.00  0.00     0.000 HD 
ENDBRANCH   2   3
TORSDOF 1
ENDMDL
MODEL       64
REMARK 921   NORMALIZED FREE ENERGY PREDICTED BY IDOCK:   -4.32 KCAL/MOL
REMARK 922        TOTAL FREE ENERGY PREDICTED BY IDOCK:   -4.56 KCAL/MOL
REMARK 923 INTER-LIGAND FREE ENERGY PREDICTED BY IDOCK:   -4.50 KCAL/MOL
REMARK 924 INTRA-LIGAND FREE ENERGY PREDICTED BY IDOCK:   -0.06 KCAL/MOL
REMARK 927      BINDING AFFINITY PREDICTED BY RF-SCORE:    0.00 PKD
ROOT
HETATM    1  C   UNL     1      -9.951   5.906  67.239  1.00  0.00    -0.153 C  
HETATM    2  O   UNL     1     -10.742   6.590  68.212  1.00  0.00    -0.224 OA 
ENDROOT
BRANCH   2   3
HETATM    3  C   UNL     1     -10.025   7.396  69.050  1.00  0.00    -0.176 C  
HETATM    4  C   UNL     1     -10.868   8.597  69.477  1.00  0.00    -0.138 C  
HETATM    5  O   UNL     1      -8.878   7.170  69.414  1.00  0.00    -0.136 OA 
HETATM    6  C   UNL     1     -10.934   8.668  71.037  1.00  0.00    -0.260 C  
HETATM    7  C   UNL     1     -10.357   9.874  68.816  1.00  0.00    -0.222 A  
HETATM    8  C   UNL     1     -11.713   9.892  71.568  1.00  0.00    -0.414 C  
HETATM    9  C   UNL     1     -11.228  10.650  68.032  1.00  0.00    -0.373 A  
HETATM   10  C   UNL     1     -13.216   9.770  71.333  1.00  0.00    -0.482 C  
HETATM   11  C   UNL     1     -10.788  11.827  67.425  1.00  0.00    -0.299 A  
HETATM   12  C   UNL     1      -9.470  12.245  67.585  1.00  0.00    -0.188 A  
HETATM   13  C   UNL     1     -13.738   8.473  71.939  1.00  0.00    -0.455 C  
HETATM   14  C   UNL     1      -8.592  11.488  68.357  1.00  0.00    -0.159 A  
HETATM   15  C   UNL     1     -12.924   7.268  71.471  1.00  0.00    -0.389 C  
HETATM   16  C   UNL     1      -9.032  10.314  68.975  1.00  0.00    -0.175 A  
HETATM   17  N   UNL     1     -11.491   7.460  71.692  1.00  0.00    -0.256 NA 
HETATM   18  H   UNL     1     -11.280   7.466  72.691  1.00  0.00     0.000 HD 
ENDBRANCH   2   3
TORSDOF 1
ENDMDL
MODEL       65
REMARK 921   NORMALIZED FREE ENERGY PREDICTED BY IDOCK:   -4.32 KCAL/MOL
REMARK 922        TOTAL FREE ENERGY PREDICTED BY IDOCK:   -4.56 KCAL/MOL
REMARK 923 INTER-LIGAND FREE ENERGY PREDICTED BY IDOCK:   -4.50 KCAL/MOL
REMARK 924 INTRA-LIGAND FREE ENERGY PREDICTED BY IDOCK:   -0.06 KCAL/MOL
REMARK 927      BINDING AFFINITY PREDICTED BY RF-SCORE:    0.00 PKD
ROOT
HETATM    1  C   UNL     1     -13.783   9.069  72.007  1.00  0.00    -0.461 C  
HETATM    2  O   UNL     1     -12.406   8.773  72.244  1.00  0.00    -0.373 OA 
ENDROOT
BRANCH   2   3
HETATM    3  C   UNL     1     -12.010   7.549  71.785  1.00  0.00    -0.301 C  
HETATM    4  C   UNL     1     -10.587   7.627  71.234  1.00  0.00    -0.237 C  
HETATM    5  O   UNL     1     -12.699   6.537  71.831  1.00  0.00    -0.325 OA 
HETATM    6  C   UNL     1      -9.684   6.573  71.953  1.00  0.00    -0.150 C  
HETATM    7  C   UNL     1     -10.594   7.506  69.712  1.00  0.00    -0.245 A  
HETATM    8  C   UNL     1      -8.236   6.530  71.416  1.00  0.00    -0.120 C  
HETATM    9  C   UNL     1     -10.017   8.522  68.930  1.00  0.00    -0.197 A  
HETATM   10  C   UNL     1      -7.429   7.761  71.820  1.00  0.00    -0.074 C  
HETATM   11  C   UNL     1     -10.000   8.432  67.538  1.00  0.00    -0.259 A  
HETATM   12  C   UNL     1     -10.567   7.329  66.903  1.00  0.00    -0.375 A  
HETATM   13  C   UNL     1      -7.456   7.931  73.334  1.00  0.00    -0.175 C  
HETATM   14  C   UNL     1     -11.144   6.314  67.662  1.00  0.00    -0.368 A  
HETATM   15  C   UNL     1      -8.883   7.902  73.878  1.00  0.00    -0.254 C  
HETATM   16  C   UNL     1     -11.153   6.396  69.057  1.00  0.00    -0.424 A  
HETATM   17  N   UNL     1      -9.613   6.717  73.427  1.00  0.00    -0.159 NA 
HETATM   18  H   UNL     1      -9.223   5.874  73.850  1.00  0.00     0.000 HD 
ENDBRANCH   2   3
TORSDOF 1
ENDMDL
MODEL       66
REMARK 921   NORMALIZED FREE ENERGY PREDICTED BY IDOCK:   -4.28 KCAL/MOL
REMARK 922        TOTAL FREE ENERGY PREDICTED BY IDOCK:   -4.52 KCAL/MOL
REMARK 923 INTER-LIGAND FREE ENERGY PREDICTED BY IDOCK:   -4.41 KCAL/MOL
REMARK 924 INTRA-LIGAND FREE ENERGY PREDICTED BY IDOCK:   -0.11 KCAL/MOL
REMARK 927      BINDING AFFINITY PREDICTED BY RF-SCORE:    0.00 PKD
ROOT
HETATM    1  C   UNL     1     -12.275  13.280  66.469  1.00  0.00    -0.327 C  
HETATM    2  O   UNL     1     -12.068  12.096  67.242  1.00  0.00    -0.565 OA 
ENDROOT
BRANCH   2   3
HETATM    3  C   UNL     1     -10.756  11.830  67.516  1.00  0.00    -0.221 C  
HETATM    4  C   UNL     1     -10.264  10.668  66.656  1.00  0.00    -0.284 C  
HETATM    5  O   UNL     1     -10.078  12.453  68.323  1.00  0.00    -0.217 OA 
HETATM    6  C   UNL     1      -9.001  11.108  65.846  1.00  0.00    -0.199 C  
HETATM    7  C   UNL     1     -10.052   9.420  67.510  1.00  0.00    -0.268 A  
HETATM    8  C   UNL     1      -8.388   9.976  64.992  1.00  0.00    -0.158 C  
HETATM    9  C   UNL     1     -10.726   8.231  67.184  1.00  0.00    -0.240 A  
HETATM   10  C   UNL     1      -9.256   9.621  63.788  1.00  0.00    -0.170 C  
HETATM   11  C   UNL     1     -10.542   7.073  67.942  1.00  0.00    -0.276 A  
HETATM   12  C   UNL     1      -9.689   7.088  69.042  1.00  0.00    -0.145 A  
HETATM   13  C   UNL     1      -9.525  10.865  62.951  1.00  0.00    -0.377 C  
HETATM   14  C   UNL     1      -9.014   8.258  69.380  1.00  0.00    -0.147 A  
HETATM   15  C   UNL     1     -10.064  12.011  63.805  1.00  0.00    -0.394 C  
HETATM   16  C   UNL     1      -9.187   9.416  68.617  1.00  0.00    -0.131 A  
HETATM   17  N   UNL     1      -9.207  12.279  64.960  1.00  0.00    -0.289 NA 
HETATM   18  H   UNL     1      -8.311  12.662  64.658  1.00  0.00     0.000 HD 
ENDBRANCH   2   3
TORSDOF 1
ENDMDL
MODEL       67
REMARK 921   NORMALIZED FREE ENERGY PREDICTED BY IDOCK:   -4.28 KCAL/MOL
REMARK 922        TOTAL FREE ENERGY PREDICTED BY IDOCK:   -4.52 KCAL/MOL
REMARK 923 INTER-LIGAND FREE ENERGY PREDICTED BY IDOCK:   -4.38 KCAL/MOL
REMARK 924 INTRA-LIGAND FREE ENERGY PREDICTED BY IDOCK:   -0.13 KCAL/MOL
REMARK 927      BINDING AFFINITY PREDICTED BY RF-SCORE:    0.00 PKD
ROOT
HETATM    1  C   UNL     1     -10.232  18.504  66.314  1.00  0.00    -0.418 C  
HETATM    2  O   UNL     1     -10.607  17.127  66.377  1.00  0.00    -0.274 OA 
ENDROOT
BRANCH   2   3
HETATM    3  C   UNL     1     -10.571  16.594  67.634  1.00  0.00    -0.321 C  
HETATM    4  C   UNL     1      -9.512  15.496  67.712  1.00  0.00    -0.204 C  
HETATM    5  O   UNL     1     -11.279  16.965  68.563  1.00  0.00    -0.289 OA 
HETATM    6  C   UNL     1      -8.506  15.814  68.866  1.00  0.00    -0.218 C  
HETATM    7  C   UNL     1     -10.169  14.123  67.820  1.00  0.00    -0.242 A  
HETATM    8  C   UNL     1      -7.431  14.723  69.068  1.00  0.00    -0.142 C  
HETATM    9  C   UNL     1      -9.871  13.131  66.870  1.00  0.00    -0.249 A  
HETATM   10  C   UNL     1      -6.405  14.703  67.938  1.00  0.00    -0.173 C  
HETATM   11  C   UNL     1     -10.450  11.864  66.951  1.00  0.00    -0.253 A  
HETATM   12  C   UNL     1     -11.343  11.570  67.979  1.00  0.00    -0.368 A  
HETATM   13  C   UNL     1      -5.775  16.081  67.778  1.00  0.00    -0.161 C  
HETATM   14  C   UNL     1     -11.652  12.541  68.928  1.00  0.00    -0.364 A  
HETATM   15  C   UNL     1      -6.837  17.172  67.650  1.00  0.00    -0.142 C  
HETATM   16  C   UNL     1     -11.065  13.807  68.855  1.00  0.00    -0.300 A  
HETATM   17  N   UNL     1      -7.808  17.116  68.742  1.00  0.00    -0.264 NA 
HETATM   18  H   UNL     1      -7.368  17.372  69.626  1.00  0.00     0.000 HD 
ENDBRANCH   2   3
TORSDOF 1
ENDMDL
MODEL       68
REMARK 921   NORMALIZED FREE ENERGY PREDICTED BY IDOCK:   -4.27 KCAL/MOL
REMARK 922        TOTAL FREE ENERGY PREDICTED BY IDOCK:   -4.51 KCAL/MOL
REMARK 923 INTER-LIGAND FREE ENERGY PREDICTED BY IDOCK:   -4.46 KCAL/MOL
REMARK 924 INTRA-LIGAND FREE ENERGY PREDICTED BY IDOCK:   -0.05 KCAL/MOL
REMARK 927      BINDING AFFINITY PREDICTED BY RF-SCORE:    0.00 PKD
ROOT
HETATM    1  C   UNL     1     -12.401   8.782  72.304  1.00  0.00    -0.378 C  
HETATM    2  O   UNL     1     -12.152   8.907  70.903  1.00  0.00    -0.270 OA 
ENDROOT
BRANCH   2   3
HETATM    3  C   UNL     1     -10.840   9.120  70.585  1.00  0.00    -0.264 C  
HETATM    4  C   UNL     1     -10.699   9.408  69.091  1.00  0.00    -0.216 C  
HETATM    5  O   UNL     1      -9.920   9.097  71.393  1.00  0.00    -0.302 OA 
HETATM    6  C   UNL     1      -9.966  10.774  68.884  1.00  0.00    -0.202 C  
HETATM    7  C   UNL     1     -10.039   8.232  68.377  1.00  0.00    -0.227 A  
HETATM    8  C   UNL     1      -9.717  11.123  67.400  1.00  0.00    -0.191 C  
HETATM    9  C   UNL     1     -10.699   7.610  67.304  1.00  0.00    -0.344 A  
HETATM   10  C   UNL     1     -11.002  11.499  66.668  1.00  0.00    -0.349 C  
HETATM   11  C   UNL     1     -10.113   6.539  66.627  1.00  0.00    -0.201 A  
HETATM   12  C   UNL     1      -8.862   6.067  67.017  1.00  0.00    -0.113 A  
HETATM   13  C   UNL     1     -11.706  12.637  67.397  1.00  0.00    -0.432 C  
HETATM   14  C   UNL     1      -8.194   6.671  68.080  1.00  0.00    -0.117 A  
HETATM   15  C   UNL     1     -11.890  12.325  68.881  1.00  0.00    -0.303 C  
HETATM   16  C   UNL     1      -8.774   7.750  68.752  1.00  0.00    -0.128 A  
HETATM   17  N   UNL     1     -10.630  11.939  69.516  1.00  0.00    -0.425 NA 
HETATM   18  H   UNL     1      -9.993  12.734  69.558  1.00  0.00     0.000 HD 
ENDBRANCH   2   3
TORSDOF 1
ENDMDL
MODEL       69
REMARK 921   NORMALIZED FREE ENERGY PREDICTED BY IDOCK:   -4.24 KCAL/MOL
REMARK 922        TOTAL FREE ENERGY PREDICTED BY IDOCK:   -4.47 KCAL/MOL
REMARK 923 INTER-LIGAND FREE ENERGY PREDICTED BY IDOCK:   -4.48 KCAL/MOL
REMARK 924 INTRA-LIGAND FREE ENERGY PREDICTED BY IDOCK:    0.01 KCAL/MOL
REMARK 927      BINDING AFFINITY PREDICTED BY RF-SCORE:    0.00 PKD
ROOT
HETATM    1  C   UNL     1      -7.926   6.773  71.194  1.00  0.00    -0.103 C  
HETATM    2  O   UNL     1      -8.728   5.947  72.040  1.00  0.00    -0.136 OA 
ENDROOT
BRANCH   2   3
HETATM    3  C   UNL     1     -10.009   5.771  71.600  1.00  0.00    -0.174 C  
HETATM    4  C   UNL     1     -10.288   6.689  70.412  1.00  0.00    -0.231 C  
HETATM    5  O   UNL     1     -10.804   4.975  72.084  1.00  0.00    -0.193 OA 
HETATM    6  C   UNL     1     -10.782   5.842  69.194  1.00  0.00    -0.324 C  
HETATM    7  C   UNL     1     -11.239   7.814  70.814  1.00  0.00    -0.281 A  
HETATM    8  C   UNL     1     -11.155   6.692  67.959  1.00  0.00    -0.296 C  
HETATM    9  C   UNL     1     -10.850   9.152  70.637  1.00  0.00    -0.321 A  
HETATM   10  C   UNL     1      -9.929   7.291  67.274  1.00  0.00    -0.251 C  
HETATM   11  C   UNL     1     -11.704  10.199  70.987  1.00  0.00    -0.470 A  
HETATM   12  C   UNL     1     -12.958   9.925  71.527  1.00  0.00    -0.523 A  
HETATM   13  C   UNL     1      -8.941   6.188  66.912  1.00  0.00    -0.118 C  
HETATM   14  C   UNL     1     -13.360   8.605  71.711  1.00  0.00    -0.410 A  
HETATM   15  C   UNL     1      -8.625   5.301  68.115  1.00  0.00    -0.099 C  
HETATM   16  C   UNL     1     -12.511   7.554  71.352  1.00  0.00    -0.382 A  
HETATM   17  N   UNL     1      -9.840   4.788  68.747  1.00  0.00    -0.165 NA 
HETATM   18  H   UNL     1     -10.311   4.125  68.131  1.00  0.00     0.000 HD 
ENDBRANCH   2   3
TORSDOF 1
ENDMDL
MODEL       70
REMARK 921   NORMALIZED FREE ENERGY PREDICTED BY IDOCK:   -4.23 KCAL/MOL
REMARK 922        TOTAL FREE ENERGY PREDICTED BY IDOCK:   -4.47 KCAL/MOL
REMARK 923 INTER-LIGAND FREE ENERGY PREDICTED BY IDOCK:   -4.40 KCAL/MOL
REMARK 924 INTRA-LIGAND FREE ENERGY PREDICTED BY IDOCK:   -0.06 KCAL/MOL
REMARK 927      BINDING AFFINITY PREDICTED BY RF-SCORE:    0.00 PKD
ROOT
HETATM    1  C   UNL     1     -11.602  15.399  71.623  1.00  0.00    -0.423 C  
HETATM    2  O   UNL     1     -11.482  14.117  71.004  1.00  0.00    -0.082 OA 
ENDROOT
BRANCH   2   3
HETATM    3  C   UNL     1     -12.034  14.046  69.756  1.00  0.00    -0.334 C  
HETATM    4  C   UNL     1     -11.089  13.315  68.803  1.00  0.00    -0.303 C  
HETATM    5  O   UNL     1     -13.136  14.490  69.460  1.00  0.00     0.346 OA 
HETATM    6  C   UNL     1     -11.832  12.107  68.145  1.00  0.00    -0.299 C  
HETATM    7  C   UNL     1     -10.477  14.290  67.801  1.00  0.00    -0.245 A  
HETATM    8  C   UNL     1     -10.976  11.343  67.112  1.00  0.00    -0.340 C  
HETATM    9  C   UNL     1      -9.080  14.404  67.703  1.00  0.00    -0.194 A  
HETATM   10  C   UNL     1      -9.863  10.530  67.767  1.00  0.00    -0.188 C  
HETATM   11  C   UNL     1      -8.495  15.280  66.789  1.00  0.00    -0.290 A  
HETATM   12  C   UNL     1      -9.296  16.064  65.962  1.00  0.00    -0.380 A  
HETATM   13  C   UNL     1     -10.448   9.587  68.812  1.00  0.00    -0.243 C  
HETATM   14  C   UNL     1     -10.682  15.966  66.047  1.00  0.00    -0.289 A  
HETATM   15  C   UNL     1     -11.353  10.328  69.793  1.00  0.00    -0.273 C  
HETATM   16  C   UNL     1     -11.271  15.081  66.954  1.00  0.00    -0.323 A  
HETATM   17  N   UNL     1     -12.375  11.114  69.103  1.00  0.00    -0.543 NA 
HETATM   18  H   UNL     1     -13.046  10.501  68.640  1.00  0.00     0.000 HD 
ENDBRANCH   2   3
TORSDOF 1
ENDMDL
MODEL       71
REMARK 921   NORMALIZED FREE ENERGY PREDICTED BY IDOCK:   -4.23 KCAL/MOL
REMARK 922        TOTAL FREE ENERGY PREDICTED BY IDOCK:   -4.47 KCAL/MOL
REMARK 923 INTER-LIGAND FREE ENERGY PREDICTED BY IDOCK:   -4.47 KCAL/MOL
REMARK 924 INTRA-LIGAND FREE ENERGY PREDICTED BY IDOCK:   -0.00 KCAL/MOL
REMARK 927      BINDING AFFINITY PREDICTED BY RF-SCORE:    0.00 PKD
ROOT
HETATM    1  C   UNL     1     -10.131  18.661  68.639  1.00  0.00    -0.368 C  
HETATM    2  O   UNL     1     -10.747  17.710  69.509  1.00  0.00     0.011 OA 
ENDROOT
BRANCH   2   3
HETATM    3  C   UNL     1     -10.380  16.416  69.273  1.00  0.00    -0.292 C  
HETATM    4  C   UNL     1      -9.530  16.332  68.007  1.00  0.00    -0.223 C  
HETATM    5  O   UNL     1     -10.679  15.470  69.991  1.00  0.00    -0.277 OA 
HETATM    6  C   UNL     1      -8.165  15.642  68.332  1.00  0.00    -0.146 C  
HETATM    7  C   UNL     1     -10.312  15.664  66.879  1.00  0.00    -0.293 A  
HETATM    8  C   UNL     1      -7.259  15.451  67.095  1.00  0.00    -0.179 C  
HETATM    9  C   UNL     1     -10.494  16.341  65.661  1.00  0.00    -0.386 A  
HETATM   10  C   UNL     1      -6.677  16.769  66.592  1.00  0.00    -0.241 C  
HETATM   11  C   UNL     1     -11.197  15.749  64.611  1.00  0.00    -0.373 A  
HETATM   12  C   UNL     1     -11.735  14.473  64.763  1.00  0.00    -0.425 A  
HETATM   13  C   UNL     1      -5.937  17.479  67.719  1.00  0.00    -0.157 C  
HETATM   14  C   UNL     1     -11.566  13.788  65.963  1.00  0.00    -0.361 A  
HETATM   15  C   UNL     1      -6.806  17.606  68.968  1.00  0.00    -0.240 C  
HETATM   16  C   UNL     1     -10.854  14.374  67.013  1.00  0.00    -0.297 A  
HETATM   17  N   UNL     1      -7.361  16.317  69.379  1.00  0.00    -0.221 NA 
HETATM   18  H   UNL     1      -6.621  15.700  69.714  1.00  0.00     0.000 HD 
ENDBRANCH   2   3
TORSDOF 1
ENDMDL
MODEL       72
REMARK 921   NORMALIZED FREE ENERGY PREDICTED BY IDOCK:   -4.22 KCAL/MOL
REMARK 922        TOTAL FREE ENERGY PREDICTED BY IDOCK:   -4.46 KCAL/MOL
REMARK 923 INTER-LIGAND FREE ENERGY PREDICTED BY IDOCK:   -4.39 KCAL/MOL
REMARK 924 INTRA-LIGAND FREE ENERGY PREDICTED BY IDOCK:   -0.07 KCAL/MOL
REMARK 927      BINDING AFFINITY PREDICTED BY RF-SCORE:    0.00 PKD
ROOT
HETATM    1  C   UNL     1      -6.217   8.325  71.719  1.00  0.00    -0.050 C  
HETATM    2  O   UNL     1      -7.232   8.662  70.773  1.00  0.00    -0.053 OA 
ENDROOT
BRANCH   2   3
HETATM    3  C   UNL     1      -8.503   8.604  71.271  1.00  0.00    -0.179 C  
HETATM    4  C   UNL     1      -9.475   8.152  70.182  1.00  0.00    -0.167 C  
HETATM    5  O   UNL     1      -8.804   8.861  72.429  1.00  0.00    -0.396 OA 
HETATM    6  C   UNL     1     -10.264   6.892  70.668  1.00  0.00    -0.195 C  
HETATM    7  C   UNL     1     -10.365   9.312  69.742  1.00  0.00    -0.232 A  
HETATM    8  C   UNL     1     -11.323   6.399  69.658  1.00  0.00    -0.479 C  
HETATM    9  C   UNL     1     -10.396   9.692  68.390  1.00  0.00    -0.233 A  
HETATM   10  C   UNL     1     -10.695   5.750  68.427  1.00  0.00    -0.283 C  
HETATM   11  C   UNL     1     -11.208  10.742  67.959  1.00  0.00    -0.372 A  
HETATM   12  C   UNL     1     -11.996  11.435  68.874  1.00  0.00    -0.371 A  
HETATM   13  C   UNL     1      -9.759   4.624  68.849  1.00  0.00    -0.236 C  
HETATM   14  C   UNL     1     -11.977  11.074  70.219  1.00  0.00    -0.452 A  
HETATM   15  C   UNL     1      -8.756   5.091  69.901  1.00  0.00    -0.101 C  
HETATM   16  C   UNL     1     -11.173  10.015  70.652  1.00  0.00    -0.425 A  
HETATM   17  N   UNL     1      -9.417   5.733  71.037  1.00  0.00    -0.163 NA 
HETATM   18  H   UNL     1      -9.958   5.050  71.568  1.00  0.00     0.000 HD 
ENDBRANCH   2   3
TORSDOF 1
ENDMDL
MODEL       73
REMARK 921   NORMALIZED FREE ENERGY PREDICTED BY IDOCK:   -4.22 KCAL/MOL
REMARK 922        TOTAL FREE ENERGY PREDICTED BY IDOCK:   -4.45 KCAL/MOL
REMARK 923 INTER-LIGAND FREE ENERGY PREDICTED BY IDOCK:   -4.71 KCAL/MOL
REMARK 924 INTRA-LIGAND FREE ENERGY PREDICTED BY IDOCK:    0.26 KCAL/MOL
REMARK 927      BINDING AFFINITY PREDICTED BY RF-SCORE:    0.00 PKD
ROOT
HETATM    1  C   UNL     1      -7.350  13.935  67.835  1.00  0.00    -0.154 C  
HETATM    2  O   UNL     1      -7.920  15.119  67.276  1.00  0.00    -0.175 OA 
ENDROOT
BRANCH   2   3
HETATM    3  C   UNL     1      -9.120  14.922  66.653  1.00  0.00    -0.280 C  
HETATM    4  C   UNL     1      -9.945  13.886  67.414  1.00  0.00    -0.240 C  
HETATM    5  O   UNL     1      -9.478  15.511  65.641  1.00  0.00    -0.320 OA 
HETATM    6  C   UNL     1     -11.337  14.491  67.788  1.00  0.00    -0.317 C  
HETATM    7  C   UNL     1     -10.025  12.580  66.627  1.00  0.00    -0.243 A  
HETATM    8  C   UNL     1     -12.273  13.493  68.505  1.00  0.00    -0.160 C  
HETATM    9  C   UNL     1      -9.588  11.383  67.219  1.00  0.00    -0.187 A  
HETATM   10  C   UNL     1     -11.820  13.194  69.932  1.00  0.00    -0.378 C  
HETATM   11  C   UNL     1      -9.659  10.174  66.526  1.00  0.00    -0.236 A  
HETATM   12  C   UNL     1     -10.160  10.143  65.227  1.00  0.00    -0.344 A  
HETATM   13  C   UNL     1     -11.682  14.491  70.719  1.00  0.00    -0.325 C  
HETATM   14  C   UNL     1     -10.596  11.320  64.624  1.00  0.00    -0.392 A  
HETATM   15  C   UNL     1     -10.815  15.508  69.979  1.00  0.00    -0.318 C  
HETATM   16  C   UNL     1     -10.536  12.531  65.319  1.00  0.00    -0.313 A  
HETATM   17  N   UNL     1     -11.279  15.724  68.609  1.00  0.00    -0.329 NA 
HETATM   18  H   UNL     1     -12.184  16.197  68.608  1.00  0.00     0.000 HD 
ENDBRANCH   2   3
TORSDOF 1
ENDMDL
MODEL       74
REMARK 921   NORMALIZED FREE ENERGY PREDICTED BY IDOCK:   -4.22 KCAL/MOL
REMARK 922        TOTAL FREE ENERGY PREDICTED BY IDOCK:   -4.45 KCAL/MOL
REMARK 923 INTER-LIGAND FREE ENERGY PREDICTED BY IDOCK:   -4.36 KCAL/MOL
REMARK 924 INTRA-LIGAND FREE ENERGY PREDICTED BY IDOCK:   -0.09 KCAL/MOL
REMARK 927      BINDING AFFINITY PREDICTED BY RF-SCORE:    0.00 PKD
ROOT
HETATM    1  C   UNL     1     -12.996  13.829  65.545  1.00  0.00    -0.315 C  
HETATM    2  O   UNL     1     -12.293  12.588  65.479  1.00  0.00    -0.600 OA 
ENDROOT
BRANCH   2   3
HETATM    3  C   UNL     1     -10.933  12.717  65.441  1.00  0.00    -0.286 C  
HETATM    4  C   UNL     1     -10.346  12.519  66.837  1.00  0.00    -0.242 C  
HETATM    5  O   UNL     1     -10.287  12.940  64.425  1.00  0.00    -0.370 OA 
HETATM    6  C   UNL     1      -9.270  11.385  66.803  1.00  0.00    -0.177 C  
HETATM    7  C   UNL     1      -9.836  13.844  67.398  1.00  0.00    -0.237 A  
HETATM    8  C   UNL     1      -8.570  11.156  68.160  1.00  0.00    -0.140 C  
HETATM    9  C   UNL     1     -10.330  14.318  68.625  1.00  0.00    -0.246 A  
HETATM   10  C   UNL     1      -9.489  10.496  69.185  1.00  0.00    -0.205 C  
HETATM   11  C   UNL     1      -9.873  15.521  69.164  1.00  0.00    -0.246 A  
HETATM   12  C   UNL     1      -8.921  16.275  68.482  1.00  0.00    -0.219 A  
HETATM   13  C   UNL     1     -10.053   9.197  68.623  1.00  0.00    -0.212 C  
HETATM   14  C   UNL     1      -8.422  15.822  67.264  1.00  0.00    -0.212 A  
HETATM   15  C   UNL     1     -10.684   9.407  67.248  1.00  0.00    -0.188 C  
HETATM   16  C   UNL     1      -8.869  14.612  66.726  1.00  0.00    -0.269 A  
HETATM   17  N   UNL     1      -9.766  10.072  66.324  1.00  0.00    -0.200 NA 
HETATM   18  H   UNL     1      -8.985   9.458  66.092  1.00  0.00     0.000 HD 
ENDBRANCH   2   3
TORSDOF 1
ENDMDL
MODEL       75
REMARK 921   NORMALIZED FREE ENERGY PREDICTED BY IDOCK:   -4.14 KCAL/MOL
REMARK 922        TOTAL FREE ENERGY PREDICTED BY IDOCK:   -4.37 KCAL/MOL
REMARK 923 INTER-LIGAND FREE ENERGY PREDICTED BY IDOCK:   -4.32 KCAL/MOL
REMARK 924 INTRA-LIGAND FREE ENERGY PREDICTED BY IDOCK:   -0.05 KCAL/MOL
REMARK 927      BINDING AFFINITY PREDICTED BY RF-SCORE:    0.00 PKD
ROOT
HETATM    1  C   UNL     1     -10.808  19.329  67.229  1.00  0.00    -0.449 C  
HETATM    2  O   UNL     1     -10.859  17.905  67.126  1.00  0.00    -0.284 OA 
ENDROOT
BRANCH   2   3
HETATM    3  C   UNL     1      -9.869  17.364  66.356  1.00  0.00    -0.302 C  
HETATM    4  C   UNL     1      -9.989  15.841  66.336  1.00  0.00    -0.294 C  
HETATM    5  O   UNL     1      -9.023  18.017  65.758  1.00  0.00    -0.476 OA 
HETATM    6  C   UNL     1     -10.082  15.339  64.858  1.00  0.00    -0.079 C  
HETATM    7  C   UNL     1      -8.861  15.202  67.141  1.00  0.00    -0.236 A  
HETATM    8  C   UNL     1     -10.141  13.800  64.731  1.00  0.00    -0.259 C  
HETATM    9  C   UNL     1      -9.167  14.338  68.206  1.00  0.00    -0.197 A  
HETATM   10  C   UNL     1     -11.478  13.229  65.197  1.00  0.00    -0.319 C  
HETATM   11  C   UNL     1      -8.155  13.733  68.951  1.00  0.00     0.059 A  
HETATM   12  C   UNL     1      -6.819  13.988  68.650  1.00  0.00    -0.103 A  
HETATM   13  C   UNL     1     -12.623  13.894  64.443  1.00  0.00    -0.213 C  
HETATM   14  C   UNL     1      -6.497  14.843  67.599  1.00  0.00    -0.168 A  
HETATM   15  C   UNL     1     -12.528  15.417  64.506  1.00  0.00     0.057 C  
HETATM   16  C   UNL     1      -7.508  15.442  66.844  1.00  0.00    -0.054 A  
HETATM   17  N   UNL     1     -11.214  15.899  64.081  1.00  0.00    -1.005 NA 
HETATM   18  H   UNL     1     -11.078  15.733  63.083  1.00  0.00     0.000 HD 
ENDBRANCH   2   3
TORSDOF 1
ENDMDL
MODEL       76
REMARK 921   NORMALIZED FREE ENERGY PREDICTED BY IDOCK:   -4.13 KCAL/MOL
REMARK 922        TOTAL FREE ENERGY PREDICTED BY IDOCK:   -4.36 KCAL/MOL
REMARK 923 INTER-LIGAND FREE ENERGY PREDICTED BY IDOCK:   -4.26 KCAL/MOL
REMARK 924 INTRA-LIGAND FREE ENERGY PREDICTED BY IDOCK:   -0.10 KCAL/MOL
REMARK 927      BINDING AFFINITY PREDICTED BY RF-SCORE:    0.00 PKD
ROOT
HETATM    1  C   UNL     1     -10.597  19.952  65.372  1.00  0.00    -0.086 C  
HETATM    2  O   UNL     1     -10.214  18.604  65.646  1.00  0.00    -0.536 OA 
ENDROOT
BRANCH   2   3
HETATM    3  C   UNL     1     -10.226  18.276  66.972  1.00  0.00    -0.378 C  
HETATM    4  C   UNL     1      -8.926  17.572  67.354  1.00  0.00    -0.230 C  
HETATM    5  O   UNL     1     -11.146  18.533  67.739  1.00  0.00    -0.226 OA 
HETATM    6  C   UNL     1      -8.244  18.328  68.540  1.00  0.00    -0.312 C  
HETATM    7  C   UNL     1      -9.177  16.090  67.622  1.00  0.00    -0.205 A  
HETATM    8  C   UNL     1      -6.950  17.650  69.043  1.00  0.00    -0.233 C  
HETATM    9  C   UNL     1      -8.466  15.120  66.895  1.00  0.00    -0.278 A  
HETATM   10  C   UNL     1      -5.796  17.795  68.054  1.00  0.00    -0.156 C  
HETATM   11  C   UNL     1      -8.669  13.759  67.127  1.00  0.00    -0.231 A  
HETATM   12  C   UNL     1      -9.592  13.345  68.084  1.00  0.00    -0.222 A  
HETATM   13  C   UNL     1      -5.565  19.266  67.731  1.00  0.00    -0.185 C  
HETATM   14  C   UNL     1     -10.306  14.292  68.813  1.00  0.00    -0.239 A  
HETATM   15  C   UNL     1      -6.857  19.957  67.302  1.00  0.00    -0.214 C  
HETATM   16  C   UNL     1     -10.098  15.656  68.590  1.00  0.00    -0.210 A  
HETATM   17  N   UNL     1      -7.932  19.752  68.272  1.00  0.00    -0.317 NA 
HETATM   18  H   UNL     1      -7.725  20.243  69.143  1.00  0.00     0.000 HD 
ENDBRANCH   2   3
TORSDOF 1
ENDMDL
MODEL       77
REMARK 921   NORMALIZED FREE ENERGY PREDICTED BY IDOCK:   -4.09 KCAL/MOL
REMARK 922        TOTAL FREE ENERGY PREDICTED BY IDOCK:   -4.32 KCAL/MOL
REMARK 923 INTER-LIGAND FREE ENERGY PREDICTED BY IDOCK:   -4.28 KCAL/MOL
REMARK 924 INTRA-LIGAND FREE ENERGY PREDICTED BY IDOCK:   -0.04 KCAL/MOL
REMARK 927      BINDING AFFINITY PREDICTED BY RF-SCORE:    0.00 PKD
ROOT
HETATM    1  C   UNL     1     -11.734  12.567  69.079  1.00  0.00    -0.318 C  
HETATM    2  O   UNL     1     -11.824  11.574  68.056  1.00  0.00    -0.545 OA 
ENDROOT
BRANCH   2   3
HETATM    3  C   UNL     1     -11.593  12.047  66.796  1.00  0.00    -0.321 C  
HETATM    4  C   UNL     1     -10.093  12.073  66.508  1.00  0.00    -0.224 C  
HETATM    5  O   UNL     1     -12.472  12.382  66.011  1.00  0.00    -0.551 OA 
HETATM    6  C   UNL     1      -9.790  11.254  65.211  1.00  0.00    -0.246 C  
HETATM    7  C   UNL     1      -9.578  13.509  66.473  1.00  0.00    -0.284 A  
HETATM    8  C   UNL     1      -8.301  11.276  64.800  1.00  0.00     0.464 C  
HETATM    9  C   UNL     1      -8.533  13.896  67.330  1.00  0.00    -0.212 A  
HETATM   10  C   UNL     1      -7.426  10.450  65.740  1.00  0.00    -0.147 C  
HETATM   11  C   UNL     1      -8.037  15.200  67.310  1.00  0.00    -0.228 A  
HETATM   12  C   UNL     1      -8.581  16.141  66.440  1.00  0.00    -0.365 A  
HETATM   13  C   UNL     1      -7.957   9.025  65.832  1.00  0.00    -0.103 C  
HETATM   14  C   UNL     1      -9.618  15.776  65.585  1.00  0.00    -0.299 A  
HETATM   15  C   UNL     1      -9.447   9.001  66.168  1.00  0.00    -0.253 C  
HETATM   16  C   UNL     1     -10.110  14.468  65.594  1.00  0.00    -0.384 A  
HETATM   17  N   UNL     1     -10.224   9.837  65.254  1.00  0.00    -0.263 NA 
HETATM   18  H   UNL     1     -10.227   9.435  64.316  1.00  0.00     0.000 HD 
ENDBRANCH   2   3
TORSDOF 1
ENDMDL
MODEL       78
REMARK 921   NORMALIZED FREE ENERGY PREDICTED BY IDOCK:   -4.07 KCAL/MOL
REMARK 922        TOTAL FREE ENERGY PREDICTED BY IDOCK:   -4.29 KCAL/MOL
REMARK 923 INTER-LIGAND FREE ENERGY PREDICTED BY IDOCK:   -4.21 KCAL/MOL
REMARK 924 INTRA-LIGAND FREE ENERGY PREDICTED BY IDOCK:   -0.09 KCAL/MOL
REMARK 927      BINDING AFFINITY PREDICTED BY RF-SCORE:    0.00 PKD
ROOT
HETATM    1  C   UNL     1      -6.374  11.545  67.682  1.00  0.00    -0.066 C  
HETATM    2  O   UNL     1      -7.267  12.160  66.751  1.00  0.00    -0.053 OA 
ENDROOT
BRANCH   2   3
HETATM    3  C   UNL     1      -8.256  11.335  66.296  1.00  0.00    -0.126 C  
HETATM    4  C   UNL     1      -9.614  11.805  66.813  1.00  0.00    -0.212 C  
HETATM    5  O   UNL     1      -8.070  10.371  65.564  1.00  0.00    -0.149 OA 
HETATM    6  C   UNL     1     -10.586  12.037  65.610  1.00  0.00    -0.265 C  
HETATM    7  C   UNL     1     -10.149  10.842  67.869  1.00  0.00    -0.197 A  
HETATM    8  C   UNL     1     -12.011  12.452  66.037  1.00  0.00    -0.419 C  
HETATM    9  C   UNL     1     -10.476  11.323  69.149  1.00  0.00    -0.191 A  
HETATM   10  C   UNL     1     -12.062  13.877  66.583  1.00  0.00    -0.485 C  
HETATM   11  C   UNL     1     -10.977  10.465  70.130  1.00  0.00    -0.365 A  
HETATM   12  C   UNL     1     -11.152   9.112  69.850  1.00  0.00    -0.175 A  
HETATM   13  C   UNL     1     -11.481  14.849  65.563  1.00  0.00    -0.307 C  
HETATM   14  C   UNL     1     -10.832   8.618  68.589  1.00  0.00    -0.003 A  
HETATM   15  C   UNL     1     -10.101  14.402  65.085  1.00  0.00    -0.326 C  
HETATM   16  C   UNL     1     -10.341   9.476  67.601  1.00  0.00    -0.299 A  
HETATM   17  N   UNL     1     -10.111  13.020  64.608  1.00  0.00    -0.568 NA 
HETATM   18  H   UNL     1     -10.653  12.943  63.746  1.00  0.00     0.000 HD 
ENDBRANCH   2   3
TORSDOF 1
ENDMDL
MODEL       79
REMARK 921   NORMALIZED FREE ENERGY PREDICTED BY IDOCK:   -4.04 KCAL/MOL
REMARK 922        TOTAL FREE ENERGY PREDICTED BY IDOCK:   -4.26 KCAL/MOL
REMARK 923 INTER-LIGAND FREE ENERGY PREDICTED BY IDOCK:   -4.25 KCAL/MOL
REMARK 924 INTRA-LIGAND FREE ENERGY PREDICTED BY IDOCK:   -0.01 KCAL/MOL
REMARK 927      BINDING AFFINITY PREDICTED BY RF-SCORE:    0.00 PKD
ROOT
HETATM    1  C   UNL     1     -10.423  13.674  64.410  1.00  0.00    -0.300 C  
HETATM    2  O   UNL     1     -11.672  13.417  65.056  1.00  0.00    -0.308 OA 
ENDROOT
BRANCH   2   3
HETATM    3  C   UNL     1     -11.556  12.828  66.283  1.00  0.00    -0.379 C  
HETATM    4  C   UNL     1     -10.097  12.472  66.561  1.00  0.00    -0.250 C  
HETATM    5  O   UNL     1     -12.492  12.635  67.048  1.00  0.00    -0.265 OA 
HETATM    6  C   UNL     1      -9.641  13.126  67.906  1.00  0.00    -0.218 C  
HETATM    7  C   UNL     1      -9.892  10.960  66.503  1.00  0.00    -0.245 A  
HETATM    8  C   UNL     1      -8.193  12.768  68.308  1.00  0.00    -0.159 C  
HETATM    9  C   UNL     1      -8.944  10.419  65.619  1.00  0.00    -0.198 A  
HETATM   10  C   UNL     1      -7.157  13.451  67.419  1.00  0.00    -0.108 C  
HETATM   11  C   UNL     1      -8.730   9.041  65.554  1.00  0.00    -0.212 A  
HETATM   12  C   UNL     1      -9.466   8.182  66.365  1.00  0.00    -0.285 A  
HETATM   13  C   UNL     1      -7.378  14.958  67.419  1.00  0.00    -0.222 C  
HETATM   14  C   UNL     1     -10.412   8.701  67.246  1.00  0.00    -0.360 A  
HETATM   15  C   UNL     1      -8.827  15.314  67.092  1.00  0.00    -0.212 C  
HETATM   16  C   UNL     1     -10.621  10.080  67.322  1.00  0.00    -0.319 A  
HETATM   17  N   UNL     1      -9.770  14.602  67.954  1.00  0.00    -0.213 NA 
HETATM   18  H   UNL     1      -9.697  14.936  68.916  1.00  0.00     0.000 HD 
ENDBRANCH   2   3
TORSDOF 1
ENDMDL
MODEL       80
REMARK 921   NORMALIZED FREE ENERGY PREDICTED BY IDOCK:   -4.02 KCAL/MOL
REMARK 922        TOTAL FREE ENERGY PREDICTED BY IDOCK:   -4.24 KCAL/MOL
REMARK 923 INTER-LIGAND FREE ENERGY PREDICTED BY IDOCK:   -4.17 KCAL/MOL
REMARK 924 INTRA-LIGAND FREE ENERGY PREDICTED BY IDOCK:   -0.07 KCAL/MOL
REMARK 927      BINDING AFFINITY PREDICTED BY RF-SCORE:    0.00 PKD
ROOT
HETATM    1  C   UNL     1     -11.978   9.817  70.610  1.00  0.00    -0.259 C  
HETATM    2  O   UNL     1     -10.619  10.116  70.286  1.00  0.00    -0.285 OA 
ENDROOT
BRANCH   2   3
HETATM    3  C   UNL     1     -10.355  10.139  68.946  1.00  0.00    -0.206 C  
HETATM    4  C   UNL     1      -9.645  11.438  68.571  1.00  0.00    -0.190 C  
HETATM    5  O   UNL     1     -10.635   9.233  68.171  1.00  0.00    -0.221 OA 
HETATM    6  C   UNL     1      -8.297  11.114  67.848  1.00  0.00    -0.129 C  
HETATM    7  C   UNL     1     -10.576  12.347  67.773  1.00  0.00    -0.236 A  
HETATM    8  C   UNL     1      -7.535  12.369  67.368  1.00  0.00    -0.157 C  
HETATM    9  C   UNL     1     -10.841  13.649  68.233  1.00  0.00    -0.268 A  
HETATM   10  C   UNL     1      -6.929  13.159  68.526  1.00  0.00    -0.103 C  
HETATM   11  C   UNL     1     -11.680  14.504  67.518  1.00  0.00    -0.413 A  
HETATM   12  C   UNL     1     -12.275  14.070  66.336  1.00  0.00    -0.492 A  
HETATM   13  C   UNL     1      -6.038  12.254  69.368  1.00  0.00    -0.107 C  
HETATM   14  C   UNL     1     -12.026  12.783  65.866  1.00  0.00    -0.506 A  
HETATM   15  C   UNL     1      -6.766  10.978  69.784  1.00  0.00    -0.136 C  
HETATM   16  C   UNL     1     -11.177  11.928  66.575  1.00  0.00    -0.383 A  
HETATM   17  N   UNL     1      -7.352  10.286  68.636  1.00  0.00    -0.080 NA 
HETATM   18  H   UNL     1      -6.620   9.909  68.034  1.00  0.00     0.000 HD 
ENDBRANCH   2   3
TORSDOF 1
ENDMDL
MODEL       81
REMARK 921   NORMALIZED FREE ENERGY PREDICTED BY IDOCK:   -4.01 KCAL/MOL
REMARK 922        TOTAL FREE ENERGY PREDICTED BY IDOCK:   -4.23 KCAL/MOL
REMARK 923 INTER-LIGAND FREE ENERGY PREDICTED BY IDOCK:   -4.14 KCAL/MOL
REMARK 924 INTRA-LIGAND FREE ENERGY PREDICTED BY IDOCK:   -0.09 KCAL/MOL
REMARK 927      BINDING AFFINITY PREDICTED BY RF-SCORE:    0.00 PKD
ROOT
HETATM    1  C   UNL     1      -7.097  11.077  69.528  1.00  0.00    -0.113 C  
HETATM    2  O   UNL     1      -7.567  12.087  68.634  1.00  0.00    -0.122 OA 
ENDROOT
BRANCH   2   3
HETATM    3  C   UNL     1      -7.657  11.684  67.332  1.00  0.00    -0.139 C  
HETATM    4  C   UNL     1      -9.109  11.375  66.975  1.00  0.00    -0.169 C  
HETATM    5  O   UNL     1      -6.705  11.603  66.565  1.00  0.00    -0.085 OA 
HETATM    6  C   UNL     1      -9.538  12.220  65.731  1.00  0.00    -0.176 C  
HETATM    7  C   UNL     1      -9.313   9.872  66.807  1.00  0.00    -0.187 A  
HETATM    8  C   UNL     1     -10.977  11.927  65.251  1.00  0.00    -0.354 C  
HETATM    9  C   UNL     1     -10.279   9.209  67.583  1.00  0.00    -0.293 A  
HETATM   10  C   UNL     1     -12.032  12.474  66.209  1.00  0.00    -0.410 C  
HETATM   11  C   UNL     1     -10.492   7.837  67.442  1.00  0.00    -0.362 A  
HETATM   12  C   UNL     1      -9.738   7.104  66.529  1.00  0.00    -0.199 A  
HETATM   13  C   UNL     1     -11.813  13.965  66.433  1.00  0.00    -0.436 C  
HETATM   14  C   UNL     1      -8.776   7.744  65.752  1.00  0.00    -0.160 A  
HETATM   15  C   UNL     1     -10.371  14.266  66.839  1.00  0.00    -0.268 C  
HETATM   16  C   UNL     1      -8.567   9.119  65.884  1.00  0.00    -0.168 A  
HETATM   17  N   UNL     1      -9.410  13.687  65.901  1.00  0.00    -0.499 NA 
HETATM   18  H   UNL     1      -9.464  14.158  64.997  1.00  0.00     0.000 HD 
ENDBRANCH   2   3
TORSDOF 1
ENDMDL
MODEL       82
REMARK 921   NORMALIZED FREE ENERGY PREDICTED BY IDOCK:   -4.00 KCAL/MOL
REMARK 922        TOTAL FREE ENERGY PREDICTED BY IDOCK:   -4.22 KCAL/MOL
REMARK 923 INTER-LIGAND FREE ENERGY PREDICTED BY IDOCK:   -4.12 KCAL/MOL
REMARK 924 INTRA-LIGAND FREE ENERGY PREDICTED BY IDOCK:   -0.11 KCAL/MOL
REMARK 927      BINDING AFFINITY PREDICTED BY RF-SCORE:    0.00 PKD
ROOT
HETATM    1  C   UNL     1     -11.372  10.842  69.834  1.00  0.00    -0.305 C  
HETATM    2  O   UNL     1     -10.857  10.369  68.589  1.00  0.00    -0.205 OA 
ENDROOT
BRANCH   2   3
HETATM    3  C   UNL     1      -9.814  11.102  68.099  1.00  0.00    -0.180 C  
HETATM    4  C   UNL     1     -10.072  11.479  66.642  1.00  0.00    -0.242 C  
HETATM    5  O   UNL     1      -8.827  11.422  68.751  1.00  0.00    -0.150 OA 
HETATM    6  C   UNL     1      -9.980  13.030  66.472  1.00  0.00    -0.262 C  
HETATM    7  C   UNL     1      -9.147  10.695  65.713  1.00  0.00    -0.208 A  
HETATM    8  C   UNL     1     -10.161  13.505  65.014  1.00  0.00    -0.345 C  
HETATM    9  C   UNL     1      -9.696   9.900  64.692  1.00  0.00    -0.265 A  
HETATM   10  C   UNL     1     -11.602  13.359  64.531  1.00  0.00    -0.405 C  
HETATM   11  C   UNL     1      -8.873   9.182  63.824  1.00  0.00    -0.095 A  
HETATM   12  C   UNL     1      -7.489   9.240  63.966  1.00  0.00    -0.110 A  
HETATM   13  C   UNL     1     -12.548  14.090  65.476  1.00  0.00    -0.543 C  
HETATM   14  C   UNL     1      -6.928  10.021  64.973  1.00  0.00    -0.135 A  
HETATM   15  C   UNL     1     -12.322  13.675  66.928  1.00  0.00    -0.262 C  
HETATM   16  C   UNL     1      -7.749  10.750  65.838  1.00  0.00    -0.118 A  
HETATM   17  N   UNL     1     -10.918  13.805  67.319  1.00  0.00    -0.288 NA 
HETATM   18  H   UNL     1     -10.645  14.788  67.349  1.00  0.00     0.000 HD 
ENDBRANCH   2   3
TORSDOF 1
ENDMDL
MODEL       83
REMARK 921   NORMALIZED FREE ENERGY PREDICTED BY IDOCK:   -3.96 KCAL/MOL
REMARK 922        TOTAL FREE ENERGY PREDICTED BY IDOCK:   -4.18 KCAL/MOL
REMARK 923 INTER-LIGAND FREE ENERGY PREDICTED BY IDOCK:   -4.13 KCAL/MOL
REMARK 924 INTRA-LIGAND FREE ENERGY PREDICTED BY IDOCK:   -0.05 KCAL/MOL
REMARK 927      BINDING AFFINITY PREDICTED BY RF-SCORE:    0.00 PKD
ROOT
HETATM    1  C   UNL     1     -11.434  14.475  65.809  1.00  0.00    -0.342 C  
HETATM    2  O   UNL     1     -10.805  13.659  66.798  1.00  0.00    -0.287 OA 
ENDROOT
BRANCH   2   3
HETATM    3  C   UNL     1     -10.448  12.417  66.355  1.00  0.00    -0.243 C  
HETATM    4  C   UNL     1      -9.735  11.646  67.464  1.00  0.00    -0.185 C  
HETATM    5  O   UNL     1     -10.687  11.988  65.233  1.00  0.00    -0.269 OA 
HETATM    6  C   UNL     1     -10.464  10.286  67.714  1.00  0.00    -0.226 C  
HETATM    7  C   UNL     1      -8.247  11.506  67.150  1.00  0.00    -0.161 A  
HETATM    8  C   UNL     1      -9.775   9.402  68.778  1.00  0.00    -0.161 C  
HETATM    9  C   UNL     1      -7.294  11.981  68.067  1.00  0.00    -0.102 A  
HETATM   10  C   UNL     1      -9.942   9.955  70.190  1.00  0.00    -0.291 C  
HETATM   11  C   UNL     1      -5.929  11.857  67.810  1.00  0.00    -0.063 A  
HETATM   12  C   UNL     1      -5.493  11.264  66.628  1.00  0.00    -0.126 A  
HETATM   13  C   UNL     1     -11.421  10.153  70.504  1.00  0.00    -0.417 C  
HETATM   14  C   UNL     1      -6.422  10.789  65.707  1.00  0.00    -0.074 A  
HETATM   15  C   UNL     1     -12.121  10.967  69.417  1.00  0.00    -0.318 C  
HETATM   16  C   UNL     1      -7.791  10.902  65.967  1.00  0.00    -0.121 A  
HETATM   17  N   UNL     1     -11.894  10.406  68.086  1.00  0.00    -0.738 NA 
HETATM   18  H   UNL     1     -12.365   9.505  67.993  1.00  0.00     0.000 HD 
ENDBRANCH   2   3
TORSDOF 1
ENDMDL
MODEL       84
REMARK 921   NORMALIZED FREE ENERGY PREDICTED BY IDOCK:   -3.95 KCAL/MOL
REMARK 922        TOTAL FREE ENERGY PREDICTED BY IDOCK:   -4.17 KCAL/MOL
REMARK 923 INTER-LIGAND FREE ENERGY PREDICTED BY IDOCK:   -4.06 KCAL/MOL
REMARK 924 INTRA-LIGAND FREE ENERGY PREDICTED BY IDOCK:   -0.11 KCAL/MOL
REMARK 927      BINDING AFFINITY PREDICTED BY RF-SCORE:    0.00 PKD
ROOT
HETATM    1  C   UNL     1      -7.329   6.476  66.743  1.00  0.00    -0.079 C  
HETATM    2  O   UNL     1      -7.882   6.447  68.060  1.00  0.00    -0.102 OA 
ENDROOT
BRANCH   2   3
HETATM    3  C   UNL     1      -9.244   6.541  68.097  1.00  0.00    -0.112 C  
HETATM    4  C   UNL     1      -9.664   7.926  68.586  1.00  0.00    -0.162 C  
HETATM    5  O   UNL     1     -10.008   5.643  67.766  1.00  0.00    -0.128 OA 
HETATM    6  C   UNL     1     -10.614   8.590  67.537  1.00  0.00    -0.214 C  
HETATM    7  C   UNL     1     -10.251   7.843  69.993  1.00  0.00    -0.208 A  
HETATM    8  C   UNL     1     -11.148   9.972  67.974  1.00  0.00    -0.263 C  
HETATM    9  C   UNL     1      -9.688   8.609  71.028  1.00  0.00    -0.266 A  
HETATM   10  C   UNL     1     -10.067  11.049  67.941  1.00  0.00    -0.199 C  
HETATM   11  C   UNL     1     -10.211   8.560  72.321  1.00  0.00    -0.395 A  
HETATM   12  C   UNL     1     -11.300   7.739  72.602  1.00  0.00    -0.449 A  
HETATM   13  C   UNL     1      -9.430  11.110  66.558  1.00  0.00    -0.215 C  
HETATM   14  C   UNL     1     -11.869   6.971  71.590  1.00  0.00    -0.348 A  
HETATM   15  C   UNL     1      -8.966   9.732  66.092  1.00  0.00    -0.152 C  
HETATM   16  C   UNL     1     -11.354   7.026  70.291  1.00  0.00    -0.339 A  
HETATM   17  N   UNL     1     -10.036   8.739  66.180  1.00  0.00    -0.428 NA 
HETATM   18  H   UNL     1     -10.768   8.941  65.499  1.00  0.00     0.000 HD 
ENDBRANCH   2   3
TORSDOF 1
ENDMDL
MODEL       85
REMARK 921   NORMALIZED FREE ENERGY PREDICTED BY IDOCK:   -3.95 KCAL/MOL
REMARK 922        TOTAL FREE ENERGY PREDICTED BY IDOCK:   -4.16 KCAL/MOL
REMARK 923 INTER-LIGAND FREE ENERGY PREDICTED BY IDOCK:   -4.16 KCAL/MOL
REMARK 924 INTRA-LIGAND FREE ENERGY PREDICTED BY IDOCK:   -0.01 KCAL/MOL
REMARK 927      BINDING AFFINITY PREDICTED BY RF-SCORE:    0.00 PKD
ROOT
HETATM    1  C   UNL     1     -10.530   8.686  67.988  1.00  0.00    -0.197 C  
HETATM    2  O   UNL     1     -10.171   8.033  66.769  1.00  0.00    -0.279 OA 
ENDROOT
BRANCH   2   3
HETATM    3  C   UNL     1      -9.506   8.831  65.882  1.00  0.00    -0.208 C  
HETATM    4  C   UNL     1      -9.448  10.266  66.404  1.00  0.00    -0.218 C  
HETATM    5  O   UNL     1      -9.014   8.438  64.832  1.00  0.00    -0.016 OA 
HETATM    6  C   UNL     1      -7.962  10.746  66.466  1.00  0.00    -0.144 C  
HETATM    7  C   UNL     1     -10.362  11.172  65.584  1.00  0.00    -0.311 A  
HETATM    8  C   UNL     1      -7.804  12.214  66.921  1.00  0.00    -0.069 C  
HETATM    9  C   UNL     1     -11.373  11.907  66.227  1.00  0.00    -0.394 A  
HETATM   10  C   UNL     1      -8.112  12.398  68.405  1.00  0.00    -0.143 C  
HETATM   11  C   UNL     1     -12.216  12.751  65.502  1.00  0.00    -0.519 A  
HETATM   12  C   UNL     1     -12.067  12.869  64.123  1.00  0.00    -0.503 A  
HETATM   13  C   UNL     1      -7.247  11.461  69.239  1.00  0.00    -0.075 C  
HETATM   14  C   UNL     1     -11.072  12.147  63.469  1.00  0.00    -0.525 A  
HETATM   15  C   UNL     1      -7.345  10.019  68.746  1.00  0.00    -0.078 C  
HETATM   16  C   UNL     1     -10.219  11.310  64.193  1.00  0.00    -0.391 A  
HETATM   17  N   UNL     1      -7.074   9.914  67.313  1.00  0.00    -0.085 NA 
HETATM   18  H   UNL     1      -6.094  10.124  67.118  1.00  0.00     0.000 HD 
ENDBRANCH   2   3
TORSDOF 1
ENDMDL
MODEL       86
REMARK 921   NORMALIZED FREE ENERGY PREDICTED BY IDOCK:   -3.92 KCAL/MOL
REMARK 922        TOTAL FREE ENERGY PREDICTED BY IDOCK:   -4.14 KCAL/MOL
REMARK 923 INTER-LIGAND FREE ENERGY PREDICTED BY IDOCK:   -4.07 KCAL/MOL
REMARK 924 INTRA-LIGAND FREE ENERGY PREDICTED BY IDOCK:   -0.06 KCAL/MOL
REMARK 927      BINDING AFFINITY PREDICTED BY RF-SCORE:    0.00 PKD
ROOT
HETATM    1  C   UNL     1      -9.443   8.452  72.284  1.00  0.00    -0.297 C  
HETATM    2  O   UNL     1      -9.266   9.354  71.189  1.00  0.00    -0.230 OA 
ENDROOT
BRANCH   2   3
HETATM    3  C   UNL     1     -10.409   9.611  70.486  1.00  0.00    -0.295 C  
HETATM    4  C   UNL     1     -10.071   9.936  69.032  1.00  0.00    -0.199 C  
HETATM    5  O   UNL     1     -11.537   9.566  70.959  1.00  0.00    -0.291 OA 
HETATM    6  C   UNL     1     -10.854   8.974  68.080  1.00  0.00    -0.027 C  
HETATM    7  C   UNL     1     -10.300  11.418  68.746  1.00  0.00    -0.222 A  
HETATM    8  C   UNL     1     -10.628   9.269  66.581  1.00  0.00    -0.161 C  
HETATM    9  C   UNL     1      -9.245  12.203  68.252  1.00  0.00    -0.192 A  
HETATM   10  C   UNL     1      -9.228   8.877  66.116  1.00  0.00    -0.273 C  
HETATM   11  C   UNL     1      -9.430  13.558  67.973  1.00  0.00    -0.220 A  
HETATM   12  C   UNL     1     -10.670  14.152  68.190  1.00  0.00    -0.251 A  
HETATM   13  C   UNL     1      -8.959   7.413  66.442  1.00  0.00    -0.190 C  
HETATM   14  C   UNL     1     -11.727  13.389  68.682  1.00  0.00    -0.384 A  
HETATM   15  C   UNL     1      -9.250   7.101  67.909  1.00  0.00    -0.129 C  
HETATM   16  C   UNL     1     -11.548  12.030  68.952  1.00  0.00    -0.377 A  
HETATM   17  N   UNL     1     -10.592   7.532  68.300  1.00  0.00    -0.334 NA 
HETATM   18  H   UNL     1     -11.300   6.964  67.833  1.00  0.00     0.000 HD 
ENDBRANCH   2   3
TORSDOF 1
ENDMDL
MODEL       87
REMARK 921   NORMALIZED FREE ENERGY PREDICTED BY IDOCK:   -3.90 KCAL/MOL
REMARK 922        TOTAL FREE ENERGY PREDICTED BY IDOCK:   -4.12 KCAL/MOL
REMARK 923 INTER-LIGAND FREE ENERGY PREDICTED BY IDOCK:   -4.07 KCAL/MOL
REMARK 924 INTRA-LIGAND FREE ENERGY PREDICTED BY IDOCK:   -0.05 KCAL/MOL
REMARK 927      BINDING AFFINITY PREDICTED BY RF-SCORE:    0.00 PKD
ROOT
HETATM    1  C   UNL     1      -9.214  18.400  68.159  1.00  0.00    -0.312 C  
HETATM    2  O   UNL     1      -9.578  17.156  68.760  1.00  0.00    -0.266 OA 
ENDROOT
BRANCH   2   3
HETATM    3  C   UNL     1     -10.451  16.411  68.019  1.00  0.00    -0.303 C  
HETATM    4  C   UNL     1     -10.661  15.045  68.668  1.00  0.00    -0.244 C  
HETATM    5  O   UNL     1     -10.995  16.801  66.993  1.00  0.00    -0.136 OA 
HETATM    6  C   UNL     1     -12.186  14.810  68.922  1.00  0.00    -0.121 C  
HETATM    7  C   UNL     1      -9.991  13.950  67.841  1.00  0.00    -0.242 A  
HETATM    8  C   UNL     1     -12.507  13.421  69.517  1.00  0.00    -0.018 C  
HETATM    9  C   UNL     1      -9.034  13.113  68.440  1.00  0.00    -0.128 A  
HETATM   10  C   UNL     1     -12.063  13.297  70.973  1.00  0.00    -0.154 C  
HETATM   11  C   UNL     1      -8.414  12.097  67.710  1.00  0.00    -0.160 A  
HETATM   12  C   UNL     1      -8.735  11.907  66.368  1.00  0.00    -0.118 A  
HETATM   13  C   UNL     1     -12.678  14.415  71.805  1.00  0.00    -0.427 C  
HETATM   14  C   UNL     1      -9.680  12.728  65.759  1.00  0.00    -0.167 A  
HETATM   15  C   UNL     1     -12.424  15.785  71.180  1.00  0.00    -0.436 C  
HETATM   16  C   UNL     1     -10.311  13.738  66.490  1.00  0.00    -0.286 A  
HETATM   17  N   UNL     1     -12.838  15.829  69.778  1.00  0.00    -0.552 NA 
HETATM   18  H   UNL     1     -13.853  15.762  69.703  1.00  0.00     0.000 HD 
ENDBRANCH   2   3
TORSDOF 1
ENDMDL
MODEL       88
REMARK 921   NORMALIZED FREE ENERGY PREDICTED BY IDOCK:   -3.87 KCAL/MOL
REMARK 922        TOTAL FREE ENERGY PREDICTED BY IDOCK:   -4.09 KCAL/MOL
REMARK 923 INTER-LIGAND FREE ENERGY PREDICTED BY IDOCK:   -3.95 KCAL/MOL
REMARK 924 INTRA-LIGAND FREE ENERGY PREDICTED BY IDOCK:   -0.13 KCAL/MOL
REMARK 927      BINDING AFFINITY PREDICTED BY RF-SCORE:    0.00 PKD
ROOT
HETATM    1  C   UNL     1     -11.634   8.071  72.647  1.00  0.00    -0.387 C  
HETATM    2  O   UNL     1     -10.780   9.071  72.089  1.00  0.00    -0.332 OA 
ENDROOT
BRANCH   2   3
HETATM    3  C   UNL     1     -11.144   9.482  70.838  1.00  0.00    -0.336 C  
HETATM    4  C   UNL     1     -10.098   9.044  69.814  1.00  0.00    -0.209 C  
HETATM    5  O   UNL     1     -12.172  10.097  70.584  1.00  0.00    -0.285 OA 
HETATM    6  C   UNL     1     -10.783   8.207  68.685  1.00  0.00    -0.025 C  
HETATM    7  C   UNL     1      -9.308  10.247  69.306  1.00  0.00    -0.221 A  
HETATM    8  C   UNL     1      -9.814   7.773  67.563  1.00  0.00    -0.221 C  
HETATM    9  C   UNL     1      -7.908  10.264  69.428  1.00  0.00    -0.157 A  
HETATM   10  C   UNL     1      -8.841   6.690  68.022  1.00  0.00    -0.115 C  
HETATM   11  C   UNL     1      -7.161  11.346  68.963  1.00  0.00    -0.117 A  
HETATM   12  C   UNL     1      -7.801  12.434  68.374  1.00  0.00    -0.142 A  
HETATM   13  C   UNL     1      -9.610   5.500  68.584  1.00  0.00    -0.172 C  
HETATM   14  C   UNL     1      -9.187  12.436  68.245  1.00  0.00    -0.189 A  
HETATM   15  C   UNL     1     -10.621   5.935  69.644  1.00  0.00    -0.313 C  
HETATM   16  C   UNL     1      -9.938  11.348  68.701  1.00  0.00    -0.209 A  
HETATM   17  N   UNL     1     -11.499   6.997  69.155  1.00  0.00    -0.522 NA 
HETATM   18  H   UNL     1     -12.118   6.642  68.425  1.00  0.00     0.000 HD 
ENDBRANCH   2   3
TORSDOF 1
ENDMDL
MODEL       89
REMARK 921   NORMALIZED FREE ENERGY PREDICTED BY IDOCK:   -3.87 KCAL/MOL
REMARK 922        TOTAL FREE ENERGY PREDICTED BY IDOCK:   -4.09 KCAL/MOL
REMARK 923 INTER-LIGAND FREE ENERGY PREDICTED BY IDOCK:   -4.04 KCAL/MOL
REMARK 924 INTRA-LIGAND FREE ENERGY PREDICTED BY IDOCK:   -0.05 KCAL/MOL
REMARK 927      BINDING AFFINITY PREDICTED BY RF-SCORE:    0.00 PKD
ROOT
HETATM    1  C   UNL     1      -5.653  13.649  70.970  1.00  0.00    -0.209 C  
HETATM    2  O   UNL     1      -6.531  14.736  70.675  1.00  0.00    -0.123 OA 
ENDROOT
BRANCH   2   3
HETATM    3  C   UNL     1      -6.932  14.794  69.370  1.00  0.00    -0.167 C  
HETATM    4  C   UNL     1      -7.879  15.975  69.161  1.00  0.00    -0.233 C  
HETATM    5  O   UNL     1      -6.564  14.016  68.499  1.00  0.00    -0.084 OA 
HETATM    6  C   UNL     1      -7.330  16.896  68.024  1.00  0.00    -0.171 C  
HETATM    7  C   UNL     1      -9.306  15.484  68.932  1.00  0.00    -0.222 A  
HETATM    8  C   UNL     1      -8.256  18.087  67.692  1.00  0.00    -0.241 C  
HETATM    9  C   UNL     1     -10.340  15.932  69.772  1.00  0.00    -0.290 A  
HETATM   10  C   UNL     1      -8.258  19.146  68.792  1.00  0.00    -0.382 C  
HETATM   11  C   UNL     1     -11.655  15.507  69.578  1.00  0.00    -0.361 A  
HETATM   12  C   UNL     1     -11.957  14.622  68.545  1.00  0.00    -0.298 A  
HETATM   13  C   UNL     1      -6.834  19.609  69.075  1.00  0.00    -0.378 C  
HETATM   14  C   UNL     1     -10.945  14.167  67.704  1.00  0.00    -0.278 A  
HETATM   15  C   UNL     1      -5.900  18.429  69.333  1.00  0.00    -0.236 C  
HETATM   16  C   UNL     1      -9.629  14.599  67.889  1.00  0.00    -0.212 A  
HETATM   17  N   UNL     1      -5.970  17.435  68.262  1.00  0.00    -0.154 NA 
HETATM   18  H   UNL     1      -5.578  17.813  67.398  1.00  0.00     0.000 HD 
ENDBRANCH   2   3
TORSDOF 1
ENDMDL
MODEL       90
REMARK 921   NORMALIZED FREE ENERGY PREDICTED BY IDOCK:   -3.87 KCAL/MOL
REMARK 922        TOTAL FREE ENERGY PREDICTED BY IDOCK:   -4.08 KCAL/MOL
REMARK 923 INTER-LIGAND FREE ENERGY PREDICTED BY IDOCK:   -4.08 KCAL/MOL
REMARK 924 INTRA-LIGAND FREE ENERGY PREDICTED BY IDOCK:    0.00 KCAL/MOL
REMARK 927      BINDING AFFINITY PREDICTED BY RF-SCORE:    0.00 PKD
ROOT
HETATM    1  C   UNL     1     -10.353  10.788  64.099  1.00  0.00    -0.311 C  
HETATM    2  O   UNL     1      -9.472  10.241  65.082  1.00  0.00    -0.208 OA 
ENDROOT
BRANCH   2   3
HETATM    3  C   UNL     1     -10.064   9.991  66.287  1.00  0.00    -0.243 C  
HETATM    4  C   UNL     1      -9.841  11.165  67.238  1.00  0.00    -0.198 C  
HETATM    5  O   UNL     1     -10.696   8.975  66.549  1.00  0.00    -0.113 OA 
HETATM    6  C   UNL     1     -11.217  11.688  67.764  1.00  0.00    -0.268 C  
HETATM    7  C   UNL     1      -8.858  10.782  68.342  1.00  0.00    -0.146 A  
HETATM    8  C   UNL     1     -11.092  12.837  68.788  1.00  0.00    -0.303 C  
HETATM    9  C   UNL     1      -7.690  11.541  68.529  1.00  0.00    -0.134 A  
HETATM   10  C   UNL     1     -10.640  14.144  68.142  1.00  0.00    -0.249 C  
HETATM   11  C   UNL     1      -6.780  11.219  69.536  1.00  0.00    -0.128 A  
HETATM   12  C   UNL     1      -7.018  10.128  70.368  1.00  0.00    -0.119 A  
HETATM   13  C   UNL     1     -11.578  14.516  67.001  1.00  0.00    -0.402 C  
HETATM   14  C   UNL     1      -8.168   9.363  70.196  1.00  0.00    -0.180 A  
HETATM   15  C   UNL     1     -11.761  13.357  66.024  1.00  0.00    -0.362 C  
HETATM   16  C   UNL     1      -9.087   9.690  69.195  1.00  0.00    -0.154 A  
HETATM   17  N   UNL     1     -12.160  12.127  66.707  1.00  0.00    -0.565 NA 
HETATM   18  H   UNL     1     -13.103  12.218  67.085  1.00  0.00     0.000 HD 
ENDBRANCH   2   3
TORSDOF 1
ENDMDL
MODEL       91
REMARK 921   NORMALIZED FREE ENERGY PREDICTED BY IDOCK:   -3.86 KCAL/MOL
REMARK 922        TOTAL FREE ENERGY PREDICTED BY IDOCK:   -4.07 KCAL/MOL
REMARK 923 INTER-LIGAND FREE ENERGY PREDICTED BY IDOCK:   -3.95 KCAL/MOL
REMARK 924 INTRA-LIGAND FREE ENERGY PREDICTED BY IDOCK:   -0.12 KCAL/MOL
REMARK 927      BINDING AFFINITY PREDICTED BY RF-SCORE:    0.00 PKD
ROOT
HETATM    1  C   UNL     1      -7.730   9.451  68.845  1.00  0.00    -0.076 C  
HETATM    2  O   UNL     1      -7.764   8.162  69.462  1.00  0.00    -0.097 OA 
ENDROOT
BRANCH   2   3
HETATM    3  C   UNL     1      -8.794   7.369  69.042  1.00  0.00    -0.132 C  
HETATM    4  C   UNL     1      -9.640   6.928  70.235  1.00  0.00    -0.170 C  
HETATM    5  O   UNL     1      -9.008   7.074  67.873  1.00  0.00    -0.123 OA 
HETATM    6  C   UNL     1     -11.133   7.329  70.000  1.00  0.00    -0.240 C  
HETATM    7  C   UNL     1      -9.432   5.444  70.522  1.00  0.00    -0.215 A  
HETATM    8  C   UNL     1     -12.083   6.866  71.127  1.00  0.00    -0.428 C  
HETATM    9  C   UNL     1      -8.998   5.034  71.795  1.00  0.00    -0.149 A  
HETATM   10  C   UNL     1     -11.886   7.660  72.416  1.00  0.00    -0.336 C  
HETATM   11  C   UNL     1      -8.809   3.683  72.087  1.00  0.00    -0.121 A  
HETATM   12  C   UNL     1      -9.044   2.719  71.109  1.00  0.00    -0.182 A  
HETATM   13  C   UNL     1     -12.036   9.152  72.140  1.00  0.00    -0.389 C  
HETATM   14  C   UNL     1      -9.473   3.106  69.843  1.00  0.00    -0.203 A  
HETATM   15  C   UNL     1     -11.152   9.599  70.978  1.00  0.00    -0.368 C  
HETATM   16  C   UNL     1      -9.673   4.458  69.551  1.00  0.00    -0.280 A  
HETATM   17  N   UNL     1     -11.362   8.778  69.786  1.00  0.00    -0.444 NA 
HETATM   18  H   UNL     1     -12.292   8.940  69.400  1.00  0.00     0.000 HD 
ENDBRANCH   2   3
TORSDOF 1
ENDMDL
MODEL       92
REMARK 921   NORMALIZED FREE ENERGY PREDICTED BY IDOCK:   -3.85 KCAL/MOL
REMARK 922        TOTAL FREE ENERGY PREDICTED BY IDOCK:   -4.06 KCAL/MOL
REMARK 923 INTER-LIGAND FREE ENERGY PREDICTED BY IDOCK:   -4.05 KCAL/MOL
REMARK 924 INTRA-LIGAND FREE ENERGY PREDICTED BY IDOCK:   -0.01 KCAL/MOL
REMARK 927      BINDING AFFINITY PREDICTED BY RF-SCORE:    0.00 PKD
ROOT
HETATM    1  C   UNL     1      -7.800  11.372  68.355  1.00  0.00    -0.135 C  
HETATM    2  O   UNL     1      -8.963  12.201  68.328  1.00  0.00    -0.189 OA 
ENDROOT
BRANCH   2   3
HETATM    3  C   UNL     1      -9.992  11.697  67.584  1.00  0.00    -0.188 C  
HETATM    4  C   UNL     1      -9.597  10.350  66.983  1.00  0.00    -0.197 C  
HETATM    5  O   UNL     1     -11.078  12.246  67.443  1.00  0.00    -0.253 OA 
HETATM    6  C   UNL     1     -10.641   9.261  67.394  1.00  0.00    -0.255 C  
HETATM    7  C   UNL     1      -9.389  10.475  65.475  1.00  0.00    -0.245 A  
HETATM    8  C   UNL     1     -10.362   7.872  66.777  1.00  0.00    -0.357 C  
HETATM    9  C   UNL     1      -8.159  10.102  64.908  1.00  0.00    -0.153 A  
HETATM   10  C   UNL     1      -9.144   7.194  67.398  1.00  0.00    -0.124 C  
HETATM   11  C   UNL     1      -7.946  10.197  63.532  1.00  0.00    -0.161 A  
HETATM   12  C   UNL     1      -8.957  10.675  62.702  1.00  0.00    -0.306 A  
HETATM   13  C   UNL     1      -9.308   7.108  68.911  1.00  0.00    -0.139 C  
HETATM   14  C   UNL     1     -10.182  11.051  63.246  1.00  0.00    -0.360 A  
HETATM   15  C   UNL     1      -9.654   8.466  69.516  1.00  0.00    -0.170 C  
HETATM   16  C   UNL     1     -10.402  10.947  64.623  1.00  0.00    -0.407 A  
HETATM   17  N   UNL     1     -10.806   9.079  68.856  1.00  0.00    -0.415 NA 
HETATM   18  H   UNL     1     -11.656   8.550  69.056  1.00  0.00     0.000 HD 
ENDBRANCH   2   3
TORSDOF 1
ENDMDL
MODEL       93
REMARK 921   NORMALIZED FREE ENERGY PREDICTED BY IDOCK:   -3.84 KCAL/MOL
REMARK 922        TOTAL FREE ENERGY PREDICTED BY IDOCK:   -4.05 KCAL/MOL
REMARK 923 INTER-LIGAND FREE ENERGY PREDICTED BY IDOCK:   -3.92 KCAL/MOL
REMARK 924 INTRA-LIGAND FREE ENERGY PREDICTED BY IDOCK:   -0.13 KCAL/MOL
REMARK 927      BINDING AFFINITY PREDICTED BY RF-SCORE:    0.00 PKD
ROOT
HETATM    1  C   UNL     1     -10.523   5.560  67.118  1.00  0.00    -0.257 C  
HETATM    2  O   UNL     1      -9.981   5.785  68.420  1.00  0.00    -0.135 OA 
ENDROOT
BRANCH   2   3
HETATM    3  C   UNL     1     -10.743   6.597  69.211  1.00  0.00    -0.265 C  
HETATM    4  C   UNL     1      -9.968   7.863  69.570  1.00  0.00    -0.189 C  
HETATM    5  O   UNL     1     -11.889   6.343  69.560  1.00  0.00    -0.274 OA 
HETATM    6  C   UNL     1     -10.791   9.124  69.148  1.00  0.00    -0.110 C  
HETATM    7  C   UNL     1      -9.565   7.846  71.042  1.00  0.00    -0.177 A  
HETATM    8  C   UNL     1     -10.116  10.459  69.531  1.00  0.00    -0.246 C  
HETATM    9  C   UNL     1      -8.210   7.967  71.395  1.00  0.00    -0.127 A  
HETATM   10  C   UNL     1      -8.887  10.756  68.676  1.00  0.00    -0.152 C  
HETATM   11  C   UNL     1      -7.816   7.965  72.734  1.00  0.00    -0.157 A  
HETATM   12  C   UNL     1      -8.768   7.834  73.741  1.00  0.00    -0.318 A  
HETATM   13  C   UNL     1      -9.257  10.723  67.198  1.00  0.00    -0.160 C  
HETATM   14  C   UNL     1     -10.114   7.711  73.410  1.00  0.00    -0.379 A  
HETATM   15  C   UNL     1      -9.989   9.433  66.831  1.00  0.00    -0.229 C  
HETATM   16  C   UNL     1     -10.514   7.724  72.071  1.00  0.00    -0.277 A  
HETATM   17  N   UNL     1     -11.134   9.189  67.708  1.00  0.00    -0.474 NA 
HETATM   18  H   UNL     1     -11.863   9.884  67.545  1.00  0.00     0.000 HD 
ENDBRANCH   2   3
TORSDOF 1
ENDMDL
MODEL       94
REMARK 921   NORMALIZED FREE ENERGY PREDICTED BY IDOCK:   -3.84 KCAL/MOL
REMARK 922        TOTAL FREE ENERGY PREDICTED BY IDOCK:   -4.05 KCAL/MOL
REMARK 923 INTER-LIGAND FREE ENERGY PREDICTED BY IDOCK:   -3.92 KCAL/MOL
REMARK 924 INTRA-LIGAND FREE ENERGY PREDICTED BY IDOCK:   -0.13 KCAL/MOL
REMARK 927      BINDING AFFINITY PREDICTED BY RF-SCORE:    0.00 PKD
ROOT
HETATM    1  C   UNL     1      -6.549   6.766  71.995  1.00  0.00    -0.054 C  
HETATM    2  O   UNL     1      -7.113   7.311  70.801  1.00  0.00    -0.062 OA 
ENDROOT
BRANCH   2   3
HETATM    3  C   UNL     1      -7.908   8.403  71.006  1.00  0.00    -0.100 C  
HETATM    4  C   UNL     1      -9.346   8.093  70.597  1.00  0.00    -0.165 C  
HETATM    5  O   UNL     1      -7.515   9.467  71.469  1.00  0.00    -0.337 OA 
HETATM    6  C   UNL     1     -10.309   8.374  71.797  1.00  0.00    -0.262 C  
HETATM    7  C   UNL     1      -9.713   8.839  69.316  1.00  0.00    -0.172 A  
HETATM    8  C   UNL     1     -11.800   8.153  71.458  1.00  0.00    -0.332 C  
HETATM    9  C   UNL     1     -10.164   8.120  68.197  1.00  0.00    -0.253 A  
HETATM   10  C   UNL     1     -12.145   6.674  71.297  1.00  0.00    -0.395 C  
HETATM   11  C   UNL     1     -10.515   8.778  67.017  1.00  0.00    -0.338 A  
HETATM   12  C   UNL     1     -10.414  10.165  66.935  1.00  0.00    -0.286 A  
HETATM   13  C   UNL     1     -11.736   5.902  72.545  1.00  0.00    -0.288 C  
HETATM   14  C   UNL     1      -9.966  10.893  68.034  1.00  0.00    -0.188 A  
HETATM   15  C   UNL     1     -10.282   6.175  72.924  1.00  0.00    -0.189 C  
HETATM   16  C   UNL     1      -9.624  10.238  69.220  1.00  0.00    -0.239 A  
HETATM   17  N   UNL     1     -10.007   7.608  73.029  1.00  0.00    -0.257 NA 
HETATM   18  H   UNL     1     -10.499   8.008  73.829  1.00  0.00     0.000 HD 
ENDBRANCH   2   3
TORSDOF 1
ENDMDL
MODEL       95
REMARK 921   NORMALIZED FREE ENERGY PREDICTED BY IDOCK:   -3.83 KCAL/MOL
REMARK 922        TOTAL FREE ENERGY PREDICTED BY IDOCK:   -4.04 KCAL/MOL
REMARK 923 INTER-LIGAND FREE ENERGY PREDICTED BY IDOCK:   -4.31 KCAL/MOL
REMARK 924 INTRA-LIGAND FREE ENERGY PREDICTED BY IDOCK:    0.26 KCAL/MOL
REMARK 927      BINDING AFFINITY PREDICTED BY RF-SCORE:    0.00 PKD
ROOT
HETATM    1  C   UNL     1     -11.085  11.729  64.775  1.00  0.00    -0.296 C  
HETATM    2  O   UNL     1     -12.051  12.117  65.753  1.00  0.00    -0.572 OA 
ENDROOT
BRANCH   2   3
HETATM    3  C   UNL     1     -11.562  12.182  67.027  1.00  0.00    -0.337 C  
HETATM    4  C   UNL     1     -10.133  12.721  67.016  1.00  0.00    -0.240 C  
HETATM    5  O   UNL     1     -12.194  11.869  68.028  1.00  0.00    -0.491 OA 
HETATM    6  C   UNL     1     -10.033  13.972  67.948  1.00  0.00    -0.237 C  
HETATM    7  C   UNL     1      -9.139  11.612  67.353  1.00  0.00    -0.169 A  
HETATM    8  C   UNL     1      -8.604  14.551  68.055  1.00  0.00    -0.162 C  
HETATM    9  C   UNL     1      -8.101  11.310  66.455  1.00  0.00    -0.160 A  
HETATM   10  C   UNL     1      -8.163  15.250  66.772  1.00  0.00    -0.215 C  
HETATM   11  C   UNL     1      -7.173  10.309  66.744  1.00  0.00    -0.105 A  
HETATM   12  C   UNL     1      -7.272   9.587  67.931  1.00  0.00    -0.082 A  
HETATM   13  C   UNL     1      -9.172  16.325  66.388  1.00  0.00    -0.332 C  
HETATM   14  C   UNL     1      -8.294   9.872  68.831  1.00  0.00    -0.124 A  
HETATM   15  C   UNL     1     -10.595  15.772  66.351  1.00  0.00    -0.307 C  
HETATM   16  C   UNL     1      -9.219  10.881  68.550  1.00  0.00    -0.181 A  
HETATM   17  N   UNL     1     -10.945  15.086  67.594  1.00  0.00    -0.295 NA 
HETATM   18  H   UNL     1     -11.011  15.752  68.364  1.00  0.00     0.000 HD 
ENDBRANCH   2   3
TORSDOF 1
ENDMDL
MODEL       96
REMARK 921   NORMALIZED FREE ENERGY PREDICTED BY IDOCK:   -3.77 KCAL/MOL
REMARK 922        TOTAL FREE ENERGY PREDICTED BY IDOCK:   -3.98 KCAL/MOL
REMARK 923 INTER-LIGAND FREE ENERGY PREDICTED BY IDOCK:   -3.84 KCAL/MOL
REMARK 924 INTRA-LIGAND FREE ENERGY PREDICTED BY IDOCK:   -0.13 KCAL/MOL
REMARK 927      BINDING AFFINITY PREDICTED BY RF-SCORE:    0.00 PKD
ROOT
HETATM    1  C   UNL     1      -9.521  10.447  68.555  1.00  0.00    -0.159 C  
HETATM    2  O   UNL     1      -9.004   9.136  68.322  1.00  0.00    -0.129 OA 
ENDROOT
BRANCH   2   3
HETATM    3  C   UNL     1      -9.963   8.180  68.143  1.00  0.00    -0.186 C  
HETATM    4  C   UNL     1      -9.949   7.194  69.310  1.00  0.00    -0.168 C  
HETATM    5  O   UNL     1     -10.730   8.140  67.190  1.00  0.00    -0.316 OA 
HETATM    6  C   UNL     1     -11.370   7.121  69.957  1.00  0.00    -0.206 C  
HETATM    7  C   UNL     1      -9.398   5.842  68.863  1.00  0.00    -0.141 A  
HETATM    8  C   UNL     1     -11.474   6.096  71.108  1.00  0.00    -0.314 C  
HETATM    9  C   UNL     1      -8.287   5.290  69.523  1.00  0.00    -0.095 A  
HETATM   10  C   UNL     1     -10.731   6.553  72.361  1.00  0.00    -0.253 C  
HETATM   11  C   UNL     1      -7.770   4.051  69.142  1.00  0.00    -0.053 A  
HETATM   12  C   UNL     1      -8.349   3.348  68.089  1.00  0.00    -0.097 A  
HETATM   13  C   UNL     1     -11.229   7.927  72.793  1.00  0.00    -0.466 C  
HETATM   14  C   UNL     1      -9.449   3.880  67.422  1.00  0.00    -0.236 A  
HETATM   15  C   UNL     1     -11.196   8.925  71.637  1.00  0.00    -0.345 C  
HETATM   16  C   UNL     1      -9.976   5.115  67.808  1.00  0.00    -0.202 A  
HETATM   17  N   UNL     1     -11.893   8.414  70.457  1.00  0.00    -0.478 NA 
HETATM   18  H   UNL     1     -12.896   8.350  70.634  1.00  0.00     0.000 HD 
ENDBRANCH   2   3
TORSDOF 1
ENDMDL
MODEL       97
REMARK 921   NORMALIZED FREE ENERGY PREDICTED BY IDOCK:   -3.76 KCAL/MOL
REMARK 922        TOTAL FREE ENERGY PREDICTED BY IDOCK:   -3.96 KCAL/MOL
REMARK 923 INTER-LIGAND FREE ENERGY PREDICTED BY IDOCK:   -3.90 KCAL/MOL
REMARK 924 INTRA-LIGAND FREE ENERGY PREDICTED BY IDOCK:   -0.06 KCAL/MOL
REMARK 927      BINDING AFFINITY PREDICTED BY RF-SCORE:    0.00 PKD
ROOT
HETATM    1  C   UNL     1     -12.560  13.102  71.208  1.00  0.00    -0.290 C  
HETATM    2  O   UNL     1     -12.250  11.713  71.328  1.00  0.00    -0.234 OA 
ENDROOT
BRANCH   2   3
HETATM    3  C   UNL     1     -12.220  11.042  70.138  1.00  0.00    -0.344 C  
HETATM    4  C   UNL     1     -10.810  11.068  69.552  1.00  0.00    -0.267 C  
HETATM    5  O   UNL     1     -13.188  10.487  69.633  1.00  0.00     0.063 OA 
HETATM    6  C   UNL     1     -10.323   9.607  69.281  1.00  0.00    -0.209 C  
HETATM    7  C   UNL     1     -10.753  11.981  68.330  1.00  0.00    -0.255 A  
HETATM    8  C   UNL     1      -8.927   9.533  68.624  1.00  0.00    -0.132 C  
HETATM    9  C   UNL     1      -9.842  13.050  68.301  1.00  0.00    -0.225 A  
HETATM   10  C   UNL     1      -7.809   9.916  69.591  1.00  0.00    -0.156 C  
HETATM   11  C   UNL     1      -9.763  13.893  67.192  1.00  0.00    -0.244 A  
HETATM   12  C   UNL     1     -10.598  13.686  66.097  1.00  0.00    -0.291 A  
HETATM   13  C   UNL     1      -7.881   9.052  70.844  1.00  0.00    -0.172 C  
HETATM   14  C   UNL     1     -11.508  12.633  66.109  1.00  0.00    -0.413 A  
HETATM   15  C   UNL     1      -9.280   9.066  71.456  1.00  0.00    -0.190 C  
HETATM   16  C   UNL     1     -11.582  11.780  67.214  1.00  0.00    -0.344 A  
HETATM   17  N   UNL     1     -10.308   8.725  70.472  1.00  0.00    -0.195 NA 
HETATM   18  H   UNL     1     -10.225   7.748  70.192  1.00  0.00     0.000 HD 
ENDBRANCH   2   3
TORSDOF 1
ENDMDL
MODEL       98
REMARK 921   NORMALIZED FREE ENERGY PREDICTED BY IDOCK:   -3.73 KCAL/MOL
REMARK 922        TOTAL FREE ENERGY PREDICTED BY IDOCK:   -3.94 KCAL/MOL
REMARK 923 INTER-LIGAND FREE ENERGY PREDICTED BY IDOCK:   -4.01 KCAL/MOL
REMARK 924 INTRA-LIGAND FREE ENERGY PREDICTED BY IDOCK:    0.07 KCAL/MOL
REMARK 927      BINDING AFFINITY PREDICTED BY RF-SCORE:    0.00 PKD
ROOT
HETATM    1  C   UNL     1      -7.221  12.717  67.708  1.00  0.00    -0.132 C  
HETATM    2  O   UNL     1      -8.288  13.500  67.169  1.00  0.00    -0.187 OA 
ENDROOT
BRANCH   2   3
HETATM    3  C   UNL     1      -9.381  12.772  66.794  1.00  0.00    -0.241 C  
HETATM    4  C   UNL     1     -10.080  12.198  68.025  1.00  0.00    -0.204 C  
HETATM    5  O   UNL     1      -9.750  12.624  65.636  1.00  0.00    -0.232 OA 
HETATM    6  C   UNL     1     -11.580  12.638  68.035  1.00  0.00    -0.343 C  
HETATM    7  C   UNL     1      -9.873  10.688  68.104  1.00  0.00    -0.170 A  
HETATM    8  C   UNL     1     -12.390  12.049  69.211  1.00  0.00     0.023 C  
HETATM    9  C   UNL     1      -9.291  10.123  69.252  1.00  0.00    -0.227 A  
HETATM   10  C   UNL     1     -12.012  12.680  70.549  1.00  0.00    -0.279 C  
HETATM   11  C   UNL     1      -9.100   8.745  69.354  1.00  0.00    -0.145 A  
HETATM   12  C   UNL     1      -9.480   7.908  68.307  1.00  0.00    -0.149 A  
HETATM   13  C   UNL     1     -12.159  14.195  70.475  1.00  0.00    -0.420 C  
HETATM   14  C   UNL     1     -10.057   8.450  67.161  1.00  0.00    -0.335 A  
HETATM   15  C   UNL     1     -11.419  14.772  69.270  1.00  0.00    -0.296 C  
HETATM   16  C   UNL     1     -10.259   9.829  67.061  1.00  0.00    -0.292 A  
HETATM   17  N   UNL     1     -11.798  14.104  68.026  1.00  0.00    -0.381 NA 
HETATM   18  H   UNL     1     -12.766  14.320  67.785  1.00  0.00     0.000 HD 
ENDBRANCH   2   3
TORSDOF 1
ENDMDL
MODEL       99
REMARK 921   NORMALIZED FREE ENERGY PREDICTED BY IDOCK:   -3.72 KCAL/MOL
REMARK 922        TOTAL FREE ENERGY PREDICTED BY IDOCK:   -3.92 KCAL/MOL
REMARK 923 INTER-LIGAND FREE ENERGY PREDICTED BY IDOCK:   -3.81 KCAL/MOL
REMARK 924 INTRA-LIGAND FREE ENERGY PREDICTED BY IDOCK:   -0.11 KCAL/MOL
REMARK 927      BINDING AFFINITY PREDICTED BY RF-SCORE:    0.00 PKD
ROOT
HETATM    1  C   UNL     1      -7.357   5.952  70.237  1.00  0.00    -0.080 C  
HETATM    2  O   UNL     1      -8.594   6.667  70.223  1.00  0.00    -0.137 OA 
ENDROOT
BRANCH   2   3
HETATM    3  C   UNL     1      -8.986   7.132  71.446  1.00  0.00    -0.135 C  
HETATM    4  C   UNL     1     -10.147   6.297  71.980  1.00  0.00    -0.205 C  
HETATM    5  O   UNL     1      -8.461   8.073  72.029  1.00  0.00    -0.120 OA 
HETATM    6  C   UNL     1      -9.784   5.727  73.390  1.00  0.00    -0.153 C  
HETATM    7  C   UNL     1     -11.445   7.100  71.949  1.00  0.00    -0.305 A  
HETATM    8  C   UNL     1     -10.927   4.920  74.044  1.00  0.00    -0.203 C  
HETATM    9  C   UNL     1     -12.556   6.603  71.246  1.00  0.00    -0.229 A  
HETATM   10  C   UNL     1     -11.152   3.573  73.361  1.00  0.00    -0.291 C  
HETATM   11  C   UNL     1     -13.757   7.312  71.210  1.00  0.00    -0.328 A  
HETATM   12  C   UNL     1     -13.865   8.534  71.869  1.00  0.00    -0.473 A  
HETATM   13  C   UNL     1      -9.853   2.777  73.333  1.00  0.00    -0.160 C  
HETATM   14  C   UNL     1     -12.775   9.043  72.569  1.00  0.00    -0.373 A  
HETATM   15  C   UNL     1      -8.703   3.598  72.753  1.00  0.00    -0.094 C  
HETATM   16  C   UNL     1     -11.574   8.330  72.616  1.00  0.00    -0.419 A  
HETATM   17  N   UNL     1      -8.562   4.888  73.426  1.00  0.00    -0.106 NA 
HETATM   18  H   UNL     1      -8.246   4.758  74.387  1.00  0.00     0.000 HD 
ENDBRANCH   2   3
TORSDOF 1
ENDMDL
MODEL      100
REMARK 921   NORMALIZED FREE ENERGY PREDICTED BY IDOCK:   -3.71 KCAL/MOL
REMARK 922        TOTAL FREE ENERGY PREDICTED BY IDOCK:   -3.91 KCAL/MOL
REMARK 923 INTER-LIGAND FREE ENERGY PREDICTED BY IDOCK:   -3.82 KCAL/MOL
REMARK 924 INTRA-LIGAND FREE ENERGY PREDICTED BY IDOCK:   -0.09 KCAL/MOL
REMARK 927      BINDING AFFINITY PREDICTED BY RF-SCORE:    0.00 PKD
ROOT
HETATM    1  C   UNL     1     -10.436   7.315  66.711  1.00  0.00    -0.241 C  
HETATM    2  O   UNL     1      -9.597   8.359  66.214  1.00  0.00    -0.223 OA 
ENDROOT
BRANCH   2   3
HETATM    3  C   UNL     1     -10.032   9.618  66.517  1.00  0.00    -0.246 C  
HETATM    4  C   UNL     1      -9.296  10.149  67.746  1.00  0.00    -0.153 C  
HETATM    5  O   UNL     1     -10.877  10.230  65.877  1.00  0.00     0.012 OA 
HETATM    6  C   UNL     1      -8.613  11.513  67.405  1.00  0.00    -0.145 C  
HETATM    7  C   UNL     1     -10.233  10.205  68.950  1.00  0.00    -0.213 A  
HETATM    8  C   UNL     1      -7.896  12.164  68.608  1.00  0.00    -0.078 C  
HETATM    9  C   UNL     1      -9.896   9.517  70.128  1.00  0.00    -0.288 A  
HETATM   10  C   UNL     1      -6.621  11.420  68.997  1.00  0.00    -0.086 C  
HETATM   11  C   UNL     1     -10.730   9.561  71.246  1.00  0.00    -0.386 A  
HETATM   12  C   UNL     1     -11.918  10.286  71.202  1.00  0.00    -0.472 A  
HETATM   13  C   UNL     1      -5.694  11.305  67.793  1.00  0.00    -0.044 C  
HETATM   14  C   UNL     1     -12.269  10.973  70.043  1.00  0.00    -0.418 A  
HETATM   15  C   UNL     1      -6.420  10.727  66.579  1.00  0.00    -0.119 C  
HETATM   16  C   UNL     1     -11.431  10.940  68.925  1.00  0.00    -0.369 A  
HETATM   17  N   UNL     1      -7.649  11.461  66.280  1.00  0.00    -0.356 NA 
HETATM   18  H   UNL     1      -7.432  12.403  65.952  1.00  0.00     0.000 HD 
ENDBRANCH   2   3
TORSDOF 1
ENDMDL
MODEL      101
REMARK 921   NORMALIZED FREE ENERGY PREDICTED BY IDOCK:   -3.70 KCAL/MOL
REMARK 922        TOTAL FREE ENERGY PREDICTED BY IDOCK:   -3.90 KCAL/MOL
REMARK 923 INTER-LIGAND FREE ENERGY PREDICTED BY IDOCK:   -3.95 KCAL/MOL
REMARK 924 INTRA-LIGAND FREE ENERGY PREDICTED BY IDOCK:    0.05 KCAL/MOL
REMARK 927      BINDING AFFINITY PREDICTED BY RF-SCORE:    0.00 PKD
ROOT
HETATM    1  C   UNL     1      -7.492  12.982  67.255  1.00  0.00    -0.074 C  
HETATM    2  O   UNL     1      -6.832  13.360  68.464  1.00  0.00    -0.084 OA 
ENDROOT
BRANCH   2   3
HETATM    3  C   UNL     1      -7.397  14.429  69.099  1.00  0.00    -0.113 C  
HETATM    4  C   UNL     1      -8.382  15.135  68.169  1.00  0.00    -0.147 C  
HETATM    5  O   UNL     1      -7.156  14.754  70.255  1.00  0.00    -0.067 OA 
HETATM    6  C   UNL     1      -9.786  15.219  68.851  1.00  0.00    -0.220 C  
HETATM    7  C   UNL     1      -7.824  16.484  67.722  1.00  0.00    -0.164 A  
HETATM    8  C   UNL     1     -10.837  15.978  68.011  1.00  0.00    -0.335 C  
HETATM    9  C   UNL     1      -7.683  16.760  66.351  1.00  0.00    -0.345 A  
HETATM   10  C   UNL     1     -11.283  15.186  66.785  1.00  0.00    -0.285 C  
HETATM   11  C   UNL     1      -7.186  17.988  65.915  1.00  0.00    -0.278 A  
HETATM   12  C   UNL     1      -6.815  18.959  66.842  1.00  0.00    -0.205 A  
HETATM   13  C   UNL     1     -11.792  13.813  67.205  1.00  0.00    -0.436 C  
HETATM   14  C   UNL     1      -6.947  18.703  68.205  1.00  0.00    -0.257 A  
HETATM   15  C   UNL     1     -10.785  13.088  68.095  1.00  0.00    -0.242 C  
HETATM   16  C   UNL     1      -7.454  17.477  68.644  1.00  0.00    -0.265 A  
HETATM   17  N   UNL     1     -10.372  13.911  69.231  1.00  0.00    -0.435 NA 
HETATM   18  H   UNL     1     -11.149  14.043  69.879  1.00  0.00     0.000 HD 
ENDBRANCH   2   3
TORSDOF 1
ENDMDL
MODEL      102
REMARK 921   NORMALIZED FREE ENERGY PREDICTED BY IDOCK:   -3.70 KCAL/MOL
REMARK 922        TOTAL FREE ENERGY PREDICTED BY IDOCK:   -3.90 KCAL/MOL
REMARK 923 INTER-LIGAND FREE ENERGY PREDICTED BY IDOCK:   -3.77 KCAL/MOL
REMARK 924 INTRA-LIGAND FREE ENERGY PREDICTED BY IDOCK:   -0.13 KCAL/MOL
REMARK 927      BINDING AFFINITY PREDICTED BY RF-SCORE:    0.00 PKD
ROOT
HETATM    1  C   UNL     1     -10.617  10.779  66.295  1.00  0.00    -0.192 C  
HETATM    2  O   UNL     1     -11.057  10.176  67.513  1.00  0.00    -0.298 OA 
ENDROOT
BRANCH   2   3
HETATM    3  C   UNL     1     -10.057   9.936  68.411  1.00  0.00    -0.167 C  
HETATM    4  C   UNL     1      -9.953   8.440  68.699  1.00  0.00    -0.197 C  
HETATM    5  O   UNL     1      -9.340  10.803  68.896  1.00  0.00    -0.176 OA 
HETATM    6  C   UNL     1      -8.498   7.946  68.412  1.00  0.00    -0.128 C  
HETATM    7  C   UNL     1     -10.451   8.128  70.108  1.00  0.00    -0.225 A  
HETATM    8  C   UNL     1      -8.276   6.452  68.738  1.00  0.00    -0.121 C  
HETATM    9  C   UNL     1     -11.492   7.202  70.290  1.00  0.00    -0.287 A  
HETATM   10  C   UNL     1      -8.975   5.531  67.742  1.00  0.00    -0.108 C  
HETATM   11  C   UNL     1     -11.958   6.891  71.568  1.00  0.00    -0.386 A  
HETATM   12  C   UNL     1     -11.397   7.507  72.684  1.00  0.00    -0.395 A  
HETATM   13  C   UNL     1      -8.533   5.862  66.322  1.00  0.00    -0.128 C  
HETATM   14  C   UNL     1     -10.366   8.428  72.522  1.00  0.00    -0.371 A  
HETATM   15  C   UNL     1      -8.683   7.352  66.020  1.00  0.00    -0.153 C  
HETATM   16  C   UNL     1      -9.889   8.733  71.245  1.00  0.00    -0.336 A  
HETATM   17  N   UNL     1      -8.023   8.181  67.028  1.00  0.00    -0.103 NA 
HETATM   18  H   UNL     1      -7.010   8.070  66.974  1.00  0.00     0.000 HD 
ENDBRANCH   2   3
TORSDOF 1
ENDMDL
MODEL      103
REMARK 921   NORMALIZED FREE ENERGY PREDICTED BY IDOCK:   -3.70 KCAL/MOL
REMARK 922        TOTAL FREE ENERGY PREDICTED BY IDOCK:   -3.90 KCAL/MOL
REMARK 923 INTER-LIGAND FREE ENERGY PREDICTED BY IDOCK:   -3.94 KCAL/MOL
REMARK 924 INTRA-LIGAND FREE ENERGY PREDICTED BY IDOCK:    0.04 KCAL/MOL
REMARK 927      BINDING AFFINITY PREDICTED BY RF-SCORE:    0.00 PKD
ROOT
HETATM    1  C   UNL     1      -7.007   6.744  69.234  1.00  0.00    -0.074 C  
HETATM    2  O   UNL     1      -7.595   5.490  69.583  1.00  0.00    -0.068 OA 
ENDROOT
BRANCH   2   3
HETATM    3  C   UNL     1      -8.918   5.382  69.257  1.00  0.00    -0.104 C  
HETATM    4  C   UNL     1      -9.482   6.752  68.884  1.00  0.00    -0.128 C  
HETATM    5  O   UNL     1      -9.545   4.331  69.251  1.00  0.00    -0.171 OA 
HETATM    6  C   UNL     1     -10.122   6.689  67.459  1.00  0.00    -0.160 C  
HETATM    7  C   UNL     1     -10.428   7.257  69.970  1.00  0.00    -0.234 A  
HETATM    8  C   UNL     1     -10.781   8.015  67.018  1.00  0.00    -0.263 C  
HETATM    9  C   UNL     1     -10.184   8.497  70.585  1.00  0.00    -0.230 A  
HETATM   10  C   UNL     1      -9.752   9.098  66.702  1.00  0.00    -0.287 C  
HETATM   11  C   UNL     1     -11.039   8.986  71.574  1.00  0.00    -0.419 A  
HETATM   12  C   UNL     1     -12.147   8.241  71.969  1.00  0.00    -0.402 A  
HETATM   13  C   UNL     1      -8.764   8.593  65.658  1.00  0.00    -0.214 C  
HETATM   14  C   UNL     1     -12.404   7.010  71.371  1.00  0.00    -0.419 A  
HETATM   15  C   UNL     1      -8.164   7.247  66.058  1.00  0.00    -0.138 C  
HETATM   16  C   UNL     1     -11.555   6.522  70.374  1.00  0.00    -0.470 A  
HETATM   17  N   UNL     1      -9.198   6.264  66.380  1.00  0.00    -0.156 NA 
HETATM   18  H   UNL     1      -9.721   6.007  65.542  1.00  0.00     0.000 HD 
ENDBRANCH   2   3
TORSDOF 1
ENDMDL
MODEL      104
REMARK 921   NORMALIZED FREE ENERGY PREDICTED BY IDOCK:   -3.68 KCAL/MOL
REMARK 922        TOTAL FREE ENERGY PREDICTED BY IDOCK:   -3.89 KCAL/MOL
REMARK 923 INTER-LIGAND FREE ENERGY PREDICTED BY IDOCK:   -3.76 KCAL/MOL
REMARK 924 INTRA-LIGAND FREE ENERGY PREDICTED BY IDOCK:   -0.13 KCAL/MOL
REMARK 927      BINDING AFFINITY PREDICTED BY RF-SCORE:    0.00 PKD
ROOT
HETATM    1  C   UNL     1      -6.420   8.338  72.459  1.00  0.00    -0.085 C  
HETATM    2  O   UNL     1      -7.075   7.846  71.288  1.00  0.00    -0.051 OA 
ENDROOT
BRANCH   2   3
HETATM    3  C   UNL     1      -8.293   8.416  71.048  1.00  0.00    -0.134 C  
HETATM    4  C   UNL     1      -9.381   7.343  71.021  1.00  0.00    -0.157 C  
HETATM    5  O   UNL     1      -8.478   9.617  70.898  1.00  0.00    -0.253 OA 
HETATM    6  C   UNL     1     -10.499   7.698  72.054  1.00  0.00    -0.213 C  
HETATM    7  C   UNL     1      -9.891   7.133  69.597  1.00  0.00    -0.162 A  
HETATM    8  C   UNL     1     -11.681   6.703  72.052  1.00  0.00    -0.354 C  
HETATM    9  C   UNL     1      -9.837   5.853  69.020  1.00  0.00    -0.193 A  
HETATM   10  C   UNL     1     -11.303   5.352  72.656  1.00  0.00    -0.327 C  
HETATM   11  C   UNL     1     -10.307   5.632  67.724  1.00  0.00    -0.260 A  
HETATM   12  C   UNL     1     -10.830   6.688  66.982  1.00  0.00    -0.467 A  
HETATM   13  C   UNL     1     -10.740   5.545  74.059  1.00  0.00    -0.215 C  
HETATM   14  C   UNL     1     -10.889   7.963  67.538  1.00  0.00    -0.152 A  
HETATM   15  C   UNL     1      -9.619   6.583  74.076  1.00  0.00    -0.219 C  
HETATM   16  C   UNL     1     -10.430   8.186  68.839  1.00  0.00    -0.202 A  
HETATM   17  N   UNL     1     -10.031   7.840  73.453  1.00  0.00    -0.317 NA 
HETATM   18  H   UNL     1     -10.740   8.305  74.022  1.00  0.00     0.000 HD 
ENDBRANCH   2   3
TORSDOF 1
ENDMDL
MODEL      105
REMARK 921   NORMALIZED FREE ENERGY PREDICTED BY IDOCK:   -3.68 KCAL/MOL
REMARK 922        TOTAL FREE ENERGY PREDICTED BY IDOCK:   -3.88 KCAL/MOL
REMARK 923 INTER-LIGAND FREE ENERGY PREDICTED BY IDOCK:   -3.82 KCAL/MOL
REMARK 924 INTRA-LIGAND FREE ENERGY PREDICTED BY IDOCK:   -0.06 KCAL/MOL
REMARK 927      BINDING AFFINITY PREDICTED BY RF-SCORE:    0.00 PKD
ROOT
HETATM    1  C   UNL     1      -9.736   9.863  64.591  1.00  0.00    -0.195 C  
HETATM    2  O   UNL     1      -9.997   9.377  65.909  1.00  0.00    -0.303 OA 
ENDROOT
BRANCH   2   3
HETATM    3  C   UNL     1      -9.189   9.911  66.872  1.00  0.00    -0.147 C  
HETATM    4  C   UNL     1      -9.988  10.168  68.148  1.00  0.00    -0.170 C  
HETATM    5  O   UNL     1      -7.992  10.130  66.728  1.00  0.00    -0.113 OA 
HETATM    6  C   UNL     1      -9.311   9.436  69.352  1.00  0.00    -0.169 C  
HETATM    7  C   UNL     1     -10.189  11.666  68.363  1.00  0.00    -0.211 A  
HETATM    8  C   UNL     1     -10.012   9.692  70.705  1.00  0.00    -0.299 C  
HETATM    9  C   UNL     1     -11.490  12.183  68.486  1.00  0.00    -0.349 A  
HETATM   10  C   UNL     1     -11.360   8.983  70.803  1.00  0.00    -0.329 C  
HETATM   11  C   UNL     1     -11.702  13.547  68.693  1.00  0.00    -0.389 A  
HETATM   12  C   UNL     1     -10.617  14.417  68.772  1.00  0.00    -0.256 A  
HETATM   13  C   UNL     1     -11.189   7.492  70.538  1.00  0.00    -0.287 C  
HETATM   14  C   UNL     1      -9.321  13.922  68.650  1.00  0.00    -0.106 A  
HETATM   15  C   UNL     1     -10.433   7.237  69.236  1.00  0.00    -0.216 C  
HETATM   16  C   UNL     1      -9.106  12.556  68.454  1.00  0.00    -0.135 A  
HETATM   17  N   UNL     1      -9.168   7.970  69.189  1.00  0.00    -0.151 NA 
HETATM   18  H   UNL     1      -8.512   7.596  69.875  1.00  0.00     0.000 HD 
ENDBRANCH   2   3
TORSDOF 1
ENDMDL
MODEL      106
REMARK 921   NORMALIZED FREE ENERGY PREDICTED BY IDOCK:   -3.68 KCAL/MOL
REMARK 922        TOTAL FREE ENERGY PREDICTED BY IDOCK:   -3.88 KCAL/MOL
REMARK 923 INTER-LIGAND FREE ENERGY PREDICTED BY IDOCK:   -3.84 KCAL/MOL
REMARK 924 INTRA-LIGAND FREE ENERGY PREDICTED BY IDOCK:   -0.04 KCAL/MOL
REMARK 927      BINDING AFFINITY PREDICTED BY RF-SCORE:    0.00 PKD
ROOT
HETATM    1  C   UNL     1     -10.382  13.166  64.214  1.00  0.00    -0.339 C  
HETATM    2  O   UNL     1     -11.341  13.735  65.106  1.00  0.00    -0.299 OA 
ENDROOT
BRANCH   2   3
HETATM    3  C   UNL     1     -11.520  13.026  66.261  1.00  0.00    -0.337 C  
HETATM    4  C   UNL     1     -10.486  13.447  67.303  1.00  0.00    -0.248 C  
HETATM    5  O   UNL     1     -12.398  12.190  66.430  1.00  0.00    -0.489 OA 
HETATM    6  C   UNL     1     -11.210  13.903  68.612  1.00  0.00    -0.270 C  
HETATM    7  C   UNL     1      -9.456  12.341  67.514  1.00  0.00    -0.182 A  
HETATM    8  C   UNL     1     -10.242  14.286  69.753  1.00  0.00     0.369 C  
HETATM    9  C   UNL     1      -8.090  12.615  67.325  1.00  0.00    -0.178 A  
HETATM   10  C   UNL     1      -9.518  15.603  69.483  1.00  0.00    -0.275 C  
HETATM   11  C   UNL     1      -7.127  11.624  67.522  1.00  0.00    -0.111 A  
HETATM   12  C   UNL     1      -7.513  10.341  67.902  1.00  0.00    -0.088 A  
HETATM   13  C   UNL     1     -10.530  16.711  69.215  1.00  0.00    -0.333 C  
HETATM   14  C   UNL     1      -8.862  10.051  68.092  1.00  0.00    -0.122 A  
HETATM   15  C   UNL     1     -11.533  16.307  68.137  1.00  0.00    -0.173 C  
HETATM   16  C   UNL     1      -9.828  11.044  67.907  1.00  0.00    -0.186 A  
HETATM   17  N   UNL     1     -12.166  15.022  68.436  1.00  0.00    -0.577 NA 
HETATM   18  H   UNL     1     -12.774  15.105  69.252  1.00  0.00     0.000 HD 
ENDBRANCH   2   3
TORSDOF 1
ENDMDL
MODEL      107
REMARK 921   NORMALIZED FREE ENERGY PREDICTED BY IDOCK:   -3.64 KCAL/MOL
REMARK 922        TOTAL FREE ENERGY PREDICTED BY IDOCK:   -3.84 KCAL/MOL
REMARK 923 INTER-LIGAND FREE ENERGY PREDICTED BY IDOCK:   -3.76 KCAL/MOL
REMARK 924 INTRA-LIGAND FREE ENERGY PREDICTED BY IDOCK:   -0.08 KCAL/MOL
REMARK 927      BINDING AFFINITY PREDICTED BY RF-SCORE:    0.00 PKD
ROOT
HETATM    1  C   UNL     1      -7.033  14.172  67.792  1.00  0.00    -0.177 C  
HETATM    2  O   UNL     1      -7.022  12.909  67.125  1.00  0.00    -0.103 OA 
ENDROOT
BRANCH   2   3
HETATM    3  C   UNL     1      -8.139  12.152  67.339  1.00  0.00    -0.171 C  
HETATM    4  C   UNL     1      -8.840  11.860  66.015  1.00  0.00    -0.007 C  
HETATM    5  O   UNL     1      -8.504  11.756  68.439  1.00  0.00    -0.155 OA 
HETATM    6  C   UNL     1      -9.008  10.316  65.835  1.00  0.00    -0.158 C  
HETATM    7  C   UNL     1     -10.146  12.645  65.915  1.00  0.00    -0.276 A  
HETATM    8  C   UNL     1      -9.770   9.922  64.550  1.00  0.00    -0.223 C  
HETATM    9  C   UNL     1     -10.356  13.513  64.830  1.00  0.00    -0.405 A  
HETATM   10  C   UNL     1      -8.943  10.159  63.289  1.00  0.00    -0.262 C  
HETATM   11  C   UNL     1     -11.545  14.234  64.709  1.00  0.00    -0.404 A  
HETATM   12  C   UNL     1     -12.540  14.105  65.674  1.00  0.00    -0.495 A  
HETATM   13  C   UNL     1      -7.610   9.427  63.392  1.00  0.00    -0.114 C  
HETATM   14  C   UNL     1     -12.349  13.251  66.757  1.00  0.00    -0.239 A  
HETATM   15  C   UNL     1      -6.887   9.759  64.696  1.00  0.00    -0.123 C  
HETATM   16  C   UNL     1     -11.164  12.519  66.875  1.00  0.00    -0.354 A  
HETATM   17  N   UNL     1      -7.742   9.546  65.863  1.00  0.00    -0.099 NA 
HETATM   18  H   UNL     1      -7.932   8.551  65.990  1.00  0.00     0.000 HD 
ENDBRANCH   2   3
TORSDOF 1
ENDMDL
MODEL      108
REMARK 921   NORMALIZED FREE ENERGY PREDICTED BY IDOCK:   -3.63 KCAL/MOL
REMARK 922        TOTAL FREE ENERGY PREDICTED BY IDOCK:   -3.82 KCAL/MOL
REMARK 923 INTER-LIGAND FREE ENERGY PREDICTED BY IDOCK:   -3.81 KCAL/MOL
REMARK 924 INTRA-LIGAND FREE ENERGY PREDICTED BY IDOCK:   -0.01 KCAL/MOL
REMARK 927      BINDING AFFINITY PREDICTED BY RF-SCORE:    0.00 PKD
ROOT
HETATM    1  C   UNL     1     -11.304  11.253  68.868  1.00  0.00    -0.275 C  
HETATM    2  O   UNL     1     -11.419  10.441  67.698  1.00  0.00    -0.401 OA 
ENDROOT
BRANCH   2   3
HETATM    3  C   UNL     1     -10.634   9.324  67.713  1.00  0.00    -0.246 C  
HETATM    4  C   UNL     1      -9.838   9.256  69.015  1.00  0.00    -0.168 C  
HETATM    5  O   UNL     1     -10.596   8.493  66.814  1.00  0.00    -0.283 OA 
HETATM    6  C   UNL     1     -10.113   7.893  69.731  1.00  0.00    -0.199 C  
HETATM    7  C   UNL     1      -8.360   9.536  68.756  1.00  0.00    -0.117 A  
HETATM    8  C   UNL     1      -9.299   7.702  71.030  1.00  0.00    -0.156 C  
HETATM    9  C   UNL     1      -7.719  10.582  69.441  1.00  0.00    -0.157 A  
HETATM   10  C   UNL     1      -9.791   8.601  72.162  1.00  0.00    -0.387 C  
HETATM   11  C   UNL     1      -6.366  10.853  69.230  1.00  0.00    -0.064 A  
HETATM   12  C   UNL     1      -5.634  10.088  68.326  1.00  0.00    -0.038 A  
HETATM   13  C   UNL     1     -11.279   8.375  72.400  1.00  0.00    -0.438 C  
HETATM   14  C   UNL     1      -6.253   9.048  67.637  1.00  0.00    -0.055 A  
HETATM   15  C   UNL     1     -12.079   8.493  71.104  1.00  0.00    -0.252 C  
HETATM   16  C   UNL     1      -7.605   8.768  67.854  1.00  0.00    -0.097 A  
HETATM   17  N   UNL     1     -11.538   7.635  70.050  1.00  0.00    -0.480 NA 
HETATM   18  H   UNL     1     -11.679   6.651  70.282  1.00  0.00     0.000 HD 
ENDBRANCH   2   3
TORSDOF 1
ENDMDL
MODEL      109
REMARK 921   NORMALIZED FREE ENERGY PREDICTED BY IDOCK:   -3.58 KCAL/MOL
REMARK 922        TOTAL FREE ENERGY PREDICTED BY IDOCK:   -3.78 KCAL/MOL
REMARK 923 INTER-LIGAND FREE ENERGY PREDICTED BY IDOCK:   -3.77 KCAL/MOL
REMARK 924 INTRA-LIGAND FREE ENERGY PREDICTED BY IDOCK:   -0.01 KCAL/MOL
REMARK 927      BINDING AFFINITY PREDICTED BY RF-SCORE:    0.00 PKD
ROOT
HETATM    1  C   UNL     1     -11.634   7.966  72.257  1.00  0.00    -0.350 C  
HETATM    2  O   UNL     1     -12.105   7.013  71.302  1.00  0.00    -0.322 OA 
ENDROOT
BRANCH   2   3
HETATM    3  C   UNL     1     -11.290   6.861  70.216  1.00  0.00    -0.324 C  
HETATM    4  C   UNL     1     -10.151   7.878  70.265  1.00  0.00    -0.196 C  
HETATM    5  O   UNL     1     -11.450   6.016  69.345  1.00  0.00    -0.372 OA 
HETATM    6  C   UNL     1      -8.777   7.135  70.187  1.00  0.00    -0.141 C  
HETATM    7  C   UNL     1     -10.341   8.950  69.195  1.00  0.00    -0.230 A  
HETATM    8  C   UNL     1      -7.560   8.087  70.163  1.00  0.00    -0.081 C  
HETATM    9  C   UNL     1     -10.397  10.303  69.568  1.00  0.00    -0.267 A  
HETATM   10  C   UNL     1      -7.322   8.759  71.512  1.00  0.00    -0.109 C  
HETATM   11  C   UNL     1     -10.560  11.304  68.609  1.00  0.00    -0.231 A  
HETATM   12  C   UNL     1     -10.678  10.967  67.263  1.00  0.00    -0.312 A  
HETATM   13  C   UNL     1      -7.183   7.706  72.605  1.00  0.00    -0.088 C  
HETATM   14  C   UNL     1     -10.627   9.631  66.875  1.00  0.00    -0.241 A  
HETATM   15  C   UNL     1      -8.349   6.720  72.585  1.00  0.00    -0.111 C  
HETATM   16  C   UNL     1     -10.453   8.627  67.832  1.00  0.00    -0.269 A  
HETATM   17  N   UNL     1      -8.547   6.137  71.259  1.00  0.00    -0.128 NA 
HETATM   18  H   UNL     1      -7.767   5.526  71.016  1.00  0.00     0.000 HD 
ENDBRANCH   2   3
TORSDOF 1
ENDMDL
MODEL      110
REMARK 921   NORMALIZED FREE ENERGY PREDICTED BY IDOCK:   -3.57 KCAL/MOL
REMARK 922        TOTAL FREE ENERGY PREDICTED BY IDOCK:   -3.76 KCAL/MOL
REMARK 923 INTER-LIGAND FREE ENERGY PREDICTED BY IDOCK:   -3.66 KCAL/MOL
REMARK 924 INTRA-LIGAND FREE ENERGY PREDICTED BY IDOCK:   -0.10 KCAL/MOL
REMARK 927      BINDING AFFINITY PREDICTED BY RF-SCORE:    0.00 PKD
ROOT
HETATM    1  C   UNL     1     -10.764   6.914  67.297  1.00  0.00    -0.351 C  
HETATM    2  O   UNL     1     -11.150   6.034  68.354  1.00  0.00    -0.314 OA 
ENDROOT
BRANCH   2   3
HETATM    3  C   UNL     1     -10.926   6.532  69.606  1.00  0.00    -0.336 C  
HETATM    4  C   UNL     1      -9.709   5.854  70.234  1.00  0.00    -0.212 C  
HETATM    5  O   UNL     1     -11.600   7.408  70.133  1.00  0.00    -0.191 OA 
HETATM    6  C   UNL     1      -8.669   6.937  70.670  1.00  0.00    -0.149 C  
HETATM    7  C   UNL     1     -10.138   4.914  71.357  1.00  0.00    -0.268 A  
HETATM    8  C   UNL     1      -7.427   6.351  71.378  1.00  0.00    -0.089 C  
HETATM    9  C   UNL     1      -9.775   3.558  71.308  1.00  0.00    -0.237 A  
HETATM   10  C   UNL     1      -6.510   5.600  70.416  1.00  0.00    -0.035 C  
HETATM   11  C   UNL     1     -10.145   2.679  72.327  1.00  0.00    -0.230 A  
HETATM   12  C   UNL     1     -10.892   3.140  73.408  1.00  0.00    -0.307 A  
HETATM   13  C   UNL     1      -6.114   6.506  69.256  1.00  0.00    -0.026 C  
HETATM   14  C   UNL     1     -11.263   4.481  73.473  1.00  0.00    -0.388 A  
HETATM   15  C   UNL     1      -7.336   7.143  68.599  1.00  0.00    -0.097 C  
HETATM   16  C   UNL     1     -10.884   5.365  72.460  1.00  0.00    -0.304 A  
HETATM   17  N   UNL     1      -8.191   7.816  69.576  1.00  0.00    -0.126 NA 
HETATM   18  H   UNL     1      -7.720   8.637  69.958  1.00  0.00     0.000 HD 
ENDBRANCH   2   3
TORSDOF 1
ENDMDL
MODEL      111
REMARK 921   NORMALIZED FREE ENERGY PREDICTED BY IDOCK:   -3.52 KCAL/MOL
REMARK 922        TOTAL FREE ENERGY PREDICTED BY IDOCK:   -3.71 KCAL/MOL
REMARK 923 INTER-LIGAND FREE ENERGY PREDICTED BY IDOCK:   -3.63 KCAL/MOL
REMARK 924 INTRA-LIGAND FREE ENERGY PREDICTED BY IDOCK:   -0.09 KCAL/MOL
REMARK 927      BINDING AFFINITY PREDICTED BY RF-SCORE:    0.00 PKD
ROOT
HETATM    1  C   UNL     1     -10.936   6.200  67.465  1.00  0.00    -0.307 C  
HETATM    2  O   UNL     1     -10.393   5.692  68.685  1.00  0.00    -0.184 OA 
ENDROOT
BRANCH   2   3
HETATM    3  C   UNL     1     -10.956   6.222  69.811  1.00  0.00    -0.378 C  
HETATM    4  C   UNL     1      -9.874   6.560  70.834  1.00  0.00    -0.201 C  
HETATM    5  O   UNL     1     -12.157   6.410  69.960  1.00  0.00    -0.228 OA 
HETATM    6  C   UNL     1      -9.983   8.065  71.242  1.00  0.00    -0.174 C  
HETATM    7  C   UNL     1      -9.927   5.590  72.012  1.00  0.00    -0.225 A  
HETATM    8  C   UNL     1      -8.968   8.488  72.326  1.00  0.00    -0.299 C  
HETATM    9  C   UNL     1      -8.786   4.844  72.352  1.00  0.00    -0.126 A  
HETATM   10  C   UNL     1      -7.540   8.553  71.791  1.00  0.00    -0.147 C  
HETATM   11  C   UNL     1      -8.804   3.958  73.430  1.00  0.00    -0.096 A  
HETATM   12  C   UNL     1      -9.965   3.798  74.182  1.00  0.00    -0.181 A  
HETATM   13  C   UNL     1      -7.476   9.475  70.579  1.00  0.00    -0.159 C  
HETATM   14  C   UNL     1     -11.106   4.528  73.859  1.00  0.00    -0.267 A  
HETATM   15  C   UNL     1      -8.527   9.103  69.536  1.00  0.00    -0.128 C  
HETATM   16  C   UNL     1     -11.087   5.424  72.786  1.00  0.00    -0.349 A  
HETATM   17  N   UNL     1      -9.867   9.024  70.117  1.00  0.00    -0.177 NA 
HETATM   18  H   UNL     1     -10.189   9.950  70.402  1.00  0.00     0.000 HD 
ENDBRANCH   2   3
TORSDOF 1
ENDMDL
MODEL      112
REMARK 921   NORMALIZED FREE ENERGY PREDICTED BY IDOCK:   -3.52 KCAL/MOL
REMARK 922        TOTAL FREE ENERGY PREDICTED BY IDOCK:   -3.71 KCAL/MOL
REMARK 923 INTER-LIGAND FREE ENERGY PREDICTED BY IDOCK:   -3.88 KCAL/MOL
REMARK 924 INTRA-LIGAND FREE ENERGY PREDICTED BY IDOCK:    0.17 KCAL/MOL
REMARK 927      BINDING AFFINITY PREDICTED BY RF-SCORE:    0.00 PKD
ROOT
HETATM    1  C   UNL     1      -8.515   9.334  70.232  1.00  0.00    -0.203 C  
HETATM    2  O   UNL     1      -9.866   9.796  70.281  1.00  0.00    -0.250 OA 
ENDROOT
BRANCH   2   3
HETATM    3  C   UNL     1     -10.591   9.527  69.155  1.00  0.00    -0.222 C  
HETATM    4  C   UNL     1      -9.954   8.374  68.381  1.00  0.00    -0.208 C  
HETATM    5  O   UNL     1     -11.613  10.119  68.832  1.00  0.00    -0.133 OA 
HETATM    6  C   UNL     1     -11.008   7.240  68.160  1.00  0.00     0.007 C  
HETATM    7  C   UNL     1      -9.308   8.883  67.095  1.00  0.00    -0.182 A  
HETATM    8  C   UNL     1     -10.475   6.055  67.325  1.00  0.00    -0.319 C  
HETATM    9  C   UNL     1      -7.944   8.642  66.858  1.00  0.00    -0.095 A  
HETATM   10  C   UNL     1      -9.464   5.210  68.096  1.00  0.00    -0.160 C  
HETATM   11  C   UNL     1      -7.332   9.087  65.686  1.00  0.00    -0.086 A  
HETATM   12  C   UNL     1      -8.070   9.788  64.735  1.00  0.00    -0.146 A  
HETATM   13  C   UNL     1     -10.072   4.736  69.411  1.00  0.00    -0.241 C  
HETATM   14  C   UNL     1      -9.422  10.038  64.955  1.00  0.00    -0.355 A  
HETATM   15  C   UNL     1     -10.664   5.898  70.206  1.00  0.00    -0.313 C  
HETATM   16  C   UNL     1     -10.041   9.584  66.122  1.00  0.00    -0.326 A  
HETATM   17  N   UNL     1     -11.597   6.688  69.403  1.00  0.00    -0.652 NA 
HETATM   18  H   UNL     1     -12.435   6.145  69.191  1.00  0.00     0.000 HD 
ENDBRANCH   2   3
TORSDOF 1
ENDMDL
MODEL      113
REMARK 921   NORMALIZED FREE ENERGY PREDICTED BY IDOCK:   -3.49 KCAL/MOL
REMARK 922        TOTAL FREE ENERGY PREDICTED BY IDOCK:   -3.69 KCAL/MOL
REMARK 923 INTER-LIGAND FREE ENERGY PREDICTED BY IDOCK:   -3.57 KCAL/MOL
REMARK 924 INTRA-LIGAND FREE ENERGY PREDICTED BY IDOCK:   -0.12 KCAL/MOL
REMARK 927      BINDING AFFINITY PREDICTED BY RF-SCORE:    0.00 PKD
ROOT
HETATM    1  C   UNL     1      -6.727   8.232  71.359  1.00  0.00    -0.057 C  
HETATM    2  O   UNL     1      -7.483   9.225  70.663  1.00  0.00    -0.108 OA 
ENDROOT
BRANCH   2   3
HETATM    3  C   UNL     1      -8.832   9.005  70.667  1.00  0.00    -0.219 C  
HETATM    4  C   UNL     1      -9.367   8.994  69.236  1.00  0.00    -0.150 C  
HETATM    5  O   UNL     1      -9.501   8.825  71.676  1.00  0.00    -0.244 OA 
HETATM    6  C   UNL     1     -10.127   7.655  68.967  1.00  0.00    -0.198 C  
HETATM    7  C   UNL     1     -10.198  10.246  68.965  1.00  0.00    -0.225 A  
HETATM    8  C   UNL     1     -10.765   7.577  67.562  1.00  0.00    -0.296 C  
HETATM    9  C   UNL     1      -9.852  11.094  67.898  1.00  0.00    -0.187 A  
HETATM   10  C   UNL     1      -9.722   7.415  66.459  1.00  0.00    -0.225 C  
HETATM   11  C   UNL     1     -10.599  12.239  67.622  1.00  0.00    -0.238 A  
HETATM   12  C   UNL     1     -11.701  12.560  68.412  1.00  0.00    -0.375 A  
HETATM   13  C   UNL     1      -8.847   6.200  66.740  1.00  0.00    -0.122 C  
HETATM   14  C   UNL     1     -12.057  11.733  69.473  1.00  0.00    -0.314 A  
HETATM   15  C   UNL     1      -8.272   6.238  68.155  1.00  0.00    -0.115 C  
HETATM   16  C   UNL     1     -11.317  10.580  69.746  1.00  0.00    -0.367 A  
HETATM   17  N   UNL     1      -9.315   6.430  69.161  1.00  0.00    -0.133 NA 
HETATM   18  H   UNL     1      -9.917   5.607  69.214  1.00  0.00     0.000 HD 
ENDBRANCH   2   3
TORSDOF 1
ENDMDL
MODEL      114
REMARK 921   NORMALIZED FREE ENERGY PREDICTED BY IDOCK:   -3.49 KCAL/MOL
REMARK 922        TOTAL FREE ENERGY PREDICTED BY IDOCK:   -3.68 KCAL/MOL
REMARK 923 INTER-LIGAND FREE ENERGY PREDICTED BY IDOCK:   -3.56 KCAL/MOL
REMARK 924 INTRA-LIGAND FREE ENERGY PREDICTED BY IDOCK:   -0.12 KCAL/MOL
REMARK 927      BINDING AFFINITY PREDICTED BY RF-SCORE:    0.00 PKD
ROOT
HETATM    1  C   UNL     1      -6.493   6.265  73.571  1.00  0.00    -0.066 C  
HETATM    2  O   UNL     1      -7.227   7.379  73.058  1.00  0.00    -0.071 OA 
ENDROOT
BRANCH   2   3
HETATM    3  C   UNL     1      -8.581   7.271  73.204  1.00  0.00    -0.133 C  
HETATM    4  C   UNL     1      -9.238   7.011  71.850  1.00  0.00    -0.147 C  
HETATM    5  O   UNL     1      -9.170   7.355  74.274  1.00  0.00    -0.232 OA 
HETATM    6  C   UNL     1     -10.099   5.708  71.922  1.00  0.00    -0.189 C  
HETATM    7  C   UNL     1     -10.009   8.242  71.382  1.00  0.00    -0.250 A  
HETATM    8  C   UNL     1     -10.859   5.396  70.614  1.00  0.00    -0.193 C  
HETATM    9  C   UNL     1      -9.704   8.825  70.139  1.00  0.00    -0.188 A  
HETATM   10  C   UNL     1      -9.928   4.931  69.498  1.00  0.00    -0.295 C  
HETATM   11  C   UNL     1     -10.401   9.944  69.683  1.00  0.00    -0.265 A  
HETATM   12  C   UNL     1     -11.408  10.506  70.465  1.00  0.00    -0.400 A  
HETATM   13  C   UNL     1      -9.109   3.734  69.965  1.00  0.00    -0.193 C  
HETATM   14  C   UNL     1     -11.722   9.943  71.699  1.00  0.00    -0.327 A  
HETATM   15  C   UNL     1      -8.413   4.014  71.295  1.00  0.00    -0.081 C  
HETATM   16  C   UNL     1     -11.033   8.815  72.154  1.00  0.00    -0.404 A  
HETATM   17  N   UNL     1      -9.351   4.489  72.311  1.00  0.00    -0.125 NA 
HETATM   18  H   UNL     1      -9.996   3.744  72.578  1.00  0.00     0.000 HD 
ENDBRANCH   2   3
TORSDOF 1
ENDMDL
MODEL      115
REMARK 921   NORMALIZED FREE ENERGY PREDICTED BY IDOCK:   -3.48 KCAL/MOL
REMARK 922        TOTAL FREE ENERGY PREDICTED BY IDOCK:   -3.67 KCAL/MOL
REMARK 923 INTER-LIGAND FREE ENERGY PREDICTED BY IDOCK:   -3.74 KCAL/MOL
REMARK 924 INTRA-LIGAND FREE ENERGY PREDICTED BY IDOCK:    0.07 KCAL/MOL
REMARK 927      BINDING AFFINITY PREDICTED BY RF-SCORE:    0.00 PKD
ROOT
HETATM    1  C   UNL     1     -11.029   7.349  67.516  1.00  0.00    -0.106 C  
HETATM    2  O   UNL     1      -9.830   7.036  68.227  1.00  0.00    -0.140 OA 
ENDROOT
BRANCH   2   3
HETATM    3  C   UNL     1      -8.911   8.047  68.246  1.00  0.00    -0.132 C  
HETATM    4  C   UNL     1      -9.538   9.339  67.726  1.00  0.00    -0.167 C  
HETATM    5  O   UNL     1      -7.759   7.927  68.644  1.00  0.00    -0.108 OA 
HETATM    6  C   UNL     1      -9.374  10.472  68.791  1.00  0.00    -0.180 C  
HETATM    7  C   UNL     1      -8.978   9.691  66.350  1.00  0.00    -0.179 A  
HETATM    8  C   UNL     1      -9.920  11.840  68.327  1.00  0.00    -0.200 C  
HETATM    9  C   UNL     1      -9.854   9.859  65.264  1.00  0.00    -0.373 A  
HETATM   10  C   UNL     1     -11.446  11.868  68.272  1.00  0.00    -0.372 C  
HETATM   11  C   UNL     1      -9.369  10.191  63.998  1.00  0.00    -0.339 A  
HETATM   12  C   UNL     1      -8.001  10.353  63.795  1.00  0.00    -0.086 A  
HETATM   13  C   UNL     1     -12.026  11.466  69.623  1.00  0.00    -0.416 C  
HETATM   14  C   UNL     1      -7.119  10.189  64.860  1.00  0.00    -0.131 A  
HETATM   15  C   UNL     1     -11.434  10.148  70.118  1.00  0.00    -0.296 C  
HETATM   16  C   UNL     1      -7.602   9.867  66.131  1.00  0.00    -0.104 A  
HETATM   17  N   UNL     1      -9.971  10.173  70.114  1.00  0.00    -0.413 NA 
HETATM   18  H   UNL     1      -9.623  10.824  70.819  1.00  0.00     0.000 HD 
ENDBRANCH   2   3
TORSDOF 1
ENDMDL
MODEL      116
REMARK 921   NORMALIZED FREE ENERGY PREDICTED BY IDOCK:   -3.44 KCAL/MOL
REMARK 922        TOTAL FREE ENERGY PREDICTED BY IDOCK:   -3.63 KCAL/MOL
REMARK 923 INTER-LIGAND FREE ENERGY PREDICTED BY IDOCK:   -3.55 KCAL/MOL
REMARK 924 INTRA-LIGAND FREE ENERGY PREDICTED BY IDOCK:   -0.07 KCAL/MOL
REMARK 927      BINDING AFFINITY PREDICTED BY RF-SCORE:    0.00 PKD
ROOT
HETATM    1  C   UNL     1     -10.425   5.457  66.574  1.00  0.00    -0.294 C  
HETATM    2  O   UNL     1     -10.964   5.850  67.837  1.00  0.00    -0.276 OA 
ENDROOT
BRANCH   2   3
HETATM    3  C   UNL     1     -10.060   5.834  68.861  1.00  0.00    -0.186 C  
HETATM    4  C   UNL     1     -10.044   7.186  69.571  1.00  0.00    -0.182 C  
HETATM    5  O   UNL     1      -9.379   4.864  69.168  1.00  0.00    -0.111 OA 
HETATM    6  C   UNL     1     -10.318   6.985  71.097  1.00  0.00    -0.206 C  
HETATM    7  C   UNL     1      -8.751   7.938  69.265  1.00  0.00    -0.138 A  
HETATM    8  C   UNL     1     -10.256   8.294  71.915  1.00  0.00    -0.314 C  
HETATM    9  C   UNL     1      -8.810   9.222  68.696  1.00  0.00    -0.132 A  
HETATM   10  C   UNL     1     -11.448   9.208  71.640  1.00  0.00    -0.451 C  
HETATM   11  C   UNL     1      -7.644   9.935  68.415  1.00  0.00    -0.083 A  
HETATM   12  C   UNL     1      -6.399   9.374  68.691  1.00  0.00    -0.048 A  
HETATM   13  C   UNL     1     -12.751   8.458  71.888  1.00  0.00    -0.390 C  
HETATM   14  C   UNL     1      -6.322   8.102  69.254  1.00  0.00    -0.039 A  
HETATM   15  C   UNL     1     -12.785   7.129  71.137  1.00  0.00    -0.315 C  
HETATM   16  C   UNL     1      -7.488   7.390  69.546  1.00  0.00    -0.090 A  
HETATM   17  N   UNL     1     -11.602   6.315  71.415  1.00  0.00    -0.299 NA 
HETATM   18  H   UNL     1     -11.608   5.996  72.384  1.00  0.00     0.000 HD 
ENDBRANCH   2   3
TORSDOF 1
ENDMDL
MODEL      117
REMARK 921   NORMALIZED FREE ENERGY PREDICTED BY IDOCK:   -3.42 KCAL/MOL
REMARK 922        TOTAL FREE ENERGY PREDICTED BY IDOCK:   -3.61 KCAL/MOL
REMARK 923 INTER-LIGAND FREE ENERGY PREDICTED BY IDOCK:   -3.55 KCAL/MOL
REMARK 924 INTRA-LIGAND FREE ENERGY PREDICTED BY IDOCK:   -0.06 KCAL/MOL
REMARK 927      BINDING AFFINITY PREDICTED BY RF-SCORE:    0.00 PKD
ROOT
HETATM    1  C   UNL     1      -5.723   9.995  63.726  1.00  0.00    -0.122 C  
HETATM    2  O   UNL     1      -7.102  10.132  64.075  1.00  0.00    -0.133 OA 
ENDROOT
BRANCH   2   3
HETATM    3  C   UNL     1      -7.315  10.551  65.358  1.00  0.00    -0.084 C  
HETATM    4  C   UNL     1      -8.707  10.129  65.825  1.00  0.00    -0.166 C  
HETATM    5  O   UNL     1      -6.494  11.159  66.032  1.00  0.00    -0.092 OA 
HETATM    6  C   UNL     1      -8.591   9.296  67.143  1.00  0.00    -0.128 C  
HETATM    7  C   UNL     1      -9.627  11.342  65.934  1.00  0.00    -0.254 A  
HETATM    8  C   UNL     1      -9.957   8.878  67.732  1.00  0.00    -0.241 C  
HETATM    9  C   UNL     1     -10.833  11.369  65.214  1.00  0.00    -0.297 A  
HETATM   10  C   UNL     1     -10.643   7.799  66.900  1.00  0.00    -0.347 C  
HETATM   11  C   UNL     1     -11.697  12.461  65.303  1.00  0.00    -0.437 A  
HETATM   12  C   UNL     1     -11.366  13.548  66.108  1.00  0.00    -0.325 A  
HETATM   13  C   UNL     1      -9.718   6.599  66.733  1.00  0.00    -0.217 C  
HETATM   14  C   UNL     1     -10.174  13.540  66.828  1.00  0.00    -0.264 A  
HETATM   15  C   UNL     1      -8.343   7.018  66.218  1.00  0.00    -0.129 C  
HETATM   16  C   UNL     1      -9.312  12.443  66.748  1.00  0.00    -0.220 A  
HETATM   17  N   UNL     1      -7.754   8.077  67.037  1.00  0.00    -0.099 NA 
HETATM   18  H   UNL     1      -7.519   7.723  67.965  1.00  0.00     0.000 HD 
ENDBRANCH   2   3
TORSDOF 1
ENDMDL
MODEL      118
REMARK 921   NORMALIZED FREE ENERGY PREDICTED BY IDOCK:   -3.41 KCAL/MOL
REMARK 922        TOTAL FREE ENERGY PREDICTED BY IDOCK:   -3.59 KCAL/MOL
REMARK 923 INTER-LIGAND FREE ENERGY PREDICTED BY IDOCK:   -3.50 KCAL/MOL
REMARK 924 INTRA-LIGAND FREE ENERGY PREDICTED BY IDOCK:   -0.09 KCAL/MOL
REMARK 927      BINDING AFFINITY PREDICTED BY RF-SCORE:    0.00 PKD
ROOT
HETATM    1  C   UNL     1      -9.974   8.186  66.691  1.00  0.00    -0.269 C  
HETATM    2  O   UNL     1     -10.773   9.364  66.811  1.00  0.00    -0.175 OA 
ENDROOT
BRANCH   2   3
HETATM    3  C   UNL     1     -10.391  10.198  67.823  1.00  0.00    -0.210 C  
HETATM    4  C   UNL     1      -9.682  11.427  67.255  1.00  0.00    -0.201 C  
HETATM    5  O   UNL     1     -10.608   9.990  69.010  1.00  0.00    -0.195 OA 
HETATM    6  C   UNL     1     -10.394  12.726  67.755  1.00  0.00    -0.221 C  
HETATM    7  C   UNL     1      -8.189  11.376  67.567  1.00  0.00    -0.130 A  
HETATM    8  C   UNL     1      -9.708  14.027  67.285  1.00  0.00    -0.237 C  
HETATM    9  C   UNL     1      -7.256  11.436  66.517  1.00  0.00    -0.057 A  
HETATM   10  C   UNL     1      -9.902  14.281  65.793  1.00  0.00    -0.314 C  
HETATM   11  C   UNL     1      -5.885  11.402  66.775  1.00  0.00    -0.135 A  
HETATM   12  C   UNL     1      -5.424  11.299  68.085  1.00  0.00    -0.042 A  
HETATM   13  C   UNL     1     -11.388  14.281  65.451  1.00  0.00    -0.329 C  
HETATM   14  C   UNL     1      -6.333  11.237  69.137  1.00  0.00    -0.064 A  
HETATM   15  C   UNL     1     -12.085  13.028  65.977  1.00  0.00    -0.432 C  
HETATM   16  C   UNL     1      -7.707  11.282  68.883  1.00  0.00    -0.125 A  
HETATM   17  N   UNL     1     -11.831  12.822  67.403  1.00  0.00    -0.364 NA 
HETATM   18  H   UNL     1     -12.287  13.549  67.955  1.00  0.00     0.000 HD 
ENDBRANCH   2   3
TORSDOF 1
ENDMDL
MODEL      119
REMARK 921   NORMALIZED FREE ENERGY PREDICTED BY IDOCK:   -3.40 KCAL/MOL
REMARK 922        TOTAL FREE ENERGY PREDICTED BY IDOCK:   -3.59 KCAL/MOL
REMARK 923 INTER-LIGAND FREE ENERGY PREDICTED BY IDOCK:   -3.50 KCAL/MOL
REMARK 924 INTRA-LIGAND FREE ENERGY PREDICTED BY IDOCK:   -0.09 KCAL/MOL
REMARK 927      BINDING AFFINITY PREDICTED BY RF-SCORE:    0.00 PKD
ROOT
HETATM    1  C   UNL     1     -10.670   3.537  74.204  1.00  0.00    -0.187 C  
HETATM    2  O   UNL     1     -10.910   3.620  72.798  1.00  0.00    -0.109 OA 
ENDROOT
BRANCH   2   3
HETATM    3  C   UNL     1      -9.780   3.777  72.046  1.00  0.00    -0.166 C  
HETATM    4  C   UNL     1      -9.648   5.229  71.590  1.00  0.00    -0.197 C  
HETATM    5  O   UNL     1      -8.986   2.879  71.796  1.00  0.00    -0.076 OA 
HETATM    6  C   UNL     1      -8.262   5.799  72.038  1.00  0.00    -0.112 C  
HETATM    7  C   UNL     1      -9.915   5.347  70.092  1.00  0.00    -0.301 A  
HETATM    8  C   UNL     1      -8.007   7.246  71.564  1.00  0.00    -0.100 C  
HETATM    9  C   UNL     1     -10.922   6.211  69.630  1.00  0.00    -0.459 A  
HETATM   10  C   UNL     1      -8.867   8.263  72.311  1.00  0.00    -0.274 C  
HETATM   11  C   UNL     1     -11.180   6.345  68.265  1.00  0.00    -0.276 A  
HETATM   12  C   UNL     1     -10.440   5.613  67.340  1.00  0.00    -0.306 A  
HETATM   13  C   UNL     1      -8.656   8.124  73.813  1.00  0.00    -0.307 C  
HETATM   14  C   UNL     1      -9.439   4.751  67.780  1.00  0.00    -0.180 A  
HETATM   15  C   UNL     1      -8.838   6.680  74.275  1.00  0.00    -0.159 C  
HETATM   16  C   UNL     1      -9.171   4.622  69.145  1.00  0.00    -0.184 A  
HETATM   17  N   UNL     1      -8.014   5.753  73.499  1.00  0.00    -0.108 NA 
HETATM   18  H   UNL     1      -7.025   5.901  73.698  1.00  0.00     0.000 HD 
ENDBRANCH   2   3
TORSDOF 1
ENDMDL
MODEL      120
REMARK 921   NORMALIZED FREE ENERGY PREDICTED BY IDOCK:   -3.40 KCAL/MOL
REMARK 922        TOTAL FREE ENERGY PREDICTED BY IDOCK:   -3.58 KCAL/MOL
REMARK 923 INTER-LIGAND FREE ENERGY PREDICTED BY IDOCK:   -3.50 KCAL/MOL
REMARK 924 INTRA-LIGAND FREE ENERGY PREDICTED BY IDOCK:   -0.08 KCAL/MOL
REMARK 927      BINDING AFFINITY PREDICTED BY RF-SCORE:    0.00 PKD
ROOT
HETATM    1  C   UNL     1     -11.279   3.025  73.553  1.00  0.00    -0.191 C  
HETATM    2  O   UNL     1     -11.266   4.450  73.457  1.00  0.00    -0.291 OA 
ENDROOT
BRANCH   2   3
HETATM    3  C   UNL     1     -10.036   4.982  73.195  1.00  0.00    -0.159 C  
HETATM    4  C   UNL     1     -10.053   5.719  71.857  1.00  0.00    -0.228 C  
HETATM    5  O   UNL     1      -9.070   4.892  73.943  1.00  0.00    -0.113 OA 
HETATM    6  C   UNL     1      -9.578   7.194  72.060  1.00  0.00    -0.143 C  
HETATM    7  C   UNL     1      -9.256   4.946  70.809  1.00  0.00    -0.196 A  
HETATM    8  C   UNL     1      -9.498   8.004  70.747  1.00  0.00    -0.173 C  
HETATM    9  C   UNL     1      -9.876   4.557  69.609  1.00  0.00    -0.288 A  
HETATM   10  C   UNL     1     -10.877   8.338  70.185  1.00  0.00    -0.237 C  
HETATM   11  C   UNL     1      -9.167   3.859  68.631  1.00  0.00    -0.211 A  
HETATM   12  C   UNL     1      -7.830   3.531  68.838  1.00  0.00    -0.052 A  
HETATM   13  C   UNL     1     -11.709   9.062  71.236  1.00  0.00    -0.382 C  
HETATM   14  C   UNL     1      -7.200   3.906  70.022  1.00  0.00    -0.042 A  
HETATM   15  C   UNL     1     -11.731   8.299  72.559  1.00  0.00    -0.383 C  
HETATM   16  C   UNL     1      -7.904   4.615  70.999  1.00  0.00    -0.081 A  
HETATM   17  N   UNL     1     -10.383   7.980  73.025  1.00  0.00    -0.330 NA 
HETATM   18  H   UNL     1      -9.887   8.830  73.296  1.00  0.00     0.000 HD 
ENDBRANCH   2   3
TORSDOF 1
ENDMDL
MODEL      121
REMARK 921   NORMALIZED FREE ENERGY PREDICTED BY IDOCK:   -3.39 KCAL/MOL
REMARK 922        TOTAL FREE ENERGY PREDICTED BY IDOCK:   -3.57 KCAL/MOL
REMARK 923 INTER-LIGAND FREE ENERGY PREDICTED BY IDOCK:   -3.51 KCAL/MOL
REMARK 924 INTRA-LIGAND FREE ENERGY PREDICTED BY IDOCK:   -0.06 KCAL/MOL
REMARK 927      BINDING AFFINITY PREDICTED BY RF-SCORE:    0.00 PKD
ROOT
HETATM    1  C   UNL     1     -10.684  11.346  63.566  1.00  0.00    -0.381 C  
HETATM    2  O   UNL     1      -9.708  11.346  64.609  1.00  0.00    -0.240 OA 
ENDROOT
BRANCH   2   3
HETATM    3  C   UNL     1     -10.178  10.908  65.815  1.00  0.00    -0.259 C  
HETATM    4  C   UNL     1      -9.098  10.110  66.543  1.00  0.00    -0.166 C  
HETATM    5  O   UNL     1     -11.300  11.142  66.247  1.00  0.00    -0.198 OA 
HETATM    6  C   UNL     1      -8.849  10.728  67.958  1.00  0.00    -0.132 C  
HETATM    7  C   UNL     1      -9.451   8.625  66.566  1.00  0.00    -0.278 A  
HETATM    8  C   UNL     1      -7.816   9.948  68.801  1.00  0.00    -0.091 C  
HETATM    9  C   UNL     1      -8.551   7.687  66.032  1.00  0.00    -0.165 A  
HETATM   10  C   UNL     1      -6.392  10.119  68.279  1.00  0.00    -0.049 C  
HETATM   11  C   UNL     1      -8.844   6.323  66.049  1.00  0.00    -0.159 A  
HETATM   12  C   UNL     1     -10.045   5.874  66.593  1.00  0.00    -0.229 A  
HETATM   13  C   UNL     1      -6.039  11.600  68.197  1.00  0.00    -0.046 C  
HETATM   14  C   UNL     1     -10.949   6.789  67.125  1.00  0.00    -0.458 A  
HETATM   15  C   UNL     1      -7.096  12.387  67.425  1.00  0.00    -0.152 C  
HETATM   16  C   UNL     1     -10.654   8.155  67.119  1.00  0.00    -0.355 A  
HETATM   17  N   UNL     1      -8.441  12.153  67.951  1.00  0.00    -0.153 NA 
HETATM   18  H   UNL     1      -8.535  12.557  68.883  1.00  0.00     0.000 HD 
ENDBRANCH   2   3
TORSDOF 1
ENDMDL
MODEL      122
REMARK 921   NORMALIZED FREE ENERGY PREDICTED BY IDOCK:   -3.37 KCAL/MOL
REMARK 922        TOTAL FREE ENERGY PREDICTED BY IDOCK:   -3.55 KCAL/MOL
REMARK 923 INTER-LIGAND FREE ENERGY PREDICTED BY IDOCK:   -3.78 KCAL/MOL
REMARK 924 INTRA-LIGAND FREE ENERGY PREDICTED BY IDOCK:    0.23 KCAL/MOL
REMARK 927      BINDING AFFINITY PREDICTED BY RF-SCORE:    0.00 PKD
ROOT
HETATM    1  C   UNL     1      -9.828   9.703  65.070  1.00  0.00    -0.071 C  
HETATM    2  O   UNL     1     -10.783  10.708  65.414  1.00  0.00    -0.171 OA 
ENDROOT
BRANCH   2   3
HETATM    3  C   UNL     1     -10.242  11.943  65.632  1.00  0.00    -0.245 C  
HETATM    4  C   UNL     1      -9.687  12.033  67.052  1.00  0.00    -0.204 C  
HETATM    5  O   UNL     1     -10.198  12.836  64.794  1.00  0.00    -0.305 OA 
HETATM    6  C   UNL     1      -8.181  12.448  67.005  1.00  0.00    -0.141 C  
HETATM    7  C   UNL     1     -10.558  12.946  67.911  1.00  0.00    -0.232 A  
HETATM    8  C   UNL     1      -7.546  12.630  68.401  1.00  0.00    -0.132 C  
HETATM    9  C   UNL     1     -11.123  12.453  69.100  1.00  0.00    -0.260 A  
HETATM   10  C   UNL     1      -7.341  11.302  69.125  1.00  0.00    -0.104 C  
HETATM   11  C   UNL     1     -11.914  13.270  69.909  1.00  0.00    -0.400 A  
HETATM   12  C   UNL     1     -12.160  14.590  69.540  1.00  0.00    -0.348 A  
HETATM   13  C   UNL     1      -6.519  10.355  68.259  1.00  0.00    -0.059 C  
HETATM   14  C   UNL     1     -11.611  15.094  68.365  1.00  0.00    -0.356 A  
HETATM   15  C   UNL     1      -7.104  10.228  66.854  1.00  0.00    -0.092 C  
HETATM   16  C   UNL     1     -10.809  14.282  67.557  1.00  0.00    -0.284 A  
HETATM   17  N   UNL     1      -7.308  11.534  66.229  1.00  0.00    -0.372 NA 
HETATM   18  H   UNL     1      -6.411  11.979  66.030  1.00  0.00     0.000 HD 
ENDBRANCH   2   3
TORSDOF 1
ENDMDL
MODEL      123
REMARK 921   NORMALIZED FREE ENERGY PREDICTED BY IDOCK:   -3.36 KCAL/MOL
REMARK 922        TOTAL FREE ENERGY PREDICTED BY IDOCK:   -3.55 KCAL/MOL
REMARK 923 INTER-LIGAND FREE ENERGY PREDICTED BY IDOCK:   -3.55 KCAL/MOL
REMARK 924 INTRA-LIGAND FREE ENERGY PREDICTED BY IDOCK:   -0.00 KCAL/MOL
REMARK 927      BINDING AFFINITY PREDICTED BY RF-SCORE:    0.00 PKD
ROOT
HETATM    1  C   UNL     1      -9.404   3.738  67.432  1.00  0.00    -0.198 C  
HETATM    2  O   UNL     1     -10.397   4.545  66.798  1.00  0.00    -0.195 OA 
ENDROOT
BRANCH   2   3
HETATM    3  C   UNL     1     -10.549   5.784  67.353  1.00  0.00    -0.265 C  
HETATM    4  C   UNL     1      -9.544   5.981  68.486  1.00  0.00    -0.134 C  
HETATM    5  O   UNL     1     -11.365   6.616  66.976  1.00  0.00    -0.348 OA 
HETATM    6  C   UNL     1      -8.695   7.267  68.222  1.00  0.00    -0.125 C  
HETATM    7  C   UNL     1     -10.251   5.969  69.839  1.00  0.00    -0.265 A  
HETATM    8  C   UNL     1      -7.691   7.588  69.351  1.00  0.00    -0.111 C  
HETATM    9  C   UNL     1      -9.856   5.046  70.823  1.00  0.00    -0.279 A  
HETATM   10  C   UNL     1      -6.522   6.608  69.385  1.00  0.00    -0.043 C  
HETATM   11  C   UNL     1     -10.479   5.021  72.072  1.00  0.00    -0.269 A  
HETATM   12  C   UNL     1     -11.512   5.911  72.355  1.00  0.00    -0.358 A  
HETATM   13  C   UNL     1      -5.835   6.565  68.025  1.00  0.00    -0.016 C  
HETATM   14  C   UNL     1     -11.917   6.830  71.391  1.00  0.00    -0.403 A  
HETATM   15  C   UNL     1      -6.836   6.318  66.899  1.00  0.00    -0.062 C  
HETATM   16  C   UNL     1     -11.289   6.866  70.144  1.00  0.00    -0.364 A  
HETATM   17  N   UNL     1      -7.948   7.267  66.941  1.00  0.00    -0.110 NA 
HETATM   18  H   UNL     1      -7.624   8.208  66.716  1.00  0.00     0.000 HD 
ENDBRANCH   2   3
TORSDOF 1
ENDMDL
MODEL      124
REMARK 921   NORMALIZED FREE ENERGY PREDICTED BY IDOCK:   -3.34 KCAL/MOL
REMARK 922        TOTAL FREE ENERGY PREDICTED BY IDOCK:   -3.52 KCAL/MOL
REMARK 923 INTER-LIGAND FREE ENERGY PREDICTED BY IDOCK:   -3.92 KCAL/MOL
REMARK 924 INTRA-LIGAND FREE ENERGY PREDICTED BY IDOCK:    0.39 KCAL/MOL
REMARK 927      BINDING AFFINITY PREDICTED BY RF-SCORE:    0.00 PKD
ROOT
HETATM    1  C   UNL     1     -10.507   5.222  66.876  1.00  0.00    -0.254 C  
HETATM    2  O   UNL     1     -11.192   6.475  66.816  1.00  0.00    -0.334 OA 
ENDROOT
BRANCH   2   3
HETATM    3  C   UNL     1     -10.567   7.486  67.490  1.00  0.00    -0.261 C  
HETATM    4  C   UNL     1      -9.932   6.952  68.772  1.00  0.00    -0.153 C  
HETATM    5  O   UNL     1     -10.514   8.646  67.102  1.00  0.00    -0.285 OA 
HETATM    6  C   UNL     1      -8.408   7.300  68.792  1.00  0.00    -0.129 C  
HETATM    7  C   UNL     1     -10.699   7.444  69.997  1.00  0.00    -0.258 A  
HETATM    8  C   UNL     1      -7.689   6.857  70.086  1.00  0.00    -0.101 C  
HETATM    9  C   UNL     1     -11.228   6.515  70.908  1.00  0.00    -0.366 A  
HETATM   10  C   UNL     1      -7.526   5.341  70.170  1.00  0.00    -0.068 C  
HETATM   11  C   UNL     1     -11.924   6.939  72.041  1.00  0.00    -0.342 A  
HETATM   12  C   UNL     1     -12.111   8.298  72.276  1.00  0.00    -0.439 A  
HETATM   13  C   UNL     1      -6.809   4.822  68.929  1.00  0.00    -0.051 C  
HETATM   14  C   UNL     1     -11.596   9.234  71.383  1.00  0.00    -0.437 A  
HETATM   15  C   UNL     1      -7.476   5.317  67.648  1.00  0.00    -0.083 C  
HETATM   16  C   UNL     1     -10.889   8.813  70.254  1.00  0.00    -0.252 A  
HETATM   17  N   UNL     1      -7.634   6.771  67.643  1.00  0.00    -0.104 NA 
HETATM   18  H   UNL     1      -6.725   7.230  67.583  1.00  0.00     0.000 HD 
ENDBRANCH   2   3
TORSDOF 1
ENDMDL
MODEL      125
REMARK 921   NORMALIZED FREE ENERGY PREDICTED BY IDOCK:   -3.32 KCAL/MOL
REMARK 922        TOTAL FREE ENERGY PREDICTED BY IDOCK:   -3.50 KCAL/MOL
REMARK 923 INTER-LIGAND FREE ENERGY PREDICTED BY IDOCK:   -3.49 KCAL/MOL
REMARK 924 INTRA-LIGAND FREE ENERGY PREDICTED BY IDOCK:   -0.01 KCAL/MOL
REMARK 927      BINDING AFFINITY PREDICTED BY RF-SCORE:    0.00 PKD
ROOT
HETATM    1  C   UNL     1      -6.636   9.235  66.250  1.00  0.00    -0.070 C  
HETATM    2  O   UNL     1      -6.598  10.278  67.226  1.00  0.00    -0.067 OA 
ENDROOT
BRANCH   2   3
HETATM    3  C   UNL     1      -7.821  10.608  67.739  1.00  0.00    -0.108 C  
HETATM    4  C   UNL     1      -8.911   9.755  67.093  1.00  0.00    -0.148 C  
HETATM    5  O   UNL     1      -8.002  11.455  68.605  1.00  0.00    -0.135 OA 
HETATM    6  C   UNL     1      -9.725   9.010  68.202  1.00  0.00    -0.152 C  
HETATM    7  C   UNL     1      -9.768  10.600  66.154  1.00  0.00    -0.253 A  
HETATM    8  C   UNL     1     -10.897   8.170  67.649  1.00  0.00    -0.093 C  
HETATM    9  C   UNL     1      -9.898  10.226  64.805  1.00  0.00    -0.403 A  
HETATM   10  C   UNL     1     -10.420   6.922  66.911  1.00  0.00    -0.349 C  
HETATM   11  C   UNL     1     -10.683  10.975  63.927  1.00  0.00    -0.310 A  
HETATM   12  C   UNL     1     -11.344  12.114  64.381  1.00  0.00    -0.407 A  
HETATM   13  C   UNL     1      -9.518   6.091  67.815  1.00  0.00    -0.112 C  
HETATM   14  C   UNL     1     -11.225  12.499  65.713  1.00  0.00    -0.356 A  
HETATM   15  C   UNL     1      -8.399   6.936  68.420  1.00  0.00    -0.120 C  
HETATM   16  C   UNL     1     -10.449  11.746  66.597  1.00  0.00    -0.259 A  
HETATM   17  N   UNL     1      -8.917   8.133  69.082  1.00  0.00    -0.144 NA 
HETATM   18  H   UNL     1      -9.447   7.879  69.917  1.00  0.00     0.000 HD 
ENDBRANCH   2   3
TORSDOF 1
ENDMDL
MODEL      126
REMARK 921   NORMALIZED FREE ENERGY PREDICTED BY IDOCK:   -3.32 KCAL/MOL
REMARK 922        TOTAL FREE ENERGY PREDICTED BY IDOCK:   -3.50 KCAL/MOL
REMARK 923 INTER-LIGAND FREE ENERGY PREDICTED BY IDOCK:   -3.43 KCAL/MOL
REMARK 924 INTRA-LIGAND FREE ENERGY PREDICTED BY IDOCK:   -0.07 KCAL/MOL
REMARK 927      BINDING AFFINITY PREDICTED BY RF-SCORE:    0.00 PKD
ROOT
HETATM    1  C   UNL     1     -13.146   7.098  71.804  1.00  0.00    -0.314 C  
HETATM    2  O   UNL     1     -12.359   7.582  70.714  1.00  0.00    -0.209 OA 
ENDROOT
BRANCH   2   3
HETATM    3  C   UNL     1     -11.400   8.486  71.074  1.00  0.00    -0.271 C  
HETATM    4  C   UNL     1     -10.044   8.068  70.510  1.00  0.00    -0.195 C  
HETATM    5  O   UNL     1     -11.613   9.492  71.738  1.00  0.00    -0.385 OA 
HETATM    6  C   UNL     1      -9.446   9.232  69.655  1.00  0.00    -0.179 C  
HETATM    7  C   UNL     1      -9.125   7.581  71.627  1.00  0.00    -0.149 A  
HETATM    8  C   UNL     1      -8.039   8.928  69.093  1.00  0.00    -0.117 C  
HETATM    9  C   UNL     1      -8.569   6.292  71.560  1.00  0.00    -0.131 A  
HETATM   10  C   UNL     1      -8.071   7.887  67.978  1.00  0.00    -0.126 C  
HETATM   11  C   UNL     1      -7.717   5.826  72.563  1.00  0.00    -0.102 A  
HETATM   12  C   UNL     1      -7.414   6.637  73.653  1.00  0.00    -0.083 A  
HETATM   13  C   UNL     1      -9.027   8.329  66.876  1.00  0.00    -0.169 C  
HETATM   14  C   UNL     1      -7.957   7.916  73.737  1.00  0.00    -0.240 A  
HETATM   15  C   UNL     1     -10.398   8.699  67.437  1.00  0.00    -0.284 C  
HETATM   16  C   UNL     1      -8.801   8.390  72.729  1.00  0.00    -0.276 A  
HETATM   17  N   UNL     1     -10.297   9.673  68.523  1.00  0.00    -0.197 NA 
HETATM   18  H   UNL     1      -9.979  10.574  68.167  1.00  0.00     0.000 HD 
ENDBRANCH   2   3
TORSDOF 1
ENDMDL
MODEL      127
REMARK 921   NORMALIZED FREE ENERGY PREDICTED BY IDOCK:   -3.32 KCAL/MOL
REMARK 922        TOTAL FREE ENERGY PREDICTED BY IDOCK:   -3.50 KCAL/MOL
REMARK 923 INTER-LIGAND FREE ENERGY PREDICTED BY IDOCK:   -3.45 KCAL/MOL
REMARK 924 INTRA-LIGAND FREE ENERGY PREDICTED BY IDOCK:   -0.05 KCAL/MOL
REMARK 927      BINDING AFFINITY PREDICTED BY RF-SCORE:    0.00 PKD
ROOT
HETATM    1  C   UNL     1     -11.303  11.815  69.071  1.00  0.00    -0.278 C  
HETATM    2  O   UNL     1     -11.207  10.417  69.350  1.00  0.00    -0.233 OA 
ENDROOT
BRANCH   2   3
HETATM    3  C   UNL     1      -9.929   9.969  69.530  1.00  0.00    -0.228 C  
HETATM    4  C   UNL     1      -9.940   8.499  69.946  1.00  0.00    -0.189 C  
HETATM    5  O   UNL     1      -8.927  10.651  69.361  1.00  0.00    -0.139 OA 
HETATM    6  C   UNL     1      -9.063   7.664  68.957  1.00  0.00    -0.144 C  
HETATM    7  C   UNL     1      -9.537   8.353  71.411  1.00  0.00    -0.254 A  
HETATM    8  C   UNL     1      -8.958   6.170  69.334  1.00  0.00    -0.128 C  
HETATM    9  C   UNL     1     -10.403   7.708  72.310  1.00  0.00    -0.277 A  
HETATM   10  C   UNL     1     -10.263   5.416  69.093  1.00  0.00    -0.302 C  
HETATM   11  C   UNL     1     -10.055   7.552  73.653  1.00  0.00    -0.343 A  
HETATM   12  C   UNL     1      -8.839   8.045  74.120  1.00  0.00    -0.119 A  
HETATM   13  C   UNL     1     -10.711   5.595  67.648  1.00  0.00    -0.260 C  
HETATM   14  C   UNL     1      -7.970   8.688  73.243  1.00  0.00     0.057 A  
HETATM   15  C   UNL     1     -10.748   7.069  67.249  1.00  0.00    -0.342 C  
HETATM   16  C   UNL     1      -8.311   8.836  71.896  1.00  0.00    -0.131 A  
HETATM   17  N   UNL     1      -9.481   7.742  67.537  1.00  0.00    -0.138 NA 
HETATM   18  H   UNL     1      -8.743   7.390  66.927  1.00  0.00     0.000 HD 
ENDBRANCH   2   3
TORSDOF 1
ENDMDL
MODEL      128
REMARK 921   NORMALIZED FREE ENERGY PREDICTED BY IDOCK:   -3.31 KCAL/MOL
REMARK 922        TOTAL FREE ENERGY PREDICTED BY IDOCK:   -3.49 KCAL/MOL
REMARK 923 INTER-LIGAND FREE ENERGY PREDICTED BY IDOCK:   -3.43 KCAL/MOL
REMARK 924 INTRA-LIGAND FREE ENERGY PREDICTED BY IDOCK:   -0.07 KCAL/MOL
REMARK 927      BINDING AFFINITY PREDICTED BY RF-SCORE:    0.00 PKD
ROOT
HETATM    1  C   UNL     1      -5.674  20.132  64.267  1.00  0.00    -0.237 C  
HETATM    2  O   UNL     1      -5.668  19.039  65.187  1.00  0.00    -0.185 OA 
ENDROOT
BRANCH   2   3
HETATM    3  C   UNL     1      -6.032  19.377  66.459  1.00  0.00    -0.164 C  
HETATM    4  C   UNL     1      -7.023  18.355  67.013  1.00  0.00    -0.209 C  
HETATM    5  O   UNL     1      -5.605  20.352  67.065  1.00  0.00    -0.167 OA 
HETATM    6  C   UNL     1      -6.482  17.770  68.358  1.00  0.00    -0.199 C  
HETATM    7  C   UNL     1      -8.420  18.962  67.115  1.00  0.00    -0.290 A  
HETATM    8  C   UNL     1      -7.449  16.772  69.032  1.00  0.00    -0.228 C  
HETATM    9  C   UNL     1      -9.497  18.346  66.455  1.00  0.00    -0.297 A  
HETATM   10  C   UNL     1      -7.530  15.445  68.282  1.00  0.00    -0.112 C  
HETATM   11  C   UNL     1     -10.785  18.874  66.540  1.00  0.00    -0.375 A  
HETATM   12  C   UNL     1     -11.018  20.031  67.280  1.00  0.00    -0.116 A  
HETATM   13  C   UNL     1      -6.137  14.848  68.121  1.00  0.00    -0.145 C  
HETATM   14  C   UNL     1      -9.963  20.655  67.939  1.00  0.00    -0.254 A  
HETATM   15  C   UNL     1      -5.159  15.857  67.521  1.00  0.00    -0.052 C  
HETATM   16  C   UNL     1      -8.673  20.123  67.864  1.00  0.00    -0.274 A  
HETATM   17  N   UNL     1      -5.154  17.117  68.263  1.00  0.00    -0.122 NA 
HETATM   18  H   UNL     1      -4.754  16.983  69.192  1.00  0.00     0.000 HD 
ENDBRANCH   2   3
TORSDOF 1
ENDMDL
MODEL      129
REMARK 921   NORMALIZED FREE ENERGY PREDICTED BY IDOCK:   -3.30 KCAL/MOL
REMARK 922        TOTAL FREE ENERGY PREDICTED BY IDOCK:   -3.48 KCAL/MOL
REMARK 923 INTER-LIGAND FREE ENERGY PREDICTED BY IDOCK:   -3.40 KCAL/MOL
REMARK 924 INTRA-LIGAND FREE ENERGY PREDICTED BY IDOCK:   -0.08 KCAL/MOL
REMARK 927      BINDING AFFINITY PREDICTED BY RF-SCORE:    0.00 PKD
ROOT
HETATM    1  C   UNL     1      -8.446   3.455  66.732  1.00  0.00    -0.108 C  
HETATM    2  O   UNL     1      -8.409   4.800  66.251  1.00  0.00    -0.110 OA 
ENDROOT
BRANCH   2   3
HETATM    3  C   UNL     1      -9.551   5.510  66.489  1.00  0.00    -0.155 C  
HETATM    4  C   UNL     1      -9.236   6.753  67.319  1.00  0.00    -0.140 C  
HETATM    5  O   UNL     1     -10.660   5.196  66.075  1.00  0.00    -0.252 OA 
HETATM    6  C   UNL     1      -9.750   8.029  66.577  1.00  0.00    -0.227 C  
HETATM    7  C   UNL     1      -9.773   6.600  68.740  1.00  0.00    -0.130 A  
HETATM    8  C   UNL     1      -9.535   9.336  67.372  1.00  0.00    -0.165 C  
HETATM    9  C   UNL     1      -8.898   6.718  69.833  1.00  0.00    -0.141 A  
HETATM   10  C   UNL     1      -8.066   9.745  67.431  1.00  0.00    -0.114 C  
HETATM   11  C   UNL     1      -9.365   6.593  71.141  1.00  0.00    -0.164 A  
HETATM   12  C   UNL     1     -10.713   6.339  71.380  1.00  0.00    -0.297 A  
HETATM   13  C   UNL     1      -7.495   9.851  66.022  1.00  0.00    -0.106 C  
HETATM   14  C   UNL     1     -11.595   6.217  70.309  1.00  0.00    -0.379 A  
HETATM   15  C   UNL     1      -7.768   8.587  65.209  1.00  0.00    -0.097 C  
HETATM   16  C   UNL     1     -11.132   6.353  68.998  1.00  0.00    -0.424 A  
HETATM   17  N   UNL     1      -9.186   8.229  65.220  1.00  0.00    -0.390 NA 
HETATM   18  H   UNL     1      -9.733   8.919  64.704  1.00  0.00     0.000 HD 
ENDBRANCH   2   3
TORSDOF 1
ENDMDL
MODEL      130
REMARK 921   NORMALIZED FREE ENERGY PREDICTED BY IDOCK:   -3.29 KCAL/MOL
REMARK 922        TOTAL FREE ENERGY PREDICTED BY IDOCK:   -3.46 KCAL/MOL
REMARK 923 INTER-LIGAND FREE ENERGY PREDICTED BY IDOCK:   -3.49 KCAL/MOL
REMARK 924 INTRA-LIGAND FREE ENERGY PREDICTED BY IDOCK:    0.02 KCAL/MOL
REMARK 927      BINDING AFFINITY PREDICTED BY RF-SCORE:    0.00 PKD
ROOT
HETATM    1  C   UNL     1     -11.601   6.959  70.369  1.00  0.00    -0.335 C  
HETATM    2  O   UNL     1     -12.090   6.513  71.635  1.00  0.00    -0.337 OA 
ENDROOT
BRANCH   2   3
HETATM    3  C   UNL     1     -11.229   5.695  72.310  1.00  0.00    -0.259 C  
HETATM    4  C   UNL     1      -9.893   5.613  71.574  1.00  0.00    -0.213 C  
HETATM    5  O   UNL     1     -11.494   5.129  73.364  1.00  0.00    -0.299 OA 
HETATM    6  C   UNL     1      -8.732   6.020  72.538  1.00  0.00    -0.122 C  
HETATM    7  C   UNL     1      -9.717   4.238  70.933  1.00  0.00    -0.266 A  
HETATM    8  C   UNL     1      -7.329   5.904  71.901  1.00  0.00    -0.094 C  
HETATM    9  C   UNL     1      -9.490   4.138  69.550  1.00  0.00    -0.254 A  
HETATM   10  C   UNL     1      -7.076   6.985  70.853  1.00  0.00    -0.070 C  
HETATM   11  C   UNL     1      -9.316   2.895  68.941  1.00  0.00    -0.226 A  
HETATM   12  C   UNL     1      -9.373   1.730  69.703  1.00  0.00    -0.155 A  
HETATM   13  C   UNL     1      -7.300   8.365  71.458  1.00  0.00    -0.103 C  
HETATM   14  C   UNL     1      -9.599   1.810  71.075  1.00  0.00    -0.197 A  
HETATM   15  C   UNL     1      -8.658   8.460  72.152  1.00  0.00    -0.192 C  
HETATM   16  C   UNL     1      -9.764   3.055  71.689  1.00  0.00    -0.228 A  
HETATM   17  N   UNL     1      -8.853   7.380  73.117  1.00  0.00    -0.137 NA 
HETATM   18  H   UNL     1      -8.218   7.489  73.909  1.00  0.00     0.000 HD 
ENDBRANCH   2   3
TORSDOF 1
ENDMDL
MODEL      131
REMARK 921   NORMALIZED FREE ENERGY PREDICTED BY IDOCK:   -3.28 KCAL/MOL
REMARK 922        TOTAL FREE ENERGY PREDICTED BY IDOCK:   -3.46 KCAL/MOL
REMARK 923 INTER-LIGAND FREE ENERGY PREDICTED BY IDOCK:   -3.41 KCAL/MOL
REMARK 924 INTRA-LIGAND FREE ENERGY PREDICTED BY IDOCK:   -0.05 KCAL/MOL
REMARK 927      BINDING AFFINITY PREDICTED BY RF-SCORE:    0.00 PKD
ROOT
HETATM    1  C   UNL     1     -12.876  11.675  71.060  1.00  0.00    -0.245 C  
HETATM    2  O   UNL     1     -11.577  11.142  70.796  1.00  0.00    -0.239 OA 
ENDROOT
BRANCH   2   3
HETATM    3  C   UNL     1     -11.489  10.434  69.631  1.00  0.00    -0.262 C  
HETATM    4  C   UNL     1     -10.247   9.545  69.647  1.00  0.00    -0.234 C  
HETATM    5  O   UNL     1     -12.304  10.498  68.720  1.00  0.00    -0.238 OA 
HETATM    6  C   UNL     1     -10.658   8.059  69.388  1.00  0.00    -0.205 C  
HETATM    7  C   UNL     1      -9.193  10.077  68.680  1.00  0.00    -0.152 A  
HETATM    8  C   UNL     1      -9.458   7.088  69.320  1.00  0.00    -0.147 C  
HETATM    9  C   UNL     1      -7.906  10.386  69.152  1.00  0.00    -0.134 A  
HETATM   10  C   UNL     1      -8.818   6.859  70.687  1.00  0.00    -0.150 C  
HETATM   11  C   UNL     1      -6.921  10.864  68.287  1.00  0.00    -0.069 A  
HETATM   12  C   UNL     1      -7.208  11.049  66.937  1.00  0.00    -0.133 A  
HETATM   13  C   UNL     1      -9.866   6.379  71.683  1.00  0.00    -0.184 C  
HETATM   14  C   UNL     1      -8.479  10.750  66.452  1.00  0.00    -0.158 A  
HETATM   15  C   UNL     1     -11.086   7.298  71.701  1.00  0.00    -0.233 C  
HETATM   16  C   UNL     1      -9.464  10.260  67.313  1.00  0.00    -0.174 A  
HETATM   17  N   UNL     1     -11.631   7.504  70.360  1.00  0.00    -0.453 NA 
HETATM   18  H   UNL     1     -12.040   6.640  70.003  1.00  0.00     0.000 HD 
ENDBRANCH   2   3
TORSDOF 1
ENDMDL
MODEL      132
REMARK 921   NORMALIZED FREE ENERGY PREDICTED BY IDOCK:   -3.27 KCAL/MOL
REMARK 922        TOTAL FREE ENERGY PREDICTED BY IDOCK:   -3.45 KCAL/MOL
REMARK 923 INTER-LIGAND FREE ENERGY PREDICTED BY IDOCK:   -3.44 KCAL/MOL
REMARK 924 INTRA-LIGAND FREE ENERGY PREDICTED BY IDOCK:   -0.01 KCAL/MOL
REMARK 927      BINDING AFFINITY PREDICTED BY RF-SCORE:    0.00 PKD
ROOT
HETATM    1  C   UNL     1      -9.871   6.295  67.152  1.00  0.00    -0.142 C  
HETATM    2  O   UNL     1     -10.994   5.940  67.960  1.00  0.00    -0.274 OA 
ENDROOT
BRANCH   2   3
HETATM    3  C   UNL     1     -11.026   6.560  69.177  1.00  0.00    -0.323 C  
HETATM    4  C   UNL     1      -9.832   7.502  69.320  1.00  0.00    -0.170 C  
HETATM    5  O   UNL     1     -11.902   6.392  70.016  1.00  0.00    -0.404 OA 
HETATM    6  C   UNL     1     -10.334   8.945  69.653  1.00  0.00    -0.212 C  
HETATM    7  C   UNL     1      -8.826   6.945  70.324  1.00  0.00    -0.148 A  
HETATM    8  C   UNL     1      -9.191   9.959  69.883  1.00  0.00    -0.245 C  
HETATM    9  C   UNL     1      -7.495   6.729  69.930  1.00  0.00    -0.095 A  
HETATM   10  C   UNL     1      -8.465  10.319  68.590  1.00  0.00    -0.127 C  
HETATM   11  C   UNL     1      -6.553   6.230  70.831  1.00  0.00    -0.053 A  
HETATM   12  C   UNL     1      -6.929   5.931  72.139  1.00  0.00    -0.078 A  
HETATM   13  C   UNL     1      -9.460  10.826  67.553  1.00  0.00    -0.168 C  
HETATM   14  C   UNL     1      -8.244   6.137  72.546  1.00  0.00    -0.108 A  
HETATM   15  C   UNL     1     -10.629   9.859  67.376  1.00  0.00    -0.277 C  
HETATM   16  C   UNL     1      -9.187   6.647  71.649  1.00  0.00    -0.145 A  
HETATM   17  N   UNL     1     -11.260   9.528  68.653  1.00  0.00    -0.472 NA 
HETATM   18  H   UNL     1     -11.735  10.344  69.039  1.00  0.00     0.000 HD 
ENDBRANCH   2   3
TORSDOF 1
ENDMDL
MODEL      133
REMARK 921   NORMALIZED FREE ENERGY PREDICTED BY IDOCK:   -3.25 KCAL/MOL
REMARK 922        TOTAL FREE ENERGY PREDICTED BY IDOCK:   -3.43 KCAL/MOL
REMARK 923 INTER-LIGAND FREE ENERGY PREDICTED BY IDOCK:   -3.37 KCAL/MOL
REMARK 924 INTRA-LIGAND FREE ENERGY PREDICTED BY IDOCK:   -0.06 KCAL/MOL
REMARK 927      BINDING AFFINITY PREDICTED BY RF-SCORE:    0.00 PKD
ROOT
HETATM    1  C   UNL     1     -10.440   9.345  66.198  1.00  0.00     0.043 C  
HETATM    2  O   UNL     1     -10.154  10.745  66.213  1.00  0.00    -0.217 OA 
ENDROOT
BRANCH   2   3
HETATM    3  C   UNL     1     -11.038  11.489  66.942  1.00  0.00    -0.307 C  
HETATM    4  C   UNL     1     -11.050  12.932  66.443  1.00  0.00    -0.316 C  
HETATM    5  O   UNL     1     -11.730  11.046  67.850  1.00  0.00    -0.551 OA 
HETATM    6  C   UNL     1     -12.508  13.347  66.059  1.00  0.00    -0.369 C  
HETATM    7  C   UNL     1     -10.387  13.857  67.460  1.00  0.00    -0.245 A  
HETATM    8  C   UNL     1     -12.633  14.817  65.604  1.00  0.00     0.067 C  
HETATM    9  C   UNL     1      -9.296  14.653  67.071  1.00  0.00    -0.244 A  
HETATM   10  C   UNL     1     -12.014  15.055  64.229  1.00  0.00    -0.310 C  
HETATM   11  C   UNL     1      -8.678  15.515  67.978  1.00  0.00    -0.163 A  
HETATM   12  C   UNL     1      -9.135  15.589  69.292  1.00  0.00    -0.266 A  
HETATM   13  C   UNL     1     -12.625  14.102  63.208  1.00  0.00     0.827 C  
HETATM   14  C   UNL     1     -10.213  14.806  69.696  1.00  0.00    -0.048 A  
HETATM   15  C   UNL     1     -12.567  12.653  63.688  1.00  0.00    -0.337 C  
HETATM   16  C   UNL     1     -10.841  13.951  68.786  1.00  0.00    -0.282 A  
HETATM   17  N   UNL     1     -13.143  12.498  65.023  1.00  0.00    -0.656 NA 
HETATM   18  H   UNL     1     -14.151  12.659  64.998  1.00  0.00     0.000 HD 
ENDBRANCH   2   3
TORSDOF 1
ENDMDL
MODEL      134
REMARK 921   NORMALIZED FREE ENERGY PREDICTED BY IDOCK:   -3.21 KCAL/MOL
REMARK 922        TOTAL FREE ENERGY PREDICTED BY IDOCK:   -3.38 KCAL/MOL
REMARK 923 INTER-LIGAND FREE ENERGY PREDICTED BY IDOCK:   -3.32 KCAL/MOL
REMARK 924 INTRA-LIGAND FREE ENERGY PREDICTED BY IDOCK:   -0.07 KCAL/MOL
REMARK 927      BINDING AFFINITY PREDICTED BY RF-SCORE:    0.00 PKD
ROOT
HETATM    1  C   UNL     1      -9.947  10.833  65.956  1.00  0.00    -0.242 C  
HETATM    2  O   UNL     1      -9.014  11.609  66.709  1.00  0.00    -0.176 OA 
ENDROOT
BRANCH   2   3
HETATM    3  C   UNL     1      -9.592  12.523  67.544  1.00  0.00    -0.187 C  
HETATM    4  C   UNL     1      -9.530  13.917  66.922  1.00  0.00    -0.263 C  
HETATM    5  O   UNL     1     -10.100  12.249  68.624  1.00  0.00    -0.212 OA 
HETATM    6  C   UNL     1     -10.969  14.523  66.841  1.00  0.00    -0.316 C  
HETATM    7  C   UNL     1      -8.527  14.793  67.668  1.00  0.00    -0.185 A  
HETATM    8  C   UNL     1     -11.003  15.964  66.285  1.00  0.00    -0.112 C  
HETATM    9  C   UNL     1      -7.464  15.388  66.966  1.00  0.00    -0.166 A  
HETATM   10  C   UNL     1     -10.703  16.016  64.789  1.00  0.00    -0.229 C  
HETATM   11  C   UNL     1      -6.539  16.201  67.621  1.00  0.00    -0.180 A  
HETATM   12  C   UNL     1      -6.656  16.427  68.991  1.00  0.00    -0.181 A  
HETATM   13  C   UNL     1     -11.660  15.105  64.031  1.00  0.00     0.115 C  
HETATM   14  C   UNL     1      -7.701  15.845  69.703  1.00  0.00     0.001 A  
HETATM   15  C   UNL     1     -11.683  13.697  64.623  1.00  0.00    -0.388 C  
HETATM   16  C   UNL     1      -8.635  15.038  69.047  1.00  0.00    -0.205 A  
HETATM   17  N   UNL     1     -11.940  13.717  66.063  1.00  0.00    -0.390 NA 
HETATM   18  H   UNL     1     -12.894  14.027  66.252  1.00  0.00     0.000 HD 
ENDBRANCH   2   3
TORSDOF 1
ENDMDL
MODEL      135
REMARK 921   NORMALIZED FREE ENERGY PREDICTED BY IDOCK:   -3.20 KCAL/MOL
REMARK 922        TOTAL FREE ENERGY PREDICTED BY IDOCK:   -3.38 KCAL/MOL
REMARK 923 INTER-LIGAND FREE ENERGY PREDICTED BY IDOCK:   -3.32 KCAL/MOL
REMARK 924 INTRA-LIGAND FREE ENERGY PREDICTED BY IDOCK:   -0.05 KCAL/MOL
REMARK 927      BINDING AFFINITY PREDICTED BY RF-SCORE:    0.00 PKD
ROOT
HETATM    1  C   UNL     1      -9.897   4.126  64.829  1.00  0.00    -0.188 C  
HETATM    2  O   UNL     1     -10.170   4.939  65.973  1.00  0.00    -0.227 OA 
ENDROOT
BRANCH   2   3
HETATM    3  C   UNL     1      -9.075   5.584  66.474  1.00  0.00    -0.138 C  
HETATM    4  C   UNL     1      -9.505   6.836  67.237  1.00  0.00    -0.156 C  
HETATM    5  O   UNL     1      -7.921   5.196  66.341  1.00  0.00    -0.103 OA 
HETATM    6  C   UNL     1      -8.940   6.786  68.694  1.00  0.00    -0.125 C  
HETATM    7  C   UNL     1      -9.122   8.094  66.463  1.00  0.00    -0.216 A  
HETATM    8  C   UNL     1      -9.267   8.045  69.527  1.00  0.00    -0.152 C  
HETATM    9  C   UNL     1     -10.114   9.028  66.117  1.00  0.00    -0.242 A  
HETATM   10  C   UNL     1     -10.742   8.120  69.912  1.00  0.00    -0.241 C  
HETATM   11  C   UNL     1      -9.789  10.192  65.418  1.00  0.00    -0.375 A  
HETATM   12  C   UNL     1      -8.470  10.438  65.047  1.00  0.00    -0.180 A  
HETATM   13  C   UNL     1     -11.159   6.847  70.639  1.00  0.00    -0.322 C  
HETATM   14  C   UNL     1      -7.474   9.523  65.380  1.00  0.00    -0.099 A  
HETATM   15  C   UNL     1     -10.772   5.598  69.851  1.00  0.00    -0.329 C  
HETATM   16  C   UNL     1      -7.794   8.362  66.089  1.00  0.00    -0.101 A  
HETATM   17  N   UNL     1      -9.357   5.603  69.483  1.00  0.00    -0.131 NA 
HETATM   18  H   UNL     1      -8.772   5.502  70.313  1.00  0.00     0.000 HD 
ENDBRANCH   2   3
TORSDOF 1
ENDMDL
MODEL      136
REMARK 921   NORMALIZED FREE ENERGY PREDICTED BY IDOCK:   -3.20 KCAL/MOL
REMARK 922        TOTAL FREE ENERGY PREDICTED BY IDOCK:   -3.37 KCAL/MOL
REMARK 923 INTER-LIGAND FREE ENERGY PREDICTED BY IDOCK:   -3.29 KCAL/MOL
REMARK 924 INTRA-LIGAND FREE ENERGY PREDICTED BY IDOCK:   -0.08 KCAL/MOL
REMARK 927      BINDING AFFINITY PREDICTED BY RF-SCORE:    0.00 PKD
ROOT
HETATM    1  C   UNL     1      -7.405   5.044  72.617  1.00  0.00    -0.090 C  
HETATM    2  O   UNL     1      -8.218   5.208  71.453  1.00  0.00    -0.110 OA 
ENDROOT
BRANCH   2   3
HETATM    3  C   UNL     1      -8.114   6.438  70.868  1.00  0.00    -0.124 C  
HETATM    4  C   UNL     1      -9.489   6.922  70.411  1.00  0.00    -0.169 C  
HETATM    5  O   UNL     1      -7.067   7.061  70.749  1.00  0.00    -0.064 OA 
HETATM    6  C   UNL     1      -9.793   8.320  71.042  1.00  0.00    -0.187 C  
HETATM    7  C   UNL     1      -9.590   6.891  68.888  1.00  0.00    -0.139 A  
HETATM    8  C   UNL     1     -11.139   8.925  70.585  1.00  0.00    -0.306 C  
HETATM    9  C   UNL     1     -10.614   6.151  68.273  1.00  0.00    -0.324 A  
HETATM   10  C   UNL     1     -12.338   8.195  71.184  1.00  0.00    -0.229 C  
HETATM   11  C   UNL     1     -10.735   6.114  66.883  1.00  0.00    -0.413 A  
HETATM   12  C   UNL     1      -9.830   6.810  66.085  1.00  0.00     0.097 A  
HETATM   13  C   UNL     1     -12.228   8.167  72.704  1.00  0.00    -0.270 C  
HETATM   14  C   UNL     1      -8.808   7.547  66.678  1.00  0.00    -0.162 A  
HETATM   15  C   UNL     1     -10.870   7.635  73.159  1.00  0.00    -0.382 C  
HETATM   16  C   UNL     1      -8.691   7.595  68.069  1.00  0.00    -0.125 A  
HETATM   17  N   UNL     1      -9.765   8.352  72.524  1.00  0.00    -0.293 NA 
HETATM   18  H   UNL     1      -9.723   9.315  72.860  1.00  0.00     0.000 HD 
ENDBRANCH   2   3
TORSDOF 1
ENDMDL
MODEL      137
REMARK 921   NORMALIZED FREE ENERGY PREDICTED BY IDOCK:   -3.19 KCAL/MOL
REMARK 922        TOTAL FREE ENERGY PREDICTED BY IDOCK:   -3.36 KCAL/MOL
REMARK 923 INTER-LIGAND FREE ENERGY PREDICTED BY IDOCK:   -3.30 KCAL/MOL
REMARK 924 INTRA-LIGAND FREE ENERGY PREDICTED BY IDOCK:   -0.06 KCAL/MOL
REMARK 927      BINDING AFFINITY PREDICTED BY RF-SCORE:    0.00 PKD
ROOT
HETATM    1  C   UNL     1     -11.203  19.507  66.986  1.00  0.00     0.041 C  
HETATM    2  O   UNL     1      -9.988  18.776  66.810  1.00  0.00    -0.318 OA 
ENDROOT
BRANCH   2   3
HETATM    3  C   UNL     1      -9.049  19.011  67.774  1.00  0.00    -0.292 C  
HETATM    4  C   UNL     1      -7.657  18.665  67.249  1.00  0.00    -0.233 C  
HETATM    5  O   UNL     1      -9.297  19.454  68.888  1.00  0.00    -0.381 OA 
HETATM    6  C   UNL     1      -6.714  19.904  67.396  1.00  0.00    -0.213 C  
HETATM    7  C   UNL     1      -7.130  17.399  67.920  1.00  0.00    -0.178 A  
HETATM    8  C   UNL     1      -5.260  19.630  66.951  1.00  0.00    -0.160 C  
HETATM    9  C   UNL     1      -6.744  16.302  67.131  1.00  0.00    -0.237 A  
HETATM   10  C   UNL     1      -5.132  19.488  65.437  1.00  0.00    -0.178 C  
HETATM   11  C   UNL     1      -6.250  15.136  67.718  1.00  0.00    -0.172 A  
HETATM   12  C   UNL     1      -6.141  15.045  69.104  1.00  0.00    -0.103 A  
HETATM   13  C   UNL     1      -5.703  20.720  64.745  1.00  0.00    -0.278 C  
HETATM   14  C   UNL     1      -6.520  16.122  69.901  1.00  0.00    -0.103 A  
HETATM   15  C   UNL     1      -7.115  21.036  65.236  1.00  0.00     0.337 C  
HETATM   16  C   UNL     1      -7.005  17.294  69.315  1.00  0.00    -0.178 A  
HETATM   17  N   UNL     1      -7.178  21.125  66.694  1.00  0.00    -0.657 NA 
HETATM   18  H   UNL     1      -6.666  21.943  67.025  1.00  0.00     0.000 HD 
ENDBRANCH   2   3
TORSDOF 1
ENDMDL
MODEL      138
REMARK 921   NORMALIZED FREE ENERGY PREDICTED BY IDOCK:   -3.18 KCAL/MOL
REMARK 922        TOTAL FREE ENERGY PREDICTED BY IDOCK:   -3.35 KCAL/MOL
REMARK 923 INTER-LIGAND FREE ENERGY PREDICTED BY IDOCK:   -3.23 KCAL/MOL
REMARK 924 INTRA-LIGAND FREE ENERGY PREDICTED BY IDOCK:   -0.12 KCAL/MOL
REMARK 927      BINDING AFFINITY PREDICTED BY RF-SCORE:    0.00 PKD
ROOT
HETATM    1  C   UNL     1     -10.761   6.274  66.813  1.00  0.00    -0.293 C  
HETATM    2  O   UNL     1     -11.024   7.661  67.031  1.00  0.00    -0.277 OA 
ENDROOT
BRANCH   2   3
HETATM    3  C   UNL     1     -10.019   8.491  66.622  1.00  0.00    -0.293 C  
HETATM    4  C   UNL     1      -9.546   9.359  67.787  1.00  0.00    -0.158 C  
HETATM    5  O   UNL     1      -9.560   8.515  65.488  1.00  0.00    -0.024 OA 
HETATM    6  C   UNL     1      -8.006   9.180  67.987  1.00  0.00    -0.101 C  
HETATM    7  C   UNL     1      -9.985  10.808  67.590  1.00  0.00    -0.199 A  
HETATM    8  C   UNL     1      -7.420  10.072  69.104  1.00  0.00    -0.092 C  
HETATM    9  C   UNL     1     -10.760  11.441  68.576  1.00  0.00    -0.235 A  
HETATM   10  C   UNL     1      -7.835   9.605  70.497  1.00  0.00    -0.150 C  
HETATM   11  C   UNL     1     -11.166  12.768  68.425  1.00  0.00    -0.313 A  
HETATM   12  C   UNL     1     -10.810  13.481  67.283  1.00  0.00    -0.285 A  
HETATM   13  C   UNL     1      -7.454   8.143  70.695  1.00  0.00    -0.064 C  
HETATM   14  C   UNL     1     -10.043  12.869  66.295  1.00  0.00    -0.281 A  
HETATM   15  C   UNL     1      -7.971   7.269  69.554  1.00  0.00    -0.127 C  
HETATM   16  C   UNL     1      -9.626  11.544  66.448  1.00  0.00    -0.230 A  
HETATM   17  N   UNL     1      -7.570   7.788  68.246  1.00  0.00    -0.107 NA 
HETATM   18  H   UNL     1      -6.561   7.700  68.121  1.00  0.00     0.000 HD 
ENDBRANCH   2   3
TORSDOF 1
ENDMDL
MODEL      139
REMARK 921   NORMALIZED FREE ENERGY PREDICTED BY IDOCK:   -3.17 KCAL/MOL
REMARK 922        TOTAL FREE ENERGY PREDICTED BY IDOCK:   -3.35 KCAL/MOL
REMARK 923 INTER-LIGAND FREE ENERGY PREDICTED BY IDOCK:   -3.34 KCAL/MOL
REMARK 924 INTRA-LIGAND FREE ENERGY PREDICTED BY IDOCK:   -0.01 KCAL/MOL
REMARK 927      BINDING AFFINITY PREDICTED BY RF-SCORE:    0.00 PKD
ROOT
HETATM    1  C   UNL     1      -7.945   9.674  70.260  1.00  0.00    -0.179 C  
HETATM    2  O   UNL     1      -8.639   9.323  71.458  1.00  0.00    -0.320 OA 
ENDROOT
BRANCH   2   3
HETATM    3  C   UNL     1      -9.748   8.551  71.256  1.00  0.00    -0.208 C  
HETATM    4  C   UNL     1      -9.344   7.095  71.035  1.00  0.00    -0.158 C  
HETATM    5  O   UNL     1     -10.897   8.974  71.271  1.00  0.00    -0.261 OA 
HETATM    6  C   UNL     1     -10.082   6.179  72.065  1.00  0.00    -0.181 C  
HETATM    7  C   UNL     1      -9.559   6.693  69.578  1.00  0.00    -0.150 A  
HETATM    8  C   UNL     1      -9.787   4.674  71.878  1.00  0.00    -0.241 C  
HETATM    9  C   UNL     1      -8.482   6.192  68.827  1.00  0.00    -0.118 A  
HETATM   10  C   UNL     1      -8.367   4.304  72.298  1.00  0.00    -0.104 C  
HETATM   11  C   UNL     1      -8.655   5.808  67.497  1.00  0.00    -0.105 A  
HETATM   12  C   UNL     1      -9.904   5.926  66.893  1.00  0.00    -0.182 A  
HETATM   13  C   UNL     1      -8.113   4.746  73.734  1.00  0.00    -0.106 C  
HETATM   14  C   UNL     1     -10.982   6.421  67.621  1.00  0.00    -0.441 A  
HETATM   15  C   UNL     1      -8.472   6.216  73.940  1.00  0.00    -0.119 C  
HETATM   16  C   UNL     1     -10.815   6.796  68.957  1.00  0.00    -0.290 A  
HETATM   17  N   UNL     1      -9.830   6.514  73.487  1.00  0.00    -0.176 NA 
HETATM   18  H   UNL     1     -10.516   6.057  74.089  1.00  0.00     0.000 HD 
ENDBRANCH   2   3
TORSDOF 1
ENDMDL
MODEL      140
REMARK 921   NORMALIZED FREE ENERGY PREDICTED BY IDOCK:   -3.14 KCAL/MOL
REMARK 922        TOTAL FREE ENERGY PREDICTED BY IDOCK:   -3.31 KCAL/MOL
REMARK 923 INTER-LIGAND FREE ENERGY PREDICTED BY IDOCK:   -3.35 KCAL/MOL
REMARK 924 INTRA-LIGAND FREE ENERGY PREDICTED BY IDOCK:    0.03 KCAL/MOL
REMARK 927      BINDING AFFINITY PREDICTED BY RF-SCORE:    0.00 PKD
ROOT
HETATM    1  C   UNL     1     -10.006   9.054  66.349  1.00  0.00    -0.300 C  
HETATM    2  O   UNL     1     -10.761   8.540  67.447  1.00  0.00    -0.264 OA 
ENDROOT
BRANCH   2   3
HETATM    3  C   UNL     1     -10.568   9.211  68.621  1.00  0.00    -0.174 C  
HETATM    4  C   UNL     1      -9.472   8.534  69.442  1.00  0.00    -0.161 C  
HETATM    5  O   UNL     1     -11.179  10.220  68.949  1.00  0.00    -0.236 OA 
HETATM    6  C   UNL     1      -8.354   9.571  69.788  1.00  0.00    -0.164 C  
HETATM    7  C   UNL     1     -10.069   7.833  70.659  1.00  0.00    -0.191 A  
HETATM    8  C   UNL     1      -7.230   8.995  70.676  1.00  0.00    -0.093 C  
HETATM    9  C   UNL     1      -9.847   6.459  70.850  1.00  0.00    -0.204 A  
HETATM   10  C   UNL     1      -6.336   8.016  69.919  1.00  0.00    -0.030 C  
HETATM   11  C   UNL     1     -10.373   5.795  71.960  1.00  0.00    -0.254 A  
HETATM   12  C   UNL     1     -11.136   6.493  72.893  1.00  0.00    -0.257 A  
HETATM   13  C   UNL     1      -5.772   8.681  68.669  1.00  0.00    -0.041 C  
HETATM   14  C   UNL     1     -11.368   7.855  72.719  1.00  0.00    -0.453 A  
HETATM   15  C   UNL     1      -6.876   9.314  67.824  1.00  0.00    -0.079 C  
HETATM   16  C   UNL     1     -10.834   8.524  71.615  1.00  0.00    -0.356 A  
HETATM   17  N   UNL     1      -7.717  10.213  68.614  1.00  0.00    -0.088 NA 
HETATM   18  H   UNL     1      -7.189  11.038  68.900  1.00  0.00     0.000 HD 
ENDBRANCH   2   3
TORSDOF 1
ENDMDL
MODEL      141
REMARK 921   NORMALIZED FREE ENERGY PREDICTED BY IDOCK:   -3.14 KCAL/MOL
REMARK 922        TOTAL FREE ENERGY PREDICTED BY IDOCK:   -3.31 KCAL/MOL
REMARK 923 INTER-LIGAND FREE ENERGY PREDICTED BY IDOCK:   -3.19 KCAL/MOL
REMARK 924 INTRA-LIGAND FREE ENERGY PREDICTED BY IDOCK:   -0.12 KCAL/MOL
REMARK 927      BINDING AFFINITY PREDICTED BY RF-SCORE:    0.00 PKD
ROOT
HETATM    1  C   UNL     1      -7.115  17.930  69.074  1.00  0.00    -0.228 C  
HETATM    2  O   UNL     1      -7.558  16.586  69.270  1.00  0.00    -0.233 OA 
ENDROOT
BRANCH   2   3
HETATM    3  C   UNL     1      -7.381  15.775  68.185  1.00  0.00    -0.124 C  
HETATM    4  C   UNL     1      -8.727  15.468  67.531  1.00  0.00    -0.183 C  
HETATM    5  O   UNL     1      -6.293  15.372  67.792  1.00  0.00    -0.138 OA 
HETATM    6  C   UNL     1      -8.684  15.873  66.021  1.00  0.00    -0.188 C  
HETATM    7  C   UNL     1      -9.124  14.015  67.775  1.00  0.00    -0.192 A  
HETATM    8  C   UNL     1      -9.983  15.539  65.254  1.00  0.00    -0.273 C  
HETATM    9  C   UNL     1     -10.349  13.723  68.398  1.00  0.00    -0.247 A  
HETATM   10  C   UNL     1     -11.142  16.451  65.649  1.00  0.00     0.055 C  
HETATM   11  C   UNL     1     -10.741  12.403  68.624  1.00  0.00    -0.260 A  
HETATM   12  C   UNL     1      -9.911  11.353  68.239  1.00  0.00    -0.203 A  
HETATM   13  C   UNL     1     -10.745  17.911  65.464  1.00  0.00     0.020 C  
HETATM   14  C   UNL     1      -8.693  11.623  67.622  1.00  0.00    -0.156 A  
HETATM   15  C   UNL     1      -9.424  18.227  66.161  1.00  0.00    -0.155 C  
HETATM   16  C   UNL     1      -8.303  12.944  67.384  1.00  0.00    -0.190 A  
HETATM   17  N   UNL     1      -8.365  17.298  65.768  1.00  0.00    -0.494 NA 
HETATM   18  H   UNL     1      -8.111  17.439  64.789  1.00  0.00     0.000 HD 
ENDBRANCH   2   3
TORSDOF 1
ENDMDL
MODEL      142
REMARK 921   NORMALIZED FREE ENERGY PREDICTED BY IDOCK:   -3.11 KCAL/MOL
REMARK 922        TOTAL FREE ENERGY PREDICTED BY IDOCK:   -3.28 KCAL/MOL
REMARK 923 INTER-LIGAND FREE ENERGY PREDICTED BY IDOCK:   -3.24 KCAL/MOL
REMARK 924 INTRA-LIGAND FREE ENERGY PREDICTED BY IDOCK:   -0.05 KCAL/MOL
REMARK 927      BINDING AFFINITY PREDICTED BY RF-SCORE:    0.00 PKD
ROOT
HETATM    1  C   UNL     1      -7.887   6.702  72.796  1.00  0.00    -0.100 C  
HETATM    2  O   UNL     1      -8.036   6.951  71.398  1.00  0.00    -0.107 OA 
ENDROOT
BRANCH   2   3
HETATM    3  C   UNL     1      -8.529   8.190  71.100  1.00  0.00    -0.128 C  
HETATM    4  C   UNL     1      -8.561   8.395  69.587  1.00  0.00    -0.132 C  
HETATM    5  O   UNL     1      -8.906   9.003  71.934  1.00  0.00    -0.360 OA 
HETATM    6  C   UNL     1     -10.009   8.773  69.135  1.00  0.00    -0.191 C  
HETATM    7  C   UNL     1      -7.493   9.398  69.159  1.00  0.00    -0.073 A  
HETATM    8  C   UNL     1     -10.129   9.067  67.623  1.00  0.00    -0.271 C  
HETATM    9  C   UNL     1      -6.527   9.025  68.209  1.00  0.00    -0.055 A  
HETATM   10  C   UNL     1     -10.002   7.804  66.774  1.00  0.00    -0.331 C  
HETATM   11  C   UNL     1      -5.546   9.926  67.792  1.00  0.00    -0.039 A  
HETATM   12  C   UNL     1      -5.510  11.213  68.325  1.00  0.00    -0.039 A  
HETATM   13  C   UNL     1     -11.025   6.767  67.223  1.00  0.00    -0.433 C  
HETATM   14  C   UNL     1      -6.458  11.599  69.268  1.00  0.00    -0.105 A  
HETATM   15  C   UNL     1     -10.958   6.527  68.730  1.00  0.00    -0.305 C  
HETATM   16  C   UNL     1      -7.448  10.703  69.679  1.00  0.00    -0.121 A  
HETATM   17  N   UNL     1     -11.050   7.777  69.484  1.00  0.00    -0.445 NA 
HETATM   18  H   UNL     1     -11.981   8.184  69.390  1.00  0.00     0.000 HD 
ENDBRANCH   2   3
TORSDOF 1
ENDMDL
MODEL      143
REMARK 921   NORMALIZED FREE ENERGY PREDICTED BY IDOCK:   -3.10 KCAL/MOL
REMARK 922        TOTAL FREE ENERGY PREDICTED BY IDOCK:   -3.27 KCAL/MOL
REMARK 923 INTER-LIGAND FREE ENERGY PREDICTED BY IDOCK:   -3.21 KCAL/MOL
REMARK 924 INTRA-LIGAND FREE ENERGY PREDICTED BY IDOCK:   -0.06 KCAL/MOL
REMARK 927      BINDING AFFINITY PREDICTED BY RF-SCORE:    0.00 PKD
ROOT
HETATM    1  C   UNL     1     -12.101   7.182  71.621  1.00  0.00    -0.336 C  
HETATM    2  O   UNL     1     -11.677   7.875  70.446  1.00  0.00    -0.163 OA 
ENDROOT
BRANCH   2   3
HETATM    3  C   UNL     1     -10.325   7.880  70.257  1.00  0.00    -0.212 C  
HETATM    4  C   UNL     1     -10.001   7.856  68.764  1.00  0.00    -0.194 C  
HETATM    5  O   UNL     1      -9.500   7.919  71.161  1.00  0.00    -0.156 OA 
HETATM    6  C   UNL     1      -9.082   9.068  68.403  1.00  0.00    -0.133 C  
HETATM    7  C   UNL     1      -9.428   6.499  68.362  1.00  0.00    -0.120 A  
HETATM    8  C   UNL     1      -8.645   9.093  66.921  1.00  0.00    -0.129 C  
HETATM    9  C   UNL     1     -10.051   5.753  67.347  1.00  0.00    -0.207 A  
HETATM   10  C   UNL     1      -9.793   9.453  65.982  1.00  0.00    -0.366 C  
HETATM   11  C   UNL     1      -9.542   4.515  66.953  1.00  0.00    -0.208 A  
HETATM   12  C   UNL     1      -8.406   3.998  67.572  1.00  0.00    -0.098 A  
HETATM   13  C   UNL     1     -10.415  10.780  66.401  1.00  0.00    -0.293 C  
HETATM   14  C   UNL     1      -7.777   4.723  68.580  1.00  0.00    -0.077 A  
HETATM   15  C   UNL     1     -10.783  10.785  67.883  1.00  0.00    -0.239 C  
HETATM   16  C   UNL     1      -8.278   5.968  68.969  1.00  0.00    -0.108 A  
HETATM   17  N   UNL     1      -9.653  10.398  68.726  1.00  0.00    -0.169 NA 
HETATM   18  H   UNL     1      -8.926  11.114  68.700  1.00  0.00     0.000 HD 
ENDBRANCH   2   3
TORSDOF 1
ENDMDL
MODEL      144
REMARK 921   NORMALIZED FREE ENERGY PREDICTED BY IDOCK:   -3.09 KCAL/MOL
REMARK 922        TOTAL FREE ENERGY PREDICTED BY IDOCK:   -3.26 KCAL/MOL
REMARK 923 INTER-LIGAND FREE ENERGY PREDICTED BY IDOCK:   -3.21 KCAL/MOL
REMARK 924 INTRA-LIGAND FREE ENERGY PREDICTED BY IDOCK:   -0.05 KCAL/MOL
REMARK 927      BINDING AFFINITY PREDICTED BY RF-SCORE:    0.00 PKD
ROOT
HETATM    1  C   UNL     1     -12.828  10.267  70.922  1.00  0.00    -0.374 C  
HETATM    2  O   UNL     1     -11.584   9.571  70.835  1.00  0.00    -0.282 OA 
ENDROOT
BRANCH   2   3
HETATM    3  C   UNL     1     -10.808   9.943  69.774  1.00  0.00    -0.269 C  
HETATM    4  C   UNL     1      -9.647   8.965  69.602  1.00  0.00    -0.170 C  
HETATM    5  O   UNL     1     -11.031  10.912  69.060  1.00  0.00    -0.201 OA 
HETATM    6  C   UNL     1      -9.656   8.385  68.150  1.00  0.00    -0.143 C  
HETATM    7  C   UNL     1      -8.328   9.623  70.001  1.00  0.00    -0.197 A  
HETATM    8  C   UNL     1      -8.475   7.433  67.857  1.00  0.00    -0.122 C  
HETATM    9  C   UNL     1      -7.530   9.034  70.997  1.00  0.00    -0.132 A  
HETATM   10  C   UNL     1      -8.612   6.097  68.583  1.00  0.00    -0.113 C  
HETATM   11  C   UNL     1      -6.315   9.608  71.374  1.00  0.00     0.072 A  
HETATM   12  C   UNL     1      -5.882  10.785  70.768  1.00  0.00    -0.081 A  
HETATM   13  C   UNL     1      -9.948   5.449  68.239  1.00  0.00    -0.212 C  
HETATM   14  C   UNL     1      -6.661  11.383  69.781  1.00  0.00    -0.111 A  
HETATM   15  C   UNL     1     -11.112   6.413  68.460  1.00  0.00    -0.300 C  
HETATM   16  C   UNL     1      -7.872  10.805  69.393  1.00  0.00    -0.093 A  
HETATM   17  N   UNL     1     -10.905   7.684  67.768  1.00  0.00    -0.487 NA 
HETATM   18  H   UNL     1     -10.946   7.552  66.757  1.00  0.00     0.000 HD 
ENDBRANCH   2   3
TORSDOF 1
ENDMDL
MODEL      145
REMARK 921   NORMALIZED FREE ENERGY PREDICTED BY IDOCK:   -3.09 KCAL/MOL
REMARK 922        TOTAL FREE ENERGY PREDICTED BY IDOCK:   -3.26 KCAL/MOL
REMARK 923 INTER-LIGAND FREE ENERGY PREDICTED BY IDOCK:   -3.21 KCAL/MOL
REMARK 924 INTRA-LIGAND FREE ENERGY PREDICTED BY IDOCK:   -0.05 KCAL/MOL
REMARK 927      BINDING AFFINITY PREDICTED BY RF-SCORE:    0.00 PKD
ROOT
HETATM    1  C   UNL     1     -11.749   6.641  71.643  1.00  0.00    -0.316 C  
HETATM    2  O   UNL     1     -10.676   6.673  70.701  1.00  0.00    -0.223 OA 
ENDROOT
BRANCH   2   3
HETATM    3  C   UNL     1     -10.691   7.759  69.871  1.00  0.00    -0.245 C  
HETATM    4  C   UNL     1      -9.600   7.627  68.810  1.00  0.00    -0.153 C  
HETATM    5  O   UNL     1     -11.483   8.688  69.964  1.00  0.00    -0.107 OA 
HETATM    6  C   UNL     1     -10.233   7.743  67.385  1.00  0.00    -0.251 C  
HETATM    7  C   UNL     1      -8.472   8.621  69.074  1.00  0.00    -0.124 A  
HETATM    8  C   UNL     1      -9.196   7.688  66.242  1.00  0.00    -0.204 C  
HETATM    9  C   UNL     1      -7.156   8.156  69.231  1.00  0.00    -0.060 A  
HETATM   10  C   UNL     1      -8.605   6.292  66.060  1.00  0.00    -0.146 C  
HETATM   11  C   UNL     1      -6.105   9.044  69.463  1.00  0.00    -0.036 A  
HETATM   12  C   UNL     1      -6.354  10.412  69.549  1.00  0.00    -0.059 A  
HETATM   13  C   UNL     1      -9.719   5.275  65.850  1.00  0.00    -0.125 C  
HETATM   14  C   UNL     1      -7.652  10.891  69.397  1.00  0.00    -0.097 A  
HETATM   15  C   UNL     1     -10.784   5.375  66.940  1.00  0.00    -0.184 C  
HETATM   16  C   UNL     1      -8.705  10.005  69.155  1.00  0.00    -0.168 A  
HETATM   17  N   UNL     1     -11.285   6.741  67.088  1.00  0.00    -0.709 NA 
HETATM   18  H   UNL     1     -11.819   7.018  66.264  1.00  0.00     0.000 HD 
ENDBRANCH   2   3
TORSDOF 1
ENDMDL
MODEL      146
REMARK 921   NORMALIZED FREE ENERGY PREDICTED BY IDOCK:   -3.08 KCAL/MOL
REMARK 922        TOTAL FREE ENERGY PREDICTED BY IDOCK:   -3.25 KCAL/MOL
REMARK 923 INTER-LIGAND FREE ENERGY PREDICTED BY IDOCK:   -3.12 KCAL/MOL
REMARK 924 INTRA-LIGAND FREE ENERGY PREDICTED BY IDOCK:   -0.13 KCAL/MOL
REMARK 927      BINDING AFFINITY PREDICTED BY RF-SCORE:    0.00 PKD
ROOT
HETATM    1  C   UNL     1     -10.921   8.378  71.426  1.00  0.00    -0.253 C  
HETATM    2  O   UNL     1     -11.048   9.224  70.282  1.00  0.00    -0.243 OA 
ENDROOT
BRANCH   2   3
HETATM    3  C   UNL     1     -10.409   8.759  69.168  1.00  0.00    -0.217 C  
HETATM    4  C   UNL     1      -9.299   9.724  68.756  1.00  0.00    -0.150 C  
HETATM    5  O   UNL     1     -10.682   7.709  68.601  1.00  0.00    -0.163 OA 
HETATM    6  C   UNL     1      -7.937   8.960  68.674  1.00  0.00    -0.103 C  
HETATM    7  C   UNL     1      -9.677  10.461  67.473  1.00  0.00    -0.195 A  
HETATM    8  C   UNL     1      -6.761   9.841  68.198  1.00  0.00    -0.061 C  
HETATM    9  C   UNL     1      -9.705  11.866  67.460  1.00  0.00    -0.185 A  
HETATM   10  C   UNL     1      -6.331  10.856  69.254  1.00  0.00    -0.064 C  
HETATM   11  C   UNL     1     -10.038  12.564  66.298  1.00  0.00    -0.264 A  
HETATM   12  C   UNL     1     -10.356  11.870  65.134  1.00  0.00    -0.318 A  
HETATM   13  C   UNL     1      -6.001  10.144  70.560  1.00  0.00    -0.099 C  
HETATM   14  C   UNL     1     -10.335  10.478  65.129  1.00  0.00    -0.310 A  
HETATM   15  C   UNL     1      -7.133   9.217  70.997  1.00  0.00    -0.098 C  
HETATM   16  C   UNL     1      -9.992   9.776  66.288  1.00  0.00    -0.331 A  
HETATM   17  N   UNL     1      -7.522   8.293  69.931  1.00  0.00    -0.064 NA 
HETATM   18  H   UNL     1      -6.775   7.622  69.750  1.00  0.00     0.000 HD 
ENDBRANCH   2   3
TORSDOF 1
ENDMDL
MODEL      147
REMARK 921   NORMALIZED FREE ENERGY PREDICTED BY IDOCK:   -3.04 KCAL/MOL
REMARK 922        TOTAL FREE ENERGY PREDICTED BY IDOCK:   -3.21 KCAL/MOL
REMARK 923 INTER-LIGAND FREE ENERGY PREDICTED BY IDOCK:   -3.31 KCAL/MOL
REMARK 924 INTRA-LIGAND FREE ENERGY PREDICTED BY IDOCK:    0.11 KCAL/MOL
REMARK 927      BINDING AFFINITY PREDICTED BY RF-SCORE:    0.00 PKD
ROOT
HETATM    1  C   UNL     1      -6.610   7.042  66.721  1.00  0.00    -0.055 C  
HETATM    2  O   UNL     1      -6.472   7.900  67.856  1.00  0.00    -0.049 OA 
ENDROOT
BRANCH   2   3
HETATM    3  C   UNL     1      -7.640   8.133  68.525  1.00  0.00    -0.104 C  
HETATM    4  C   UNL     1      -8.835   7.792  67.637  1.00  0.00    -0.128 C  
HETATM    5  O   UNL     1      -7.706   8.539  69.679  1.00  0.00    -0.089 OA 
HETATM    6  C   UNL     1      -9.754   6.756  68.362  1.00  0.00    -0.128 C  
HETATM    7  C   UNL     1      -9.556   9.064  67.197  1.00  0.00    -0.218 A  
HETATM    8  C   UNL     1     -11.029   6.397  67.567  1.00  0.00    -0.454 C  
HETATM    9  C   UNL     1      -9.727   9.329  65.827  1.00  0.00    -0.339 A  
HETATM   10  C   UNL     1     -10.727   5.539  66.341  1.00  0.00    -0.262 C  
HETATM   11  C   UNL     1     -10.391  10.478  65.398  1.00  0.00    -0.292 A  
HETATM   12  C   UNL     1     -10.889  11.386  66.330  1.00  0.00    -0.323 A  
HETATM   13  C   UNL     1      -9.958   4.290  66.753  1.00  0.00    -0.191 C  
HETATM   14  C   UNL     1     -10.727  11.140  67.691  1.00  0.00    -0.273 A  
HETATM   15  C   UNL     1      -8.736   4.637  67.600  1.00  0.00    -0.104 C  
HETATM   16  C   UNL     1     -10.072   9.984  68.124  1.00  0.00    -0.186 A  
HETATM   17  N   UNL     1      -9.085   5.487  68.737  1.00  0.00    -0.116 NA 
HETATM   18  H   UNL     1      -9.652   4.970  69.410  1.00  0.00     0.000 HD 
ENDBRANCH   2   3
TORSDOF 1
ENDMDL
MODEL      148
REMARK 921   NORMALIZED FREE ENERGY PREDICTED BY IDOCK:   -3.04 KCAL/MOL
REMARK 922        TOTAL FREE ENERGY PREDICTED BY IDOCK:   -3.20 KCAL/MOL
REMARK 923 INTER-LIGAND FREE ENERGY PREDICTED BY IDOCK:   -3.15 KCAL/MOL
REMARK 924 INTRA-LIGAND FREE ENERGY PREDICTED BY IDOCK:   -0.05 KCAL/MOL
REMARK 927      BINDING AFFINITY PREDICTED BY RF-SCORE:    0.00 PKD
ROOT
HETATM    1  C   UNL     1     -10.029   5.385  66.140  1.00  0.00    -0.132 C  
HETATM    2  O   UNL     1      -9.580   6.642  66.651  1.00  0.00    -0.163 OA 
ENDROOT
BRANCH   2   3
HETATM    3  C   UNL     1      -8.752   7.325  65.805  1.00  0.00    -0.109 C  
HETATM    4  C   UNL     1      -8.578   8.764  66.287  1.00  0.00    -0.144 C  
HETATM    5  O   UNL     1      -8.218   6.838  64.817  1.00  0.00    -0.121 OA 
HETATM    6  C   UNL     1      -7.058   9.079  66.472  1.00  0.00    -0.081 C  
HETATM    7  C   UNL     1      -9.307   9.733  65.359  1.00  0.00    -0.311 A  
HETATM    8  C   UNL     1      -6.776  10.538  66.895  1.00  0.00    -0.086 C  
HETATM    9  C   UNL     1     -10.281  10.600  65.883  1.00  0.00    -0.314 A  
HETATM   10  C   UNL     1      -7.191  10.814  68.338  1.00  0.00    -0.085 C  
HETATM   11  C   UNL     1     -10.954  11.502  65.059  1.00  0.00    -0.305 A  
HETATM   12  C   UNL     1     -10.671  11.547  63.696  1.00  0.00    -0.491 A  
HETATM   13  C   UNL     1      -6.515   9.822  69.277  1.00  0.00    -0.048 C  
HETATM   14  C   UNL     1      -9.710  10.694  63.159  1.00  0.00    -0.375 A  
HETATM   15  C   UNL     1      -6.733   8.380  68.820  1.00  0.00    -0.058 C  
HETATM   16  C   UNL     1      -9.027   9.797  63.984  1.00  0.00    -0.275 A  
HETATM   17  N   UNL     1      -6.349   8.189  67.422  1.00  0.00    -0.055 NA 
HETATM   18  H   UNL     1      -5.339   8.281  67.312  1.00  0.00     0.000 HD 
ENDBRANCH   2   3
TORSDOF 1
ENDMDL
MODEL      149
REMARK 921   NORMALIZED FREE ENERGY PREDICTED BY IDOCK:   -2.97 KCAL/MOL
REMARK 922        TOTAL FREE ENERGY PREDICTED BY IDOCK:   -3.13 KCAL/MOL
REMARK 923 INTER-LIGAND FREE ENERGY PREDICTED BY IDOCK:   -3.04 KCAL/MOL
REMARK 924 INTRA-LIGAND FREE ENERGY PREDICTED BY IDOCK:   -0.09 KCAL/MOL
REMARK 927      BINDING AFFINITY PREDICTED BY RF-SCORE:    0.00 PKD
ROOT
HETATM    1  C   UNL     1     -11.473   8.930  71.924  1.00  0.00    -0.372 C  
HETATM    2  O   UNL     1     -10.533   9.278  70.906  1.00  0.00    -0.252 OA 
ENDROOT
BRANCH   2   3
HETATM    3  C   UNL     1      -9.286   8.752  71.092  1.00  0.00    -0.237 C  
HETATM    4  C   UNL     1      -9.092   7.526  70.201  1.00  0.00    -0.147 C  
HETATM    5  O   UNL     1      -8.446   9.216  71.853  1.00  0.00    -0.334 OA 
HETATM    6  C   UNL     1      -7.822   7.717  69.310  1.00  0.00    -0.121 C  
HETATM    7  C   UNL     1      -9.079   6.250  71.040  1.00  0.00    -0.156 A  
HETATM    8  C   UNL     1      -7.504   6.496  68.418  1.00  0.00    -0.088 C  
HETATM    9  C   UNL     1      -9.996   5.223  70.760  1.00  0.00    -0.279 A  
HETATM   10  C   UNL     1      -8.502   6.337  67.274  1.00  0.00    -0.108 C  
HETATM   11  C   UNL     1      -9.999   4.043  71.504  1.00  0.00    -0.220 A  
HETATM   12  C   UNL     1      -9.090   3.873  72.545  1.00  0.00    -0.137 A  
HETATM   13  C   UNL     1      -8.570   7.621  66.456  1.00  0.00    -0.142 C  
HETATM   14  C   UNL     1      -8.175   4.880  72.838  1.00  0.00    -0.101 A  
HETATM   15  C   UNL     1      -8.813   8.839  67.344  1.00  0.00    -0.133 C  
HETATM   16  C   UNL     1      -8.163   6.059  72.088  1.00  0.00    -0.111 A  
HETATM   17  N   UNL     1      -7.848   8.916  68.439  1.00  0.00    -0.102 NA 
HETATM   18  H   UNL     1      -6.914   9.117  68.079  1.00  0.00     0.000 HD 
ENDBRANCH   2   3
TORSDOF 1
ENDMDL
MODEL      150
REMARK 921   NORMALIZED FREE ENERGY PREDICTED BY IDOCK:   -2.96 KCAL/MOL
REMARK 922        TOTAL FREE ENERGY PREDICTED BY IDOCK:   -3.12 KCAL/MOL
REMARK 923 INTER-LIGAND FREE ENERGY PREDICTED BY IDOCK:   -3.11 KCAL/MOL
REMARK 924 INTRA-LIGAND FREE ENERGY PREDICTED BY IDOCK:   -0.01 KCAL/MOL
REMARK 927      BINDING AFFINITY PREDICTED BY RF-SCORE:    0.00 PKD
ROOT
HETATM    1  C   UNL     1      -7.632  10.426  69.052  1.00  0.00    -0.108 C  
HETATM    2  O   UNL     1      -7.749  10.045  67.680  1.00  0.00    -0.091 OA 
ENDROOT
BRANCH   2   3
HETATM    3  C   UNL     1      -8.540   8.951  67.469  1.00  0.00    -0.120 C  
HETATM    4  C   UNL     1      -8.966   8.343  68.804  1.00  0.00    -0.140 C  
HETATM    5  O   UNL     1      -8.869   8.539  66.364  1.00  0.00    -0.133 OA 
HETATM    6  C   UNL     1     -10.525   8.253  68.870  1.00  0.00    -0.191 C  
HETATM    7  C   UNL     1      -8.255   7.012  69.038  1.00  0.00    -0.125 A  
HETATM    8  C   UNL     1     -11.052   7.587  70.160  1.00  0.00    -0.246 C  
HETATM    9  C   UNL     1      -7.483   6.830  70.198  1.00  0.00    -0.094 A  
HETATM   10  C   UNL     1     -10.874   8.476  71.388  1.00  0.00    -0.327 C  
HETATM   11  C   UNL     1      -6.831   5.620  70.441  1.00  0.00    -0.049 A  
HETATM   12  C   UNL     1      -6.933   4.576  69.526  1.00  0.00    -0.050 A  
HETATM   13  C   UNL     1     -11.530   9.831  71.153  1.00  0.00    -0.472 C  
HETATM   14  C   UNL     1      -7.692   4.739  68.370  1.00  0.00    -0.081 A  
HETATM   15  C   UNL     1     -11.065  10.460  69.841  1.00  0.00    -0.305 C  
HETATM   16  C   UNL     1      -8.355   5.946  68.129  1.00  0.00    -0.115 A  
HETATM   17  N   UNL     1     -11.230   9.547  68.711  1.00  0.00    -0.466 NA 
HETATM   18  H   UNL     1     -12.220   9.394  68.516  1.00  0.00     0.000 HD 
ENDBRANCH   2   3
TORSDOF 1
ENDMDL
MODEL      151
REMARK 921   NORMALIZED FREE ENERGY PREDICTED BY IDOCK:   -2.95 KCAL/MOL
REMARK 922        TOTAL FREE ENERGY PREDICTED BY IDOCK:   -3.11 KCAL/MOL
REMARK 923 INTER-LIGAND FREE ENERGY PREDICTED BY IDOCK:   -3.10 KCAL/MOL
REMARK 924 INTRA-LIGAND FREE ENERGY PREDICTED BY IDOCK:   -0.01 KCAL/MOL
REMARK 927      BINDING AFFINITY PREDICTED BY RF-SCORE:    0.00 PKD
ROOT
HETATM    1  C   UNL     1      -6.476  10.156  66.754  1.00  0.00    -0.071 C  
HETATM    2  O   UNL     1      -6.422   8.790  66.338  1.00  0.00    -0.060 OA 
ENDROOT
BRANCH   2   3
HETATM    3  C   UNL     1      -7.572   8.090  66.566  1.00  0.00    -0.092 C  
HETATM    4  C   UNL     1      -8.566   8.948  67.347  1.00  0.00    -0.119 C  
HETATM    5  O   UNL     1      -7.773   6.946  66.178  1.00  0.00    -0.086 OA 
HETATM    6  C   UNL     1      -9.918   9.033  66.566  1.00  0.00    -0.285 C  
HETATM    7  C   UNL     1      -8.705   8.438  68.779  1.00  0.00    -0.136 A  
HETATM    8  C   UNL     1     -11.013   9.828  67.311  1.00  0.00    -0.142 C  
HETATM    9  C   UNL     1      -8.450   9.305  69.855  1.00  0.00    -0.170 A  
HETATM   10  C   UNL     1     -10.727  11.328  67.335  1.00  0.00    -0.285 C  
HETATM   11  C   UNL     1      -8.579   8.867  71.174  1.00  0.00    -0.263 A  
HETATM   12  C   UNL     1      -8.958   7.554  71.439  1.00  0.00    -0.140 A  
HETATM   13  C   UNL     1     -10.530  11.847  65.916  1.00  0.00    -0.296 C  
HETATM   14  C   UNL     1      -9.214   6.680  70.385  1.00  0.00    -0.156 A  
HETATM   15  C   UNL     1      -9.499  11.017  65.153  1.00  0.00    -0.228 C  
HETATM   16  C   UNL     1      -9.095   7.118  69.063  1.00  0.00    -0.132 A  
HETATM   17  N   UNL     1      -9.810   9.589  65.196  1.00  0.00    -0.437 NA 
HETATM   18  H   UNL     1     -10.658   9.391  64.662  1.00  0.00     0.000 HD 
ENDBRANCH   2   3
TORSDOF 1
ENDMDL
MODEL      152
REMARK 921   NORMALIZED FREE ENERGY PREDICTED BY IDOCK:   -2.93 KCAL/MOL
REMARK 922        TOTAL FREE ENERGY PREDICTED BY IDOCK:   -3.09 KCAL/MOL
REMARK 923 INTER-LIGAND FREE ENERGY PREDICTED BY IDOCK:   -3.01 KCAL/MOL
REMARK 924 INTRA-LIGAND FREE ENERGY PREDICTED BY IDOCK:   -0.08 KCAL/MOL
REMARK 927      BINDING AFFINITY PREDICTED BY RF-SCORE:    0.00 PKD
ROOT
HETATM    1  C   UNL     1      -5.957  17.244  66.440  1.00  0.00    -0.193 C  
HETATM    2  O   UNL     1      -5.691  15.949  66.983  1.00  0.00    -0.332 OA 
ENDROOT
BRANCH   2   3
HETATM    3  C   UNL     1      -6.509  15.599  68.019  1.00  0.00    -0.138 C  
HETATM    4  C   UNL     1      -7.343  14.375  67.643  1.00  0.00    -0.197 C  
HETATM    5  O   UNL     1      -6.546  16.178  69.098  1.00  0.00    -0.152 OA 
HETATM    6  C   UNL     1      -7.128  13.244  68.700  1.00  0.00    -0.103 C  
HETATM    7  C   UNL     1      -8.804  14.765  67.435  1.00  0.00    -0.203 A  
HETATM    8  C   UNL     1      -7.984  11.985  68.440  1.00  0.00    -0.152 C  
HETATM    9  C   UNL     1      -9.433  14.483  66.211  1.00  0.00    -0.310 A  
HETATM   10  C   UNL     1      -7.498  11.191  67.230  1.00  0.00    -0.118 C  
HETATM   11  C   UNL     1     -10.771  14.820  65.999  1.00  0.00    -0.314 A  
HETATM   12  C   UNL     1     -11.499  15.450  67.004  1.00  0.00    -0.103 A  
HETATM   13  C   UNL     1      -6.024  10.839  67.393  1.00  0.00    -0.049 C  
HETATM   14  C   UNL     1     -10.892  15.739  68.224  1.00  0.00    -0.305 A  
HETATM   15  C   UNL     1      -5.185  12.072  67.720  1.00  0.00    -0.068 C  
HETATM   16  C   UNL     1      -9.555  15.394  68.443  1.00  0.00    -0.200 A  
HETATM   17  N   UNL     1      -5.721  12.806  68.866  1.00  0.00    -0.070 NA 
HETATM   18  H   UNL     1      -5.615  12.261  69.722  1.00  0.00     0.000 HD 
ENDBRANCH   2   3
TORSDOF 1
ENDMDL
MODEL      153
REMARK 921   NORMALIZED FREE ENERGY PREDICTED BY IDOCK:   -2.93 KCAL/MOL
REMARK 922        TOTAL FREE ENERGY PREDICTED BY IDOCK:   -3.09 KCAL/MOL
REMARK 923 INTER-LIGAND FREE ENERGY PREDICTED BY IDOCK:   -3.03 KCAL/MOL
REMARK 924 INTRA-LIGAND FREE ENERGY PREDICTED BY IDOCK:   -0.06 KCAL/MOL
REMARK 927      BINDING AFFINITY PREDICTED BY RF-SCORE:    0.00 PKD
ROOT
HETATM    1  C   UNL     1      -8.972   9.677  64.724  1.00  0.00    -0.225 C  
HETATM    2  O   UNL     1      -9.504   9.061  65.898  1.00  0.00    -0.231 OA 
ENDROOT
BRANCH   2   3
HETATM    3  C   UNL     1      -8.564   8.735  66.833  1.00  0.00    -0.115 C  
HETATM    4  C   UNL     1      -9.059   7.577  67.697  1.00  0.00    -0.127 C  
HETATM    5  O   UNL     1      -7.476   9.287  66.942  1.00  0.00    -0.090 OA 
HETATM    6  C   UNL     1      -8.023   6.407  67.656  1.00  0.00    -0.114 C  
HETATM    7  C   UNL     1      -9.395   8.062  69.105  1.00  0.00    -0.151 A  
HETATM    8  C   UNL     1      -8.405   5.210  68.556  1.00  0.00    -0.089 C  
HETATM    9  C   UNL     1     -10.683   7.853  69.626  1.00  0.00    -0.218 A  
HETATM   10  C   UNL     1      -9.587   4.420  68.001  1.00  0.00    -0.204 C  
HETATM   11  C   UNL     1     -11.013   8.277  70.913  1.00  0.00    -0.275 A  
HETATM   12  C   UNL     1     -10.063   8.926  71.699  1.00  0.00    -0.411 A  
HETATM   13  C   UNL     1      -9.294   3.972  66.574  1.00  0.00    -0.192 C  
HETATM   14  C   UNL     1      -8.782   9.144  71.199  1.00  0.00    -0.210 A  
HETATM   15  C   UNL     1      -8.846   5.141  65.699  1.00  0.00    -0.146 C  
HETATM   16  C   UNL     1      -8.445   8.710  69.914  1.00  0.00    -0.129 A  
HETATM   17  N   UNL     1      -7.735   5.878  66.301  1.00  0.00    -0.100 NA 
HETATM   18  H   UNL     1      -6.891   5.305  66.313  1.00  0.00     0.000 HD 
ENDBRANCH   2   3
TORSDOF 1
ENDMDL
MODEL      154
REMARK 921   NORMALIZED FREE ENERGY PREDICTED BY IDOCK:   -2.90 KCAL/MOL
REMARK 922        TOTAL FREE ENERGY PREDICTED BY IDOCK:   -3.05 KCAL/MOL
REMARK 923 INTER-LIGAND FREE ENERGY PREDICTED BY IDOCK:   -3.08 KCAL/MOL
REMARK 924 INTRA-LIGAND FREE ENERGY PREDICTED BY IDOCK:    0.02 KCAL/MOL
REMARK 927      BINDING AFFINITY PREDICTED BY RF-SCORE:    0.00 PKD
ROOT
HETATM    1  C   UNL     1      -9.343   6.579  67.996  1.00  0.00    -0.108 C  
HETATM    2  O   UNL     1      -8.297   5.917  68.710  1.00  0.00    -0.105 OA 
ENDROOT
BRANCH   2   3
HETATM    3  C   UNL     1      -7.928   6.542  69.868  1.00  0.00    -0.116 C  
HETATM    4  C   UNL     1      -8.867   7.712  70.158  1.00  0.00    -0.146 C  
HETATM    5  O   UNL     1      -6.990   6.193  70.573  1.00  0.00    -0.059 OA 
HETATM    6  C   UNL     1      -9.490   7.548  71.582  1.00  0.00    -0.149 C  
HETATM    7  C   UNL     1      -8.150   9.042  69.940  1.00  0.00    -0.117 A  
HETATM    8  C   UNL     1     -10.406   8.722  71.995  1.00  0.00    -0.411 C  
HETATM    9  C   UNL     1      -8.679   9.979  69.037  1.00  0.00    -0.158 A  
HETATM   10  C   UNL     1     -11.724   8.728  71.224  1.00  0.00    -0.356 C  
HETATM   11  C   UNL     1      -8.049  11.206  68.827  1.00  0.00    -0.140 A  
HETATM   12  C   UNL     1      -6.875  11.514  69.511  1.00  0.00    -0.075 A  
HETATM   13  C   UNL     1     -12.431   7.388  71.384  1.00  0.00    -0.402 C  
HETATM   14  C   UNL     1      -6.336  10.597  70.409  1.00  0.00    -0.117 A  
HETATM   15  C   UNL     1     -11.505   6.221  71.046  1.00  0.00    -0.306 C  
HETATM   16  C   UNL     1      -6.970   9.371  70.629  1.00  0.00    -0.115 A  
HETATM   17  N   UNL     1     -10.248   6.291  71.789  1.00  0.00    -0.194 NA 
HETATM   18  H   UNL     1     -10.411   6.132  72.784  1.00  0.00     0.000 HD 
ENDBRANCH   2   3
TORSDOF 1
ENDMDL
MODEL      155
REMARK 921   NORMALIZED FREE ENERGY PREDICTED BY IDOCK:   -2.88 KCAL/MOL
REMARK 922        TOTAL FREE ENERGY PREDICTED BY IDOCK:   -3.04 KCAL/MOL
REMARK 923 INTER-LIGAND FREE ENERGY PREDICTED BY IDOCK:   -2.92 KCAL/MOL
REMARK 924 INTRA-LIGAND FREE ENERGY PREDICTED BY IDOCK:   -0.12 KCAL/MOL
REMARK 927      BINDING AFFINITY PREDICTED BY RF-SCORE:    0.00 PKD
ROOT
HETATM    1  C   UNL     1     -10.626   7.820  72.937  1.00  0.00    -0.366 C  
HETATM    2  O   UNL     1     -10.178   8.443  71.732  1.00  0.00    -0.208 OA 
ENDROOT
BRANCH   2   3
HETATM    3  C   UNL     1     -10.505   7.761  70.594  1.00  0.00    -0.213 C  
HETATM    4  C   UNL     1      -9.246   7.448  69.787  1.00  0.00    -0.140 C  
HETATM    5  O   UNL     1     -11.644   7.437  70.286  1.00  0.00    -0.232 OA 
HETATM    6  C   UNL     1      -9.156   5.909  69.526  1.00  0.00    -0.132 C  
HETATM    7  C   UNL     1      -9.195   8.299  68.521  1.00  0.00    -0.136 A  
HETATM    8  C   UNL     1      -7.946   5.500  68.656  1.00  0.00    -0.092 C  
HETATM    9  C   UNL     1      -8.085   9.127  68.282  1.00  0.00    -0.104 A  
HETATM   10  C   UNL     1      -6.622   5.631  69.405  1.00  0.00    -0.054 C  
HETATM   11  C   UNL     1      -8.008   9.907  67.128  1.00  0.00    -0.109 A  
HETATM   12  C   UNL     1      -9.043   9.879  66.197  1.00  0.00    -0.193 A  
HETATM   13  C   UNL     1      -6.672   4.831  70.701  1.00  0.00    -0.036 C  
HETATM   14  C   UNL     1     -10.152   9.066  66.418  1.00  0.00    -0.351 A  
HETATM   15  C   UNL     1      -7.906   5.182  71.530  1.00  0.00    -0.111 C  
HETATM   16  C   UNL     1     -10.227   8.276  67.567  1.00  0.00    -0.309 A  
HETATM   17  N   UNL     1      -9.137   5.071  70.748  1.00  0.00    -0.131 NA 
HETATM   18  H   UNL     1      -9.325   4.095  70.515  1.00  0.00     0.000 HD 
ENDBRANCH   2   3
TORSDOF 1
ENDMDL
MODEL      156
REMARK 921   NORMALIZED FREE ENERGY PREDICTED BY IDOCK:   -2.86 KCAL/MOL
REMARK 922        TOTAL FREE ENERGY PREDICTED BY IDOCK:   -3.02 KCAL/MOL
REMARK 923 INTER-LIGAND FREE ENERGY PREDICTED BY IDOCK:   -2.89 KCAL/MOL
REMARK 924 INTRA-LIGAND FREE ENERGY PREDICTED BY IDOCK:   -0.13 KCAL/MOL
REMARK 927      BINDING AFFINITY PREDICTED BY RF-SCORE:    0.00 PKD
ROOT
HETATM    1  C   UNL     1      -6.567   6.010  70.608  1.00  0.00    -0.048 C  
HETATM    2  O   UNL     1      -7.163   7.113  69.923  1.00  0.00    -0.074 OA 
ENDROOT
BRANCH   2   3
HETATM    3  C   UNL     1      -8.528   7.119  69.954  1.00  0.00    -0.140 C  
HETATM    4  C   UNL     1      -9.089   6.970  68.541  1.00  0.00    -0.131 C  
HETATM    5  O   UNL     1      -9.196   7.212  70.976  1.00  0.00    -0.157 OA 
HETATM    6  C   UNL     1     -10.060   5.746  68.484  1.00  0.00    -0.178 C  
HETATM    7  C   UNL     1      -9.712   8.282  68.070  1.00  0.00    -0.187 A  
HETATM    8  C   UNL     1     -10.732   5.553  67.107  1.00  0.00    -0.265 C  
HETATM    9  C   UNL     1      -9.256   8.883  66.884  1.00  0.00    -0.185 A  
HETATM   10  C   UNL     1      -9.752   5.051  66.048  1.00  0.00    -0.194 C  
HETATM   11  C   UNL     1      -9.815  10.076  66.426  1.00  0.00    -0.283 A  
HETATM   12  C   UNL     1     -10.833  10.693  67.149  1.00  0.00    -0.328 A  
HETATM   13  C   UNL     1      -9.078   3.770  66.524  1.00  0.00    -0.162 C  
HETATM   14  C   UNL     1     -11.296  10.113  68.327  1.00  0.00    -0.183 A  
HETATM   15  C   UNL     1      -8.475   3.936  67.917  1.00  0.00    -0.094 C  
HETATM   16  C   UNL     1     -10.746   8.912  68.783  1.00  0.00    -0.123 A  
HETATM   17  N   UNL     1      -9.453   4.452  68.875  1.00  0.00    -0.154 NA 
HETATM   18  H   UNL     1     -10.178   3.756  69.055  1.00  0.00     0.000 HD 
ENDBRANCH   2   3
TORSDOF 1
ENDMDL
MODEL      157
REMARK 921   NORMALIZED FREE ENERGY PREDICTED BY IDOCK:   -2.84 KCAL/MOL
REMARK 922        TOTAL FREE ENERGY PREDICTED BY IDOCK:   -3.00 KCAL/MOL
REMARK 923 INTER-LIGAND FREE ENERGY PREDICTED BY IDOCK:   -2.95 KCAL/MOL
REMARK 924 INTRA-LIGAND FREE ENERGY PREDICTED BY IDOCK:   -0.05 KCAL/MOL
REMARK 927      BINDING AFFINITY PREDICTED BY RF-SCORE:    0.00 PKD
ROOT
HETATM    1  C   UNL     1      -6.023   7.485  71.988  1.00  0.00    -0.036 C  
HETATM    2  O   UNL     1      -6.595   6.282  71.472  1.00  0.00    -0.052 OA 
ENDROOT
BRANCH   2   3
HETATM    3  C   UNL     1      -7.563   5.737  72.268  1.00  0.00    -0.101 C  
HETATM    4  C   UNL     1      -8.530   4.906  71.427  1.00  0.00    -0.120 C  
HETATM    5  O   UNL     1      -7.624   5.885  73.482  1.00  0.00    -0.096 OA 
HETATM    6  C   UNL     1      -8.605   3.450  71.993  1.00  0.00    -0.082 C  
HETATM    7  C   UNL     1      -9.883   5.603  71.319  1.00  0.00    -0.225 A  
HETATM    8  C   UNL     1      -9.613   2.548  71.247  1.00  0.00    -0.224 C  
HETATM    9  C   UNL     1     -10.415   5.901  70.053  1.00  0.00    -0.334 A  
HETATM   10  C   UNL     1      -9.129   2.169  69.849  1.00  0.00    -0.169 C  
HETATM   11  C   UNL     1     -11.655   6.529  69.927  1.00  0.00    -0.433 A  
HETATM   12  C   UNL     1     -12.380   6.877  71.064  1.00  0.00    -0.401 A  
HETATM   13  C   UNL     1      -7.753   1.520  69.930  1.00  0.00    -0.043 C  
HETATM   14  C   UNL     1     -11.868   6.590  72.326  1.00  0.00    -0.299 A  
HETATM   15  C   UNL     1      -6.773   2.377  70.729  1.00  0.00    -0.032 C  
HETATM   16  C   UNL     1     -10.632   5.952  72.456  1.00  0.00    -0.256 A  
HETATM   17  N   UNL     1      -7.309   2.734  72.042  1.00  0.00    -0.042 NA 
HETATM   18  H   UNL     1      -7.379   1.907  72.636  1.00  0.00     0.000 HD 
ENDBRANCH   2   3
TORSDOF 1
ENDMDL
MODEL      158
REMARK 921   NORMALIZED FREE ENERGY PREDICTED BY IDOCK:   -2.81 KCAL/MOL
REMARK 922        TOTAL FREE ENERGY PREDICTED BY IDOCK:   -2.96 KCAL/MOL
REMARK 923 INTER-LIGAND FREE ENERGY PREDICTED BY IDOCK:   -2.92 KCAL/MOL
REMARK 924 INTRA-LIGAND FREE ENERGY PREDICTED BY IDOCK:   -0.04 KCAL/MOL
REMARK 927      BINDING AFFINITY PREDICTED BY RF-SCORE:    0.00 PKD
ROOT
HETATM    1  C   UNL     1      -9.781   4.477  66.794  1.00  0.00    -0.206 C  
HETATM    2  O   UNL     1      -9.877   4.860  68.167  1.00  0.00    -0.152 OA 
ENDROOT
BRANCH   2   3
HETATM    3  C   UNL     1     -10.347   6.128  68.362  1.00  0.00    -0.200 C  
HETATM    4  C   UNL     1      -9.185   7.089  68.608  1.00  0.00    -0.131 C  
HETATM    5  O   UNL     1     -11.530   6.441  68.324  1.00  0.00    -0.186 OA 
HETATM    6  C   UNL     1      -9.244   8.264  67.579  1.00  0.00    -0.137 C  
HETATM    7  C   UNL     1      -9.160   7.539  70.066  1.00  0.00    -0.148 A  
HETATM    8  C   UNL     1      -8.144   9.328  67.790  1.00  0.00    -0.104 C  
HETATM    9  C   UNL     1      -8.006   7.330  70.840  1.00  0.00    -0.098 A  
HETATM   10  C   UNL     1      -6.760   8.818  67.397  1.00  0.00    -0.066 C  
HETATM   11  C   UNL     1      -7.953   7.740  72.173  1.00  0.00    -0.130 A  
HETATM   12  C   UNL     1      -9.056   8.360  72.756  1.00  0.00    -0.299 A  
HETATM   13  C   UNL     1      -6.777   8.312  65.959  1.00  0.00    -0.057 C  
HETATM   14  C   UNL     1     -10.208   8.573  72.005  1.00  0.00    -0.391 A  
HETATM   15  C   UNL     1      -7.909   7.314  65.728  1.00  0.00    -0.108 C  
HETATM   16  C   UNL     1     -10.261   8.173  70.667  1.00  0.00    -0.211 A  
HETATM   17  N   UNL     1      -9.202   7.848  66.156  1.00  0.00    -0.300 NA 
HETATM   18  H   UNL     1      -9.489   8.617  65.550  1.00  0.00     0.000 HD 
ENDBRANCH   2   3
TORSDOF 1
ENDMDL
MODEL      159
REMARK 921   NORMALIZED FREE ENERGY PREDICTED BY IDOCK:   -2.75 KCAL/MOL
REMARK 922        TOTAL FREE ENERGY PREDICTED BY IDOCK:   -2.90 KCAL/MOL
REMARK 923 INTER-LIGAND FREE ENERGY PREDICTED BY IDOCK:   -3.04 KCAL/MOL
REMARK 924 INTRA-LIGAND FREE ENERGY PREDICTED BY IDOCK:    0.14 KCAL/MOL
REMARK 927      BINDING AFFINITY PREDICTED BY RF-SCORE:    0.00 PKD
ROOT
HETATM    1  C   UNL     1     -10.241   6.077  74.091  1.00  0.00    -0.297 C  
HETATM    2  O   UNL     1     -10.742   5.297  73.004  1.00  0.00    -0.215 OA 
ENDROOT
BRANCH   2   3
HETATM    3  C   UNL     1     -10.014   5.409  71.853  1.00  0.00    -0.184 C  
HETATM    4  C   UNL     1      -9.195   6.698  71.871  1.00  0.00    -0.147 C  
HETATM    5  O   UNL     1     -10.012   4.579  70.953  1.00  0.00    -0.200 OA 
HETATM    6  C   UNL     1      -7.683   6.367  71.650  1.00  0.00    -0.100 C  
HETATM    7  C   UNL     1      -9.763   7.708  70.877  1.00  0.00    -0.175 A  
HETATM    8  C   UNL     1      -6.779   7.618  71.585  1.00  0.00    -0.045 C  
HETATM    9  C   UNL     1     -10.154   8.982  71.324  1.00  0.00    -0.384 A  
HETATM   10  C   UNL     1      -6.617   8.289  72.947  1.00  0.00    -0.107 C  
HETATM   11  C   UNL     1     -10.666   9.927  70.434  1.00  0.00    -0.379 A  
HETATM   12  C   UNL     1     -10.805   9.612  69.085  1.00  0.00    -0.212 A  
HETATM   13  C   UNL     1      -6.102   7.282  73.968  1.00  0.00    -0.072 C  
HETATM   14  C   UNL     1     -10.425   8.354  68.624  1.00  0.00    -0.197 A  
HETATM   15  C   UNL     1      -6.952   6.013  73.984  1.00  0.00    -0.081 C  
HETATM   16  C   UNL     1      -9.901   7.409  69.511  1.00  0.00    -0.165 A  
HETATM   17  N   UNL     1      -7.098   5.439  72.647  1.00  0.00    -0.086 NA 
HETATM   18  H   UNL     1      -6.204   5.075  72.315  1.00  0.00     0.000 HD 
ENDBRANCH   2   3
TORSDOF 1
ENDMDL
MODEL      160
REMARK 921   NORMALIZED FREE ENERGY PREDICTED BY IDOCK:   -2.74 KCAL/MOL
REMARK 922        TOTAL FREE ENERGY PREDICTED BY IDOCK:   -2.89 KCAL/MOL
REMARK 923 INTER-LIGAND FREE ENERGY PREDICTED BY IDOCK:   -2.95 KCAL/MOL
REMARK 924 INTRA-LIGAND FREE ENERGY PREDICTED BY IDOCK:    0.06 KCAL/MOL
REMARK 927      BINDING AFFINITY PREDICTED BY RF-SCORE:    0.00 PKD
ROOT
HETATM    1  C   UNL     1     -12.274   7.201  70.591  1.00  0.00    -0.200 C  
HETATM    2  O   UNL     1     -12.002   6.005  71.322  1.00  0.00    -0.103 OA 
ENDROOT
BRANCH   2   3
HETATM    3  C   UNL     1     -10.744   5.507  71.132  1.00  0.00    -0.210 C  
HETATM    4  C   UNL     1     -10.095   6.164  69.916  1.00  0.00    -0.227 C  
HETATM    5  O   UNL     1     -10.217   4.668  71.851  1.00  0.00    -0.193 OA 
HETATM    6  C   UNL     1      -8.731   6.807  70.328  1.00  0.00    -0.144 C  
HETATM    7  C   UNL     1      -9.992   5.172  68.760  1.00  0.00    -0.237 A  
HETATM    8  C   UNL     1      -7.964   7.442  69.147  1.00  0.00    -0.118 C  
HETATM    9  C   UNL     1     -10.578   5.482  67.521  1.00  0.00    -0.252 A  
HETATM   10  C   UNL     1      -8.623   8.727  68.650  1.00  0.00    -0.134 C  
HETATM   11  C   UNL     1     -10.489   4.597  66.446  1.00  0.00    -0.207 A  
HETATM   12  C   UNL     1      -9.821   3.384  66.594  1.00  0.00     0.179 A  
HETATM   13  C   UNL     1      -8.785   9.711  69.802  1.00  0.00    -0.221 C  
HETATM   14  C   UNL     1      -9.235   3.060  67.814  1.00  0.00    -0.244 A  
HETATM   15  C   UNL     1      -9.479   9.065  70.999  1.00  0.00    -0.274 C  
HETATM   16  C   UNL     1      -9.313   3.948  68.890  1.00  0.00    -0.231 A  
HETATM   17  N   UNL     1      -8.822   7.823  71.404  1.00  0.00    -0.130 NA 
HETATM   18  H   UNL     1      -7.898   8.017  71.792  1.00  0.00     0.000 HD 
ENDBRANCH   2   3
TORSDOF 1
ENDMDL
MODEL      161
REMARK 921   NORMALIZED FREE ENERGY PREDICTED BY IDOCK:   -2.71 KCAL/MOL
REMARK 922        TOTAL FREE ENERGY PREDICTED BY IDOCK:   -2.85 KCAL/MOL
REMARK 923 INTER-LIGAND FREE ENERGY PREDICTED BY IDOCK:   -2.72 KCAL/MOL
REMARK 924 INTRA-LIGAND FREE ENERGY PREDICTED BY IDOCK:   -0.13 KCAL/MOL
REMARK 927      BINDING AFFINITY PREDICTED BY RF-SCORE:    0.00 PKD
ROOT
HETATM    1  C   UNL     1      -7.272   4.213  68.152  1.00  0.00    -0.060 C  
HETATM    2  O   UNL     1      -8.382   4.974  68.633  1.00  0.00    -0.088 OA 
ENDROOT
BRANCH   2   3
HETATM    3  C   UNL     1      -8.062   5.870  69.613  1.00  0.00    -0.106 C  
HETATM    4  C   UNL     1      -8.705   5.457  70.935  1.00  0.00    -0.140 C  
HETATM    5  O   UNL     1      -7.346   6.850  69.448  1.00  0.00    -0.086 OA 
HETATM    6  C   UNL     1      -7.606   5.327  72.040  1.00  0.00    -0.098 C  
HETATM    7  C   UNL     1      -9.843   6.407  71.299  1.00  0.00    -0.200 A  
HETATM    8  C   UNL     1      -8.169   4.975  73.435  1.00  0.00    -0.111 C  
HETATM    9  C   UNL     1     -11.134   5.896  71.517  1.00  0.00    -0.314 A  
HETATM   10  C   UNL     1      -8.671   3.536  73.513  1.00  0.00    -0.082 C  
HETATM   11  C   UNL     1     -12.190   6.742  71.860  1.00  0.00    -0.377 A  
HETATM   12  C   UNL     1     -11.975   8.112  71.983  1.00  0.00    -0.390 A  
HETATM   13  C   UNL     1      -7.564   2.573  73.101  1.00  0.00    -0.042 C  
HETATM   14  C   UNL     1     -10.703   8.636  71.768  1.00  0.00    -0.392 A  
HETATM   15  C   UNL     1      -6.956   2.959  71.754  1.00  0.00    -0.031 C  
HETATM   16  C   UNL     1      -9.641   7.791  71.435  1.00  0.00    -0.182 A  
HETATM   17  N   UNL     1      -6.527   4.358  71.732  1.00  0.00    -0.021 NA 
HETATM   18  H   UNL     1      -5.732   4.498  72.356  1.00  0.00     0.000 HD 
ENDBRANCH   2   3
TORSDOF 1
ENDMDL
MODEL      162
REMARK 921   NORMALIZED FREE ENERGY PREDICTED BY IDOCK:   -2.67 KCAL/MOL
REMARK 922        TOTAL FREE ENERGY PREDICTED BY IDOCK:   -2.81 KCAL/MOL
REMARK 923 INTER-LIGAND FREE ENERGY PREDICTED BY IDOCK:   -3.30 KCAL/MOL
REMARK 924 INTRA-LIGAND FREE ENERGY PREDICTED BY IDOCK:    0.48 KCAL/MOL
REMARK 927      BINDING AFFINITY PREDICTED BY RF-SCORE:    0.00 PKD
ROOT
HETATM    1  C   UNL     1     -10.593   7.603  66.990  1.00  0.00    -0.336 C  
HETATM    2  O   UNL     1     -10.213   8.575  67.966  1.00  0.00    -0.195 OA 
ENDROOT
BRANCH   2   3
HETATM    3  C   UNL     1      -9.212   8.167  68.801  1.00  0.00    -0.144 C  
HETATM    4  C   UNL     1      -9.475   6.741  69.282  1.00  0.00    -0.142 C  
HETATM    5  O   UNL     1      -8.240   8.849  69.099  1.00  0.00    -0.114 OA 
HETATM    6  C   UNL     1      -8.246   5.836  68.945  1.00  0.00    -0.101 C  
HETATM    7  C   UNL     1      -9.866   6.736  70.758  1.00  0.00    -0.194 A  
HETATM    8  C   UNL     1      -8.390   4.384  69.453  1.00  0.00    -0.083 C  
HETATM    9  C   UNL     1     -11.085   6.161  71.153  1.00  0.00    -0.360 A  
HETATM   10  C   UNL     1      -9.421   3.589  68.656  1.00  0.00    -0.209 C  
HETATM   11  C   UNL     1     -11.462   6.134  72.497  1.00  0.00    -0.318 A  
HETATM   12  C   UNL     1     -10.630   6.689  73.466  1.00  0.00    -0.334 A  
HETATM   13  C   UNL     1      -9.078   3.627  67.172  1.00  0.00    -0.189 C  
HETATM   14  C   UNL     1      -9.419   7.264  73.092  1.00  0.00    -0.228 A  
HETATM   15  C   UNL     1      -8.865   5.058  66.682  1.00  0.00    -0.111 C  
HETATM   16  C   UNL     1      -9.034   7.283  71.749  1.00  0.00    -0.136 A  
HETATM   17  N   UNL     1      -7.894   5.776  67.506  1.00  0.00    -0.101 NA 
HETATM   18  H   UNL     1      -6.960   5.383  67.383  1.00  0.00     0.000 HD 
ENDBRANCH   2   3
TORSDOF 1
ENDMDL
MODEL      163
REMARK 921   NORMALIZED FREE ENERGY PREDICTED BY IDOCK:   -2.65 KCAL/MOL
REMARK 922        TOTAL FREE ENERGY PREDICTED BY IDOCK:   -2.79 KCAL/MOL
REMARK 923 INTER-LIGAND FREE ENERGY PREDICTED BY IDOCK:   -2.89 KCAL/MOL
REMARK 924 INTRA-LIGAND FREE ENERGY PREDICTED BY IDOCK:    0.10 KCAL/MOL
REMARK 927      BINDING AFFINITY PREDICTED BY RF-SCORE:    0.00 PKD
ROOT
HETATM    1  C   UNL     1      -8.040   6.066  69.397  1.00  0.00    -0.111 C  
HETATM    2  O   UNL     1      -8.697   4.804  69.533  1.00  0.00    -0.084 OA 
ENDROOT
BRANCH   2   3
HETATM    3  C   UNL     1      -9.095   4.515  70.807  1.00  0.00    -0.127 C  
HETATM    4  C   UNL     1      -9.043   5.771  71.674  1.00  0.00    -0.152 C  
HETATM    5  O   UNL     1      -9.456   3.407  71.184  1.00  0.00    -0.131 OA 
HETATM    6  C   UNL     1     -10.442   6.020  72.327  1.00  0.00    -0.205 C  
HETATM    7  C   UNL     1      -7.894   5.686  72.675  1.00  0.00    -0.102 A  
HETATM    8  C   UNL     1     -10.472   7.236  73.279  1.00  0.00    -0.416 C  
HETATM    9  C   UNL     1      -6.912   6.691  72.695  1.00  0.00    -0.072 A  
HETATM   10  C   UNL     1     -10.389   8.563  72.529  1.00  0.00    -0.315 C  
HETATM   11  C   UNL     1      -5.857   6.643  73.607  1.00  0.00    -0.058 A  
HETATM   12  C   UNL     1      -5.761   5.585  74.508  1.00  0.00    -0.048 A  
HETATM   13  C   UNL     1     -11.497   8.644  71.485  1.00  0.00    -0.363 C  
HETATM   14  C   UNL     1      -6.724   4.580  74.501  1.00  0.00    -0.065 A  
HETATM   15  C   UNL     1     -11.515   7.409  70.588  1.00  0.00    -0.282 C  
HETATM   16  C   UNL     1      -7.788   4.631  73.597  1.00  0.00    -0.094 A  
HETATM   17  N   UNL     1     -11.560   6.171  71.366  1.00  0.00    -0.266 NA 
HETATM   18  H   UNL     1     -12.457   6.082  71.844  1.00  0.00     0.000 HD 
ENDBRANCH   2   3
TORSDOF 1
ENDMDL
MODEL      164
REMARK 921   NORMALIZED FREE ENERGY PREDICTED BY IDOCK:   -2.64 KCAL/MOL
REMARK 922        TOTAL FREE ENERGY PREDICTED BY IDOCK:   -2.79 KCAL/MOL
REMARK 923 INTER-LIGAND FREE ENERGY PREDICTED BY IDOCK:   -2.74 KCAL/MOL
REMARK 924 INTRA-LIGAND FREE ENERGY PREDICTED BY IDOCK:   -0.05 KCAL/MOL
REMARK 927      BINDING AFFINITY PREDICTED BY RF-SCORE:    0.00 PKD
ROOT
HETATM    1  C   UNL     1      -6.326   5.485  66.919  1.00  0.00    -0.039 C  
HETATM    2  O   UNL     1      -6.953   6.006  68.092  1.00  0.00    -0.071 OA 
ENDROOT
BRANCH   2   3
HETATM    3  C   UNL     1      -8.235   5.572  68.281  1.00  0.00    -0.095 C  
HETATM    4  C   UNL     1      -8.871   6.302  69.462  1.00  0.00    -0.135 C  
HETATM    5  O   UNL     1      -8.790   4.731  67.584  1.00  0.00    -0.103 OA 
HETATM    6  C   UNL     1     -10.198   6.990  69.005  1.00  0.00    -0.187 C  
HETATM    7  C   UNL     1      -9.035   5.359  70.651  1.00  0.00    -0.163 A  
HETATM    8  C   UNL     1     -10.952   7.702  70.150  1.00  0.00    -0.255 C  
HETATM    9  C   UNL     1      -8.453   5.688  71.887  1.00  0.00    -0.127 A  
HETATM   10  C   UNL     1     -10.243   8.973  70.610  1.00  0.00    -0.284 C  
HETATM   11  C   UNL     1      -8.596   4.849  72.992  1.00  0.00    -0.110 A  
HETATM   12  C   UNL     1      -9.317   3.662  72.878  1.00  0.00    -0.135 A  
HETATM   13  C   UNL     1     -10.021   9.906  69.426  1.00  0.00    -0.227 C  
HETATM   14  C   UNL     1      -9.899   3.319  71.661  1.00  0.00    -0.220 A  
HETATM   15  C   UNL     1      -9.340   9.186  68.264  1.00  0.00    -0.135 C  
HETATM   16  C   UNL     1      -9.766   4.163  70.555  1.00  0.00    -0.270 A  
HETATM   17  N   UNL     1     -10.046   7.960  67.895  1.00  0.00    -0.182 NA 
HETATM   18  H   UNL     1     -10.955   8.181  67.486  1.00  0.00     0.000 HD 
ENDBRANCH   2   3
TORSDOF 1
ENDMDL
MODEL      165
REMARK 921   NORMALIZED FREE ENERGY PREDICTED BY IDOCK:   -2.64 KCAL/MOL
REMARK 922        TOTAL FREE ENERGY PREDICTED BY IDOCK:   -2.79 KCAL/MOL
REMARK 923 INTER-LIGAND FREE ENERGY PREDICTED BY IDOCK:   -2.70 KCAL/MOL
REMARK 924 INTRA-LIGAND FREE ENERGY PREDICTED BY IDOCK:   -0.08 KCAL/MOL
REMARK 927      BINDING AFFINITY PREDICTED BY RF-SCORE:    0.00 PKD
ROOT
HETATM    1  C   UNL     1     -10.437  10.348  66.864  1.00  0.00    -0.240 C  
HETATM    2  O   UNL     1     -10.686   8.963  67.111  1.00  0.00    -0.265 OA 
ENDROOT
BRANCH   2   3
HETATM    3  C   UNL     1      -9.557   8.199  67.196  1.00  0.00    -0.174 C  
HETATM    4  C   UNL     1      -9.169   7.993  68.659  1.00  0.00    -0.143 C  
HETATM    5  O   UNL     1      -8.961   7.735  66.232  1.00  0.00    -0.160 OA 
HETATM    6  C   UNL     1      -9.060   6.463  68.966  1.00  0.00    -0.130 C  
HETATM    7  C   UNL     1      -7.909   8.787  68.997  1.00  0.00    -0.096 A  
HETATM    8  C   UNL     1      -8.606   6.154  70.410  1.00  0.00    -0.134 C  
HETATM    9  C   UNL     1      -7.936   9.722  70.045  1.00  0.00    -0.196 A  
HETATM   10  C   UNL     1      -9.689   6.465  71.439  1.00  0.00    -0.187 C  
HETATM   11  C   UNL     1      -6.796  10.454  70.381  1.00  0.00    -0.073 A  
HETATM   12  C   UNL     1      -5.613  10.268  69.670  1.00  0.00    -0.038 A  
HETATM   13  C   UNL     1     -10.974   5.724  71.089  1.00  0.00    -0.295 C  
HETATM   14  C   UNL     1      -5.569   9.347  68.627  1.00  0.00    -0.040 A  
HETATM   15  C   UNL     1     -11.387   5.971  69.639  1.00  0.00    -0.257 C  
HETATM   16  C   UNL     1      -6.706   8.605  68.295  1.00  0.00    -0.065 A  
HETATM   17  N   UNL     1     -10.297   5.688  68.707  1.00  0.00    -0.207 NA 
HETATM   18  H   UNL     1     -10.094   4.688  68.687  1.00  0.00     0.000 HD 
ENDBRANCH   2   3
TORSDOF 1
ENDMDL
MODEL      166
REMARK 921   NORMALIZED FREE ENERGY PREDICTED BY IDOCK:   -2.64 KCAL/MOL
REMARK 922        TOTAL FREE ENERGY PREDICTED BY IDOCK:   -2.78 KCAL/MOL
REMARK 923 INTER-LIGAND FREE ENERGY PREDICTED BY IDOCK:   -2.66 KCAL/MOL
REMARK 924 INTRA-LIGAND FREE ENERGY PREDICTED BY IDOCK:   -0.13 KCAL/MOL
REMARK 927      BINDING AFFINITY PREDICTED BY RF-SCORE:    0.00 PKD
ROOT
HETATM    1  C   UNL     1      -9.231   3.719  65.223  1.00  0.00    -0.151 C  
HETATM    2  O   UNL     1      -9.915   4.456  66.237  1.00  0.00    -0.212 OA 
ENDROOT
BRANCH   2   3
HETATM    3  C   UNL     1      -9.140   5.382  66.875  1.00  0.00    -0.114 C  
HETATM    4  C   UNL     1      -9.063   5.068  68.368  1.00  0.00    -0.137 C  
HETATM    5  O   UNL     1      -8.576   6.315  66.316  1.00  0.00    -0.127 OA 
HETATM    6  C   UNL     1      -7.568   4.938  68.804  1.00  0.00    -0.069 C  
HETATM    7  C   UNL     1      -9.860   6.092  69.173  1.00  0.00    -0.185 A  
HETATM    8  C   UNL     1      -7.385   4.685  70.317  1.00  0.00    -0.050 C  
HETATM    9  C   UNL     1     -10.889   5.659  70.026  1.00  0.00    -0.366 A  
HETATM   10  C   UNL     1      -7.813   3.278  70.727  1.00  0.00    -0.046 C  
HETATM   11  C   UNL     1     -11.626   6.572  70.780  1.00  0.00    -0.437 A  
HETATM   12  C   UNL     1     -11.351   7.935  70.689  1.00  0.00    -0.267 A  
HETATM   13  C   UNL     1      -7.068   2.241  69.896  1.00  0.00    -0.033 C  
HETATM   14  C   UNL     1     -10.336   8.382  69.848  1.00  0.00    -0.210 A  
HETATM   15  C   UNL     1      -7.187   2.529  68.401  1.00  0.00    -0.048 C  
HETATM   16  C   UNL     1      -9.589   7.469  69.099  1.00  0.00    -0.157 A  
HETATM   17  N   UNL     1      -6.796   3.901  68.078  1.00  0.00    -0.047 NA 
HETATM   18  H   UNL     1      -5.795   4.032  68.225  1.00  0.00     0.000 HD 
ENDBRANCH   2   3
TORSDOF 1
ENDMDL
MODEL      167
REMARK 921   NORMALIZED FREE ENERGY PREDICTED BY IDOCK:   -2.61 KCAL/MOL
REMARK 922        TOTAL FREE ENERGY PREDICTED BY IDOCK:   -2.75 KCAL/MOL
REMARK 923 INTER-LIGAND FREE ENERGY PREDICTED BY IDOCK:   -3.11 KCAL/MOL
REMARK 924 INTRA-LIGAND FREE ENERGY PREDICTED BY IDOCK:    0.36 KCAL/MOL
REMARK 927      BINDING AFFINITY PREDICTED BY RF-SCORE:    0.00 PKD
ROOT
HETATM    1  C   UNL     1      -8.655   9.326  70.242  1.00  0.00    -0.210 C  
HETATM    2  O   UNL     1      -9.897   9.828  69.745  1.00  0.00    -0.206 OA 
ENDROOT
BRANCH   2   3
HETATM    3  C   UNL     1     -10.099   9.600  68.413  1.00  0.00    -0.176 C  
HETATM    4  C   UNL     1      -9.215  10.525  67.579  1.00  0.00    -0.152 C  
HETATM    5  O   UNL     1     -10.868   8.758  67.964  1.00  0.00    -0.132 OA 
HETATM    6  C   UNL     1      -8.337   9.677  66.602  1.00  0.00    -0.123 C  
HETATM    7  C   UNL     1     -10.057  11.595  66.891  1.00  0.00    -0.238 A  
HETATM    8  C   UNL     1      -7.453  10.531  65.666  1.00  0.00    -0.129 C  
HETATM    9  C   UNL     1      -9.770  12.954  67.107  1.00  0.00    -0.221 A  
HETATM   10  C   UNL     1      -6.298  11.199  66.408  1.00  0.00    -0.116 C  
HETATM   11  C   UNL     1     -10.518  13.952  66.482  1.00  0.00    -0.282 A  
HETATM   12  C   UNL     1     -11.571  13.610  65.636  1.00  0.00    -0.342 A  
HETATM   13  C   UNL     1      -5.475  10.151  67.148  1.00  0.00    -0.041 C  
HETATM   14  C   UNL     1     -11.870  12.269  65.411  1.00  0.00    -0.418 A  
HETATM   15  C   UNL     1      -6.356   9.259  68.020  1.00  0.00    -0.054 C  
HETATM   16  C   UNL     1     -11.116  11.266  66.028  1.00  0.00    -0.181 A  
HETATM   17  N   UNL     1      -7.462   8.677  67.260  1.00  0.00    -0.088 NA 
HETATM   18  H   UNL     1      -7.112   8.004  66.577  1.00  0.00     0.000 HD 
ENDBRANCH   2   3
TORSDOF 1
ENDMDL
MODEL      168
REMARK 921   NORMALIZED FREE ENERGY PREDICTED BY IDOCK:   -2.54 KCAL/MOL
REMARK 922        TOTAL FREE ENERGY PREDICTED BY IDOCK:   -2.67 KCAL/MOL
REMARK 923 INTER-LIGAND FREE ENERGY PREDICTED BY IDOCK:   -2.62 KCAL/MOL
REMARK 924 INTRA-LIGAND FREE ENERGY PREDICTED BY IDOCK:   -0.05 KCAL/MOL
REMARK 927      BINDING AFFINITY PREDICTED BY RF-SCORE:    0.00 PKD
ROOT
HETATM    1  C   UNL     1      -8.792   4.795  72.878  1.00  0.00    -0.116 C  
HETATM    2  O   UNL     1      -9.253   5.704  71.877  1.00  0.00    -0.144 OA 
ENDROOT
BRANCH   2   3
HETATM    3  C   UNL     1      -8.309   6.041  70.950  1.00  0.00    -0.126 C  
HETATM    4  C   UNL     1      -8.971   6.680  69.730  1.00  0.00    -0.143 C  
HETATM    5  O   UNL     1      -7.105   5.869  71.094  1.00  0.00    -0.068 OA 
HETATM    6  C   UNL     1      -8.341   8.086  69.463  1.00  0.00    -0.127 C  
HETATM    7  C   UNL     1      -8.916   5.734  68.533  1.00  0.00    -0.112 A  
HETATM    8  C   UNL     1      -8.902   8.785  68.205  1.00  0.00    -0.141 C  
HETATM    9  C   UNL     1     -10.106   5.355  67.890  1.00  0.00    -0.215 A  
HETATM   10  C   UNL     1     -10.337   9.268  68.400  1.00  0.00    -0.244 C  
HETATM   11  C   UNL     1     -10.084   4.500  66.787  1.00  0.00    -0.220 A  
HETATM   12  C   UNL     1      -8.871   4.004  66.314  1.00  0.00    -0.121 A  
HETATM   13  C   UNL     1     -10.424  10.171  69.624  1.00  0.00    -0.282 C  
HETATM   14  C   UNL     1      -7.682   4.368  66.940  1.00  0.00    -0.093 A  
HETATM   15  C   UNL     1      -9.805   9.510  70.854  1.00  0.00    -0.209 C  
HETATM   16  C   UNL     1      -7.701   5.233  68.038  1.00  0.00    -0.084 A  
HETATM   17  N   UNL     1      -8.445   9.039  70.593  1.00  0.00    -0.178 NA 
HETATM   18  H   UNL     1      -7.814   9.829  70.454  1.00  0.00     0.000 HD 
ENDBRANCH   2   3
TORSDOF 1
ENDMDL
MODEL      169
REMARK 921   NORMALIZED FREE ENERGY PREDICTED BY IDOCK:   -2.53 KCAL/MOL
REMARK 922        TOTAL FREE ENERGY PREDICTED BY IDOCK:   -2.67 KCAL/MOL
REMARK 923 INTER-LIGAND FREE ENERGY PREDICTED BY IDOCK:   -2.71 KCAL/MOL
REMARK 924 INTRA-LIGAND FREE ENERGY PREDICTED BY IDOCK:    0.04 KCAL/MOL
REMARK 927      BINDING AFFINITY PREDICTED BY RF-SCORE:    0.00 PKD
ROOT
HETATM    1  C   UNL     1      -5.804   9.725  69.897  1.00  0.00    -0.042 C  
HETATM    2  O   UNL     1      -5.489  10.714  68.915  1.00  0.00    -0.042 OA 
ENDROOT
BRANCH   2   3
HETATM    3  C   UNL     1      -6.249  10.639  67.782  1.00  0.00    -0.054 C  
HETATM    4  C   UNL     1      -7.670  11.119  68.069  1.00  0.00    -0.107 C  
HETATM    5  O   UNL     1      -5.834  10.259  66.695  1.00  0.00    -0.055 OA 
HETATM    6  C   UNL     1      -8.047  12.273  67.084  1.00  0.00    -0.173 C  
HETATM    7  C   UNL     1      -8.646   9.945  68.056  1.00  0.00    -0.121 A  
HETATM    8  C   UNL     1      -9.496  12.781  67.252  1.00  0.00    -0.204 C  
HETATM    9  C   UNL     1      -9.441   9.686  69.185  1.00  0.00    -0.172 A  
HETATM   10  C   UNL     1      -9.686  13.579  68.540  1.00  0.00    -0.168 C  
HETATM   11  C   UNL     1     -10.348   8.626  69.195  1.00  0.00    -0.227 A  
HETATM   12  C   UNL     1     -10.469   7.801  68.080  1.00  0.00    -0.244 A  
HETATM   13  C   UNL     1      -8.684  14.725  68.599  1.00  0.00    -0.178 C  
HETATM   14  C   UNL     1      -9.688   8.041  66.952  1.00  0.00    -0.291 A  
HETATM   15  C   UNL     1      -7.257  14.235  68.361  1.00  0.00    -0.113 C  
HETATM   16  C   UNL     1      -8.787   9.109  66.935  1.00  0.00    -0.137 A  
HETATM   17  N   UNL     1      -7.148  13.450  67.132  1.00  0.00    -0.383 NA 
HETATM   18  H   UNL     1      -7.293  14.044  66.314  1.00  0.00     0.000 HD 
ENDBRANCH   2   3
TORSDOF 1
ENDMDL
MODEL      170
REMARK 921   NORMALIZED FREE ENERGY PREDICTED BY IDOCK:   -2.49 KCAL/MOL
REMARK 922        TOTAL FREE ENERGY PREDICTED BY IDOCK:   -2.62 KCAL/MOL
REMARK 923 INTER-LIGAND FREE ENERGY PREDICTED BY IDOCK:   -2.62 KCAL/MOL
REMARK 924 INTRA-LIGAND FREE ENERGY PREDICTED BY IDOCK:    0.00 KCAL/MOL
REMARK 927      BINDING AFFINITY PREDICTED BY RF-SCORE:    0.00 PKD
ROOT
HETATM    1  C   UNL     1     -10.338   9.172  66.606  1.00  0.00    -0.218 C  
HETATM    2  O   UNL     1     -11.008   9.571  67.803  1.00  0.00    -0.244 OA 
ENDROOT
BRANCH   2   3
HETATM    3  C   UNL     1     -10.407   9.140  68.951  1.00  0.00    -0.214 C  
HETATM    4  C   UNL     1      -9.114   8.396  68.621  1.00  0.00    -0.140 C  
HETATM    5  O   UNL     1     -10.840   9.344  70.078  1.00  0.00    -0.223 OA 
HETATM    6  C   UNL     1      -7.918   9.050  69.387  1.00  0.00    -0.100 C  
HETATM    7  C   UNL     1      -9.276   6.900  68.879  1.00  0.00    -0.132 A  
HETATM    8  C   UNL     1      -6.573   8.323  69.168  1.00  0.00    -0.043 C  
HETATM    9  C   UNL     1      -9.039   5.984  67.840  1.00  0.00    -0.117 A  
HETATM   10  C   UNL     1      -6.019   8.534  67.761  1.00  0.00    -0.047 C  
HETATM   11  C   UNL     1      -9.169   4.611  68.052  1.00  0.00    -0.158 A  
HETATM   12  C   UNL     1      -9.546   4.131  69.304  1.00  0.00    -0.256 A  
HETATM   13  C   UNL     1      -5.902  10.024  67.463  1.00  0.00    -0.049 C  
HETATM   14  C   UNL     1      -9.787   5.024  70.344  1.00  0.00    -0.301 A  
HETATM   15  C   UNL     1      -7.211  10.758  67.747  1.00  0.00    -0.088 C  
HETATM   16  C   UNL     1      -9.647   6.399  70.138  1.00  0.00    -0.173 A  
HETATM   17  N   UNL     1      -7.705  10.488  69.096  1.00  0.00    -0.120 NA 
HETATM   18  H   UNL     1      -7.089  10.906  69.794  1.00  0.00     0.000 HD 
ENDBRANCH   2   3
TORSDOF 1
ENDMDL
MODEL      171
REMARK 921   NORMALIZED FREE ENERGY PREDICTED BY IDOCK:   -2.49 KCAL/MOL
REMARK 922        TOTAL FREE ENERGY PREDICTED BY IDOCK:   -2.62 KCAL/MOL
REMARK 923 INTER-LIGAND FREE ENERGY PREDICTED BY IDOCK:   -2.53 KCAL/MOL
REMARK 924 INTRA-LIGAND FREE ENERGY PREDICTED BY IDOCK:   -0.09 KCAL/MOL
REMARK 927      BINDING AFFINITY PREDICTED BY RF-SCORE:    0.00 PKD
ROOT
HETATM    1  C   UNL     1      -9.966  16.927  69.352  1.00  0.00    -0.113 C  
HETATM    2  O   UNL     1      -9.489  15.582  69.423  1.00  0.00    -0.250 OA 
ENDROOT
BRANCH   2   3
HETATM    3  C   UNL     1     -10.394  14.645  69.009  1.00  0.00    -0.235 C  
HETATM    4  C   UNL     1      -9.950  14.033  67.682  1.00  0.00    -0.237 C  
HETATM    5  O   UNL     1     -11.402  14.336  69.631  1.00  0.00    -0.250 OA 
HETATM    6  C   UNL     1      -9.860  12.478  67.821  1.00  0.00    -0.204 C  
HETATM    7  C   UNL     1     -10.852  14.506  66.545  1.00  0.00    -0.314 A  
HETATM    8  C   UNL     1      -9.481  11.761  66.507  1.00  0.00    -0.225 C  
HETATM    9  C   UNL     1     -10.289  15.153  65.432  1.00  0.00    -0.415 A  
HETATM   10  C   UNL     1      -8.022  11.988  66.120  1.00  0.00     0.448 C  
HETATM   11  C   UNL     1     -11.089  15.586  64.374  1.00  0.00    -0.173 A  
HETATM   12  C   UNL     1     -12.467  15.386  64.415  1.00  0.00     0.030 A  
HETATM   13  C   UNL     1      -7.106  11.573  67.265  1.00  0.00    -0.128 C  
HETATM   14  C   UNL     1     -13.043  14.748  65.510  1.00  0.00     0.434 A  
HETATM   15  C   UNL     1      -7.522  12.226  68.582  1.00  0.00    -0.100 C  
HETATM   16  C   UNL     1     -12.242  14.303  66.566  1.00  0.00    -0.419 A  
HETATM   17  N   UNL     1      -8.937  12.001  68.878  1.00  0.00    -0.379 NA 
HETATM   18  H   UNL     1      -9.107  11.016  69.083  1.00  0.00     0.000 HD 
ENDBRANCH   2   3
TORSDOF 1
ENDMDL
MODEL      172
REMARK 921   NORMALIZED FREE ENERGY PREDICTED BY IDOCK:   -2.47 KCAL/MOL
REMARK 922        TOTAL FREE ENERGY PREDICTED BY IDOCK:   -2.60 KCAL/MOL
REMARK 923 INTER-LIGAND FREE ENERGY PREDICTED BY IDOCK:   -2.53 KCAL/MOL
REMARK 924 INTRA-LIGAND FREE ENERGY PREDICTED BY IDOCK:   -0.08 KCAL/MOL
REMARK 927      BINDING AFFINITY PREDICTED BY RF-SCORE:    0.00 PKD
ROOT
HETATM    1  C   UNL     1     -10.771   3.561  74.118  1.00  0.00    -0.187 C  
HETATM    2  O   UNL     1     -10.927   4.447  73.009  1.00  0.00    -0.220 OA 
ENDROOT
BRANCH   2   3
HETATM    3  C   UNL     1      -9.896   5.329  72.849  1.00  0.00    -0.156 C  
HETATM    4  C   UNL     1      -9.263   5.156  71.469  1.00  0.00    -0.177 C  
HETATM    5  O   UNL     1      -9.551   6.149  73.690  1.00  0.00    -0.142 OA 
HETATM    6  C   UNL     1      -9.273   6.522  70.709  1.00  0.00    -0.155 C  
HETATM    7  C   UNL     1      -7.881   4.520  71.589  1.00  0.00    -0.091 A  
HETATM    8  C   UNL     1      -8.591   6.463  69.324  1.00  0.00    -0.125 C  
HETATM    9  C   UNL     1      -7.602   3.326  70.903  1.00  0.00    -0.040 A  
HETATM   10  C   UNL     1      -9.416   5.686  68.302  1.00  0.00    -0.132 C  
HETATM   11  C   UNL     1      -6.343   2.729  70.987  1.00  0.00    -0.019 A  
HETATM   12  C   UNL     1      -5.346   3.311  71.766  1.00  0.00    -0.004 A  
HETATM   13  C   UNL     1     -10.819   6.272  68.207  1.00  0.00    -0.397 C  
HETATM   14  C   UNL     1      -5.605   4.493  72.454  1.00  0.00    -0.007 A  
HETATM   15  C   UNL     1     -11.470   6.398  69.583  1.00  0.00    -0.378 C  
HETATM   16  C   UNL     1      -6.861   5.099  72.363  1.00  0.00    -0.077 A  
HETATM   17  N   UNL     1     -10.616   7.122  70.524  1.00  0.00    -0.220 NA 
HETATM   18  H   UNL     1     -10.535   8.102  70.253  1.00  0.00     0.000 HD 
ENDBRANCH   2   3
TORSDOF 1
ENDMDL
MODEL      173
REMARK 921   NORMALIZED FREE ENERGY PREDICTED BY IDOCK:   -2.46 KCAL/MOL
REMARK 922        TOTAL FREE ENERGY PREDICTED BY IDOCK:   -2.59 KCAL/MOL
REMARK 923 INTER-LIGAND FREE ENERGY PREDICTED BY IDOCK:   -2.73 KCAL/MOL
REMARK 924 INTRA-LIGAND FREE ENERGY PREDICTED BY IDOCK:    0.14 KCAL/MOL
REMARK 927      BINDING AFFINITY PREDICTED BY RF-SCORE:    0.00 PKD
ROOT
HETATM    1  C   UNL     1      -7.661   4.679  68.207  1.00  0.00    -0.081 C  
HETATM    2  O   UNL     1      -8.790   3.909  68.624  1.00  0.00    -0.095 OA 
ENDROOT
BRANCH   2   3
HETATM    3  C   UNL     1      -9.557   4.513  69.580  1.00  0.00    -0.195 C  
HETATM    4  C   UNL     1      -9.260   6.011  69.624  1.00  0.00    -0.148 C  
HETATM    5  O   UNL     1     -10.374   3.931  70.281  1.00  0.00     0.256 OA 
HETATM    6  C   UNL     1     -10.585   6.818  69.430  1.00  0.00    -0.233 C  
HETATM    7  C   UNL     1      -8.494   6.369  70.895  1.00  0.00    -0.131 A  
HETATM    8  C   UNL     1     -10.397   8.348  69.526  1.00  0.00    -0.219 C  
HETATM    9  C   UNL     1      -7.249   7.014  70.799  1.00  0.00    -0.071 A  
HETATM   10  C   UNL     1      -9.663   8.921  68.317  1.00  0.00    -0.174 C  
HETATM   11  C   UNL     1      -6.532   7.361  71.945  1.00  0.00    -0.043 A  
HETATM   12  C   UNL     1      -7.044   7.063  73.205  1.00  0.00    -0.073 A  
HETATM   13  C   UNL     1     -10.383   8.528  67.032  1.00  0.00    -0.379 C  
HETATM   14  C   UNL     1      -8.275   6.423  73.319  1.00  0.00    -0.114 A  
HETATM   15  C   UNL     1     -10.634   7.023  66.967  1.00  0.00    -0.341 C  
HETATM   16  C   UNL     1      -9.000   6.083  72.174  1.00  0.00    -0.142 A  
HETATM   17  N   UNL     1     -11.309   6.531  68.168  1.00  0.00    -0.551 NA 
HETATM   18  H   UNL     1     -12.263   6.890  68.214  1.00  0.00     0.000 HD 
ENDBRANCH   2   3
TORSDOF 1
ENDMDL
MODEL      174
REMARK 921   NORMALIZED FREE ENERGY PREDICTED BY IDOCK:   -2.38 KCAL/MOL
REMARK 922        TOTAL FREE ENERGY PREDICTED BY IDOCK:   -2.51 KCAL/MOL
REMARK 923 INTER-LIGAND FREE ENERGY PREDICTED BY IDOCK:   -2.43 KCAL/MOL
REMARK 924 INTRA-LIGAND FREE ENERGY PREDICTED BY IDOCK:   -0.08 KCAL/MOL
REMARK 927      BINDING AFFINITY PREDICTED BY RF-SCORE:    0.00 PKD
ROOT
HETATM    1  C   UNL     1      -6.069  16.522  70.980  1.00  0.00     0.995 C  
HETATM    2  O   UNL     1      -5.460  17.079  69.814  1.00  0.00    -0.165 OA 
ENDROOT
BRANCH   2   3
HETATM    3  C   UNL     1      -5.941  16.577  68.638  1.00  0.00    -0.132 C  
HETATM    4  C   UNL     1      -7.037  17.485  68.085  1.00  0.00    -0.206 C  
HETATM    5  O   UNL     1      -5.530  15.554  68.104  1.00  0.00    -0.103 OA 
HETATM    6  C   UNL     1      -6.675  17.925  66.629  1.00  0.00    -0.200 C  
HETATM    7  C   UNL     1      -8.403  16.816  68.211  1.00  0.00    -0.213 A  
HETATM    8  C   UNL     1      -7.759  18.796  65.958  1.00  0.00    -0.228 C  
HETATM    9  C   UNL     1      -9.434  17.464  68.913  1.00  0.00    -0.201 A  
HETATM   10  C   UNL     1      -7.829  20.199  66.554  1.00  0.00    -0.317 C  
HETATM   11  C   UNL     1     -10.695  16.879  69.035  1.00  0.00    -0.308 A  
HETATM   12  C   UNL     1     -10.944  15.633  68.465  1.00  0.00    -0.303 A  
HETATM   13  C   UNL     1      -6.460  20.865  66.487  1.00  0.00    -0.333 C  
HETATM   14  C   UNL     1      -9.935  14.976  67.767  1.00  0.00    -0.229 A  
HETATM   15  C   UNL     1      -5.373  19.975  67.086  1.00  0.00    -0.161 C  
HETATM   16  C   UNL     1      -8.674  15.564  67.634  1.00  0.00    -0.183 A  
HETATM   17  N   UNL     1      -5.381  18.636  66.498  1.00  0.00    -0.141 NA 
HETATM   18  H   UNL     1      -5.090  18.673  65.520  1.00  0.00     0.000 HD 
ENDBRANCH   2   3
TORSDOF 1
ENDMDL
MODEL      175
REMARK 921   NORMALIZED FREE ENERGY PREDICTED BY IDOCK:   -2.37 KCAL/MOL
REMARK 922        TOTAL FREE ENERGY PREDICTED BY IDOCK:   -2.49 KCAL/MOL
REMARK 923 INTER-LIGAND FREE ENERGY PREDICTED BY IDOCK:   -2.50 KCAL/MOL
REMARK 924 INTRA-LIGAND FREE ENERGY PREDICTED BY IDOCK:    0.01 KCAL/MOL
REMARK 927      BINDING AFFINITY PREDICTED BY RF-SCORE:    0.00 PKD
ROOT
HETATM    1  C   UNL     1     -10.913  11.467  66.577  1.00  0.00    -0.293 C  
HETATM    2  O   UNL     1     -10.390  10.752  65.457  1.00  0.00    -0.265 OA 
ENDROOT
BRANCH   2   3
HETATM    3  C   UNL     1      -9.200  10.126  65.699  1.00  0.00    -0.187 C  
HETATM    4  C   UNL     1      -8.809  10.286  67.167  1.00  0.00    -0.141 C  
HETATM    5  O   UNL     1      -8.558   9.512  64.856  1.00  0.00    -0.149 OA 
HETATM    6  C   UNL     1      -8.572   8.880  67.806  1.00  0.00    -0.125 C  
HETATM    7  C   UNL     1      -7.627  11.241  67.306  1.00  0.00    -0.130 A  
HETATM    8  C   UNL     1      -8.106   8.940  69.278  1.00  0.00    -0.109 C  
HETATM    9  C   UNL     1      -7.744  12.381  68.119  1.00  0.00    -0.139 A  
HETATM   10  C   UNL     1      -9.222   9.379  70.223  1.00  0.00    -0.285 C  
HETATM   11  C   UNL     1      -6.675  13.265  68.272  1.00  0.00    -0.103 A  
HETATM   12  C   UNL     1      -5.473  13.028  67.608  1.00  0.00    -0.093 A  
HETATM   13  C   UNL     1     -10.434   8.470  70.060  1.00  0.00    -0.226 C  
HETATM   14  C   UNL     1      -5.340  11.905  66.797  1.00  0.00    -0.051 A  
HETATM   15  C   UNL     1     -10.854   8.351  68.596  1.00  0.00     0.073 C  
HETATM   16  C   UNL     1      -6.405  11.012  66.650  1.00  0.00    -0.124 A  
HETATM   17  N   UNL     1      -9.734   7.962  67.739  1.00  0.00    -0.150 NA 
HETATM   18  H   UNL     1      -9.446   7.004  67.941  1.00  0.00     0.000 HD 
ENDBRANCH   2   3
TORSDOF 1
ENDMDL
MODEL      176
REMARK 921   NORMALIZED FREE ENERGY PREDICTED BY IDOCK:   -2.35 KCAL/MOL
REMARK 922        TOTAL FREE ENERGY PREDICTED BY IDOCK:   -2.48 KCAL/MOL
REMARK 923 INTER-LIGAND FREE ENERGY PREDICTED BY IDOCK:   -2.44 KCAL/MOL
REMARK 924 INTRA-LIGAND FREE ENERGY PREDICTED BY IDOCK:   -0.04 KCAL/MOL
REMARK 927      BINDING AFFINITY PREDICTED BY RF-SCORE:    0.00 PKD
ROOT
HETATM    1  C   UNL     1     -10.870   6.384  67.185  1.00  0.00    -0.393 C  
HETATM    2  O   UNL     1     -10.651   7.764  66.888  1.00  0.00    -0.343 OA 
ENDROOT
BRANCH   2   3
HETATM    3  C   UNL     1     -10.177   8.495  67.941  1.00  0.00    -0.218 C  
HETATM    4  C   UNL     1      -8.657   8.376  68.024  1.00  0.00    -0.135 C  
HETATM    5  O   UNL     1     -10.879   9.160  68.692  1.00  0.00    -0.162 OA 
HETATM    6  C   UNL     1      -8.013   9.801  67.997  1.00  0.00    -0.097 C  
HETATM    7  C   UNL     1      -8.250   7.531  69.228  1.00  0.00    -0.130 A  
HETATM    8  C   UNL     1      -6.476   9.787  68.144  1.00  0.00    -0.056 C  
HETATM    9  C   UNL     1      -7.454   6.388  69.041  1.00  0.00    -0.095 A  
HETATM   10  C   UNL     1      -5.777   9.254  66.895  1.00  0.00    -0.048 C  
HETATM   11  C   UNL     1      -7.059   5.604  70.125  1.00  0.00    -0.066 A  
HETATM   12  C   UNL     1      -7.460   5.945  71.415  1.00  0.00    -0.096 A  
HETATM   13  C   UNL     1      -6.213  10.050  65.671  1.00  0.00    -0.088 C  
HETATM   14  C   UNL     1      -8.250   7.073  71.620  1.00  0.00    -0.104 A  
HETATM   15  C   UNL     1      -7.735  10.126  65.563  1.00  0.00    -0.145 C  
HETATM   16  C   UNL     1      -8.638   7.866  70.536  1.00  0.00    -0.131 A  
HETATM   17  N   UNL     1      -8.345  10.610  66.800  1.00  0.00    -0.129 NA 
HETATM   18  H   UNL     1      -8.109  11.591  66.956  1.00  0.00     0.000 HD 
ENDBRANCH   2   3
TORSDOF 1
ENDMDL
MODEL      177
REMARK 921   NORMALIZED FREE ENERGY PREDICTED BY IDOCK:   -2.23 KCAL/MOL
REMARK 922        TOTAL FREE ENERGY PREDICTED BY IDOCK:   -2.35 KCAL/MOL
REMARK 923 INTER-LIGAND FREE ENERGY PREDICTED BY IDOCK:   -2.55 KCAL/MOL
REMARK 924 INTRA-LIGAND FREE ENERGY PREDICTED BY IDOCK:    0.20 KCAL/MOL
REMARK 927      BINDING AFFINITY PREDICTED BY RF-SCORE:    0.00 PKD
ROOT
HETATM    1  C   UNL     1      -9.951  10.516  66.756  1.00  0.00    -0.204 C  
HETATM    2  O   UNL     1     -10.826   9.571  67.374  1.00  0.00    -0.269 OA 
ENDROOT
BRANCH   2   3
HETATM    3  C   UNL     1     -10.370   8.284  67.345  1.00  0.00    -0.280 C  
HETATM    4  C   UNL     1      -8.970   8.206  67.952  1.00  0.00    -0.133 C  
HETATM    5  O   UNL     1     -11.008   7.333  66.910  1.00  0.00    -0.343 OA 
HETATM    6  C   UNL     1      -8.955   7.162  69.115  1.00  0.00    -0.138 C  
HETATM    7  C   UNL     1      -7.929   7.945  66.866  1.00  0.00    -0.108 A  
HETATM    8  C   UNL     1      -7.561   6.964  69.751  1.00  0.00    -0.104 C  
HETATM    9  C   UNL     1      -6.857   8.838  66.700  1.00  0.00    -0.072 A  
HETATM   10  C   UNL     1      -7.127   8.166  70.586  1.00  0.00    -0.045 C  
HETATM   11  C   UNL     1      -5.886   8.616  65.722  1.00  0.00    -0.047 A  
HETATM   12  C   UNL     1      -5.974   7.503  64.890  1.00  0.00    -0.038 A  
HETATM   13  C   UNL     1      -8.181   8.478  71.641  1.00  0.00    -0.209 C  
HETATM   14  C   UNL     1      -7.031   6.608  65.040  1.00  0.00    -0.058 A  
HETATM   15  C   UNL     1      -9.573   8.604  71.025  1.00  0.00    -0.209 C  
HETATM   16  C   UNL     1      -7.999   6.822  66.025  1.00  0.00    -0.109 A  
HETATM   17  N   UNL     1      -9.915   7.438  70.211  1.00  0.00    -0.187 NA 
HETATM   18  H   UNL     1     -10.033   6.613  70.799  1.00  0.00     0.000 HD 
ENDBRANCH   2   3
TORSDOF 1
ENDMDL
MODEL      178
REMARK 921   NORMALIZED FREE ENERGY PREDICTED BY IDOCK:   -2.20 KCAL/MOL
REMARK 922        TOTAL FREE ENERGY PREDICTED BY IDOCK:   -2.32 KCAL/MOL
REMARK 923 INTER-LIGAND FREE ENERGY PREDICTED BY IDOCK:   -2.52 KCAL/MOL
REMARK 924 INTRA-LIGAND FREE ENERGY PREDICTED BY IDOCK:    0.20 KCAL/MOL
REMARK 927      BINDING AFFINITY PREDICTED BY RF-SCORE:    0.00 PKD
ROOT
HETATM    1  C   UNL     1     -10.489   7.265  73.209  1.00  0.00    -0.370 C  
HETATM    2  O   UNL     1     -11.495   6.792  72.312  1.00  0.00    -0.262 OA 
ENDROOT
BRANCH   2   3
HETATM    3  C   UNL     1     -11.010   6.328  71.122  1.00  0.00    -0.280 C  
HETATM    4  C   UNL     1      -9.557   5.885  71.282  1.00  0.00    -0.195 C  
HETATM    5  O   UNL     1     -11.662   6.262  70.088  1.00  0.00    -0.398 OA 
HETATM    6  C   UNL     1      -9.402   4.400  70.818  1.00  0.00    -0.154 C  
HETATM    7  C   UNL     1      -8.618   6.860  70.575  1.00  0.00    -0.142 A  
HETATM    8  C   UNL     1      -7.949   3.881  70.880  1.00  0.00    -0.058 C  
HETATM    9  C   UNL     1      -7.591   7.488  71.299  1.00  0.00    -0.081 A  
HETATM   10  C   UNL     1      -7.468   3.669  72.313  1.00  0.00    -0.057 C  
HETATM   11  C   UNL     1      -6.713   8.375  70.675  1.00  0.00    -0.038 A  
HETATM   12  C   UNL     1      -6.852   8.655  69.318  1.00  0.00    -0.050 A  
HETATM   13  C   UNL     1      -8.423   2.741  73.054  1.00  0.00    -0.071 C  
HETATM   14  C   UNL     1      -7.865   8.043  68.584  1.00  0.00    -0.118 A  
HETATM   15  C   UNL     1      -9.871   3.213  72.935  1.00  0.00    -0.131 C  
HETATM   16  C   UNL     1      -8.739   7.146  69.205  1.00  0.00    -0.133 A  
HETATM   17  N   UNL     1     -10.259   3.430  71.541  1.00  0.00     0.021 NA 
HETATM   18  H   UNL     1     -10.298   2.543  71.039  1.00  0.00     0.000 HD 
ENDBRANCH   2   3
TORSDOF 1
ENDMDL
MODEL      179
REMARK 921   NORMALIZED FREE ENERGY PREDICTED BY IDOCK:   -2.16 KCAL/MOL
REMARK 922        TOTAL FREE ENERGY PREDICTED BY IDOCK:   -2.27 KCAL/MOL
REMARK 923 INTER-LIGAND FREE ENERGY PREDICTED BY IDOCK:   -2.52 KCAL/MOL
REMARK 924 INTRA-LIGAND FREE ENERGY PREDICTED BY IDOCK:    0.25 KCAL/MOL
REMARK 927      BINDING AFFINITY PREDICTED BY RF-SCORE:    0.00 PKD
ROOT
HETATM    1  C   UNL     1     -10.657  11.458  64.663  1.00  0.00    -0.318 C  
HETATM    2  O   UNL     1     -10.952  11.209  66.039  1.00  0.00    -0.227 OA 
ENDROOT
BRANCH   2   3
HETATM    3  C   UNL     1     -10.208  10.209  66.599  1.00  0.00    -0.224 C  
HETATM    4  C   UNL     1      -8.743  10.351  66.191  1.00  0.00    -0.163 C  
HETATM    5  O   UNL     1     -10.659   9.341  67.335  1.00  0.00    -0.272 OA 
HETATM    6  C   UNL     1      -7.843  10.418  67.468  1.00  0.00    -0.106 C  
HETATM    7  C   UNL     1      -8.350   9.250  65.209  1.00  0.00    -0.151 A  
HETATM    8  C   UNL     1      -6.332  10.495  67.156  1.00  0.00    -0.068 C  
HETATM    9  C   UNL     1      -7.825   9.592  63.951  1.00  0.00    -0.133 A  
HETATM   10  C   UNL     1      -5.925  11.850  66.581  1.00  0.00     0.045 C  
HETATM   11  C   UNL     1      -7.449   8.605  63.039  1.00  0.00    -0.105 A  
HETATM   12  C   UNL     1      -7.599   7.260  63.366  1.00  0.00    -0.117 A  
HETATM   13  C   UNL     1      -6.357  12.968  67.522  1.00  0.00    -0.153 C  
HETATM   14  C   UNL     1      -8.119   6.902  64.607  1.00  0.00    -0.082 A  
HETATM   15  C   UNL     1      -7.835  12.853  67.889  1.00  0.00    -0.151 C  
HETATM   16  C   UNL     1      -8.486   7.888  65.527  1.00  0.00    -0.153 A  
HETATM   17  N   UNL     1      -8.167  11.523  68.400  1.00  0.00    -0.147 NA 
HETATM   18  H   UNL     1      -7.725  11.368  69.307  1.00  0.00     0.000 HD 
ENDBRANCH   2   3
TORSDOF 1
ENDMDL
MODEL      180
REMARK 921   NORMALIZED FREE ENERGY PREDICTED BY IDOCK:   -2.15 KCAL/MOL
REMARK 922        TOTAL FREE ENERGY PREDICTED BY IDOCK:   -2.27 KCAL/MOL
REMARK 923 INTER-LIGAND FREE ENERGY PREDICTED BY IDOCK:   -2.22 KCAL/MOL
REMARK 924 INTRA-LIGAND FREE ENERGY PREDICTED BY IDOCK:   -0.05 KCAL/MOL
REMARK 927      BINDING AFFINITY PREDICTED BY RF-SCORE:    0.00 PKD
ROOT
HETATM    1  C   UNL     1      -7.367   2.985  68.294  1.00  0.00    -0.049 C  
HETATM    2  O   UNL     1      -8.131   4.192  68.342  1.00  0.00    -0.079 OA 
ENDROOT
BRANCH   2   3
HETATM    3  C   UNL     1      -7.493   5.234  68.953  1.00  0.00    -0.074 C  
HETATM    4  C   UNL     1      -8.387   6.472  68.953  1.00  0.00    -0.122 C  
HETATM    5  O   UNL     1      -6.372   5.167  69.443  1.00  0.00    -0.031 OA 
HETATM    6  C   UNL     1      -8.570   6.991  70.417  1.00  0.00    -0.142 C  
HETATM    7  C   UNL     1      -7.850   7.522  67.983  1.00  0.00    -0.121 A  
HETATM    8  C   UNL     1      -9.409   8.285  70.513  1.00  0.00    -0.169 C  
HETATM    9  C   UNL     1      -8.673   8.002  66.950  1.00  0.00    -0.136 A  
HETATM   10  C   UNL     1     -10.888   8.042  70.224  1.00  0.00    -0.241 C  
HETATM   11  C   UNL     1      -8.211   8.968  66.056  1.00  0.00    -0.113 A  
HETATM   12  C   UNL     1      -6.916   9.465  66.175  1.00  0.00    -0.090 A  
HETATM   13  C   UNL     1     -11.430   6.957  71.147  1.00  0.00    -0.347 C  
HETATM   14  C   UNL     1      -6.085   9.000  67.191  1.00  0.00    -0.058 A  
HETATM   15  C   UNL     1     -10.562   5.701  71.108  1.00  0.00    -0.245 C  
HETATM   16  C   UNL     1      -6.549   8.040  68.094  1.00  0.00    -0.056 A  
HETATM   17  N   UNL     1      -9.153   6.005  71.357  1.00  0.00    -0.143 NA 
HETATM   18  H   UNL     1      -9.019   6.309  72.322  1.00  0.00     0.000 HD 
ENDBRANCH   2   3
TORSDOF 1
ENDMDL
MODEL      181
REMARK 921   NORMALIZED FREE ENERGY PREDICTED BY IDOCK:   -2.13 KCAL/MOL
REMARK 922        TOTAL FREE ENERGY PREDICTED BY IDOCK:   -2.24 KCAL/MOL
REMARK 923 INTER-LIGAND FREE ENERGY PREDICTED BY IDOCK:   -2.18 KCAL/MOL
REMARK 924 INTRA-LIGAND FREE ENERGY PREDICTED BY IDOCK:   -0.06 KCAL/MOL
REMARK 927      BINDING AFFINITY PREDICTED BY RF-SCORE:    0.00 PKD
ROOT
HETATM    1  C   UNL     1     -10.887   4.644  65.427  1.00  0.00    -0.050 C  
HETATM    2  O   UNL     1     -10.691   5.709  66.358  1.00  0.00    -0.261 OA 
ENDROOT
BRANCH   2   3
HETATM    3  C   UNL     1      -9.428   5.775  66.875  1.00  0.00    -0.133 C  
HETATM    4  C   UNL     1      -9.012   7.232  67.066  1.00  0.00    -0.140 C  
HETATM    5  O   UNL     1      -8.745   4.799  67.158  1.00  0.00    -0.105 OA 
HETATM    6  C   UNL     1      -8.589   7.470  68.552  1.00  0.00    -0.129 C  
HETATM    7  C   UNL     1      -7.946   7.624  66.045  1.00  0.00    -0.112 A  
HETATM    8  C   UNL     1      -8.086   8.904  68.830  1.00  0.00    -0.112 C  
HETATM    9  C   UNL     1      -8.171   8.714  65.187  1.00  0.00    -0.152 A  
HETATM   10  C   UNL     1      -9.215   9.931  68.800  1.00  0.00    -0.147 C  
HETATM   11  C   UNL     1      -7.209   9.099  64.252  1.00  0.00    -0.099 A  
HETATM   12  C   UNL     1      -6.011   8.397  64.154  1.00  0.00    -0.066 A  
HETATM   13  C   UNL     1     -10.316   9.529  69.774  1.00  0.00    -0.251 C  
HETATM   14  C   UNL     1      -5.772   7.314  64.995  1.00  0.00    -0.037 A  
HETATM   15  C   UNL     1     -10.765   8.087  69.549  1.00  0.00    -0.181 C  
HETATM   16  C   UNL     1      -6.728   6.932  65.940  1.00  0.00    -0.052 A  
HETATM   17  N   UNL     1      -9.636   7.158  69.554  1.00  0.00    -0.154 NA 
HETATM   18  H   UNL     1      -9.230   7.094  70.488  1.00  0.00     0.000 HD 
ENDBRANCH   2   3
TORSDOF 1
ENDMDL
MODEL      182
REMARK 921   NORMALIZED FREE ENERGY PREDICTED BY IDOCK:   -2.12 KCAL/MOL
REMARK 922        TOTAL FREE ENERGY PREDICTED BY IDOCK:   -2.23 KCAL/MOL
REMARK 923 INTER-LIGAND FREE ENERGY PREDICTED BY IDOCK:   -2.16 KCAL/MOL
REMARK 924 INTRA-LIGAND FREE ENERGY PREDICTED BY IDOCK:   -0.07 KCAL/MOL
REMARK 927      BINDING AFFINITY PREDICTED BY RF-SCORE:    0.00 PKD
ROOT
HETATM    1  C   UNL     1     -11.011   6.147  67.270  1.00  0.00    -0.326 C  
HETATM    2  O   UNL     1     -10.337   7.305  66.775  1.00  0.00    -0.269 OA 
ENDROOT
BRANCH   2   3
HETATM    3  C   UNL     1      -8.975   7.200  66.768  1.00  0.00    -0.137 C  
HETATM    4  C   UNL     1      -8.383   7.945  67.963  1.00  0.00    -0.123 C  
HETATM    5  O   UNL     1      -8.333   6.578  65.930  1.00  0.00    -0.127 OA 
HETATM    6  C   UNL     1      -7.486   6.974  68.799  1.00  0.00    -0.099 C  
HETATM    7  C   UNL     1      -7.667   9.213  67.503  1.00  0.00    -0.092 A  
HETATM    8  C   UNL     1      -6.787   7.656  69.996  1.00  0.00    -0.050 C  
HETATM    9  C   UNL     1      -8.050  10.458  68.030  1.00  0.00    -0.110 A  
HETATM   10  C   UNL     1      -7.763   8.006  71.117  1.00  0.00    -0.087 C  
HETATM   11  C   UNL     1      -7.406  11.631  67.635  1.00  0.00    -0.108 A  
HETATM   12  C   UNL     1      -6.374  11.580  66.701  1.00  0.00    -0.103 A  
HETATM   13  C   UNL     1      -8.528   6.762  71.553  1.00  0.00    -0.119 C  
HETATM   14  C   UNL     1      -5.983  10.355  66.167  1.00  0.00    -0.090 A  
HETATM   15  C   UNL     1      -9.161   6.046  70.362  1.00  0.00    -0.149 C  
HETATM   16  C   UNL     1      -6.619   9.177  66.569  1.00  0.00    -0.067 A  
HETATM   17  N   UNL     1      -8.183   5.770  69.310  1.00  0.00    -0.104 NA 
HETATM   18  H   UNL     1      -7.507   5.072  69.624  1.00  0.00     0.000 HD 
ENDBRANCH   2   3
TORSDOF 1
ENDMDL
MODEL      183
REMARK 921   NORMALIZED FREE ENERGY PREDICTED BY IDOCK:   -2.10 KCAL/MOL
REMARK 922        TOTAL FREE ENERGY PREDICTED BY IDOCK:   -2.21 KCAL/MOL
REMARK 923 INTER-LIGAND FREE ENERGY PREDICTED BY IDOCK:   -2.09 KCAL/MOL
REMARK 924 INTRA-LIGAND FREE ENERGY PREDICTED BY IDOCK:   -0.12 KCAL/MOL
REMARK 927      BINDING AFFINITY PREDICTED BY RF-SCORE:    0.00 PKD
ROOT
HETATM    1  C   UNL     1     -11.913  13.993  66.585  1.00  0.00    -0.445 C  
HETATM    2  O   UNL     1     -10.711  14.234  67.318  1.00  0.00    -0.273 OA 
ENDROOT
BRANCH   2   3
HETATM    3  C   UNL     1      -9.569  14.081  66.585  1.00  0.00    -0.289 C  
HETATM    4  C   UNL     1      -8.847  12.798  66.993  1.00  0.00    -0.213 C  
HETATM    5  O   UNL     1      -9.196  14.858  65.714  1.00  0.00    -0.214 OA 
HETATM    6  C   UNL     1      -8.622  11.896  65.736  1.00  0.00     0.308 C  
HETATM    7  C   UNL     1      -7.570  13.122  67.764  1.00  0.00    -0.155 A  
HETATM    8  C   UNL     1      -7.837  10.600  66.038  1.00  0.00    -0.156 C  
HETATM    9  C   UNL     1      -7.385  12.601  69.056  1.00  0.00     0.055 A  
HETATM   10  C   UNL     1      -8.664   9.592  66.833  1.00  0.00    -0.139 C  
HETATM   11  C   UNL     1      -6.223  12.873  69.778  1.00  0.00    -0.105 A  
HETATM   12  C   UNL     1      -5.230  13.678  69.225  1.00  0.00    -0.077 A  
HETATM   13  C   UNL     1      -9.970   9.296  66.106  1.00  0.00    -0.348 C  
HETATM   14  C   UNL     1      -5.397  14.205  67.947  1.00  0.00    -0.071 A  
HETATM   15  C   UNL     1     -10.713  10.579  65.742  1.00  0.00     0.016 C  
HETATM   16  C   UNL     1      -6.555  13.925  67.217  1.00  0.00     0.264 A  
HETATM   17  N   UNL     1      -9.859  11.516  65.013  1.00  0.00    -0.252 NA 
HETATM   18  H   UNL     1      -9.634  11.148  64.088  1.00  0.00     0.000 HD 
ENDBRANCH   2   3
TORSDOF 1
ENDMDL
MODEL      184
REMARK 921   NORMALIZED FREE ENERGY PREDICTED BY IDOCK:   -2.03 KCAL/MOL
REMARK 922        TOTAL FREE ENERGY PREDICTED BY IDOCK:   -2.14 KCAL/MOL
REMARK 923 INTER-LIGAND FREE ENERGY PREDICTED BY IDOCK:   -2.00 KCAL/MOL
REMARK 924 INTRA-LIGAND FREE ENERGY PREDICTED BY IDOCK:   -0.13 KCAL/MOL
REMARK 927      BINDING AFFINITY PREDICTED BY RF-SCORE:    0.00 PKD
ROOT
HETATM    1  C   UNL     1      -5.860   2.404  68.481  1.00  0.00    -0.023 C  
HETATM    2  O   UNL     1      -7.004   3.149  68.062  1.00  0.00    -0.048 OA 
ENDROOT
BRANCH   2   3
HETATM    3  C   UNL     1      -6.786   4.493  67.951  1.00  0.00    -0.055 C  
HETATM    4  C   UNL     1      -7.615   5.249  68.989  1.00  0.00    -0.078 C  
HETATM    5  O   UNL     1      -6.020   5.006  67.145  1.00  0.00    -0.024 OA 
HETATM    6  C   UNL     1      -6.678   6.149  69.859  1.00  0.00    -0.056 C  
HETATM    7  C   UNL     1      -8.757   6.006  68.315  1.00  0.00    -0.113 A  
HETATM    8  C   UNL     1      -7.435   7.006  70.897  1.00  0.00    -0.082 C  
HETATM    9  C   UNL     1     -10.083   5.766  68.714  1.00  0.00    -0.231 A  
HETATM   10  C   UNL     1      -7.994   6.169  72.045  1.00  0.00    -0.106 C  
HETATM   11  C   UNL     1     -11.144   6.452  68.122  1.00  0.00    -0.358 A  
HETATM   12  C   UNL     1     -10.898   7.384  67.116  1.00  0.00    -0.340 A  
HETATM   13  C   UNL     1      -6.877   5.363  72.697  1.00  0.00    -0.077 C  
HETATM   14  C   UNL     1      -9.591   7.633  66.707  1.00  0.00    -0.269 A  
HETATM   15  C   UNL     1      -6.081   4.569  71.663  1.00  0.00    -0.017 C  
HETATM   16  C   UNL     1      -8.525   6.956  67.306  1.00  0.00    -0.121 A  
HETATM   17  N   UNL     1      -5.604   5.420  70.574  1.00  0.00    -0.005 NA 
HETATM   18  H   UNL     1      -4.895   6.070  70.913  1.00  0.00     0.000 HD 
ENDBRANCH   2   3
TORSDOF 1
ENDMDL
MODEL      185
REMARK 921   NORMALIZED FREE ENERGY PREDICTED BY IDOCK:   -2.00 KCAL/MOL
REMARK 922        TOTAL FREE ENERGY PREDICTED BY IDOCK:   -2.10 KCAL/MOL
REMARK 923 INTER-LIGAND FREE ENERGY PREDICTED BY IDOCK:   -2.00 KCAL/MOL
REMARK 924 INTRA-LIGAND FREE ENERGY PREDICTED BY IDOCK:   -0.10 KCAL/MOL
REMARK 927      BINDING AFFINITY PREDICTED BY RF-SCORE:    0.00 PKD
ROOT
HETATM    1  C   UNL     1      -8.457   3.417  69.353  1.00  0.00    -0.061 C  
HETATM    2  O   UNL     1      -8.328   4.835  69.244  1.00  0.00    -0.080 OA 
ENDROOT
BRANCH   2   3
HETATM    3  C   UNL     1      -9.293   5.427  68.479  1.00  0.00    -0.118 C  
HETATM    4  C   UNL     1      -8.722   5.813  67.116  1.00  0.00    -0.108 C  
HETATM    5  O   UNL     1     -10.451   5.601  68.839  1.00  0.00    -0.220 OA 
HETATM    6  C   UNL     1      -9.584   5.169  65.981  1.00  0.00    -0.162 C  
HETATM    7  C   UNL     1      -8.578   7.329  67.004  1.00  0.00    -0.122 A  
HETATM    8  C   UNL     1      -9.122   5.557  64.559  1.00  0.00     0.271 C  
HETATM    9  C   UNL     1      -7.323   7.889  66.712  1.00  0.00    -0.089 A  
HETATM   10  C   UNL     1      -7.801   4.895  64.176  1.00  0.00    -0.092 C  
HETATM   11  C   UNL     1      -7.165   9.271  66.594  1.00  0.00    -0.082 A  
HETATM   12  C   UNL     1      -8.258  10.115  66.774  1.00  0.00    -0.122 A  
HETATM   13  C   UNL     1      -7.907   3.383  64.333  1.00  0.00    -0.082 C  
HETATM   14  C   UNL     1      -9.508   9.578  67.065  1.00  0.00    -0.197 A  
HETATM   15  C   UNL     1      -8.432   2.998  65.715  1.00  0.00    -0.110 C  
HETATM   16  C   UNL     1      -9.672   8.194  67.173  1.00  0.00    -0.259 A  
HETATM   17  N   UNL     1      -9.679   3.691  66.036  1.00  0.00    -0.371 NA 
HETATM   18  H   UNL     1     -10.437   3.359  65.438  1.00  0.00     0.000 HD 
ENDBRANCH   2   3
TORSDOF 1
ENDMDL
MODEL      186
REMARK 921   NORMALIZED FREE ENERGY PREDICTED BY IDOCK:   -1.95 KCAL/MOL
REMARK 922        TOTAL FREE ENERGY PREDICTED BY IDOCK:   -2.06 KCAL/MOL
REMARK 923 INTER-LIGAND FREE ENERGY PREDICTED BY IDOCK:   -2.06 KCAL/MOL
REMARK 924 INTRA-LIGAND FREE ENERGY PREDICTED BY IDOCK:    0.00 KCAL/MOL
REMARK 927      BINDING AFFINITY PREDICTED BY RF-SCORE:    0.00 PKD
ROOT
HETATM    1  C   UNL     1     -10.505   9.081  67.029  1.00  0.00    -0.246 C  
HETATM    2  O   UNL     1     -10.558   8.483  68.325  1.00  0.00    -0.198 OA 
ENDROOT
BRANCH   2   3
HETATM    3  C   UNL     1      -9.412   7.836  68.690  1.00  0.00    -0.152 C  
HETATM    4  C   UNL     1      -8.447   7.767  67.509  1.00  0.00    -0.120 C  
HETATM    5  O   UNL     1      -9.194   7.395  69.812  1.00  0.00    -0.142 OA 
HETATM    6  C   UNL     1      -7.072   8.393  67.912  1.00  0.00    -0.083 C  
HETATM    7  C   UNL     1      -8.349   6.339  66.978  1.00  0.00    -0.109 A  
HETATM    8  C   UNL     1      -6.004   8.309  66.799  1.00  0.00    -0.053 C  
HETATM    9  C   UNL     1      -8.641   6.075  65.629  1.00  0.00    -0.154 A  
HETATM   10  C   UNL     1      -6.297   9.258  65.640  1.00  0.00    -0.067 C  
HETATM   11  C   UNL     1      -8.549   4.780  65.116  1.00  0.00    -0.140 A  
HETATM   12  C   UNL     1      -8.172   3.727  65.945  1.00  0.00    -0.101 A  
HETATM   13  C   UNL     1      -6.453  10.683  66.156  1.00  0.00    -0.131 C  
HETATM   14  C   UNL     1      -7.881   3.969  67.285  1.00  0.00    -0.091 A  
HETATM   15  C   UNL     1      -7.456  10.758  67.306  1.00  0.00    -0.101 C  
HETATM   16  C   UNL     1      -7.961   5.266  67.799  1.00  0.00    -0.099 A  
HETATM   17  N   UNL     1      -7.140   9.802  68.367  1.00  0.00    -0.072 NA 
HETATM   18  H   UNL     1      -6.276  10.067  68.841  1.00  0.00     0.000 HD 
ENDBRANCH   2   3
TORSDOF 1
ENDMDL
MODEL      187
REMARK 921   NORMALIZED FREE ENERGY PREDICTED BY IDOCK:   -1.92 KCAL/MOL
REMARK 922        TOTAL FREE ENERGY PREDICTED BY IDOCK:   -2.02 KCAL/MOL
REMARK 923 INTER-LIGAND FREE ENERGY PREDICTED BY IDOCK:   -2.03 KCAL/MOL
REMARK 924 INTRA-LIGAND FREE ENERGY PREDICTED BY IDOCK:    0.01 KCAL/MOL
REMARK 927      BINDING AFFINITY PREDICTED BY RF-SCORE:    0.00 PKD
ROOT
HETATM    1  C   UNL     1     -11.109   6.235  68.987  1.00  0.00    -0.378 C  
HETATM    2  O   UNL     1     -10.356   7.440  68.838  1.00  0.00    -0.198 OA 
ENDROOT
BRANCH   2   3
HETATM    3  C   UNL     1      -9.005   7.250  68.767  1.00  0.00    -0.129 C  
HETATM    4  C   UNL     1      -8.619   6.726  67.385  1.00  0.00    -0.120 C  
HETATM    5  O   UNL     1      -8.224   7.487  69.679  1.00  0.00    -0.125 OA 
HETATM    6  C   UNL     1      -7.546   7.665  66.744  1.00  0.00    -0.098 C  
HETATM    7  C   UNL     1      -8.196   5.261  67.465  1.00  0.00    -0.100 A  
HETATM    8  C   UNL     1      -7.041   7.179  65.368  1.00  0.00    -0.064 C  
HETATM    9  C   UNL     1      -8.858   4.301  66.682  1.00  0.00    -0.116 A  
HETATM   10  C   UNL     1      -8.093   7.340  64.273  1.00  0.00    -0.049 C  
HETATM   11  C   UNL     1      -8.485   2.957  66.729  1.00  0.00    -0.101 A  
HETATM   12  C   UNL     1      -7.449   2.550  67.566  1.00  0.00    -0.057 A  
HETATM   13  C   UNL     1      -8.569   8.787  64.213  1.00  0.00    -0.093 C  
HETATM   14  C   UNL     1      -6.783   3.487  68.351  1.00  0.00    -0.045 A  
HETATM   15  C   UNL     1      -9.001   9.293  65.587  1.00  0.00    -0.199 C  
HETATM   16  C   UNL     1      -7.148   4.835  68.298  1.00  0.00    -0.061 A  
HETATM   17  N   UNL     1      -7.965   9.079  66.597  1.00  0.00    -0.100 NA 
HETATM   18  H   UNL     1      -7.157   9.675  66.412  1.00  0.00     0.000 HD 
ENDBRANCH   2   3
TORSDOF 1
ENDMDL
MODEL      188
REMARK 921   NORMALIZED FREE ENERGY PREDICTED BY IDOCK:   -1.83 KCAL/MOL
REMARK 922        TOTAL FREE ENERGY PREDICTED BY IDOCK:   -1.92 KCAL/MOL
REMARK 923 INTER-LIGAND FREE ENERGY PREDICTED BY IDOCK:   -2.08 KCAL/MOL
REMARK 924 INTRA-LIGAND FREE ENERGY PREDICTED BY IDOCK:    0.16 KCAL/MOL
REMARK 927      BINDING AFFINITY PREDICTED BY RF-SCORE:    0.00 PKD
ROOT
HETATM    1  C   UNL     1      -7.466   5.497  64.383  1.00  0.00    -0.068 C  
HETATM    2  O   UNL     1      -6.387   5.059  65.211  1.00  0.00    -0.033 OA 
ENDROOT
BRANCH   2   3
HETATM    3  C   UNL     1      -6.426   5.549  66.485  1.00  0.00    -0.047 C  
HETATM    4  C   UNL     1      -7.718   5.118  67.177  1.00  0.00    -0.092 C  
HETATM    5  O   UNL     1      -5.538   6.220  66.996  1.00  0.00    -0.011 OA 
HETATM    6  C   UNL     1      -7.381   4.371  68.508  1.00  0.00    -0.060 C  
HETATM    7  C   UNL     1      -8.656   6.309  67.352  1.00  0.00    -0.107 A  
HETATM    8  C   UNL     1      -8.629   3.952  69.316  1.00  0.00    -0.114 C  
HETATM    9  C   UNL     1      -9.955   6.258  66.818  1.00  0.00    -0.220 A  
HETATM   10  C   UNL     1      -9.390   2.805  68.656  1.00  0.00    -0.240 C  
HETATM   11  C   UNL     1     -10.836   7.329  66.972  1.00  0.00    -0.350 A  
HETATM   12  C   UNL     1     -10.431   8.472  67.657  1.00  0.00    -0.308 A  
HETATM   13  C   UNL     1      -8.456   1.623  68.422  1.00  0.00    -0.083 C  
HETATM   14  C   UNL     1      -9.147   8.542  68.191  1.00  0.00    -0.138 A  
HETATM   15  C   UNL     1      -7.187   2.048  67.687  1.00  0.00    -0.047 C  
HETATM   16  C   UNL     1      -8.266   7.466  68.047  1.00  0.00    -0.124 A  
HETATM   17  N   UNL     1      -6.524   3.171  68.348  1.00  0.00    -0.035 NA 
HETATM   18  H   UNL     1      -6.143   2.881  69.249  1.00  0.00     0.000 HD 
ENDBRANCH   2   3
TORSDOF 1
ENDMDL
MODEL      189
REMARK 921   NORMALIZED FREE ENERGY PREDICTED BY IDOCK:   -1.82 KCAL/MOL
REMARK 922        TOTAL FREE ENERGY PREDICTED BY IDOCK:   -1.91 KCAL/MOL
REMARK 923 INTER-LIGAND FREE ENERGY PREDICTED BY IDOCK:   -1.85 KCAL/MOL
REMARK 924 INTRA-LIGAND FREE ENERGY PREDICTED BY IDOCK:   -0.06 KCAL/MOL
REMARK 927      BINDING AFFINITY PREDICTED BY RF-SCORE:    0.00 PKD
ROOT
HETATM    1  C   UNL     1      -8.352   6.159  63.788  1.00  0.00     0.081 C  
HETATM    2  O   UNL     1      -8.603   5.870  65.165  1.00  0.00    -0.149 OA 
ENDROOT
BRANCH   2   3
HETATM    3  C   UNL     1      -7.600   6.254  66.009  1.00  0.00    -0.087 C  
HETATM    4  C   UNL     1      -8.186   6.816  67.303  1.00  0.00    -0.121 C  
HETATM    5  O   UNL     1      -6.407   6.141  65.761  1.00  0.00    -0.036 OA 
HETATM    6  C   UNL     1      -7.606   6.037  68.528  1.00  0.00    -0.091 C  
HETATM    7  C   UNL     1      -7.982   8.327  67.372  1.00  0.00    -0.106 A  
HETATM    8  C   UNL     1      -8.091   6.579  69.891  1.00  0.00    -0.121 C  
HETATM    9  C   UNL     1      -9.092   9.174  67.529  1.00  0.00    -0.137 A  
HETATM   10  C   UNL     1      -9.560   6.257  70.155  1.00  0.00    -0.181 C  
HETATM   11  C   UNL     1      -8.932  10.558  67.606  1.00  0.00    -0.138 A  
HETATM   12  C   UNL     1      -7.660  11.119  67.518  1.00  0.00    -0.108 A  
HETATM   13  C   UNL     1      -9.796   4.756  70.037  1.00  0.00    -0.297 C  
HETATM   14  C   UNL     1      -6.549  10.296  67.360  1.00  0.00    -0.068 A  
HETATM   15  C   UNL     1      -9.254   4.205  68.720  1.00  0.00    -0.146 C  
HETATM   16  C   UNL     1      -6.705   8.909  67.294  1.00  0.00    -0.066 A  
HETATM   17  N   UNL     1      -7.855   4.576  68.510  1.00  0.00    -0.078 NA 
HETATM   18  H   UNL     1      -7.254   4.103  69.185  1.00  0.00     0.000 HD 
ENDBRANCH   2   3
TORSDOF 1
ENDMDL
MODEL      190
REMARK 921   NORMALIZED FREE ENERGY PREDICTED BY IDOCK:   -1.78 KCAL/MOL
REMARK 922        TOTAL FREE ENERGY PREDICTED BY IDOCK:   -1.88 KCAL/MOL
REMARK 923 INTER-LIGAND FREE ENERGY PREDICTED BY IDOCK:   -1.93 KCAL/MOL
REMARK 924 INTRA-LIGAND FREE ENERGY PREDICTED BY IDOCK:    0.05 KCAL/MOL
REMARK 927      BINDING AFFINITY PREDICTED BY RF-SCORE:    0.00 PKD
ROOT
HETATM    1  C   UNL     1      -5.455   5.824  64.887  1.00  0.00    -0.016 C  
HETATM    2  O   UNL     1      -5.610   6.116  66.277  1.00  0.00    -0.012 OA 
ENDROOT
BRANCH   2   3
HETATM    3  C   UNL     1      -6.082   7.371  66.536  1.00  0.00    -0.040 C  
HETATM    4  C   UNL     1      -7.553   7.473  66.140  1.00  0.00    -0.088 C  
HETATM    5  O   UNL     1      -5.416   8.271  67.033  1.00  0.00    -0.035 OA 
HETATM    6  C   UNL     1      -8.398   7.951  67.365  1.00  0.00    -0.123 C  
HETATM    7  C   UNL     1      -7.715   8.341  64.895  1.00  0.00    -0.115 A  
HETATM    8  C   UNL     1      -9.896   8.149  67.044  1.00  0.00    -0.299 C  
HETATM    9  C   UNL     1      -8.349   7.816  63.756  1.00  0.00     0.112 A  
HETATM   10  C   UNL     1     -10.625   6.825  66.832  1.00  0.00    -0.374 C  
HETATM   11  C   UNL     1      -8.518   8.591  62.609  1.00  0.00    -0.132 A  
HETATM   12  C   UNL     1      -8.050   9.903  62.577  1.00  0.00    -0.138 A  
HETATM   13  C   UNL     1     -10.431   5.921  68.043  1.00  0.00    -0.294 C  
HETATM   14  C   UNL     1      -7.418  10.440  63.696  1.00  0.00    -0.024 A  
HETATM   15  C   UNL     1      -8.954   5.780  68.408  1.00  0.00    -0.111 C  
HETATM   16  C   UNL     1      -7.256   9.669  64.850  1.00  0.00    -0.118 A  
HETATM   17  N   UNL     1      -8.306   7.082  68.562  1.00  0.00    -0.121 NA 
HETATM   18  H   UNL     1      -8.667   7.566  69.385  1.00  0.00     0.000 HD 
ENDBRANCH   2   3
TORSDOF 1
ENDMDL
MODEL      191
REMARK 921   NORMALIZED FREE ENERGY PREDICTED BY IDOCK:   -1.70 KCAL/MOL
REMARK 922        TOTAL FREE ENERGY PREDICTED BY IDOCK:   -1.79 KCAL/MOL
REMARK 923 INTER-LIGAND FREE ENERGY PREDICTED BY IDOCK:   -1.74 KCAL/MOL
REMARK 924 INTRA-LIGAND FREE ENERGY PREDICTED BY IDOCK:   -0.05 KCAL/MOL
REMARK 927      BINDING AFFINITY PREDICTED BY RF-SCORE:    0.00 PKD
ROOT
HETATM    1  C   UNL     1      -5.843   2.418  68.489  1.00  0.00    -0.023 C  
HETATM    2  O   UNL     1      -6.890   3.339  68.181  1.00  0.00    -0.047 OA 
ENDROOT
BRANCH   2   3
HETATM    3  C   UNL     1      -6.484   4.641  68.102  1.00  0.00    -0.041 C  
HETATM    4  C   UNL     1      -7.510   5.467  67.328  1.00  0.00    -0.084 C  
HETATM    5  O   UNL     1      -5.453   5.076  68.600  1.00  0.00    -0.013 OA 
HETATM    6  C   UNL     1      -7.979   6.678  68.199  1.00  0.00    -0.110 C  
HETATM    7  C   UNL     1      -6.960   5.860  65.959  1.00  0.00    -0.062 A  
HETATM    8  C   UNL     1      -8.971   7.614  67.474  1.00  0.00    -0.128 C  
HETATM    9  C   UNL     1      -7.666   5.506  64.797  1.00  0.00    -0.092 A  
HETATM   10  C   UNL     1     -10.348   6.977  67.300  1.00  0.00    -0.331 C  
HETATM   11  C   UNL     1      -7.191   5.862  63.534  1.00  0.00    -0.058 A  
HETATM   12  C   UNL     1      -5.998   6.571  63.412  1.00  0.00    -0.034 A  
HETATM   13  C   UNL     1     -10.892   6.528  68.651  1.00  0.00    -0.357 C  
HETATM   14  C   UNL     1      -5.285   6.929  64.552  1.00  0.00    -0.027 A  
HETATM   15  C   UNL     1      -9.883   5.661  69.402  1.00  0.00    -0.175 C  
HETATM   16  C   UNL     1      -5.764   6.583  65.819  1.00  0.00    -0.025 A  
HETATM   17  N   UNL     1      -8.577   6.311  69.505  1.00  0.00    -0.131 NA 
HETATM   18  H   UNL     1      -8.631   7.126  70.116  1.00  0.00     0.000 HD 
ENDBRANCH   2   3
TORSDOF 1
ENDMDL
MODEL      192
REMARK 921   NORMALIZED FREE ENERGY PREDICTED BY IDOCK:   -1.65 KCAL/MOL
REMARK 922        TOTAL FREE ENERGY PREDICTED BY IDOCK:   -1.74 KCAL/MOL
REMARK 923 INTER-LIGAND FREE ENERGY PREDICTED BY IDOCK:   -1.68 KCAL/MOL
REMARK 924 INTRA-LIGAND FREE ENERGY PREDICTED BY IDOCK:   -0.06 KCAL/MOL
REMARK 927      BINDING AFFINITY PREDICTED BY RF-SCORE:    0.00 PKD
ROOT
HETATM    1  C   UNL     1     -10.472   5.545  68.957  1.00  0.00    -0.226 C  
HETATM    2  O   UNL     1      -9.844   6.614  69.668  1.00  0.00    -0.156 OA 
ENDROOT
BRANCH   2   3
HETATM    3  C   UNL     1      -8.541   6.375  70.001  1.00  0.00    -0.135 C  
HETATM    4  C   UNL     1      -8.441   5.942  71.463  1.00  0.00    -0.128 C  
HETATM    5  O   UNL     1      -7.599   6.478  69.226  1.00  0.00    -0.095 OA 
HETATM    6  C   UNL     1      -7.707   4.564  71.557  1.00  0.00    -0.082 C  
HETATM    7  C   UNL     1      -7.808   7.044  72.307  1.00  0.00    -0.091 A  
HETATM    8  C   UNL     1      -7.499   4.073  73.006  1.00  0.00    -0.074 C  
HETATM    9  C   UNL     1      -8.500   7.557  73.417  1.00  0.00    -0.196 A  
HETATM   10  C   UNL     1      -8.802   3.624  73.661  1.00  0.00    -0.088 C  
HETATM   11  C   UNL     1      -7.939   8.558  74.211  1.00  0.00    -0.130 A  
HETATM   12  C   UNL     1      -6.680   9.068  73.905  1.00  0.00     0.199 A  
HETATM   13  C   UNL     1      -9.479   2.560  72.804  1.00  0.00    -0.142 C  
HETATM   14  C   UNL     1      -5.980   8.573  72.808  1.00  0.00    -0.075 A  
HETATM   15  C   UNL     1      -9.623   3.016  71.354  1.00  0.00    -0.157 C  
HETATM   16  C   UNL     1      -6.534   7.563  72.017  1.00  0.00    -0.042 A  
HETATM   17  N   UNL     1      -8.348   3.465  70.796  1.00  0.00    -0.063 NA 
HETATM   18  H   UNL     1      -7.705   2.679  70.694  1.00  0.00     0.000 HD 
ENDBRANCH   2   3
TORSDOF 1
ENDMDL
MODEL      193
REMARK 921   NORMALIZED FREE ENERGY PREDICTED BY IDOCK:    0.16 KCAL/MOL
REMARK 922        TOTAL FREE ENERGY PREDICTED BY IDOCK:    0.18 KCAL/MOL
REMARK 923 INTER-LIGAND FREE ENERGY PREDICTED BY IDOCK:    0.24 KCAL/MOL
REMARK 924 INTRA-LIGAND FREE ENERGY PREDICTED BY IDOCK:   -0.05 KCAL/MOL
REMARK 927      BINDING AFFINITY PREDICTED BY RF-SCORE:    0.00 PKD
ROOT
HETATM    1  C   UNL     1      -5.289   5.340  65.129  1.00  0.00    -0.013 C  
HETATM    2  O   UNL     1      -5.616   5.752  66.457  1.00  0.00    -0.012 OA 
ENDROOT
BRANCH   2   3
HETATM    3  C   UNL     1      -6.350   6.902  66.522  1.00  0.00    -0.049 C  
HETATM    4  C   UNL     1      -7.237   6.891  67.766  1.00  0.00    -0.091 C  
HETATM    5  O   UNL     1      -6.285   7.811  65.705  1.00  0.00    -0.041 OA 
HETATM    6  C   UNL     1      -6.957   8.167  68.625  1.00  0.00    -0.068 C  
HETATM    7  C   UNL     1      -8.703   6.710  67.378  1.00  0.00    -0.118 A  
HETATM    8  C   UNL     1      -7.857   8.280  69.875  1.00  0.00    -0.102 C  
HETATM    9  C   UNL     1      -9.438   5.640  67.914  1.00  0.00    -0.120 A  
HETATM   10  C   UNL     1      -7.491   7.259  70.949  1.00  0.00    -0.075 C  
HETATM   11  C   UNL     1     -10.782   5.458  67.585  1.00  0.00    -0.125 A  
HETATM   12  C   UNL     1     -11.410   6.338  66.707  1.00  0.00     0.103 A  
HETATM   13  C   UNL     1      -6.016   7.386  71.312  1.00  0.00    -0.036 C  
HETATM   14  C   UNL     1     -10.697   7.403  66.165  1.00  0.00     1.281 A  
HETATM   15  C   UNL     1      -5.128   7.347  70.070  1.00  0.00    -0.023 C  
HETATM   16  C   UNL     1      -9.354   7.595  66.502  1.00  0.00    -0.241 A  
HETATM   17  N   UNL     1      -5.551   8.323  69.067  1.00  0.00    -0.034 NA 
HETATM   18  H   UNL     1      -5.384   9.273  69.399  1.00  0.00     0.000 HD 
ENDBRANCH   2   3
TORSDOF 1
ENDMDL
MODEL      194
REMARK 921   NORMALIZED FREE ENERGY PREDICTED BY IDOCK:    0.90 KCAL/MOL
REMARK 922        TOTAL FREE ENERGY PREDICTED BY IDOCK:    0.97 KCAL/MOL
REMARK 923 INTER-LIGAND FREE ENERGY PREDICTED BY IDOCK:    1.01 KCAL/MOL
REMARK 924 INTRA-LIGAND FREE ENERGY PREDICTED BY IDOCK:   -0.04 KCAL/MOL
REMARK 927      BINDING AFFINITY PREDICTED BY RF-SCORE:    0.00 PKD
ROOT
HETATM    1  C   UNL     1      -8.248   6.878  62.425  1.00  0.00    -0.063 C  
HETATM    2  O   UNL     1      -9.526   6.474  62.921  1.00  0.00     1.498 OA 
ENDROOT
BRANCH   2   3
HETATM    3  C   UNL     1      -9.582   5.172  63.327  1.00  0.00     0.613 C  
HETATM    4  C   UNL     1      -9.111   5.050  64.775  1.00  0.00    -0.056 C  
HETATM    5  O   UNL     1      -9.974   4.245  62.628  1.00  0.00    -0.155 OA 
HETATM    6  C   UNL     1     -10.217   4.355  65.634  1.00  0.00    -0.238 C  
HETATM    7  C   UNL     1      -7.749   4.364  64.840  1.00  0.00    -0.081 A  
HETATM    8  C   UNL     1      -9.804   4.126  67.105  1.00  0.00    -0.182 C  
HETATM    9  C   UNL     1      -6.670   5.014  65.462  1.00  0.00    -0.056 A  
HETATM   10  C   UNL     1      -9.752   5.427  67.903  1.00  0.00    -0.165 C  
HETATM   11  C   UNL     1      -5.417   4.405  65.544  1.00  0.00    -0.013 A  
HETATM   12  C   UNL     1      -5.220   3.139  64.999  1.00  0.00    -0.009 A  
HETATM   13  C   UNL     1     -11.087   6.155  67.805  1.00  0.00    -0.306 C  
HETATM   14  C   UNL     1      -6.277   2.480  64.377  1.00  0.00    -0.019 A  
HETATM   15  C   UNL     1     -11.532   6.319  66.354  1.00  0.00     1.026 C  
HETATM   16  C   UNL     1      -7.535   3.083  64.303  1.00  0.00    -0.071 A  
HETATM   17  N   UNL     1     -11.528   5.045  65.636  1.00  0.00    -0.713 NA 
HETATM   18  H   UNL     1     -12.257   4.429  65.998  1.00  0.00     0.000 HD 
ENDBRANCH   2   3
TORSDOF 1
ENDMDL
MODEL      195
REMARK 921   NORMALIZED FREE ENERGY PREDICTED BY IDOCK:    2.19 KCAL/MOL
REMARK 922        TOTAL FREE ENERGY PREDICTED BY IDOCK:    2.34 KCAL/MOL
REMARK 923 INTER-LIGAND FREE ENERGY PREDICTED BY IDOCK:    1.92 KCAL/MOL
REMARK 924 INTRA-LIGAND FREE ENERGY PREDICTED BY IDOCK:    0.42 KCAL/MOL
REMARK 927      BINDING AFFINITY PREDICTED BY RF-SCORE:    0.00 PKD
ROOT
HETATM    1  C   UNL     1     -11.038  16.901  71.653  1.00  0.00     0.967 C  
HETATM    2  O   UNL     1     -10.651  17.979  70.799  1.00  0.00     1.323 OA 
ENDROOT
BRANCH   2   3
HETATM    3  C   UNL     1     -10.902  17.762  69.474  1.00  0.00     0.793 C  
HETATM    4  C   UNL     1     -10.602  16.308  69.113  1.00  0.00    -0.292 C  
HETATM    5  O   UNL     1     -11.326  18.612  68.702  1.00  0.00     1.112 OA 
HETATM    6  C   UNL     1     -11.866  15.653  68.466  1.00  0.00    -0.237 C  
HETATM    7  C   UNL     1      -9.344  16.219  68.252  1.00  0.00    -0.204 A  
HETATM    8  C   UNL     1     -11.639  14.196  68.004  1.00  0.00    -0.368 C  
HETATM    9  C   UNL     1      -8.267  15.421  68.673  1.00  0.00    -0.158 A  
HETATM   10  C   UNL     1     -11.516  13.227  69.176  1.00  0.00    -0.357 C  
HETATM   11  C   UNL     1      -7.110  15.313  67.900  1.00  0.00    -0.157 A  
HETATM   12  C   UNL     1      -7.008  16.008  66.698  1.00  0.00     0.139 A  
HETATM   13  C   UNL     1     -12.739  13.340  70.079  1.00  0.00     0.095 C  
HETATM   14  C   UNL     1      -8.065  16.804  66.265  1.00  0.00    -0.365 A  
HETATM   15  C   UNL     1     -13.008  14.789  70.480  1.00  0.00    -0.286 C  
HETATM   16  C   UNL     1      -9.229  16.905  67.031  1.00  0.00    -0.246 A  
HETATM   17  N   UNL     1     -13.080  15.672  69.316  1.00  0.00     0.156 NA 
HETATM   18  H   UNL     1     -13.909  15.463  68.760  1.00  0.00     0.000 HD 
ENDBRANCH   2   3
TORSDOF 1
ENDMDL
MODEL      196
REMARK 921   NORMALIZED FREE ENERGY PREDICTED BY IDOCK:    2.53 KCAL/MOL
REMARK 922        TOTAL FREE ENERGY PREDICTED BY IDOCK:    2.69 KCAL/MOL
REMARK 923 INTER-LIGAND FREE ENERGY PREDICTED BY IDOCK:    2.74 KCAL/MOL
REMARK 924 INTRA-LIGAND FREE ENERGY PREDICTED BY IDOCK:   -0.05 KCAL/MOL
REMARK 927      BINDING AFFINITY PREDICTED BY RF-SCORE:    0.00 PKD
ROOT
HETATM    1  C   UNL     1      -6.866  14.133  72.486  1.00  0.00     2.962 C  
HETATM    2  O   UNL     1      -7.627  14.605  71.373  1.00  0.00     1.934 OA 
ENDROOT
BRANCH   2   3
HETATM    3  C   UNL     1      -7.003  14.460  70.167  1.00  0.00     0.094 C  
HETATM    4  C   UNL     1      -7.997  14.682  69.028  1.00  0.00    -0.122 C  
HETATM    5  O   UNL     1      -5.812  14.207  70.030  1.00  0.00    -0.113 OA 
HETATM    6  C   UNL     1      -7.467  15.803  68.076  1.00  0.00    -0.127 C  
HETATM    7  C   UNL     1      -8.310  13.364  68.325  1.00  0.00    -0.160 A  
HETATM    8  C   UNL     1      -8.376  16.054  66.852  1.00  0.00    -0.278 C  
HETATM    9  C   UNL     1      -9.641  12.923  68.233  1.00  0.00    -0.212 A  
HETATM   10  C   UNL     1      -9.682  16.746  67.230  1.00  0.00    -0.250 C  
HETATM   11  C   UNL     1      -9.956  11.727  67.586  1.00  0.00    -0.204 A  
HETATM   12  C   UNL     1      -8.945  10.948  67.029  1.00  0.00    -0.148 A  
HETATM   13  C   UNL     1      -9.392  18.039  67.983  1.00  0.00    -0.273 C  
HETATM   14  C   UNL     1      -7.621  11.368  67.112  1.00  0.00    -0.145 A  
HETATM   15  C   UNL     1      -8.436  17.806  69.151  1.00  0.00     0.123 C  
HETATM   16  C   UNL     1      -7.303  12.571  67.750  1.00  0.00    -0.124 A  
HETATM   17  N   UNL     1      -7.221  17.110  68.730  1.00  0.00    -0.222 NA 
HETATM   18  H   UNL     1      -6.655  17.710  68.128  1.00  0.00     0.000 HD 
ENDBRANCH   2   3
TORSDOF 1
ENDMDL
MODEL      197
REMARK 921   NORMALIZED FREE ENERGY PREDICTED BY IDOCK:    5.97 KCAL/MOL
REMARK 922        TOTAL FREE ENERGY PREDICTED BY IDOCK:    6.33 KCAL/MOL
REMARK 923 INTER-LIGAND FREE ENERGY PREDICTED BY IDOCK:    6.38 KCAL/MOL
REMARK 924 INTRA-LIGAND FREE ENERGY PREDICTED BY IDOCK:   -0.05 KCAL/MOL
REMARK 927      BINDING AFFINITY PREDICTED BY RF-SCORE:    0.00 PKD
ROOT
HETATM    1  C   UNL     1      -7.307  13.990  73.324  1.00  0.00     5.625 C  
HETATM    2  O   UNL     1      -7.296  14.342  71.939  1.00  0.00     2.191 OA 
ENDROOT
BRANCH   2   3
HETATM    3  C   UNL     1      -6.164  13.965  71.275  1.00  0.00     0.202 C  
HETATM    4  C   UNL     1      -6.358  14.128  69.768  1.00  0.00    -0.141 C  
HETATM    5  O   UNL     1      -5.140  13.572  71.820  1.00  0.00    -0.150 OA 
HETATM    6  C   UNL     1      -5.231  15.043  69.187  1.00  0.00    -0.094 C  
HETATM    7  C   UNL     1      -6.465  12.764  69.090  1.00  0.00    -0.109 A  
HETATM    8  C   UNL     1      -5.303  15.214  67.654  1.00  0.00    -0.000 C  
HETATM    9  C   UNL     1      -7.598  12.457  68.319  1.00  0.00    -0.131 A  
HETATM   10  C   UNL     1      -6.480  16.085  67.221  1.00  0.00    -0.200 C  
HETATM   11  C   UNL     1      -7.717  11.222  67.681  1.00  0.00    -0.115 A  
HETATM   12  C   UNL     1      -6.707  10.271  67.808  1.00  0.00    -0.073 A  
HETATM   13  C   UNL     1      -6.421  17.433  67.930  1.00  0.00    -0.164 C  
HETATM   14  C   UNL     1      -5.577  10.557  68.570  1.00  0.00    -0.040 A  
HETATM   15  C   UNL     1      -6.278  17.267  69.441  1.00  0.00    -0.245 C  
HETATM   16  C   UNL     1      -5.451  11.797  69.202  1.00  0.00    -0.048 A  
HETATM   17  N   UNL     1      -5.156  16.395  69.789  1.00  0.00    -0.128 NA 
HETATM   18  H   UNL     1      -4.269  16.843  69.554  1.00  0.00     0.000 HD 
ENDBRANCH   2   3
TORSDOF 1
ENDMDL
MODEL      198
REMARK 921   NORMALIZED FREE ENERGY PREDICTED BY IDOCK:   10.78 KCAL/MOL
REMARK 922        TOTAL FREE ENERGY PREDICTED BY IDOCK:   11.42 KCAL/MOL
REMARK 923 INTER-LIGAND FREE ENERGY PREDICTED BY IDOCK:   11.48 KCAL/MOL
REMARK 924 INTRA-LIGAND FREE ENERGY PREDICTED BY IDOCK:   -0.06 KCAL/MOL
REMARK 927      BINDING AFFINITY PREDICTED BY RF-SCORE:    0.00 PKD
ROOT
HETATM    1  C   UNL     1      -6.920  13.665  73.698  1.00  0.00     4.107 C  
HETATM    2  O   UNL     1      -7.522  14.322  72.581  1.00  0.00     3.068 OA 
ENDROOT
BRANCH   2   3
HETATM    3  C   UNL     1      -6.710  14.423  71.487  1.00  0.00     1.240 C  
HETATM    4  C   UNL     1      -7.063  15.672  70.682  1.00  0.00     1.078 C  
HETATM    5  O   UNL     1      -5.818  13.630  71.213  1.00  0.00    -0.218 OA 
HETATM    6  C   UNL     1      -5.791  16.564  70.505  1.00  0.00     0.044 C  
HETATM    7  C   UNL     1      -7.744  15.290  69.370  1.00  0.00    -0.225 A  
HETATM    8  C   UNL     1      -6.034  17.823  69.644  1.00  0.00    -0.252 C  
HETATM    9  C   UNL     1      -9.018  15.802  69.071  1.00  0.00    -0.246 A  
HETATM   10  C   UNL     1      -6.883  18.866  70.366  1.00  0.00     0.702 C  
HETATM   11  C   UNL     1      -9.658  15.477  67.875  1.00  0.00    -0.206 A  
HETATM   12  C   UNL     1      -9.038  14.628  66.960  1.00  0.00    -0.254 A  
HETATM   13  C   UNL     1      -6.248  19.221  71.705  1.00  0.00     0.595 C  
HETATM   14  C   UNL     1      -7.777  14.110  67.241  1.00  0.00    -0.132 A  
HETATM   15  C   UNL     1      -5.941  17.973  72.530  1.00  0.00     2.572 C  
HETATM   16  C   UNL     1      -7.129  14.442  68.433  1.00  0.00    -0.106 A  
HETATM   17  N   UNL     1      -5.156  17.000  71.772  1.00  0.00    -0.287 NA 
HETATM   18  H   UNL     1      -4.216  17.357  71.596  1.00  0.00     0.000 HD 
ENDBRANCH   2   3
TORSDOF 1
ENDMDL
MODEL      199
REMARK 921   NORMALIZED FREE ENERGY PREDICTED BY IDOCK:   12.26 KCAL/MOL
REMARK 922        TOTAL FREE ENERGY PREDICTED BY IDOCK:   12.99 KCAL/MOL
REMARK 923 INTER-LIGAND FREE ENERGY PREDICTED BY IDOCK:   13.08 KCAL/MOL
REMARK 924 INTRA-LIGAND FREE ENERGY PREDICTED BY IDOCK:   -0.09 KCAL/MOL
REMARK 927      BINDING AFFINITY PREDICTED BY RF-SCORE:    0.00 PKD
ROOT
HETATM    1  C   UNL     1      -6.838  13.298  71.722  1.00  0.00     4.010 C  
HETATM    2  O   UNL     1      -7.359  14.539  71.244  1.00  0.00     1.371 OA 
ENDROOT
BRANCH   2   3
HETATM    3  C   UNL     1      -8.287  14.411  70.249  1.00  0.00     1.566 C  
HETATM    4  C   UNL     1      -7.661  14.753  68.898  1.00  0.00    -0.146 C  
HETATM    5  O   UNL     1      -9.445  14.053  70.425  1.00  0.00     2.039 OA 
HETATM    6  C   UNL     1      -7.854  13.558  67.909  1.00  0.00    -0.159 C  
HETATM    7  C   UNL     1      -8.199  16.084  68.380  1.00  0.00    -0.165 A  
HETATM    8  C   UNL     1      -7.311  13.836  66.490  1.00  0.00     1.817 C  
HETATM    9  C   UNL     1      -7.306  17.124  68.072  1.00  0.00    -0.191 A  
HETATM   10  C   UNL     1      -5.785  13.858  66.446  1.00  0.00     4.025 C  
HETATM   11  C   UNL     1      -7.771  18.347  67.587  1.00  0.00    -0.236 A  
HETATM   12  C   UNL     1      -9.137  18.554  67.409  1.00  0.00    -0.283 A  
HETATM   13  C   UNL     1      -5.226  12.558  67.010  1.00  0.00     0.132 C  
HETATM   14  C   UNL     1     -10.036  17.535  67.710  1.00  0.00    -0.330 A  
HETATM   15  C   UNL     1      -5.816  12.243  68.384  1.00  0.00    -0.054 C  
HETATM   16  C   UNL     1      -9.573  16.305  68.186  1.00  0.00    -0.219 A  
HETATM   17  N   UNL     1      -7.278  12.272  68.367  1.00  0.00    -0.095 NA 
HETATM   18  H   UNL     1      -7.645  11.498  67.812  1.00  0.00     0.000 HD 
ENDBRANCH   2   3
TORSDOF 1
ENDMDL
MODEL      200
REMARK 921   NORMALIZED FREE ENERGY PREDICTED BY IDOCK:   21.27 KCAL/MOL
REMARK 922        TOTAL FREE ENERGY PREDICTED BY IDOCK:   22.52 KCAL/MOL
REMARK 923 INTER-LIGAND FREE ENERGY PREDICTED BY IDOCK:   22.40 KCAL/MOL
REMARK 924 INTRA-LIGAND FREE ENERGY PREDICTED BY IDOCK:    0.12 KCAL/MOL
REMARK 927      BINDING AFFINITY PREDICTED BY RF-SCORE:    0.00 PKD
ROOT
HETATM    1  C   UNL     1      -8.464   6.691  63.415  1.00  0.00     0.311 C  
HETATM    2  O   UNL     1      -9.669   7.317  63.860  1.00  0.00     3.198 OA 
ENDROOT
BRANCH   2   3
HETATM    3  C   UNL     1     -10.675   6.443  64.162  1.00  0.00     7.651 C  
HETATM    4  C   UNL     1     -10.265   5.552  65.333  1.00  0.00     0.526 C  
HETATM    5  O   UNL     1     -11.753   6.403  63.583  1.00  0.00    10.368 OA 
HETATM    6  C   UNL     1     -11.326   5.661  66.476  1.00  0.00     0.573 C  
HETATM    7  C   UNL     1     -10.007   4.125  64.856  1.00  0.00    -0.208 A  
HETATM    8  C   UNL     1     -11.032   4.741  67.682  1.00  0.00     1.163 C  
HETATM    9  C   UNL     1      -8.760   3.524  65.099  1.00  0.00    -0.118 A  
HETATM   10  C   UNL     1      -9.838   5.222  68.502  1.00  0.00    -0.210 C  
HETATM   11  C   UNL     1      -8.502   2.217  64.683  1.00  0.00    -0.090 A  
HETATM   12  C   UNL     1      -9.483   1.492  64.011  1.00  0.00    -0.126 A  
HETATM   13  C   UNL     1     -10.051   6.665  68.942  1.00  0.00    -0.178 C  
HETATM   14  C   UNL     1     -10.724   2.072  63.760  1.00  0.00     0.018 A  
HETATM   15  C   UNL     1     -10.412   7.564  67.762  1.00  0.00    -0.223 C  
HETATM   16  C   UNL     1     -10.989   3.377  64.185  1.00  0.00     0.091 A  
HETATM   17  N   UNL     1     -11.540   7.032  66.997  1.00  0.00    -0.351 NA 
HETATM   18  H   UNL     1     -12.397   7.075  67.549  1.00  0.00     0.000 HD 
ENDBRANCH   2   3
TORSDOF 1
ENDMDL
MODEL      201
REMARK 921   NORMALIZED FREE ENERGY PREDICTED BY IDOCK:   26.71 KCAL/MOL
REMARK 922        TOTAL FREE ENERGY PREDICTED BY IDOCK:   28.29 KCAL/MOL
REMARK 923 INTER-LIGAND FREE ENERGY PREDICTED BY IDOCK:   28.34 KCAL/MOL
REMARK 924 INTRA-LIGAND FREE ENERGY PREDICTED BY IDOCK:   -0.05 KCAL/MOL
REMARK 927      BINDING AFFINITY PREDICTED BY RF-SCORE:    0.00 PKD
ROOT
HETATM    1  C   UNL     1      -6.926  12.597  72.099  1.00  0.00     7.138 C  
HETATM    2  O   UNL     1      -7.060  12.200  70.733  1.00  0.00     1.511 OA 
ENDROOT
BRANCH   2   3
HETATM    3  C   UNL     1      -8.021  12.885  70.044  1.00  0.00     2.551 C  
HETATM    4  C   UNL     1      -8.101  12.376  68.606  1.00  0.00    -0.020 C  
HETATM    5  O   UNL     1      -8.724  13.764  70.526  1.00  0.00     3.191 OA 
HETATM    6  C   UNL     1      -9.563  11.926  68.285  1.00  0.00    -0.201 C  
HETATM    7  C   UNL     1      -7.543  13.416  67.637  1.00  0.00    -0.177 A  
HETATM    8  C   UNL     1      -9.759  11.456  66.827  1.00  0.00    -0.221 C  
HETATM    9  C   UNL     1      -6.488  13.071  66.776  1.00  0.00     1.126 A  
HETATM   10  C   UNL     1      -9.095  10.108  66.556  1.00  0.00    -0.166 C  
HETATM   11  C   UNL     1      -5.966  13.999  65.874  1.00  0.00     7.725 A  
HETATM   12  C   UNL     1      -6.485  15.290  65.824  1.00  0.00     6.634 A  
HETATM   13  C   UNL     1      -9.599   9.067  67.549  1.00  0.00    -0.182 C  
HETATM   14  C   UNL     1      -7.530  15.651  66.671  1.00  0.00     0.095 A  
HETATM   15  C   UNL     1      -9.472   9.558  68.990  1.00  0.00    -0.158 C  
HETATM   16  C   UNL     1      -8.061  14.720  67.568  1.00  0.00    -0.199 A  
HETATM   17  N   UNL     1     -10.097  10.867  69.175  1.00  0.00    -0.312 NA 
HETATM   18  H   UNL     1     -11.110  10.797  69.079  1.00  0.00     0.000 HD 
ENDBRANCH   2   3
TORSDOF 1
ENDMDL
