MODEL        1
REMARK 921   NORMALIZED FREE ENERGY PREDICTED BY IDOCK:   -6.95 KCAL/MOL
REMARK 922        TOTAL FREE ENERGY PREDICTED BY IDOCK:   -7.53 KCAL/MOL
REMARK 923 INTER-LIGAND FREE ENERGY PREDICTED BY IDOCK:   -7.35 KCAL/MOL
REMARK 924 INTRA-LIGAND FREE ENERGY PREDICTED BY IDOCK:   -0.18 KCAL/MOL
REMARK 927      BINDING AFFINITY PREDICTED BY RF-SCORE:    0.00 PKD
ROOT
HETATM    1  C   UNL     1     -13.525  13.452  72.387  1.00  0.00    -0.584 C  
HETATM    2  N   UNL     1     -13.003  13.433  71.002  1.00  0.00    -0.234 N  
HETATM    3  C   UNL     1     -12.152  12.279  70.652  1.00  0.00    -0.237 C  
HETATM    4  C   UNL     1     -12.749  10.933  71.132  1.00  0.00    -0.429 C  
HETATM    5  N   UNL     1     -12.035  12.229  69.192  1.00  0.00    -0.282 NA 
HETATM    6  H   UNL     1     -12.299  11.384  68.686  1.00  0.00     0.000 HD 
HETATM    7 CL   UNL     1     -11.686   9.557  70.692  1.00  0.00    -0.331 Cl 
HETATM    8  C   UNL     1     -11.564  13.339  68.498  1.00  0.00    -0.333 A  
HETATM    9  C   UNL     1     -11.138  13.193  67.169  1.00  0.00    -0.305 A  
HETATM   10  C   UNL     1     -10.723  14.294  66.396  1.00  0.00    -0.297 A  
HETATM   11 CL   UNL     1     -10.177  13.954  64.793  1.00  0.00    -0.416 Cl 
HETATM   12  C   UNL     1     -10.763  15.575  66.950  1.00  0.00    -0.317 A  
HETATM   13  O   UNL     1     -13.193  15.940  70.606  1.00  0.00    -0.447 OA 
HETATM   14  C   UNL     1     -11.229  15.749  68.254  1.00  0.00    -0.356 A  
HETATM   15  C   UNL     1     -11.626  14.636  68.999  1.00  0.00    -0.298 A  
HETATM   16  O   UNL     1     -11.038  14.968  71.488  1.00  0.00    -0.283 OA 
HETATM   17  S   UNL     1     -12.203  14.885  70.631  1.00  0.00    -0.348 S  
ENDROOT
BRANCH  12  18
HETATM   18  S   UNL     1     -10.271  17.009  66.048  1.00  0.00    -0.278 S  
HETATM   19  O   UNL     1      -8.839  17.001  65.883  1.00  0.00    -0.518 OA 
HETATM   20  H1  UNL     1     -10.365  19.101  66.563  1.00  0.00     0.000 HD 
HETATM   21  H2  UNL     1     -11.066  18.223  68.014  1.00  0.00     0.000 HD 
HETATM   22  O   UNL     1     -11.165  17.182  64.926  1.00  0.00    -0.670 OA 
HETATM   23  N   UNL     1     -10.650  18.272  67.084  1.00  0.00    -0.392 N  
ENDBRANCH  12  18
TORSDOF 1
ENDMDL
MODEL        2
REMARK 921   NORMALIZED FREE ENERGY PREDICTED BY IDOCK:   -6.36 KCAL/MOL
REMARK 922        TOTAL FREE ENERGY PREDICTED BY IDOCK:   -6.92 KCAL/MOL
REMARK 923 INTER-LIGAND FREE ENERGY PREDICTED BY IDOCK:   -6.94 KCAL/MOL
REMARK 924 INTRA-LIGAND FREE ENERGY PREDICTED BY IDOCK:    0.02 KCAL/MOL
REMARK 927      BINDING AFFINITY PREDICTED BY RF-SCORE:    0.00 PKD
ROOT
HETATM    1  C   UNL     1      -8.769  16.468  66.008  1.00  0.00    -0.220 C  
HETATM    2  N   UNL     1      -9.544  15.683  66.994  1.00  0.00    -0.220 N  
HETATM    3  C   UNL     1     -10.674  14.906  66.451  1.00  0.00    -0.316 C  
HETATM    4  C   UNL     1     -10.298  14.129  65.164  1.00  0.00    -0.405 C  
HETATM    5  N   UNL     1     -11.083  13.931  67.466  1.00  0.00    -0.279 NA 
HETATM    6  H   UNL     1     -11.113  12.937  67.239  1.00  0.00     0.000 HD 
HETATM    7 CL   UNL     1     -11.697  13.202  64.533  1.00  0.00    -0.391 Cl 
HETATM    8  C   UNL     1     -11.432  14.365  68.741  1.00  0.00    -0.289 A  
HETATM    9  C   UNL     1     -12.132  13.501  69.597  1.00  0.00    -0.365 A  
HETATM   10  C   UNL     1     -12.445  13.862  70.922  1.00  0.00    -0.375 A  
HETATM   11 CL   UNL     1     -13.355  12.718  71.842  1.00  0.00    -0.556 Cl 
HETATM   12  C   UNL     1     -12.023  15.097  71.415  1.00  0.00    -0.350 A  
HETATM   13  O   UNL     1      -8.902  17.082  69.021  1.00  0.00    -0.232 OA 
HETATM   14  C   UNL     1     -11.283  15.952  70.595  1.00  0.00    -0.402 A  
HETATM   15  C   UNL     1     -10.997  15.570  69.283  1.00  0.00    -0.268 A  
HETATM   16  O   UNL     1     -11.000  17.630  67.731  1.00  0.00    -0.309 OA 
HETATM   17  S   UNL     1     -10.070  16.663  68.278  1.00  0.00    -0.283 S  
ENDROOT
BRANCH  12  18
HETATM   18  S   UNL     1     -12.363  15.622  73.064  1.00  0.00    -0.521 S  
HETATM   19  O   UNL     1     -12.163  14.516  73.967  1.00  0.00    -0.395 OA 
HETATM   20  H1  UNL     1     -14.202  16.261  73.992  1.00  0.00     0.000 HD 
HETATM   21  H2  UNL     1     -14.654  15.879  72.255  1.00  0.00     0.000 HD 
HETATM   22  O   UNL     1     -11.735  16.905  73.283  1.00  0.00    -0.286 OA 
HETATM   23  N   UNL     1     -14.006  15.958  73.038  1.00  0.00    -0.479 N  
ENDBRANCH  12  18
TORSDOF 1
ENDMDL
MODEL        3
REMARK 921   NORMALIZED FREE ENERGY PREDICTED BY IDOCK:   -6.36 KCAL/MOL
REMARK 922        TOTAL FREE ENERGY PREDICTED BY IDOCK:   -6.92 KCAL/MOL
REMARK 923 INTER-LIGAND FREE ENERGY PREDICTED BY IDOCK:   -6.75 KCAL/MOL
REMARK 924 INTRA-LIGAND FREE ENERGY PREDICTED BY IDOCK:   -0.17 KCAL/MOL
REMARK 927      BINDING AFFINITY PREDICTED BY RF-SCORE:    0.00 PKD
ROOT
HETATM    1  C   UNL     1     -12.231  12.681  63.332  1.00  0.00    -0.517 C  
HETATM    2  N   UNL     1     -11.235  13.383  64.173  1.00  0.00    -0.375 N  
HETATM    3  C   UNL     1     -10.627  12.582  65.252  1.00  0.00    -0.290 C  
HETATM    4  C   UNL     1     -10.187  11.176  64.773  1.00  0.00    -0.306 C  
HETATM    5  N   UNL     1      -9.437  13.292  65.728  1.00  0.00    -0.482 NA 
HETATM    6  H   UNL     1      -8.529  12.826  65.731  1.00  0.00     0.000 HD 
HETATM    7 CL   UNL     1      -9.457  10.232  66.113  1.00  0.00    -0.214 Cl 
HETATM    8  C   UNL     1      -9.548  14.605  66.175  1.00  0.00    -0.307 A  
HETATM    9  C   UNL     1      -8.507  15.168  66.930  1.00  0.00    -0.278 A  
HETATM   10  C   UNL     1      -8.534  16.513  67.344  1.00  0.00    -0.177 A  
HETATM   11 CL   UNL     1      -7.208  17.052  68.311  1.00  0.00    -0.189 Cl 
HETATM   12  C   UNL     1      -9.606  17.325  66.972  1.00  0.00    -0.261 A  
HETATM   13  O   UNL     1     -12.086  15.734  63.696  1.00  0.00    -0.566 OA 
HETATM   14  C   UNL     1     -10.629  16.799  66.179  1.00  0.00    -0.212 A  
HETATM   15  C   UNL     1     -10.578  15.458  65.792  1.00  0.00    -0.348 A  
HETATM   16  O   UNL     1     -12.957  14.465  65.696  1.00  0.00    -0.447 OA 
HETATM   17  S   UNL     1     -11.875  14.825  64.802  1.00  0.00    -0.395 S  
ENDROOT
BRANCH  12  18
HETATM   18  S   UNL     1      -9.712  19.023  67.439  1.00  0.00    -0.327 S  
HETATM   19  O   UNL     1     -10.048  19.113  68.838  1.00  0.00    -0.416 OA 
HETATM   20  H1  UNL     1     -11.093  20.568  66.840  1.00  0.00     0.000 HD 
HETATM   21  H2  UNL     1     -11.629  19.071  65.924  1.00  0.00     0.000 HD 
HETATM   22  O   UNL     1      -8.582  19.730  66.881  1.00  0.00    -0.302 OA 
HETATM   23  N   UNL     1     -11.031  19.586  66.570  1.00  0.00    -0.340 N  
ENDBRANCH  12  18
TORSDOF 1
ENDMDL
MODEL        4
REMARK 921   NORMALIZED FREE ENERGY PREDICTED BY IDOCK:   -6.20 KCAL/MOL
REMARK 922        TOTAL FREE ENERGY PREDICTED BY IDOCK:   -6.75 KCAL/MOL
REMARK 923 INTER-LIGAND FREE ENERGY PREDICTED BY IDOCK:   -6.74 KCAL/MOL
REMARK 924 INTRA-LIGAND FREE ENERGY PREDICTED BY IDOCK:   -0.00 KCAL/MOL
REMARK 927      BINDING AFFINITY PREDICTED BY RF-SCORE:    0.00 PKD
ROOT
HETATM    1  C   UNL     1      -7.881  18.930  68.473  1.00  0.00    -0.337 C  
HETATM    2  N   UNL     1      -8.395  17.561  68.247  1.00  0.00    -0.256 N  
HETATM    3  C   UNL     1      -7.405  16.475  68.375  1.00  0.00    -0.179 C  
HETATM    4  C   UNL     1      -6.514  16.626  69.632  1.00  0.00    -0.195 C  
HETATM    5  N   UNL     1      -8.135  15.208  68.486  1.00  0.00    -0.138 NA 
HETATM    6  H   UNL     1      -7.974  14.593  69.283  1.00  0.00     0.000 HD 
HETATM    7 CL   UNL     1      -5.323  15.291  69.750  1.00  0.00    -0.097 Cl 
HETATM    8  C   UNL     1      -9.047  14.847  67.499  1.00  0.00    -0.183 A  
HETATM    9  C   UNL     1      -9.490  13.518  67.421  1.00  0.00    -0.225 A  
HETATM   10  C   UNL     1     -10.467  13.114  66.491  1.00  0.00    -0.279 A  
HETATM   11 CL   UNL     1     -10.875  11.436  66.476  1.00  0.00    -0.329 Cl 
HETATM   12  C   UNL     1     -11.040  14.061  65.642  1.00  0.00    -0.302 A  
HETATM   13  O   UNL     1     -10.400  18.253  66.840  1.00  0.00    -0.355 OA 
HETATM   14  C   UNL     1     -10.649  15.399  65.736  1.00  0.00    -0.361 A  
HETATM   15  C   UNL     1      -9.671  15.767  66.662  1.00  0.00    -0.249 A  
HETATM   16  O   UNL     1      -8.216  17.675  65.716  1.00  0.00    -0.543 OA 
HETATM   17  S   UNL     1      -9.200  17.450  66.755  1.00  0.00    -0.269 S  
ENDROOT
BRANCH  12  18
HETATM   18  S   UNL     1     -12.277  13.642  64.457  1.00  0.00    -0.385 S  
HETATM   19  O   UNL     1     -13.267  12.799  65.078  1.00  0.00    -0.768 OA 
HETATM   20  H1  UNL     1     -12.164  12.463  62.655  1.00  0.00     0.000 HD 
HETATM   21  H2  UNL     1     -10.463  12.441  63.344  1.00  0.00     0.000 HD 
HETATM   22  O   UNL     1     -12.644  14.835  63.726  1.00  0.00    -0.806 OA 
HETATM   23  N   UNL     1     -11.448  12.705  63.340  1.00  0.00    -0.488 N  
ENDBRANCH  12  18
TORSDOF 1
ENDMDL
MODEL        5
REMARK 921   NORMALIZED FREE ENERGY PREDICTED BY IDOCK:   -5.97 KCAL/MOL
REMARK 922        TOTAL FREE ENERGY PREDICTED BY IDOCK:   -6.50 KCAL/MOL
REMARK 923 INTER-LIGAND FREE ENERGY PREDICTED BY IDOCK:   -6.33 KCAL/MOL
REMARK 924 INTRA-LIGAND FREE ENERGY PREDICTED BY IDOCK:   -0.17 KCAL/MOL
REMARK 927      BINDING AFFINITY PREDICTED BY RF-SCORE:    0.00 PKD
ROOT
HETATM    1  C   UNL     1     -11.906  14.650  67.297  1.00  0.00    -0.351 C  
HETATM    2  N   UNL     1     -12.027  13.580  68.312  1.00  0.00    -0.362 N  
HETATM    3  C   UNL     1     -11.757  13.983  69.705  1.00  0.00    -0.313 C  
HETATM    4  C   UNL     1     -12.458  15.311  70.086  1.00  0.00    -0.334 C  
HETATM    5  N   UNL     1     -12.269  12.931  70.588  1.00  0.00    -0.457 NA 
HETATM    6  H   UNL     1     -12.944  13.159  71.319  1.00  0.00     0.000 HD 
HETATM    7 CL   UNL     1     -12.104  15.769  71.783  1.00  0.00    -0.485 Cl 
HETATM    8  C   UNL     1     -11.833  11.619  70.426  1.00  0.00    -0.293 A  
HETATM    9  C   UNL     1     -12.051  10.688  71.453  1.00  0.00    -0.342 A  
HETATM   10  C   UNL     1     -11.697   9.332  71.312  1.00  0.00    -0.346 A  
HETATM   11 CL   UNL     1     -11.977   8.313  72.679  1.00  0.00    -0.430 Cl 
HETATM   12  C   UNL     1     -11.144   8.888  70.111  1.00  0.00    -0.201 A  
HETATM   13  O   UNL     1     -11.648  11.641  66.707  1.00  0.00    -0.503 OA 
HETATM   14  C   UNL     1     -10.964   9.788  69.058  1.00  0.00    -0.193 A  
HETATM   15  C   UNL     1     -11.316  11.129  69.231  1.00  0.00    -0.281 A  
HETATM   16  O   UNL     1      -9.691  12.655  67.935  1.00  0.00    -0.203 OA 
HETATM   17  S   UNL     1     -11.077  12.234  67.896  1.00  0.00    -0.262 S  
ENDROOT
BRANCH  12  18
HETATM   18  S   UNL     1     -10.683   7.206  69.848  1.00  0.00    -0.244 S  
HETATM   19  O   UNL     1      -9.491   6.914  70.603  1.00  0.00    -0.165 OA 
HETATM   20  H1  UNL     1     -10.005   6.189  68.071  1.00  0.00     0.000 HD 
HETATM   21  H2  UNL     1     -10.285   7.926  67.547  1.00  0.00     0.000 HD 
HETATM   22  O   UNL     1     -11.866   6.380  69.943  1.00  0.00    -0.384 OA 
HETATM   23  N   UNL     1     -10.272   7.162  68.223  1.00  0.00    -0.177 N  
ENDBRANCH  12  18
TORSDOF 1
ENDMDL
MODEL        6
REMARK 921   NORMALIZED FREE ENERGY PREDICTED BY IDOCK:   -5.96 KCAL/MOL
REMARK 922        TOTAL FREE ENERGY PREDICTED BY IDOCK:   -6.48 KCAL/MOL
REMARK 923 INTER-LIGAND FREE ENERGY PREDICTED BY IDOCK:   -7.12 KCAL/MOL
REMARK 924 INTRA-LIGAND FREE ENERGY PREDICTED BY IDOCK:    0.63 KCAL/MOL
REMARK 927      BINDING AFFINITY PREDICTED BY RF-SCORE:    0.00 PKD
ROOT
HETATM    1  C   UNL     1     -10.869   9.769  67.288  1.00  0.00    -0.177 C  
HETATM    2  N   UNL     1     -10.731  11.166  67.754  1.00  0.00    -0.207 N  
HETATM    3  C   UNL     1     -11.595  11.554  68.885  1.00  0.00    -0.320 C  
HETATM    4  C   UNL     1     -11.603  10.497  70.017  1.00  0.00    -0.313 C  
HETATM    5  N   UNL     1     -11.080  12.809  69.439  1.00  0.00    -0.450 NA 
HETATM    6  H   UNL     1     -10.834  12.870  70.427  1.00  0.00     0.000 HD 
HETATM    7 CL   UNL     1     -12.666  11.002  71.370  1.00  0.00    -0.529 Cl 
HETATM    8  C   UNL     1     -10.926  13.918  68.613  1.00  0.00    -0.261 A  
HETATM    9  C   UNL     1     -10.759  15.188  69.187  1.00  0.00    -0.253 A  
HETATM   10  C   UNL     1     -10.526  16.333  68.401  1.00  0.00    -0.282 A  
HETATM   11 CL   UNL     1     -10.392  17.836  69.241  1.00  0.00    -0.217 Cl 
HETATM   12  C   UNL     1     -10.425  16.205  67.015  1.00  0.00    -0.306 A  
HETATM   13  O   UNL     1      -9.797  12.089  65.573  1.00  0.00    -0.237 OA 
HETATM   14  C   UNL     1     -10.539  14.943  66.427  1.00  0.00    -0.307 A  
HETATM   15  C   UNL     1     -10.779  13.828  67.233  1.00  0.00    -0.283 A  
HETATM   16  O   UNL     1     -12.285  12.138  65.995  1.00  0.00    -0.609 OA 
HETATM   17  S   UNL     1     -10.921  12.260  66.468  1.00  0.00    -0.294 S  
ENDROOT
BRANCH  12  18
HETATM   18  S   UNL     1     -10.123  17.585  65.958  1.00  0.00    -0.207 S  
HETATM   19  O   UNL     1      -8.701  17.767  65.805  1.00  0.00    -0.502 OA 
HETATM   20  H1  UNL     1     -10.528  19.686  66.230  1.00  0.00     0.000 HD 
HETATM   21  H2  UNL     1     -11.130  18.883  67.767  1.00  0.00     0.000 HD 
HETATM   22  O   UNL     1     -11.006  17.499  64.817  1.00  0.00    -0.950 OA 
HETATM   23  N   UNL     1     -10.703  18.888  66.840  1.00  0.00    -0.413 N  
ENDBRANCH  12  18
TORSDOF 1
ENDMDL
MODEL        7
REMARK 921   NORMALIZED FREE ENERGY PREDICTED BY IDOCK:   -5.88 KCAL/MOL
REMARK 922        TOTAL FREE ENERGY PREDICTED BY IDOCK:   -6.40 KCAL/MOL
REMARK 923 INTER-LIGAND FREE ENERGY PREDICTED BY IDOCK:   -6.23 KCAL/MOL
REMARK 924 INTRA-LIGAND FREE ENERGY PREDICTED BY IDOCK:   -0.18 KCAL/MOL
REMARK 927      BINDING AFFINITY PREDICTED BY RF-SCORE:    0.00 PKD
ROOT
HETATM    1  C   UNL     1      -6.296  18.064  67.335  1.00  0.00    -0.160 C  
HETATM    2  N   UNL     1      -7.434  17.279  66.807  1.00  0.00    -0.199 N  
HETATM    3  C   UNL     1      -8.740  17.964  66.803  1.00  0.00    -0.254 C  
HETATM    4  C   UNL     1      -8.652  19.411  66.259  1.00  0.00    -0.345 C  
HETATM    5  N   UNL     1      -9.646  17.207  65.935  1.00  0.00    -0.529 NA 
HETATM    6  H   UNL     1     -10.113  17.669  65.154  1.00  0.00     0.000 HD 
HETATM    7 CL   UNL     1     -10.257  20.210  66.274  1.00  0.00    -0.568 Cl 
HETATM    8  C   UNL     1      -9.868  15.854  66.177  1.00  0.00    -0.317 A  
HETATM    9  C   UNL     1     -10.964  15.216  65.577  1.00  0.00    -0.370 A  
HETATM   10  C   UNL     1     -11.193  13.835  65.728  1.00  0.00    -0.297 A  
HETATM   11 CL   UNL     1     -12.610  13.197  64.974  1.00  0.00    -0.510 Cl 
HETATM   12  C   UNL     1     -10.293  13.067  66.468  1.00  0.00    -0.274 A  
HETATM   13  O   UNL     1      -6.403  14.991  67.231  1.00  0.00    -0.312 OA 
HETATM   14  C   UNL     1      -9.169  13.673  67.034  1.00  0.00    -0.254 A  
HETATM   15  C   UNL     1      -8.974  15.047  66.874  1.00  0.00    -0.251 A  
HETATM   16  O   UNL     1      -7.879  16.047  68.984  1.00  0.00    -0.196 OA 
HETATM   17  S   UNL     1      -7.559  15.780  67.596  1.00  0.00    -0.172 S  
ENDROOT
BRANCH  12  18
HETATM   18  S   UNL     1     -10.499  11.330  66.698  1.00  0.00    -0.256 S  
HETATM   19  O   UNL     1     -11.715  11.087  67.433  1.00  0.00    -0.539 OA 
HETATM   20  H1  UNL     1      -9.337   9.908  67.829  1.00  0.00     0.000 HD 
HETATM   21  H2  UNL     1      -8.492  11.518  68.078  1.00  0.00     0.000 HD 
HETATM   22  O   UNL     1     -10.218  10.659  65.449  1.00  0.00    -0.274 OA 
HETATM   23  N   UNL     1      -9.218  10.912  67.696  1.00  0.00    -0.151 N  
ENDBRANCH  12  18
TORSDOF 1
ENDMDL
MODEL        8
REMARK 921   NORMALIZED FREE ENERGY PREDICTED BY IDOCK:   -5.81 KCAL/MOL
REMARK 922        TOTAL FREE ENERGY PREDICTED BY IDOCK:   -6.33 KCAL/MOL
REMARK 923 INTER-LIGAND FREE ENERGY PREDICTED BY IDOCK:   -6.36 KCAL/MOL
REMARK 924 INTRA-LIGAND FREE ENERGY PREDICTED BY IDOCK:    0.03 KCAL/MOL
REMARK 927      BINDING AFFINITY PREDICTED BY RF-SCORE:    0.00 PKD
ROOT
HETATM    1  C   UNL     1     -11.671   6.518  70.707  1.00  0.00    -0.366 C  
HETATM    2  N   UNL     1     -11.717   7.909  70.206  1.00  0.00    -0.022 N  
HETATM    3  C   UNL     1     -10.575   8.329  69.371  1.00  0.00    -0.196 C  
HETATM    4  C   UNL     1     -10.200   7.273  68.302  1.00  0.00    -0.180 C  
HETATM    5  N   UNL     1     -10.952   9.564  68.677  1.00  0.00    -0.435 NA 
HETATM    6  H   UNL     1     -10.901   9.615  67.659  1.00  0.00     0.000 HD 
HETATM    7 CL   UNL     1      -8.808   7.818  67.312  1.00  0.00    -0.127 Cl 
HETATM    8  C   UNL     1     -11.380  10.667  69.410  1.00  0.00    -0.284 A  
HETATM    9  C   UNL     1     -11.418  11.929  68.799  1.00  0.00    -0.347 A  
HETATM   10  C   UNL     1     -11.912  13.064  69.470  1.00  0.00    -0.289 A  
HETATM   11 CL   UNL     1     -11.850  14.561  68.610  1.00  0.00    -0.362 Cl 
HETATM   12  C   UNL     1     -12.408  12.933  70.767  1.00  0.00    -0.299 A  
HETATM   13  O   UNL     1     -13.279   8.796  72.010  1.00  0.00    -0.343 OA 
HETATM   14  C   UNL     1     -12.424  11.676  71.377  1.00  0.00    -0.314 A  
HETATM   15  C   UNL     1     -11.919  10.570  70.689  1.00  0.00    -0.357 A  
HETATM   16  O   UNL     1     -10.780   8.940  72.330  1.00  0.00    -0.320 OA 
HETATM   17  S   UNL     1     -11.950   9.010  71.479  1.00  0.00    -0.368 S  
ENDROOT
BRANCH  12  18
HETATM   18  S   UNL     1     -13.054  14.300  71.675  1.00  0.00    -0.368 S  
HETATM   19  O   UNL     1     -13.851  15.121  70.798  1.00  0.00    -0.288 OA 
HETATM   20  H1  UNL     1     -12.061  15.972  72.606  1.00  0.00     0.000 HD 
HETATM   21  H2  UNL     1     -10.713  14.975  71.859  1.00  0.00     0.000 HD 
HETATM   22  O   UNL     1     -13.565  13.820  72.939  1.00  0.00    -0.681 OA 
HETATM   23  N   UNL     1     -11.687  15.181  72.082  1.00  0.00    -0.415 N  
ENDBRANCH  12  18
TORSDOF 1
ENDMDL
MODEL        9
REMARK 921   NORMALIZED FREE ENERGY PREDICTED BY IDOCK:   -5.80 KCAL/MOL
REMARK 922        TOTAL FREE ENERGY PREDICTED BY IDOCK:   -6.32 KCAL/MOL
REMARK 923 INTER-LIGAND FREE ENERGY PREDICTED BY IDOCK:   -6.14 KCAL/MOL
REMARK 924 INTRA-LIGAND FREE ENERGY PREDICTED BY IDOCK:   -0.18 KCAL/MOL
REMARK 927      BINDING AFFINITY PREDICTED BY RF-SCORE:    0.00 PKD
ROOT
HETATM    1  C   UNL     1      -9.126   6.878  69.423  1.00  0.00    -0.141 C  
HETATM    2  N   UNL     1      -9.673   8.218  69.118  1.00  0.00    -0.168 N  
HETATM    3  C   UNL     1     -10.879   8.606  69.873  1.00  0.00    -0.208 C  
HETATM    4  C   UNL     1     -10.763   8.289  71.385  1.00  0.00    -0.227 C  
HETATM    5  N   UNL     1     -11.059  10.054  69.726  1.00  0.00    -0.261 NA 
HETATM    6  H   UNL     1     -11.120  10.649  70.553  1.00  0.00     0.000 HD 
HETATM    7 CL   UNL     1     -12.248   8.771  72.267  1.00  0.00    -0.439 Cl 
HETATM    8  C   UNL     1     -11.147  10.614  68.456  1.00  0.00    -0.263 A  
HETATM    9  C   UNL     1     -11.645  11.918  68.309  1.00  0.00    -0.390 A  
HETATM   10  C   UNL     1     -11.685  12.560  67.057  1.00  0.00    -0.367 A  
HETATM   11 CL   UNL     1     -12.373  14.144  67.021  1.00  0.00    -0.366 Cl 
HETATM   12  C   UNL     1     -11.189  11.902  65.931  1.00  0.00    -0.322 A  
HETATM   13  O   UNL     1      -8.649   8.407  66.796  1.00  0.00    -0.114 OA 
HETATM   14  C   UNL     1     -10.644  10.623  66.063  1.00  0.00    -0.195 A  
HETATM   15  C   UNL     1     -10.626  10.008  67.317  1.00  0.00    -0.257 A  
HETATM   16  O   UNL     1     -10.974   7.465  67.071  1.00  0.00    -0.332 OA 
HETATM   17  S   UNL     1      -9.939   8.405  67.451  1.00  0.00    -0.235 S  
ENDROOT
BRANCH  12  18
HETATM   18  S   UNL     1     -11.192  12.639  64.328  1.00  0.00    -0.393 S  
HETATM   19  O   UNL     1     -12.542  12.678  63.823  1.00  0.00    -0.651 OA 
HETATM   20  H1  UNL     1     -10.340  11.967  62.464  1.00  0.00     0.000 HD 
HETATM   21  H2  UNL     1      -9.915  10.659  63.679  1.00  0.00     0.000 HD 
HETATM   22  O   UNL     1     -10.357  13.818  64.357  1.00  0.00    -0.415 OA 
HETATM   23  N   UNL     1     -10.337  11.542  63.391  1.00  0.00    -0.399 N  
ENDBRANCH  12  18
TORSDOF 1
ENDMDL
MODEL       10
REMARK 921   NORMALIZED FREE ENERGY PREDICTED BY IDOCK:   -5.70 KCAL/MOL
REMARK 922        TOTAL FREE ENERGY PREDICTED BY IDOCK:   -6.22 KCAL/MOL
REMARK 923 INTER-LIGAND FREE ENERGY PREDICTED BY IDOCK:   -6.26 KCAL/MOL
REMARK 924 INTRA-LIGAND FREE ENERGY PREDICTED BY IDOCK:    0.04 KCAL/MOL
REMARK 927      BINDING AFFINITY PREDICTED BY RF-SCORE:    0.00 PKD
ROOT
HETATM    1  C   UNL     1     -13.985  13.208  72.280  1.00  0.00    -0.394 C  
HETATM    2  N   UNL     1     -13.173  13.523  71.084  1.00  0.00    -0.207 N  
HETATM    3  C   UNL     1     -12.171  12.509  70.702  1.00  0.00    -0.276 C  
HETATM    4  C   UNL     1     -12.741  11.069  70.731  1.00  0.00    -0.323 C  
HETATM    5  N   UNL     1     -11.734  12.797  69.333  1.00  0.00    -0.308 NA 
HETATM    6  H   UNL     1     -11.807  12.080  68.611  1.00  0.00     0.000 HD 
HETATM    7 CL   UNL     1     -11.494   9.867  70.266  1.00  0.00    -0.330 Cl 
HETATM    8  C   UNL     1     -11.219  14.051  69.021  1.00  0.00    -0.276 A  
HETATM    9  C   UNL     1     -10.502  14.226  67.827  1.00  0.00    -0.245 A  
HETATM   10  C   UNL     1     -10.024  15.488  67.426  1.00  0.00    -0.234 A  
HETATM   11 CL   UNL     1      -9.113  15.541  65.960  1.00  0.00    -0.360 Cl 
HETATM   12  C   UNL     1     -10.293  16.607  68.216  1.00  0.00    -0.304 A  
HETATM   13  O   UNL     1     -13.487  16.046  71.199  1.00  0.00    -0.318 OA 
HETATM   14  C   UNL     1     -11.047  16.463  69.383  1.00  0.00    -0.300 A  
HETATM   15  C   UNL     1     -11.500  15.197  69.759  1.00  0.00    -0.297 A  
HETATM   16  O   UNL     1     -11.501  14.974  72.328  1.00  0.00    -0.374 OA 
HETATM   17  S   UNL     1     -12.439  15.048  71.227  1.00  0.00    -0.371 S  
ENDROOT
BRANCH  12  18
HETATM   18  S   UNL     1      -9.741  18.224  67.781  1.00  0.00    -0.309 S  
HETATM   19  O   UNL     1     -10.309  19.184  68.694  1.00  0.00    -0.373 OA 
HETATM   20  H1  UNL     1     -10.119  19.422  66.028  1.00  0.00     0.000 HD 
HETATM   21  H2  UNL     1     -11.038  17.859  65.743  1.00  0.00     0.000 HD 
HETATM   22  O   UNL     1      -8.320  18.175  67.517  1.00  0.00    -0.234 OA 
HETATM   23  N   UNL     1     -10.438  18.486  66.279  1.00  0.00    -0.421 N  
ENDBRANCH  12  18
TORSDOF 1
ENDMDL
MODEL       11
REMARK 921   NORMALIZED FREE ENERGY PREDICTED BY IDOCK:   -5.66 KCAL/MOL
REMARK 922        TOTAL FREE ENERGY PREDICTED BY IDOCK:   -6.18 KCAL/MOL
REMARK 923 INTER-LIGAND FREE ENERGY PREDICTED BY IDOCK:   -6.59 KCAL/MOL
REMARK 924 INTRA-LIGAND FREE ENERGY PREDICTED BY IDOCK:    0.42 KCAL/MOL
REMARK 927      BINDING AFFINITY PREDICTED BY RF-SCORE:    0.00 PKD
ROOT
HETATM    1  C   UNL     1     -10.321  19.843  65.642  1.00  0.00    -0.326 C  
HETATM    2  N   UNL     1     -10.704  18.693  66.490  1.00  0.00    -0.318 N  
HETATM    3  C   UNL     1     -10.173  18.705  67.867  1.00  0.00    -0.392 C  
HETATM    4  C   UNL     1     -10.326  20.087  68.551  1.00  0.00    -0.294 C  
HETATM    5  N   UNL     1     -10.928  17.725  68.652  1.00  0.00    -0.174 NA 
HETATM    6  H   UNL     1     -11.404  18.011  69.508  1.00  0.00     0.000 HD 
HETATM    7 CL   UNL     1      -9.667  20.063  70.218  1.00  0.00     0.487 Cl 
HETATM    8  C   UNL     1     -10.994  16.401  68.227  1.00  0.00    -0.355 A  
HETATM    9  C   UNL     1     -11.418  15.408  69.123  1.00  0.00    -0.344 A  
HETATM   10  C   UNL     1     -11.574  14.067  68.725  1.00  0.00    -0.331 A  
HETATM   11 CL   UNL     1     -12.053  12.947  69.950  1.00  0.00    -0.364 Cl 
HETATM   12  C   UNL     1     -11.334  13.712  67.398  1.00  0.00    -0.315 A  
HETATM   13  O   UNL     1     -11.187  17.090  64.573  1.00  0.00    -1.091 OA 
HETATM   14  C   UNL     1     -10.958  14.693  66.477  1.00  0.00    -0.318 A  
HETATM   15  C   UNL     1     -10.803  16.014  66.904  1.00  0.00    -0.203 A  
HETATM   16  O   UNL     1      -8.887  17.154  65.608  1.00  0.00    -0.482 OA 
HETATM   17  S   UNL     1     -10.329  17.221  65.730  1.00  0.00    -0.137 S  
ENDROOT
BRANCH  12  18
HETATM   18  S   UNL     1     -11.516  12.057  66.814  1.00  0.00    -0.317 S  
HETATM   19  O   UNL     1     -12.054  11.236  67.869  1.00  0.00    -0.634 OA 
HETATM   20  H1  UNL     1     -10.042  10.603  66.210  1.00  0.00     0.000 HD 
HETATM   21  H2  UNL     1      -9.076  12.089  66.687  1.00  0.00     0.000 HD 
HETATM   22  O   UNL     1     -12.112  12.092  65.497  1.00  0.00    -0.479 OA 
HETATM   23  N   UNL     1      -9.937  11.560  66.546  1.00  0.00    -0.205 N  
ENDBRANCH  12  18
TORSDOF 1
ENDMDL
MODEL       12
REMARK 921   NORMALIZED FREE ENERGY PREDICTED BY IDOCK:   -5.60 KCAL/MOL
REMARK 922        TOTAL FREE ENERGY PREDICTED BY IDOCK:   -6.11 KCAL/MOL
REMARK 923 INTER-LIGAND FREE ENERGY PREDICTED BY IDOCK:   -5.92 KCAL/MOL
REMARK 924 INTRA-LIGAND FREE ENERGY PREDICTED BY IDOCK:   -0.19 KCAL/MOL
REMARK 927      BINDING AFFINITY PREDICTED BY RF-SCORE:    0.00 PKD
ROOT
HETATM    1  C   UNL     1      -9.988  10.967  64.490  1.00  0.00    -0.317 C  
HETATM    2  N   UNL     1     -10.641  10.885  65.815  1.00  0.00    -0.203 N  
HETATM    3  C   UNL     1     -10.836  12.168  66.515  1.00  0.00    -0.270 C  
HETATM    4  C   UNL     1     -11.401  13.273  65.588  1.00  0.00    -0.304 C  
HETATM    5  N   UNL     1     -11.797  11.951  67.600  1.00  0.00    -0.583 NA 
HETATM    6  H   UNL     1     -12.644  12.517  67.655  1.00  0.00     0.000 HD 
HETATM    7 CL   UNL     1     -11.619  14.817  66.474  1.00  0.00    -0.338 Cl 
HETATM    8  C   UNL     1     -11.551  10.971  68.556  1.00  0.00    -0.310 A  
HETATM    9  C   UNL     1     -12.275  10.981  69.759  1.00  0.00    -0.388 A  
HETATM   10  C   UNL     1     -12.119   9.972  70.728  1.00  0.00    -0.327 A  
HETATM   11 CL   UNL     1     -13.038  10.145  72.180  1.00  0.00    -0.514 Cl 
HETATM   12  C   UNL     1     -11.247   8.911  70.480  1.00  0.00    -0.252 A  
HETATM   13  O   UNL     1     -10.026   8.457  66.271  1.00  0.00    -0.245 OA 
HETATM   14  C   UNL     1     -10.554   8.855  69.269  1.00  0.00    -0.219 A  
HETATM   15  C   UNL     1     -10.722   9.876  68.331  1.00  0.00    -0.232 A  
HETATM   16  O   UNL     1      -8.512  10.309  67.074  1.00  0.00    -0.128 OA 
HETATM   17  S   UNL     1      -9.837   9.780  66.825  1.00  0.00    -0.221 S  
ENDROOT
BRANCH  12  18
HETATM   18  S   UNL     1     -11.002   7.601  71.635  1.00  0.00    -0.237 S  
HETATM   19  O   UNL     1     -10.338   8.114  72.806  1.00  0.00    -0.313 OA 
HETATM   20  H1  UNL     1      -9.781   5.826  71.519  1.00  0.00     0.000 HD 
HETATM   21  H2  UNL     1      -9.508   6.696  69.926  1.00  0.00     0.000 HD 
HETATM   22  O   UNL     1     -12.221   6.830  71.730  1.00  0.00    -0.333 OA 
HETATM   23  N   UNL     1      -9.923   6.584  70.851  1.00  0.00    -0.184 N  
ENDBRANCH  12  18
TORSDOF 1
ENDMDL
MODEL       13
REMARK 921   NORMALIZED FREE ENERGY PREDICTED BY IDOCK:   -5.60 KCAL/MOL
REMARK 922        TOTAL FREE ENERGY PREDICTED BY IDOCK:   -6.10 KCAL/MOL
REMARK 923 INTER-LIGAND FREE ENERGY PREDICTED BY IDOCK:   -6.47 KCAL/MOL
REMARK 924 INTRA-LIGAND FREE ENERGY PREDICTED BY IDOCK:    0.37 KCAL/MOL
REMARK 927      BINDING AFFINITY PREDICTED BY RF-SCORE:    0.00 PKD
ROOT
HETATM    1  C   UNL     1     -11.360  11.704  66.726  1.00  0.00    -0.286 C  
HETATM    2  N   UNL     1     -11.032  13.008  67.343  1.00  0.00    -0.254 N  
HETATM    3  C   UNL     1     -11.705  13.301  68.623  1.00  0.00    -0.341 C  
HETATM    4  C   UNL     1     -11.670  12.101  69.602  1.00  0.00    -0.325 C  
HETATM    5  N   UNL     1     -11.007  14.423  69.256  1.00  0.00    -0.258 NA 
HETATM    6  H   UNL     1     -10.633  14.326  70.200  1.00  0.00     0.000 HD 
HETATM    7 CL   UNL     1     -12.501  12.493  71.142  1.00  0.00    -0.401 Cl 
HETATM    8  C   UNL     1     -10.854  15.621  68.565  1.00  0.00    -0.282 A  
HETATM    9  C   UNL     1     -10.496  16.782  69.267  1.00  0.00    -0.331 A  
HETATM   10  C   UNL     1     -10.256  18.003  68.608  1.00  0.00    -0.377 A  
HETATM   11 CL   UNL     1      -9.874  19.360  69.607  1.00  0.00    -0.122 Cl 
HETATM   12  C   UNL     1     -10.343  18.062  67.217  1.00  0.00    -0.378 A  
HETATM   13  O   UNL     1     -10.299  14.150  65.190  1.00  0.00    -0.364 OA 
HETATM   14  C   UNL     1     -10.651  16.906  66.495  1.00  0.00    -0.185 A  
HETATM   15  C   UNL     1     -10.893  15.712  67.177  1.00  0.00    -0.297 A  
HETATM   16  O   UNL     1     -12.696  14.332  65.954  1.00  0.00    -0.451 OA 
HETATM   17  S   UNL     1     -11.278  14.282  66.246  1.00  0.00    -0.345 S  
ENDROOT
BRANCH  12  18
HETATM   18  S   UNL     1     -10.048  19.547  66.313  1.00  0.00    -0.496 S  
HETATM   19  O   UNL     1     -10.817  19.526  65.095  1.00  0.00    -0.409 OA 
HETATM   20  H1  UNL     1      -8.259  20.291  65.365  1.00  0.00     0.000 HD 
HETATM   21  H2  UNL     1      -7.773  18.681  66.101  1.00  0.00     0.000 HD 
HETATM   22  O   UNL     1     -10.102  20.666  67.227  1.00  0.00    -0.398 OA 
HETATM   23  N   UNL     1      -8.430  19.432  65.888  1.00  0.00    -0.172 N  
ENDBRANCH  12  18
TORSDOF 1
ENDMDL
MODEL       14
REMARK 921   NORMALIZED FREE ENERGY PREDICTED BY IDOCK:   -5.51 KCAL/MOL
REMARK 922        TOTAL FREE ENERGY PREDICTED BY IDOCK:   -6.01 KCAL/MOL
REMARK 923 INTER-LIGAND FREE ENERGY PREDICTED BY IDOCK:   -6.44 KCAL/MOL
REMARK 924 INTRA-LIGAND FREE ENERGY PREDICTED BY IDOCK:    0.42 KCAL/MOL
REMARK 927      BINDING AFFINITY PREDICTED BY RF-SCORE:    0.00 PKD
ROOT
HETATM    1  C   UNL     1     -10.223  16.130  65.496  1.00  0.00    -0.331 C  
HETATM    2  N   UNL     1     -10.869  15.799  66.786  1.00  0.00    -0.295 N  
HETATM    3  C   UNL     1     -10.500  16.656  67.928  1.00  0.00    -0.322 C  
HETATM    4  C   UNL     1     -10.516  18.163  67.571  1.00  0.00    -0.410 C  
HETATM    5  N   UNL     1     -11.478  16.433  68.997  1.00  0.00    -0.262 NA 
HETATM    6  H   UNL     1     -11.997  17.218  69.388  1.00  0.00     0.000 HD 
HETATM    7 CL   UNL     1     -10.059  19.171  68.981  1.00  0.00    -0.447 Cl 
HETATM    8  C   UNL     1     -11.696  15.145  69.477  1.00  0.00    -0.327 A  
HETATM    9  C   UNL     1     -12.363  14.967  70.698  1.00  0.00    -0.406 A  
HETATM   10  C   UNL     1     -12.675  13.686  71.194  1.00  0.00    -0.353 A  
HETATM   11 CL   UNL     1     -13.452  13.621  72.735  1.00  0.00    -0.584 Cl 
HETATM   12  C   UNL     1     -12.344  12.559  70.441  1.00  0.00    -0.232 A  
HETATM   13  O   UNL     1     -11.372  13.369  66.220  1.00  0.00    -0.295 OA 
HETATM   14  C   UNL     1     -11.724  12.715  69.199  1.00  0.00    -0.375 A  
HETATM   15  C   UNL     1     -11.418  13.998  68.739  1.00  0.00    -0.292 A  
HETATM   16  O   UNL     1      -9.219  13.965  67.392  1.00  0.00    -0.206 OA 
HETATM   17  S   UNL     1     -10.638  14.163  67.181  1.00  0.00    -0.280 S  
ENDROOT
BRANCH  12  18
HETATM   18  S   UNL     1     -12.709  10.921  70.983  1.00  0.00    -0.406 S  
HETATM   19  O   UNL     1     -13.224  10.966  72.328  1.00  0.00    -0.406 OA 
HETATM   20  H1  UNL     1     -11.415   9.238  71.360  1.00  0.00     0.000 HD 
HETATM   21  H2  UNL     1     -10.293  10.588  70.824  1.00  0.00     0.000 HD 
HETATM   22  O   UNL     1     -13.407  10.225  69.925  1.00  0.00     0.104 OA 
HETATM   23  N   UNL     1     -11.204  10.185  71.047  1.00  0.00    -0.315 N  
ENDBRANCH  12  18
TORSDOF 1
ENDMDL
MODEL       15
REMARK 921   NORMALIZED FREE ENERGY PREDICTED BY IDOCK:   -5.46 KCAL/MOL
REMARK 922        TOTAL FREE ENERGY PREDICTED BY IDOCK:   -5.96 KCAL/MOL
REMARK 923 INTER-LIGAND FREE ENERGY PREDICTED BY IDOCK:   -5.78 KCAL/MOL
REMARK 924 INTRA-LIGAND FREE ENERGY PREDICTED BY IDOCK:   -0.18 KCAL/MOL
REMARK 927      BINDING AFFINITY PREDICTED BY RF-SCORE:    0.00 PKD
ROOT
HETATM    1  C   UNL     1      -9.799  10.889  63.390  1.00  0.00    -0.362 C  
HETATM    2  N   UNL     1     -10.386  10.911  64.748  1.00  0.00    -0.324 N  
HETATM    3  C   UNL     1     -10.682  12.248  65.297  1.00  0.00    -0.292 C  
HETATM    4  C   UNL     1     -11.395  13.167  64.274  1.00  0.00    -0.388 C  
HETATM    5  N   UNL     1     -11.571  12.077  66.450  1.00  0.00    -0.500 NA 
HETATM    6  H   UNL     1     -12.469  12.560  66.480  1.00  0.00     0.000 HD 
HETATM    7 CL   UNL     1     -11.735  14.781  64.976  1.00  0.00    -0.372 Cl 
HETATM    8  C   UNL     1     -11.187  11.253  67.503  1.00  0.00    -0.291 A  
HETATM    9  C   UNL     1     -11.859  11.345  68.732  1.00  0.00    -0.388 A  
HETATM   10  C   UNL     1     -11.561  10.485  69.807  1.00  0.00    -0.294 A  
HETATM   11 CL   UNL     1     -12.433  10.750  71.274  1.00  0.00    -0.494 Cl 
HETATM   12  C   UNL     1     -10.595   9.491  69.644  1.00  0.00    -0.228 A  
HETATM   13  O   UNL     1      -9.506   8.632  65.462  1.00  0.00    -0.123 OA 
HETATM   14  C   UNL     1      -9.949   9.351  68.413  1.00  0.00    -0.191 A  
HETATM   15  C   UNL     1     -10.260  10.225  67.369  1.00  0.00    -0.218 A  
HETATM   16  O   UNL     1      -8.159  10.709  65.953  1.00  0.00    -0.153 OA 
HETATM   17  S   UNL     1      -9.432  10.027  65.840  1.00  0.00    -0.224 S  
ENDROOT
BRANCH  12  18
HETATM   18  S   UNL     1     -10.170   8.367  70.934  1.00  0.00    -0.201 S  
HETATM   19  O   UNL     1      -9.437   9.069  71.957  1.00  0.00    -0.339 OA 
HETATM   20  H1  UNL     1      -8.858   6.655  70.940  1.00  0.00     0.000 HD 
HETATM   21  H2  UNL     1      -8.780   7.308  69.226  1.00  0.00     0.000 HD 
HETATM   22  O   UNL     1     -11.327   7.559  71.247  1.00  0.00    -0.252 OA 
HETATM   23  N   UNL     1      -9.104   7.305  70.193  1.00  0.00    -0.149 N  
ENDBRANCH  12  18
TORSDOF 1
ENDMDL
MODEL       16
REMARK 921   NORMALIZED FREE ENERGY PREDICTED BY IDOCK:   -5.41 KCAL/MOL
REMARK 922        TOTAL FREE ENERGY PREDICTED BY IDOCK:   -5.91 KCAL/MOL
REMARK 923 INTER-LIGAND FREE ENERGY PREDICTED BY IDOCK:   -5.95 KCAL/MOL
REMARK 924 INTRA-LIGAND FREE ENERGY PREDICTED BY IDOCK:    0.04 KCAL/MOL
REMARK 927      BINDING AFFINITY PREDICTED BY RF-SCORE:    0.00 PKD
ROOT
HETATM    1  C   UNL     1     -12.173  16.567  71.857  1.00  0.00     0.108 C  
HETATM    2  N   UNL     1     -11.889  15.190  71.397  1.00  0.00    -0.333 N  
HETATM    3  C   UNL     1     -11.708  15.023  69.943  1.00  0.00    -0.307 C  
HETATM    4  C   UNL     1     -10.787  16.107  69.330  1.00  0.00    -0.320 C  
HETATM    5  N   UNL     1     -11.086  13.716  69.711  1.00  0.00    -0.465 NA 
HETATM    6  H   UNL     1     -10.212  13.650  69.189  1.00  0.00     0.000 HD 
HETATM    7 CL   UNL     1     -10.594  15.873  67.563  1.00  0.00    -0.309 Cl 
HETATM    8  C   UNL     1     -11.692  12.565  70.205  1.00  0.00    -0.175 A  
HETATM    9  C   UNL     1     -11.298  11.311  69.712  1.00  0.00    -0.348 A  
HETATM   10  C   UNL     1     -11.823  10.112  70.229  1.00  0.00    -0.261 A  
HETATM   11 CL   UNL     1     -11.283   8.647  69.490  1.00  0.00     0.028 Cl 
HETATM   12  C   UNL     1     -12.739  10.160  71.281  1.00  0.00    -0.407 A  
HETATM   13  O   UNL     1     -12.917  14.015  73.408  1.00  0.00    -0.461 OA 
HETATM   14  C   UNL     1     -13.108  11.395  71.819  1.00  0.00    -0.523 A  
HETATM   15  C   UNL     1     -12.577  12.568  71.279  1.00  0.00    -0.231 A  
HETATM   16  O   UNL     1     -14.323  14.464  71.362  1.00  0.00    -0.364 OA 
HETATM   17  S   UNL     1     -13.060  14.101  71.971  1.00  0.00    -0.415 S  
ENDROOT
BRANCH  12  18
HETATM   18  S   UNL     1     -13.437   8.706  71.993  1.00  0.00    -0.415 S  
HETATM   19  O   UNL     1     -14.324   9.078  73.067  1.00  0.00    -0.462 OA 
HETATM   20  H1  UNL     1     -12.521   7.091  73.091  1.00  0.00     0.000 HD 
HETATM   21  H2  UNL     1     -11.141   8.231  72.682  1.00  0.00     0.000 HD 
HETATM   22  O   UNL     1     -13.860   7.824  70.929  1.00  0.00    -0.035 OA 
HETATM   23  N   UNL     1     -12.117   7.932  72.679  1.00  0.00    -0.250 N  
ENDBRANCH  12  18
TORSDOF 1
ENDMDL
MODEL       17
REMARK 921   NORMALIZED FREE ENERGY PREDICTED BY IDOCK:   -5.36 KCAL/MOL
REMARK 922        TOTAL FREE ENERGY PREDICTED BY IDOCK:   -5.85 KCAL/MOL
REMARK 923 INTER-LIGAND FREE ENERGY PREDICTED BY IDOCK:   -5.67 KCAL/MOL
REMARK 924 INTRA-LIGAND FREE ENERGY PREDICTED BY IDOCK:   -0.19 KCAL/MOL
REMARK 927      BINDING AFFINITY PREDICTED BY RF-SCORE:    0.00 PKD
ROOT
HETATM    1  C   UNL     1     -10.143   7.414  70.013  1.00  0.00    -0.191 C  
HETATM    2  N   UNL     1     -10.279   8.176  68.752  1.00  0.00    -0.204 N  
HETATM    3  C   UNL     1      -9.210   7.967  67.757  1.00  0.00    -0.137 C  
HETATM    4  C   UNL     1      -8.858   6.471  67.568  1.00  0.00    -0.112 C  
HETATM    5  N   UNL     1      -9.681   8.488  66.470  1.00  0.00    -0.240 NA 
HETATM    6  H   UNL     1      -9.695   7.885  65.648  1.00  0.00     0.000 HD 
HETATM    7 CL   UNL     1      -7.553   6.258  66.356  1.00  0.00    -0.092 Cl 
HETATM    8  C   UNL     1     -10.108   9.809  66.374  1.00  0.00    -0.243 A  
HETATM    9  C   UNL     1     -10.237  10.402  65.109  1.00  0.00    -0.326 A  
HETATM   10  C   UNL     1     -10.736  11.709  64.949  1.00  0.00    -0.296 A  
HETATM   11 CL   UNL     1     -10.790  12.326  63.337  1.00  0.00    -0.490 Cl 
HETATM   12  C   UNL     1     -11.144  12.430  66.072  1.00  0.00    -0.308 A  
HETATM   13  O   UNL     1     -11.762  10.013  69.704  1.00  0.00    -0.158 OA 
HETATM   14  C   UNL     1     -11.070  11.841  67.336  1.00  0.00    -0.338 A  
HETATM   15  C   UNL     1     -10.562  10.546  67.463  1.00  0.00    -0.259 A  
HETATM   16  O   UNL     1      -9.256  10.310  69.674  1.00  0.00    -0.199 OA 
HETATM   17  S   UNL     1     -10.479   9.835  69.059  1.00  0.00    -0.221 S  
ENDROOT
BRANCH  12  18
HETATM   18  S   UNL     1     -11.790  14.068  65.959  1.00  0.00    -0.406 S  
HETATM   19  O   UNL     1     -10.752  14.960  65.508  1.00  0.00    -0.312 OA 
HETATM   20  H1  UNL     1     -12.508  15.410  67.487  1.00  0.00     0.000 HD 
HETATM   21  H2  UNL     1     -12.003  13.892  68.387  1.00  0.00     0.000 HD 
HETATM   22  O   UNL     1     -13.082  14.015  65.313  1.00  0.00    -0.782 OA 
HETATM   23  N   UNL     1     -12.135  14.463  67.552  1.00  0.00    -0.351 N  
ENDBRANCH  12  18
TORSDOF 1
ENDMDL
MODEL       18
REMARK 921   NORMALIZED FREE ENERGY PREDICTED BY IDOCK:   -5.35 KCAL/MOL
REMARK 922        TOTAL FREE ENERGY PREDICTED BY IDOCK:   -5.84 KCAL/MOL
REMARK 923 INTER-LIGAND FREE ENERGY PREDICTED BY IDOCK:   -5.71 KCAL/MOL
REMARK 924 INTRA-LIGAND FREE ENERGY PREDICTED BY IDOCK:   -0.13 KCAL/MOL
REMARK 927      BINDING AFFINITY PREDICTED BY RF-SCORE:    0.00 PKD
ROOT
HETATM    1  C   UNL     1     -13.444  13.613  72.654  1.00  0.00    -0.498 C  
HETATM    2  N   UNL     1     -13.127  13.181  71.275  1.00  0.00    -0.248 N  
HETATM    3  C   UNL     1     -12.380  11.914  71.155  1.00  0.00    -0.198 C  
HETATM    4  C   UNL     1     -12.953  10.797  72.062  1.00  0.00    -0.339 C  
HETATM    5  N   UNL     1     -12.475  11.462  69.764  1.00  0.00    -0.160 NA 
HETATM    6  H   UNL     1     -12.840  10.534  69.551  1.00  0.00     0.000 HD 
HETATM    7 CL   UNL     1     -12.018   9.277  71.891  1.00  0.00    -0.441 Cl 
HETATM    8  C   UNL     1     -12.066  12.304  68.734  1.00  0.00    -0.112 A  
HETATM    9  C   UNL     1     -11.841  11.771  67.455  1.00  0.00    -0.227 A  
HETATM   10  C   UNL     1     -11.498  12.588  66.361  1.00  0.00    -0.365 A  
HETATM   11 CL   UNL     1     -11.200  11.787  64.860  1.00  0.00    -0.353 Cl 
HETATM   12  C   UNL     1     -11.409  13.969  66.536  1.00  0.00    -0.336 A  
HETATM   13  O   UNL     1     -13.276  15.494  70.225  1.00  0.00    -0.232 OA 
HETATM   14  C   UNL     1     -11.677  14.525  67.789  1.00  0.00    -0.403 A  
HETATM   15  C   UNL     1     -12.006  13.689  68.858  1.00  0.00    -0.356 A  
HETATM   16  O   UNL     1     -11.055  14.635  71.060  1.00  0.00    -0.080 OA 
HETATM   17  S   UNL     1     -12.333  14.413  70.416  1.00  0.00    -0.359 S  
ENDROOT
BRANCH  12  18
HETATM   18  S   UNL     1     -10.997  15.065  65.216  1.00  0.00    -0.405 S  
HETATM   19  O   UNL     1      -9.728  14.676  64.652  1.00  0.00     0.046 OA 
HETATM   20  H1  UNL     1     -10.535  17.171  65.222  1.00  0.00     0.000 HD 
HETATM   21  H2  UNL     1     -10.858  16.751  66.979  1.00  0.00     0.000 HD 
HETATM   22  O   UNL     1     -12.168  15.261  64.392  1.00  0.00    -0.413 OA 
HETATM   23  N   UNL     1     -10.774  16.538  65.985  1.00  0.00    -0.235 N  
ENDBRANCH  12  18
TORSDOF 1
ENDMDL
MODEL       19
REMARK 921   NORMALIZED FREE ENERGY PREDICTED BY IDOCK:   -5.35 KCAL/MOL
REMARK 922        TOTAL FREE ENERGY PREDICTED BY IDOCK:   -5.84 KCAL/MOL
REMARK 923 INTER-LIGAND FREE ENERGY PREDICTED BY IDOCK:   -5.75 KCAL/MOL
REMARK 924 INTRA-LIGAND FREE ENERGY PREDICTED BY IDOCK:   -0.10 KCAL/MOL
REMARK 927      BINDING AFFINITY PREDICTED BY RF-SCORE:    0.00 PKD
ROOT
HETATM    1  C   UNL     1     -11.934   6.632  71.858  1.00  0.00    -0.341 C  
HETATM    2  N   UNL     1     -11.736   7.517  70.689  1.00  0.00    -0.256 N  
HETATM    3  C   UNL     1     -10.679   7.108  69.745  1.00  0.00    -0.239 C  
HETATM    4  C   UNL     1     -10.738   5.598  69.405  1.00  0.00    -0.295 C  
HETATM    5  N   UNL     1     -10.865   7.861  68.502  1.00  0.00    -0.416 NA 
HETATM    6  H   UNL     1     -10.969   7.367  67.615  1.00  0.00     0.000 HD 
HETATM    7 CL   UNL     1      -9.437   5.138  68.260  1.00  0.00    -0.152 Cl 
HETATM    8  C   UNL     1     -10.899   9.252  68.534  1.00  0.00    -0.074 A  
HETATM    9  C   UNL     1     -10.741   9.974  67.341  1.00  0.00    -0.336 A  
HETATM   10  C   UNL     1     -10.842  11.378  67.305  1.00  0.00    -0.263 A  
HETATM   11 CL   UNL     1     -10.573  12.134  65.776  1.00  0.00    -0.286 Cl 
HETATM   12  C   UNL     1     -11.137  12.076  68.477  1.00  0.00    -0.244 A  
HETATM   13  O   UNL     1     -12.734   9.602  71.755  1.00  0.00    -0.361 OA 
HETATM   14  C   UNL     1     -11.347  11.373  69.665  1.00  0.00    -0.347 A  
HETATM   15  C   UNL     1     -11.231   9.981  69.671  1.00  0.00    -0.239 A  
HETATM   16  O   UNL     1     -10.252   9.174  71.917  1.00  0.00    -0.332 OA 
HETATM   17  S   UNL     1     -11.496   9.127  71.176  1.00  0.00    -0.346 S  
ENDROOT
BRANCH  12  18
HETATM   18  S   UNL     1     -11.291  13.832  68.517  1.00  0.00    -0.308 S  
HETATM   19  O   UNL     1      -9.981  14.424  68.618  1.00  0.00    -0.234 OA 
HETATM   20  H1  UNL     1     -12.175  15.139  69.987  1.00  0.00     0.000 HD 
HETATM   21  H2  UNL     1     -12.406  13.445  70.656  1.00  0.00     0.000 HD 
HETATM   22  O   UNL     1     -12.233  14.240  67.499  1.00  0.00    -0.354 OA 
HETATM   23  N   UNL     1     -12.087  14.123  69.964  1.00  0.00    -0.327 N  
ENDBRANCH  12  18
TORSDOF 1
ENDMDL
MODEL       20
REMARK 921   NORMALIZED FREE ENERGY PREDICTED BY IDOCK:   -5.34 KCAL/MOL
REMARK 922        TOTAL FREE ENERGY PREDICTED BY IDOCK:   -5.84 KCAL/MOL
REMARK 923 INTER-LIGAND FREE ENERGY PREDICTED BY IDOCK:   -5.88 KCAL/MOL
REMARK 924 INTRA-LIGAND FREE ENERGY PREDICTED BY IDOCK:    0.04 KCAL/MOL
REMARK 927      BINDING AFFINITY PREDICTED BY RF-SCORE:    0.00 PKD
ROOT
HETATM    1  C   UNL     1      -8.565   9.327  66.790  1.00  0.00    -0.127 C  
HETATM    2  N   UNL     1      -9.416   9.879  67.867  1.00  0.00    -0.134 N  
HETATM    3  C   UNL     1     -10.556   9.038  68.281  1.00  0.00    -0.163 C  
HETATM    4  C   UNL     1     -10.161   7.553  68.473  1.00  0.00    -0.184 C  
HETATM    5  N   UNL     1     -11.051   9.546  69.563  1.00  0.00    -0.387 NA 
HETATM    6  H   UNL     1     -11.115   8.924  70.370  1.00  0.00     0.000 HD 
HETATM    7 CL   UNL     1     -11.571   6.564  68.970  1.00  0.00    -0.201 Cl 
HETATM    8  C   UNL     1     -11.434  10.879  69.679  1.00  0.00    -0.305 A  
HETATM    9  C   UNL     1     -12.208  11.282  70.778  1.00  0.00    -0.479 A  
HETATM   10  C   UNL     1     -12.560  12.630  70.983  1.00  0.00    -0.262 A  
HETATM   11 CL   UNL     1     -13.559  12.970  72.351  1.00  0.00    -0.677 Cl 
HETATM   12  C   UNL     1     -12.105  13.602  70.091  1.00  0.00    -0.361 A  
HETATM   13  O   UNL     1      -8.798  12.317  67.478  1.00  0.00    -0.166 OA 
HETATM   14  C   UNL     1     -11.292  13.229  69.018  1.00  0.00    -0.334 A  
HETATM   15  C   UNL     1     -10.968  11.882  68.836  1.00  0.00    -0.238 A  
HETATM   16  O   UNL     1     -10.812  11.332  66.321  1.00  0.00    -0.272 OA 
HETATM   17  S   UNL     1      -9.952  11.445  67.481  1.00  0.00    -0.184 S  
ENDROOT
BRANCH  12  18
HETATM   18  S   UNL     1     -12.490  15.312  70.281  1.00  0.00    -0.339 S  
HETATM   19  O   UNL     1     -11.888  16.060  69.206  1.00  0.00    -0.345 OA 
HETATM   20  H1  UNL     1     -11.918  16.728  71.805  1.00  0.00     0.000 HD 
HETATM   21  H2  UNL     1     -11.126  15.149  72.302  1.00  0.00     0.000 HD 
HETATM   22  O   UNL     1     -13.894  15.440  70.603  1.00  0.00    -0.300 OA 
HETATM   23  N   UNL     1     -11.696  15.739  71.695  1.00  0.00    -0.421 N  
ENDBRANCH  12  18
TORSDOF 1
ENDMDL
MODEL       21
REMARK 921   NORMALIZED FREE ENERGY PREDICTED BY IDOCK:   -5.34 KCAL/MOL
REMARK 922        TOTAL FREE ENERGY PREDICTED BY IDOCK:   -5.83 KCAL/MOL
REMARK 923 INTER-LIGAND FREE ENERGY PREDICTED BY IDOCK:   -5.82 KCAL/MOL
REMARK 924 INTRA-LIGAND FREE ENERGY PREDICTED BY IDOCK:   -0.01 KCAL/MOL
REMARK 927      BINDING AFFINITY PREDICTED BY RF-SCORE:    0.00 PKD
ROOT
HETATM    1  C   UNL     1      -9.662  12.799  66.171  1.00  0.00    -0.246 C  
HETATM    2  N   UNL     1     -10.499  12.276  67.274  1.00  0.00    -0.216 N  
HETATM    3  C   UNL     1     -10.900  13.260  68.297  1.00  0.00    -0.256 C  
HETATM    4  C   UNL     1     -11.408  14.587  67.680  1.00  0.00    -0.337 C  
HETATM    5  N   UNL     1     -11.993  12.677  69.081  1.00  0.00    -0.276 NA 
HETATM    6  H   UNL     1     -12.882  13.170  69.166  1.00  0.00     0.000 HD 
HETATM    7 CL   UNL     1     -11.882  15.756  68.954  1.00  0.00    -0.398 Cl 
HETATM    8  C   UNL     1     -11.815  11.448  69.710  1.00  0.00    -0.364 A  
HETATM    9  C   UNL     1     -12.709  11.051  70.715  1.00  0.00    -0.414 A  
HETATM   10  C   UNL     1     -12.620   9.788  71.332  1.00  0.00    -0.386 A  
HETATM   11 CL   UNL     1     -13.758   9.457  72.588  1.00  0.00    -0.427 Cl 
HETATM   12  C   UNL     1     -11.637   8.889  70.916  1.00  0.00    -0.283 A  
HETATM   13  O   UNL     1      -9.763   9.850  67.045  1.00  0.00    -0.168 OA 
HETATM   14  C   UNL     1     -10.767   9.246  69.883  1.00  0.00    -0.253 A  
HETATM   15  C   UNL     1     -10.874  10.509  69.298  1.00  0.00    -0.243 A  
HETATM   16  O   UNL     1      -8.543  11.388  68.631  1.00  0.00    -0.157 OA 
HETATM   17  S   UNL     1      -9.769  10.929  68.009  1.00  0.00    -0.169 S  
ENDROOT
BRANCH  12  18
HETATM   18  S   UNL     1     -11.462   7.284  71.627  1.00  0.00    -0.277 S  
HETATM   19  O   UNL     1     -12.756   6.656  71.710  1.00  0.00    -0.350 OA 
HETATM   20  H1  UNL     1     -10.858   6.676  73.606  1.00  0.00     0.000 HD 
HETATM   21  H2  UNL     1     -10.791   8.510  73.632  1.00  0.00     0.000 HD 
HETATM   22  O   UNL     1     -10.333   6.623  71.012  1.00  0.00    -0.204 OA 
HETATM   23  N   UNL     1     -10.958   7.603  73.194  1.00  0.00    -0.398 N  
ENDBRANCH  12  18
TORSDOF 1
ENDMDL
MODEL       22
REMARK 921   NORMALIZED FREE ENERGY PREDICTED BY IDOCK:   -5.27 KCAL/MOL
REMARK 922        TOTAL FREE ENERGY PREDICTED BY IDOCK:   -5.76 KCAL/MOL
REMARK 923 INTER-LIGAND FREE ENERGY PREDICTED BY IDOCK:   -5.59 KCAL/MOL
REMARK 924 INTRA-LIGAND FREE ENERGY PREDICTED BY IDOCK:   -0.17 KCAL/MOL
REMARK 927      BINDING AFFINITY PREDICTED BY RF-SCORE:    0.00 PKD
ROOT
HETATM    1  C   UNL     1     -10.488  13.221  65.122  1.00  0.00    -0.333 C  
HETATM    2  N   UNL     1     -10.954  12.571  66.367  1.00  0.00    -0.264 N  
HETATM    3  C   UNL     1     -11.058  13.448  67.549  1.00  0.00    -0.274 C  
HETATM    4  C   UNL     1     -11.750  14.796  67.230  1.00  0.00    -0.347 C  
HETATM    5  N   UNL     1     -11.861  12.753  68.559  1.00  0.00    -0.320 NA 
HETATM    6  H   UNL     1     -12.696  13.196  68.943  1.00  0.00     0.000 HD 
HETATM    7 CL   UNL     1     -11.853  15.834  68.689  1.00  0.00    -0.363 Cl 
HETATM    8  C   UNL     1     -11.482  11.487  68.993  1.00  0.00    -0.291 A  
HETATM    9  C   UNL     1     -12.035  10.967  70.173  1.00  0.00    -0.435 A  
HETATM   10  C   UNL     1     -11.744   9.663  70.619  1.00  0.00    -0.280 A  
HETATM   11 CL   UNL     1     -12.458   9.178  72.115  1.00  0.00    -0.443 Cl 
HETATM   12  C   UNL     1     -10.908   8.848  69.855  1.00  0.00    -0.211 A  
HETATM   13  O   UNL     1     -10.269  10.209  65.713  1.00  0.00    -0.263 OA 
HETATM   14  C   UNL     1     -10.386   9.328  68.652  1.00  0.00    -0.229 A  
HETATM   15  C   UNL     1     -10.685  10.629  68.241  1.00  0.00    -0.219 A  
HETATM   16  O   UNL     1      -8.670  11.666  67.011  1.00  0.00    -0.160 OA 
HETATM   17  S   UNL     1     -10.014  11.204  66.732  1.00  0.00    -0.214 S  
ENDROOT
BRANCH  12  18
HETATM   18  S   UNL     1     -10.501   7.200  70.334  1.00  0.00    -0.223 S  
HETATM   19  O   UNL     1      -9.785   7.229  71.585  1.00  0.00    -0.156 OA 
HETATM   20  H1  UNL     1      -9.187   5.750  69.428  1.00  0.00     0.000 HD 
HETATM   21  H2  UNL     1      -9.084   7.227  68.344  1.00  0.00     0.000 HD 
HETATM   22  O   UNL     1     -11.662   6.360  70.142  1.00  0.00    -0.422 OA 
HETATM   23  N   UNL     1      -9.423   6.702  69.150  1.00  0.00    -0.137 N  
ENDBRANCH  12  18
TORSDOF 1
ENDMDL
MODEL       23
REMARK 921   NORMALIZED FREE ENERGY PREDICTED BY IDOCK:   -5.25 KCAL/MOL
REMARK 922        TOTAL FREE ENERGY PREDICTED BY IDOCK:   -5.74 KCAL/MOL
REMARK 923 INTER-LIGAND FREE ENERGY PREDICTED BY IDOCK:   -5.56 KCAL/MOL
REMARK 924 INTRA-LIGAND FREE ENERGY PREDICTED BY IDOCK:   -0.18 KCAL/MOL
REMARK 927      BINDING AFFINITY PREDICTED BY RF-SCORE:    0.00 PKD
ROOT
HETATM    1  C   UNL     1     -10.331  13.911  64.740  1.00  0.00    -0.394 C  
HETATM    2  N   UNL     1     -10.132  12.642  65.475  1.00  0.00    -0.274 N  
HETATM    3  C   UNL     1     -10.225  11.411  64.668  1.00  0.00    -0.294 C  
HETATM    4  C   UNL     1      -9.440  11.511  63.336  1.00  0.00    -0.253 C  
HETATM    5  N   UNL     1      -9.651  10.312  65.450  1.00  0.00    -0.229 NA 
HETATM    6  H   UNL     1      -8.890   9.752  65.066  1.00  0.00     0.000 HD 
HETATM    7 CL   UNL     1      -9.581   9.999  62.383  1.00  0.00    -0.220 Cl 
HETATM    8  C   UNL     1     -10.148  10.034  66.720  1.00  0.00    -0.226 A  
HETATM    9  C   UNL     1      -9.846   8.805  67.326  1.00  0.00    -0.260 A  
HETATM   10  C   UNL     1     -10.260   8.503  68.638  1.00  0.00    -0.197 A  
HETATM   11 CL   UNL     1      -9.861   6.931  69.233  1.00  0.00    -0.156 Cl 
HETATM   12  C   UNL     1     -10.963   9.458  69.373  1.00  0.00    -0.145 A  
HETATM   13  O   UNL     1     -10.758  13.556  67.766  1.00  0.00    -0.246 OA 
HETATM   14  C   UNL     1     -11.231  10.706  68.807  1.00  0.00    -0.337 A  
HETATM   15  C   UNL     1     -10.816  10.973  67.501  1.00  0.00    -0.263 A  
HETATM   16  O   UNL     1     -12.526  12.494  66.311  1.00  0.00    -0.475 OA 
HETATM   17  S   UNL     1     -11.169  12.544  66.817  1.00  0.00    -0.315 S  
ENDROOT
BRANCH  12  18
HETATM   18  S   UNL     1     -11.508   9.164  71.025  1.00  0.00    -0.329 S  
HETATM   19  O   UNL     1     -12.493   8.112  71.023  1.00  0.00    -0.233 OA 
HETATM   20  H1  UNL     1     -12.610  10.417  72.391  1.00  0.00     0.000 HD 
HETATM   21  H2  UNL     1     -12.426  11.424  70.867  1.00  0.00     0.000 HD 
HETATM   22  O   UNL     1     -10.355   9.124  71.895  1.00  0.00    -0.335 OA 
HETATM   23  N   UNL     1     -12.295  10.587  71.436  1.00  0.00    -0.376 N  
ENDBRANCH  12  18
TORSDOF 1
ENDMDL
MODEL       24
REMARK 921   NORMALIZED FREE ENERGY PREDICTED BY IDOCK:   -5.24 KCAL/MOL
REMARK 922        TOTAL FREE ENERGY PREDICTED BY IDOCK:   -5.73 KCAL/MOL
REMARK 923 INTER-LIGAND FREE ENERGY PREDICTED BY IDOCK:   -5.83 KCAL/MOL
REMARK 924 INTRA-LIGAND FREE ENERGY PREDICTED BY IDOCK:    0.10 KCAL/MOL
REMARK 927      BINDING AFFINITY PREDICTED BY RF-SCORE:    0.00 PKD
ROOT
HETATM    1  C   UNL     1     -11.317  11.745  67.596  1.00  0.00    -0.302 C  
HETATM    2  N   UNL     1     -11.303  13.160  67.164  1.00  0.00    -0.301 N  
HETATM    3  C   UNL     1     -11.224  13.386  65.708  1.00  0.00    -0.290 C  
HETATM    4  C   UNL     1     -12.198  12.481  64.912  1.00  0.00    -0.470 C  
HETATM    5  N   UNL     1     -11.586  14.782  65.447  1.00  0.00    -0.338 NA 
HETATM    6  H   UNL     1     -12.345  15.002  64.802  1.00  0.00     0.000 HD 
HETATM    7 CL   UNL     1     -12.070  12.782  63.149  1.00  0.00    -0.502 Cl 
HETATM    8  C   UNL     1     -10.891  15.807  66.081  1.00  0.00    -0.240 A  
HETATM    9  C   UNL     1     -10.999  17.119  65.594  1.00  0.00     0.080 A  
HETATM   10  C   UNL     1     -10.378  18.204  66.241  1.00  0.00    -0.397 A  
HETATM   11 CL   UNL     1     -10.556  19.753  65.498  1.00  0.00    -0.492 Cl 
HETATM   12  C   UNL     1      -9.659  17.983  67.416  1.00  0.00    -0.272 A  
HETATM   13  O   UNL     1     -10.432  14.105  69.361  1.00  0.00    -0.126 OA 
HETATM   14  C   UNL     1      -9.579  16.693  67.945  1.00  0.00    -0.234 A  
HETATM   15  C   UNL     1     -10.199  15.635  67.275  1.00  0.00    -0.266 A  
HETATM   16  O   UNL     1      -8.810  13.477  67.533  1.00  0.00    -0.186 OA 
HETATM   17  S   UNL     1     -10.079  14.029  67.960  1.00  0.00    -0.244 S  
ENDROOT
BRANCH  12  18
HETATM   18  S   UNL     1      -8.860  19.287  68.294  1.00  0.00    -0.345 S  
HETATM   19  O   UNL     1      -8.307  20.228  67.353  1.00  0.00    -0.331 OA 
HETATM   20  H1  UNL     1      -7.112  19.275  69.558  1.00  0.00     0.000 HD 
HETATM   21  H2  UNL     1      -7.317  17.534  69.013  1.00  0.00     0.000 HD 
HETATM   22  O   UNL     1      -9.716  19.711  69.379  1.00  0.00    -0.342 OA 
HETATM   23  N   UNL     1      -7.574  18.520  69.051  1.00  0.00    -0.233 N  
ENDBRANCH  12  18
TORSDOF 1
ENDMDL
MODEL       25
REMARK 921   NORMALIZED FREE ENERGY PREDICTED BY IDOCK:   -5.20 KCAL/MOL
REMARK 922        TOTAL FREE ENERGY PREDICTED BY IDOCK:   -5.69 KCAL/MOL
REMARK 923 INTER-LIGAND FREE ENERGY PREDICTED BY IDOCK:   -5.50 KCAL/MOL
REMARK 924 INTRA-LIGAND FREE ENERGY PREDICTED BY IDOCK:   -0.19 KCAL/MOL
REMARK 927      BINDING AFFINITY PREDICTED BY RF-SCORE:    0.00 PKD
ROOT
HETATM    1  C   UNL     1     -11.560   6.557  72.546  1.00  0.00    -0.208 C  
HETATM    2  N   UNL     1     -11.299   7.056  71.178  1.00  0.00    -0.269 N  
HETATM    3  C   UNL     1     -10.107   6.499  70.509  1.00  0.00    -0.185 C  
HETATM    4  C   UNL     1     -10.002   4.962  70.663  1.00  0.00    -0.235 C  
HETATM    5  N   UNL     1     -10.207   6.806  69.079  1.00  0.00    -0.170 NA 
HETATM    6  H   UNL     1     -10.165   6.055  68.390  1.00  0.00     0.000 HD 
HETATM    7 CL   UNL     1      -8.542   4.324  69.841  1.00  0.00    -0.093 Cl 
HETATM    8  C   UNL     1     -10.358   8.125  68.663  1.00  0.00    -0.200 A  
HETATM    9  C   UNL     1     -10.120   8.458  67.321  1.00  0.00    -0.321 A  
HETATM   10  C   UNL     1     -10.330   9.761  66.831  1.00  0.00    -0.234 A  
HETATM   11 CL   UNL     1      -9.946  10.035  65.169  1.00  0.00    -0.395 Cl 
HETATM   12  C   UNL     1     -10.818  10.747  67.689  1.00  0.00    -0.279 A  
HETATM   13  O   UNL     1     -12.583   9.238  71.434  1.00  0.00    -0.314 OA 
HETATM   14  C   UNL     1     -11.108  10.426  69.017  1.00  0.00    -0.297 A  
HETATM   15  C   UNL     1     -10.881   9.126  69.476  1.00  0.00    -0.180 A  
HETATM   16  O   UNL     1     -10.111   9.169  71.937  1.00  0.00    -0.322 OA 
HETATM   17  S   UNL     1     -11.251   8.754  71.145  1.00  0.00    -0.298 S  
ENDROOT
BRANCH  12  18
HETATM   18  S   UNL     1     -11.119  12.401  67.154  1.00  0.00    -0.297 S  
HETATM   19  O   UNL     1      -9.862  13.054  66.889  1.00  0.00    -0.229 OA 
HETATM   20  H1  UNL     1     -11.964  14.090  68.195  1.00  0.00     0.000 HD 
HETATM   21  H2  UNL     1     -11.980  12.721  69.418  1.00  0.00     0.000 HD 
HETATM   22  O   UNL     1     -12.188  12.388  66.181  1.00  0.00    -0.635 OA 
HETATM   23  N   UNL     1     -11.791  13.134  68.505  1.00  0.00    -0.340 N  
ENDBRANCH  12  18
TORSDOF 1
ENDMDL
MODEL       26
REMARK 921   NORMALIZED FREE ENERGY PREDICTED BY IDOCK:   -5.11 KCAL/MOL
REMARK 922        TOTAL FREE ENERGY PREDICTED BY IDOCK:   -5.59 KCAL/MOL
REMARK 923 INTER-LIGAND FREE ENERGY PREDICTED BY IDOCK:   -5.72 KCAL/MOL
REMARK 924 INTRA-LIGAND FREE ENERGY PREDICTED BY IDOCK:    0.13 KCAL/MOL
REMARK 927      BINDING AFFINITY PREDICTED BY RF-SCORE:    0.00 PKD
ROOT
HETATM    1  C   UNL     1      -9.930   7.739  69.237  1.00  0.00    -0.182 C  
HETATM    2  N   UNL     1     -10.655   8.802  69.967  1.00  0.00    -0.220 N  
HETATM    3  C   UNL     1     -12.018   8.458  70.416  1.00  0.00     0.184 C  
HETATM    4  C   UNL     1     -12.090   7.060  71.078  1.00  0.00    -0.368 C  
HETATM    5  N   UNL     1     -12.432   9.453  71.409  1.00  0.00    -0.333 NA 
HETATM    6  H   UNL     1     -12.733   9.156  72.337  1.00  0.00     0.000 HD 
HETATM    7 CL   UNL     1     -13.761   6.677  71.606  1.00  0.00    -0.164 Cl 
HETATM    8  C   UNL     1     -12.414  10.806  71.083  1.00  0.00    -0.414 A  
HETATM    9  C   UNL     1     -13.111  11.720  71.887  1.00  0.00    -0.482 A  
HETATM   10  C   UNL     1     -13.065  13.106  71.647  1.00  0.00    -0.353 A  
HETATM   11 CL   UNL     1     -14.015  14.105  72.688  1.00  0.00    -0.501 Cl 
HETATM   12  C   UNL     1     -12.283  13.596  70.600  1.00  0.00    -0.360 A  
HETATM   13  O   UNL     1      -9.322  10.747  69.009  1.00  0.00    -0.187 OA 
HETATM   14  C   UNL     1     -11.542  12.708  69.817  1.00  0.00    -0.285 A  
HETATM   15  C   UNL     1     -11.615  11.337  70.075  1.00  0.00    -0.321 A  
HETATM   16  O   UNL     1     -11.449  10.003  67.874  1.00  0.00    -0.210 OA 
HETATM   17  S   UNL     1     -10.678  10.249  69.076  1.00  0.00    -0.241 S  
ENDROOT
BRANCH  12  18
HETATM   18  S   UNL     1     -12.161  15.318  70.237  1.00  0.00    -0.376 S  
HETATM   19  O   UNL     1     -13.431  15.950  70.493  1.00  0.00    -0.255 OA 
HETATM   20  H1  UNL     1     -11.839  16.348  68.370  1.00  0.00     0.000 HD 
HETATM   21  H2  UNL     1     -11.840  14.564  67.935  1.00  0.00     0.000 HD 
HETATM   22  O   UNL     1     -10.931  15.827  70.801  1.00  0.00    -0.326 OA 
HETATM   23  N   UNL     1     -11.908  15.352  68.580  1.00  0.00    -0.325 N  
ENDBRANCH  12  18
TORSDOF 1
ENDMDL
MODEL       27
REMARK 921   NORMALIZED FREE ENERGY PREDICTED BY IDOCK:   -5.04 KCAL/MOL
REMARK 922        TOTAL FREE ENERGY PREDICTED BY IDOCK:   -5.52 KCAL/MOL
REMARK 923 INTER-LIGAND FREE ENERGY PREDICTED BY IDOCK:   -5.33 KCAL/MOL
REMARK 924 INTRA-LIGAND FREE ENERGY PREDICTED BY IDOCK:   -0.19 KCAL/MOL
REMARK 927      BINDING AFFINITY PREDICTED BY RF-SCORE:    0.00 PKD
ROOT
HETATM    1  C   UNL     1      -9.018   6.276  68.743  1.00  0.00    -0.125 C  
HETATM    2  N   UNL     1      -9.577   7.617  69.024  1.00  0.00    -0.150 N  
HETATM    3  C   UNL     1     -10.777   7.645  69.881  1.00  0.00    -0.249 C  
HETATM    4  C   UNL     1     -10.641   6.733  71.125  1.00  0.00    -0.224 C  
HETATM    5  N   UNL     1     -10.968   9.022  70.346  1.00  0.00    -0.241 NA 
HETATM    6  H   UNL     1     -11.024   9.221  71.345  1.00  0.00     0.000 HD 
HETATM    7 CL   UNL     1     -12.120   6.791  72.138  1.00  0.00    -0.319 Cl 
HETATM    8  C   UNL     1     -11.074  10.057  69.422  1.00  0.00    -0.223 A  
HETATM    9  C   UNL     1     -11.583  11.299  69.830  1.00  0.00    -0.413 A  
HETATM   10  C   UNL     1     -11.641  12.401  68.956  1.00  0.00    -0.311 A  
HETATM   11 CL   UNL     1     -12.340  13.851  69.584  1.00  0.00    -0.354 Cl 
HETATM   12  C   UNL     1     -11.153  12.272  67.655  1.00  0.00    -0.268 A  
HETATM   13  O   UNL     1      -8.580   8.760  66.979  1.00  0.00    -0.114 OA 
HETATM   14  C   UNL     1     -10.598  11.059  67.243  1.00  0.00    -0.287 A  
HETATM   15  C   UNL     1     -10.562   9.981  68.130  1.00  0.00    -0.227 A  
HETATM   16  O   UNL     1     -10.895   7.763  66.857  1.00  0.00    -0.311 OA 
HETATM   17  S   UNL     1      -9.863   8.473  67.584  1.00  0.00    -0.187 S  
ENDROOT
BRANCH  12  18
HETATM   18  S   UNL     1     -11.179  13.605  66.500  1.00  0.00    -0.318 S  
HETATM   19  O   UNL     1     -12.546  13.928  66.175  1.00  0.00    -0.452 OA 
HETATM   20  H1  UNL     1     -10.494  13.717  64.459  1.00  0.00     0.000 HD 
HETATM   21  H2  UNL     1     -10.121  12.001  64.991  1.00  0.00     0.000 HD 
HETATM   22  O   UNL     1     -10.242  14.616  66.936  1.00  0.00    -0.257 OA 
HETATM   23  N   UNL     1     -10.478  12.947  65.127  1.00  0.00    -0.301 N  
ENDBRANCH  12  18
TORSDOF 1
ENDMDL
MODEL       28
REMARK 921   NORMALIZED FREE ENERGY PREDICTED BY IDOCK:   -5.03 KCAL/MOL
REMARK 922        TOTAL FREE ENERGY PREDICTED BY IDOCK:   -5.50 KCAL/MOL
REMARK 923 INTER-LIGAND FREE ENERGY PREDICTED BY IDOCK:   -5.37 KCAL/MOL
REMARK 924 INTRA-LIGAND FREE ENERGY PREDICTED BY IDOCK:   -0.13 KCAL/MOL
REMARK 927      BINDING AFFINITY PREDICTED BY RF-SCORE:    0.00 PKD
ROOT
HETATM    1  C   UNL     1      -5.488  16.038  68.876  1.00  0.00    -0.108 C  
HETATM    2  N   UNL     1      -6.661  16.050  67.975  1.00  0.00    -0.119 N  
HETATM    3  C   UNL     1      -7.671  17.090  68.250  1.00  0.00    -0.209 C  
HETATM    4  C   UNL     1      -7.039  18.482  68.500  1.00  0.00    -0.277 C  
HETATM    5  N   UNL     1      -8.546  17.192  67.078  1.00  0.00    -0.210 NA 
HETATM    6  H   UNL     1      -8.670  18.089  66.609  1.00  0.00     0.000 HD 
HETATM    7 CL   UNL     1      -8.297  19.716  68.833  1.00  0.00    -0.312 Cl 
HETATM    8  C   UNL     1      -9.207  16.062  66.608  1.00  0.00    -0.249 A  
HETATM    9  C   UNL     1     -10.282  16.211  65.718  1.00  0.00    -0.397 A  
HETATM   10  C   UNL     1     -10.938  15.101  65.154  1.00  0.00    -0.417 A  
HETATM   11 CL   UNL     1     -12.278  15.437  64.116  1.00  0.00    -0.252 Cl 
HETATM   12  C   UNL     1     -10.494  13.813  65.457  1.00  0.00    -0.318 A  
HETATM   13  O   UNL     1      -6.477  13.615  67.257  1.00  0.00    -0.279 OA 
HETATM   14  C   UNL     1      -9.394  13.643  66.301  1.00  0.00    -0.153 A  
HETATM   15  C   UNL     1      -8.770  14.764  66.853  1.00  0.00    -0.236 A  
HETATM   16  O   UNL     1      -7.921  14.236  69.231  1.00  0.00    -0.023 OA 
HETATM   17  S   UNL     1      -7.397  14.520  67.910  1.00  0.00    -0.175 S  
ENDROOT
BRANCH  12  18
HETATM   18  S   UNL     1     -11.252  12.369  64.785  1.00  0.00    -0.323 S  
HETATM   19  O   UNL     1     -12.653  12.365  65.122  1.00  0.00    -0.622 OA 
HETATM   20  H1  UNL     1     -10.967  10.281  65.245  1.00  0.00     0.000 HD 
HETATM   21  H2  UNL     1      -9.818  11.175  66.364  1.00  0.00     0.000 HD 
HETATM   22  O   UNL     1     -10.796  12.195  63.425  1.00  0.00    -0.431 OA 
HETATM   23  N   UNL     1     -10.528  11.116  65.633  1.00  0.00    -0.258 N  
ENDBRANCH  12  18
TORSDOF 1
ENDMDL
MODEL       29
REMARK 921   NORMALIZED FREE ENERGY PREDICTED BY IDOCK:   -5.01 KCAL/MOL
REMARK 922        TOTAL FREE ENERGY PREDICTED BY IDOCK:   -5.48 KCAL/MOL
REMARK 923 INTER-LIGAND FREE ENERGY PREDICTED BY IDOCK:   -5.82 KCAL/MOL
REMARK 924 INTRA-LIGAND FREE ENERGY PREDICTED BY IDOCK:    0.33 KCAL/MOL
REMARK 927      BINDING AFFINITY PREDICTED BY RF-SCORE:    0.00 PKD
ROOT
HETATM    1  C   UNL     1     -10.595  10.992  64.985  1.00  0.00    -0.244 C  
HETATM    2  N   UNL     1      -9.907  12.203  65.483  1.00  0.00    -0.240 N  
HETATM    3  C   UNL     1      -9.236  12.069  66.790  1.00  0.00    -0.201 C  
HETATM    4  C   UNL     1      -8.404  10.768  66.901  1.00  0.00    -0.132 C  
HETATM    5  N   UNL     1      -8.324  13.205  66.949  1.00  0.00    -0.394 NA 
HETATM    6  H   UNL     1      -7.334  13.045  67.135  1.00  0.00     0.000 HD 
HETATM    7 CL   UNL     1      -7.607  10.639  68.502  1.00  0.00    -0.091 Cl 
HETATM    8  C   UNL     1      -8.813  14.504  66.847  1.00  0.00    -0.234 A  
HETATM    9  C   UNL     1      -8.037  15.573  67.321  1.00  0.00    -0.226 A  
HETATM   10  C   UNL     1      -8.450  16.912  67.175  1.00  0.00    -0.197 A  
HETATM   11 CL   UNL     1      -7.417  18.119  67.853  1.00  0.00    -0.223 Cl 
HETATM   12  C   UNL     1      -9.646  17.193  66.514  1.00  0.00    -0.279 A  
HETATM   13  O   UNL     1     -11.271  13.867  64.124  1.00  0.00    -0.314 OA 
HETATM   14  C   UNL     1     -10.409  16.147  65.991  1.00  0.00    -0.372 A  
HETATM   15  C   UNL     1      -9.978  14.829  66.160  1.00  0.00    -0.304 A  
HETATM   16  O   UNL     1     -12.001  13.258  66.461  1.00  0.00    -0.375 OA 
HETATM   17  S   UNL     1     -10.957  13.539  65.497  1.00  0.00    -0.294 S  
ENDROOT
BRANCH  12  18
HETATM   18  S   UNL     1     -10.230  18.841  66.279  1.00  0.00    -0.424 S  
HETATM   19  O   UNL     1     -11.033  18.897  65.083  1.00  0.00    -0.491 OA 
HETATM   20  H1  UNL     1      -9.167  20.667  65.848  1.00  0.00     0.000 HD 
HETATM   21  H2  UNL     1      -7.868  19.375  65.950  1.00  0.00     0.000 HD 
HETATM   22  O   UNL     1     -10.713  19.348  67.543  1.00  0.00    -0.459 OA 
HETATM   23  N   UNL     1      -8.829  19.715  65.985  1.00  0.00    -0.321 N  
ENDBRANCH  12  18
TORSDOF 1
ENDMDL
MODEL       30
REMARK 921   NORMALIZED FREE ENERGY PREDICTED BY IDOCK:   -5.00 KCAL/MOL
REMARK 922        TOTAL FREE ENERGY PREDICTED BY IDOCK:   -5.47 KCAL/MOL
REMARK 923 INTER-LIGAND FREE ENERGY PREDICTED BY IDOCK:   -5.47 KCAL/MOL
REMARK 924 INTRA-LIGAND FREE ENERGY PREDICTED BY IDOCK:   -0.01 KCAL/MOL
REMARK 927      BINDING AFFINITY PREDICTED BY RF-SCORE:    0.00 PKD
ROOT
HETATM    1  C   UNL     1     -11.938  15.143  64.293  1.00  0.00    -0.262 C  
HETATM    2  N   UNL     1     -11.296  14.371  65.381  1.00  0.00    -0.328 N  
HETATM    3  C   UNL     1      -9.928  14.790  65.744  1.00  0.00    -0.347 C  
HETATM    4  C   UNL     1      -9.793  16.327  65.881  1.00  0.00    -0.334 C  
HETATM    5  N   UNL     1      -9.600  14.188  67.040  1.00  0.00    -0.252 NA 
HETATM    6  H   UNL     1      -9.308  14.778  67.819  1.00  0.00     0.000 HD 
HETATM    7 CL   UNL     1      -8.119  16.795  66.319  1.00  0.00    -0.358 Cl 
HETATM    8  C   UNL     1      -9.687  12.809  67.204  1.00  0.00    -0.216 A  
HETATM    9  C   UNL     1      -9.067  12.205  68.308  1.00  0.00    -0.191 A  
HETATM   10  C   UNL     1      -9.186  10.825  68.563  1.00  0.00    -0.174 A  
HETATM   11 CL   UNL     1      -8.325  10.213  69.930  1.00  0.00    -0.164 Cl 
HETATM   12  C   UNL     1      -9.967  10.036  67.718  1.00  0.00    -0.170 A  
HETATM   13  O   UNL     1     -12.712  12.275  65.099  1.00  0.00    -0.571 OA 
HETATM   14  C   UNL     1     -10.633  10.625  66.642  1.00  0.00    -0.276 A  
HETATM   15  C   UNL     1     -10.488  11.995  66.409  1.00  0.00    -0.233 A  
HETATM   16  O   UNL     1     -10.514  12.480  63.876  1.00  0.00    -0.398 OA 
HETATM   17  S   UNL     1     -11.331  12.705  65.051  1.00  0.00    -0.322 S  
ENDROOT
BRANCH  12  18
HETATM   18  S   UNL     1     -10.177   8.303  67.972  1.00  0.00    -0.214 S  
HETATM   19  O   UNL     1     -10.613   8.068  69.326  1.00  0.00    -0.222 OA 
HETATM   20  H1  UNL     1      -8.742   6.693  67.981  1.00  0.00     0.000 HD 
HETATM   21  H2  UNL     1      -7.757   8.205  67.646  1.00  0.00     0.000 HD 
HETATM   22  O   UNL     1     -10.883   7.749  66.839  1.00  0.00    -0.311 OA 
HETATM   23  N   UNL     1      -8.621   7.694  67.834  1.00  0.00    -0.122 N  
ENDBRANCH  12  18
TORSDOF 1
ENDMDL
MODEL       31
REMARK 921   NORMALIZED FREE ENERGY PREDICTED BY IDOCK:   -4.91 KCAL/MOL
REMARK 922        TOTAL FREE ENERGY PREDICTED BY IDOCK:   -5.38 KCAL/MOL
REMARK 923 INTER-LIGAND FREE ENERGY PREDICTED BY IDOCK:   -5.21 KCAL/MOL
REMARK 924 INTRA-LIGAND FREE ENERGY PREDICTED BY IDOCK:   -0.17 KCAL/MOL
REMARK 927      BINDING AFFINITY PREDICTED BY RF-SCORE:    0.00 PKD
ROOT
HETATM    1  C   UNL     1      -9.528  19.587  68.699  1.00  0.00    -0.397 C  
HETATM    2  N   UNL     1      -9.234  18.150  68.504  1.00  0.00    -0.313 N  
HETATM    3  C   UNL     1      -7.836  17.821  68.168  1.00  0.00    -0.264 C  
HETATM    4  C   UNL     1      -6.817  18.569  69.062  1.00  0.00    -0.274 C  
HETATM    5  N   UNL     1      -7.648  16.382  68.372  1.00  0.00    -0.170 NA 
HETATM    6  H   UNL     1      -6.914  16.044  68.995  1.00  0.00     0.000 HD 
HETATM    7 CL   UNL     1      -5.131  18.146  68.621  1.00  0.00    -0.159 Cl 
HETATM    8  C   UNL     1      -8.475  15.476  67.715  1.00  0.00    -0.152 A  
HETATM    9  C   UNL     1      -8.099  14.126  67.639  1.00  0.00    -0.188 A  
HETATM   10  C   UNL     1      -8.932  13.155  67.052  1.00  0.00    -0.228 A  
HETATM   11 CL   UNL     1      -8.314  11.543  66.984  1.00  0.00    -0.159 Cl 
HETATM   12  C   UNL     1     -10.181  13.530  66.557  1.00  0.00    -0.283 A  
HETATM   13  O   UNL     1     -11.618  17.460  67.939  1.00  0.00     0.353 OA 
HETATM   14  C   UNL     1     -10.597  14.859  66.666  1.00  0.00    -0.305 A  
HETATM   15  C   UNL     1      -9.744  15.802  67.246  1.00  0.00    -0.223 A  
HETATM   16  O   UNL     1     -10.022  18.090  66.089  1.00  0.00    -0.430 OA 
HETATM   17  S   UNL     1     -10.290  17.460  67.366  1.00  0.00    -0.337 S  
ENDROOT
BRANCH  12  18
HETATM   18  S   UNL     1     -11.290  12.376  65.816  1.00  0.00    -0.368 S  
HETATM   19  O   UNL     1     -10.675  11.808  64.643  1.00  0.00    -0.282 OA 
HETATM   20  H1  UNL     1     -13.207  12.666  64.872  1.00  0.00     0.000 HD 
HETATM   21  H2  UNL     1     -12.676  14.343  65.394  1.00  0.00     0.000 HD 
HETATM   22  O   UNL     1     -11.858  11.545  66.854  1.00  0.00    -0.542 OA 
HETATM   23  N   UNL     1     -12.567  13.333  65.301  1.00  0.00    -0.487 N  
ENDBRANCH  12  18
TORSDOF 1
ENDMDL
MODEL       32
REMARK 921   NORMALIZED FREE ENERGY PREDICTED BY IDOCK:   -4.90 KCAL/MOL
REMARK 922        TOTAL FREE ENERGY PREDICTED BY IDOCK:   -5.37 KCAL/MOL
REMARK 923 INTER-LIGAND FREE ENERGY PREDICTED BY IDOCK:   -5.27 KCAL/MOL
REMARK 924 INTRA-LIGAND FREE ENERGY PREDICTED BY IDOCK:   -0.10 KCAL/MOL
REMARK 927      BINDING AFFINITY PREDICTED BY RF-SCORE:    0.00 PKD
ROOT
HETATM    1  C   UNL     1     -12.026  13.036  68.446  1.00  0.00    -0.271 C  
HETATM    2  N   UNL     1     -11.429  14.283  67.919  1.00  0.00    -0.297 N  
HETATM    3  C   UNL     1     -11.238  14.335  66.457  1.00  0.00    -0.332 C  
HETATM    4  C   UNL     1     -12.480  13.838  65.677  1.00  0.00    -0.503 C  
HETATM    5  N   UNL     1     -10.995  15.731  66.082  1.00  0.00    -0.232 NA 
HETATM    6  H   UNL     1     -11.587  16.185  65.385  1.00  0.00     0.000 HD 
HETATM    7 CL   UNL     1     -12.208  13.913  63.906  1.00  0.00    -0.451 Cl 
HETATM    8  C   UNL     1      -9.954  16.437  66.678  1.00  0.00    -0.272 A  
HETATM    9  C   UNL     1      -9.510  17.634  66.097  1.00  0.00    -0.178 A  
HETATM   10  C   UNL     1      -8.513  18.425  66.699  1.00  0.00    -0.269 A  
HETATM   11 CL   UNL     1      -8.030  19.846  65.843  1.00  0.00    -0.340 Cl 
HETATM   12  C   UNL     1      -7.968  18.032  67.921  1.00  0.00    -0.241 A  
HETATM   13  O   UNL     1     -10.290  14.976  70.087  1.00  0.00    -0.159 OA 
HETATM   14  C   UNL     1      -8.431  16.869  68.541  1.00  0.00    -0.258 A  
HETATM   15  C   UNL     1      -9.415  16.100  67.916  1.00  0.00    -0.214 A  
HETATM   16  O   UNL     1      -9.030  13.594  68.392  1.00  0.00    -0.187 OA 
HETATM   17  S   UNL     1      -9.972  14.646  68.714  1.00  0.00    -0.227 S  
ENDROOT
BRANCH  12  18
HETATM   18  S   UNL     1      -6.723  18.970  68.747  1.00  0.00    -0.298 S  
HETATM   19  O   UNL     1      -5.629  19.212  67.842  1.00  0.00    -0.188 OA 
HETATM   20  H1  UNL     1      -5.449  18.467  70.413  1.00  0.00     0.000 HD 
HETATM   21  H2  UNL     1      -6.478  16.973  70.135  1.00  0.00     0.000 HD 
HETATM   22  O   UNL     1      -7.358  20.043  69.478  1.00  0.00    -0.186 OA 
HETATM   23  N   UNL     1      -6.169  17.925  69.936  1.00  0.00    -0.170 N  
ENDBRANCH  12  18
TORSDOF 1
ENDMDL
MODEL       33
REMARK 921   NORMALIZED FREE ENERGY PREDICTED BY IDOCK:   -4.81 KCAL/MOL
REMARK 922        TOTAL FREE ENERGY PREDICTED BY IDOCK:   -5.27 KCAL/MOL
REMARK 923 INTER-LIGAND FREE ENERGY PREDICTED BY IDOCK:   -5.57 KCAL/MOL
REMARK 924 INTRA-LIGAND FREE ENERGY PREDICTED BY IDOCK:    0.30 KCAL/MOL
REMARK 927      BINDING AFFINITY PREDICTED BY RF-SCORE:    0.00 PKD
ROOT
HETATM    1  C   UNL     1      -8.920  14.624  65.688  1.00  0.00     0.765 C  
HETATM    2  N   UNL     1      -9.553  13.917  66.824  1.00  0.00    -0.273 N  
HETATM    3  C   UNL     1     -10.120  12.590  66.519  1.00  0.00    -0.238 C  
HETATM    4  C   UNL     1      -9.163  11.715  65.672  1.00  0.00    -0.138 C  
HETATM    5  N   UNL     1     -10.362  11.899  67.789  1.00  0.00    -0.195 NA 
HETATM    6  H   UNL     1      -9.947  10.983  67.961  1.00  0.00     0.000 HD 
HETATM    7 CL   UNL     1      -9.887  10.113  65.320  1.00  0.00    -0.367 Cl 
HETATM    8  C   UNL     1     -11.160  12.496  68.760  1.00  0.00    -0.270 A  
HETATM    9  C   UNL     1     -11.663  11.718  69.814  1.00  0.00    -0.408 A  
HETATM   10  C   UNL     1     -12.412  12.285  70.863  1.00  0.00    -0.276 A  
HETATM   11 CL   UNL     1     -13.010  11.196  72.064  1.00  0.00    -0.499 Cl 
HETATM   12  C   UNL     1     -12.639  13.661  70.879  1.00  0.00    -0.346 A  
HETATM   13  O   UNL     1     -10.032  16.001  68.205  1.00  0.00    -0.216 OA 
HETATM   14  C   UNL     1     -12.106  14.461  69.865  1.00  0.00    -0.398 A  
HETATM   15  C   UNL     1     -11.374  13.868  68.834  1.00  0.00    -0.282 A  
HETATM   16  O   UNL     1     -11.782  15.119  66.615  1.00  0.00    -0.215 OA 
HETATM   17  S   UNL     1     -10.721  14.895  67.576  1.00  0.00    -0.283 S  
ENDROOT
BRANCH  12  18
HETATM   18  S   UNL     1     -13.557  14.453  72.160  1.00  0.00    -0.484 S  
HETATM   19  O   UNL     1     -14.076  15.706  71.671  1.00  0.00    -0.466 OA 
HETATM   20  H1  UNL     1     -12.925  15.265  74.055  1.00  0.00     0.000 HD 
HETATM   21  H2  UNL     1     -11.394  14.611  73.284  1.00  0.00     0.000 HD 
HETATM   22  O   UNL     1     -14.410  13.473  72.794  1.00  0.00    -0.640 OA 
HETATM   23  N   UNL     1     -12.394  14.807  73.315  1.00  0.00    -0.341 N  
ENDBRANCH  12  18
TORSDOF 1
ENDMDL
MODEL       34
REMARK 921   NORMALIZED FREE ENERGY PREDICTED BY IDOCK:   -4.81 KCAL/MOL
REMARK 922        TOTAL FREE ENERGY PREDICTED BY IDOCK:   -5.27 KCAL/MOL
REMARK 923 INTER-LIGAND FREE ENERGY PREDICTED BY IDOCK:   -5.26 KCAL/MOL
REMARK 924 INTRA-LIGAND FREE ENERGY PREDICTED BY IDOCK:   -0.01 KCAL/MOL
REMARK 927      BINDING AFFINITY PREDICTED BY RF-SCORE:    0.00 PKD
ROOT
HETATM    1  C   UNL     1      -9.720  14.560  66.089  1.00  0.00    -0.316 C  
HETATM    2  N   UNL     1      -9.841  13.105  66.331  1.00  0.00    -0.274 N  
HETATM    3  C   UNL     1     -10.976  12.436  65.666  1.00  0.00    -0.286 C  
HETATM    4  C   UNL     1     -11.127  12.854  64.183  1.00  0.00    -0.399 C  
HETATM    5  N   UNL     1     -10.736  10.990  65.707  1.00  0.00    -0.194 NA 
HETATM    6  H   UNL     1     -10.728  10.448  64.843  1.00  0.00     0.000 HD 
HETATM    7 CL   UNL     1     -12.517  12.024  63.412  1.00  0.00    -0.688 Cl 
HETATM    8  C   UNL     1     -10.518  10.360  66.929  1.00  0.00    -0.240 A  
HETATM    9  C   UNL     1     -10.622   8.963  67.013  1.00  0.00    -0.279 A  
HETATM   10  C   UNL     1     -10.339   8.268  68.204  1.00  0.00    -0.202 A  
HETATM   11 CL   UNL     1     -10.560   6.555  68.173  1.00  0.00    -0.265 Cl 
HETATM   12  C   UNL     1      -9.914   8.977  69.328  1.00  0.00    -0.188 A  
HETATM   13  O   UNL     1      -8.542  13.085  68.519  1.00  0.00    -0.144 OA 
HETATM   14  C   UNL     1      -9.757  10.363  69.252  1.00  0.00    -0.231 A  
HETATM   15  C   UNL     1     -10.054  11.025  68.059  1.00  0.00    -0.179 A  
HETATM   16  O   UNL     1     -11.051  13.352  68.551  1.00  0.00    -0.246 OA 
HETATM   17  S   UNL     1      -9.850  12.762  67.995  1.00  0.00    -0.230 S  
ENDROOT
BRANCH  12  18
HETATM   18  S   UNL     1      -9.529   8.183  70.856  1.00  0.00    -0.166 S  
HETATM   19  O   UNL     1      -8.672   7.053  70.604  1.00  0.00    -0.146 OA 
HETATM   20  H1  UNL     1     -10.787   7.127  72.253  1.00  0.00     0.000 HD 
HETATM   21  H2  UNL     1     -11.916   7.664  70.910  1.00  0.00     0.000 HD 
HETATM   22  O   UNL     1      -9.188   9.194  71.832  1.00  0.00    -0.354 OA 
HETATM   23  N   UNL     1     -11.009   7.586  71.371  1.00  0.00    -0.230 N  
ENDBRANCH  12  18
TORSDOF 1
ENDMDL
MODEL       35
REMARK 921   NORMALIZED FREE ENERGY PREDICTED BY IDOCK:   -4.79 KCAL/MOL
REMARK 922        TOTAL FREE ENERGY PREDICTED BY IDOCK:   -5.25 KCAL/MOL
REMARK 923 INTER-LIGAND FREE ENERGY PREDICTED BY IDOCK:   -5.29 KCAL/MOL
REMARK 924 INTRA-LIGAND FREE ENERGY PREDICTED BY IDOCK:    0.04 KCAL/MOL
REMARK 927      BINDING AFFINITY PREDICTED BY RF-SCORE:    0.00 PKD
ROOT
HETATM    1  C   UNL     1      -9.876   7.358  72.497  1.00  0.00    -0.169 C  
HETATM    2  N   UNL     1     -10.399   8.497  71.711  1.00  0.00    -0.256 N  
HETATM    3  C   UNL     1     -11.753   8.323  71.152  1.00  0.00    -0.280 C  
HETATM    4  C   UNL     1     -12.752   7.741  72.182  1.00  0.00    -0.191 C  
HETATM    5  N   UNL     1     -12.245   9.640  70.737  1.00  0.00    -0.421 NA 
HETATM    6  H   UNL     1     -13.128   9.995  71.103  1.00  0.00     0.000 HD 
HETATM    7 CL   UNL     1     -14.383   7.540  71.465  1.00  0.00    -0.592 Cl 
HETATM    8  C   UNL     1     -11.503  10.404  69.841  1.00  0.00    -0.297 A  
HETATM    9  C   UNL     1     -12.110  11.490  69.192  1.00  0.00    -0.329 A  
HETATM   10  C   UNL     1     -11.387  12.341  68.334  1.00  0.00    -0.292 A  
HETATM   11 CL   UNL     1     -12.279  13.604  67.565  1.00  0.00    -0.335 Cl 
HETATM   12  C   UNL     1     -10.022  12.125  68.144  1.00  0.00    -0.201 A  
HETATM   13  O   UNL     1      -8.129   9.485  71.121  1.00  0.00    -0.308 OA 
HETATM   14  C   UNL     1      -9.387  11.080  68.819  1.00  0.00    -0.185 A  
HETATM   15  C   UNL     1     -10.133  10.247  69.656  1.00  0.00    -0.224 A  
HETATM   16  O   UNL     1      -9.225   7.835  69.558  1.00  0.00    -0.150 OA 
HETATM   17  S   UNL     1      -9.311   8.945  70.486  1.00  0.00    -0.221 S  
ENDROOT
BRANCH  12  18
HETATM   18  S   UNL     1      -9.041  13.150  67.096  1.00  0.00    -0.236 S  
HETATM   19  O   UNL     1      -7.679  12.678  67.106  1.00  0.00    -0.158 OA 
HETATM   20  H1  UNL     1      -8.496  15.230  67.263  1.00  0.00     0.000 HD 
HETATM   21  H2  UNL     1      -9.533  14.890  68.739  1.00  0.00     0.000 HD 
HETATM   22  O   UNL     1      -9.758  13.374  65.861  1.00  0.00    -0.262 OA 
HETATM   23  N   UNL     1      -9.064  14.637  67.869  1.00  0.00    -0.184 N  
ENDBRANCH  12  18
TORSDOF 1
ENDMDL
MODEL       36
REMARK 921   NORMALIZED FREE ENERGY PREDICTED BY IDOCK:   -4.77 KCAL/MOL
REMARK 922        TOTAL FREE ENERGY PREDICTED BY IDOCK:   -5.23 KCAL/MOL
REMARK 923 INTER-LIGAND FREE ENERGY PREDICTED BY IDOCK:   -5.13 KCAL/MOL
REMARK 924 INTRA-LIGAND FREE ENERGY PREDICTED BY IDOCK:   -0.10 KCAL/MOL
REMARK 927      BINDING AFFINITY PREDICTED BY RF-SCORE:    0.00 PKD
ROOT
HETATM    1  C   UNL     1     -10.870  12.474  66.120  1.00  0.00    -0.272 C  
HETATM    2  N   UNL     1     -11.039  11.711  67.376  1.00  0.00    -0.263 N  
HETATM    3  C   UNL     1     -10.944  12.496  68.622  1.00  0.00    -0.255 C  
HETATM    4  C   UNL     1     -11.755  13.814  68.558  1.00  0.00    -0.356 C  
HETATM    5  N   UNL     1     -11.487  11.682  69.713  1.00  0.00    -0.416 NA 
HETATM    6  H   UNL     1     -12.248  12.041  70.290  1.00  0.00     0.000 HD 
HETATM    7 CL   UNL     1     -11.611  14.741  70.086  1.00  0.00    -0.318 Cl 
HETATM    8  C   UNL     1     -10.963  10.417  69.959  1.00  0.00    -0.308 A  
HETATM    9  C   UNL     1     -11.236   9.782  71.180  1.00  0.00    -0.444 A  
HETATM   10  C   UNL     1     -10.793   8.473  71.452  1.00  0.00    -0.260 A  
HETATM   11 CL   UNL     1     -11.160   7.840  73.017  1.00  0.00    -0.463 Cl 
HETATM   12  C   UNL     1     -10.090   7.769  70.474  1.00  0.00    -0.192 A  
HETATM   13  O   UNL     1     -10.381   9.450  66.411  1.00  0.00    -0.242 OA 
HETATM   14  C   UNL     1      -9.850   8.364  69.233  1.00  0.00    -0.186 A  
HETATM   15  C   UNL     1     -10.293   9.667  68.997  1.00  0.00    -0.205 A  
HETATM   16  O   UNL     1      -8.627  10.918  67.476  1.00  0.00    -0.126 OA 
HETATM   17  S   UNL     1      -9.975  10.387  67.435  1.00  0.00    -0.196 S  
ENDROOT
BRANCH  12  18
HETATM   18  S   UNL     1      -9.510   6.123  70.728  1.00  0.00    -0.169 S  
HETATM   19  O   UNL     1      -8.269   6.162  71.460  1.00  0.00    -0.116 OA 
HETATM   20  H1  UNL     1      -8.825   4.635  69.325  1.00  0.00     0.000 HD 
HETATM   21  H2  UNL     1      -9.262   6.092  68.297  1.00  0.00     0.000 HD 
HETATM   22  O   UNL     1     -10.619   5.299  71.154  1.00  0.00    -0.228 OA 
HETATM   23  N   UNL     1      -9.161   5.587  69.178  1.00  0.00    -0.114 N  
ENDBRANCH  12  18
TORSDOF 1
ENDMDL
MODEL       37
REMARK 921   NORMALIZED FREE ENERGY PREDICTED BY IDOCK:   -4.77 KCAL/MOL
REMARK 922        TOTAL FREE ENERGY PREDICTED BY IDOCK:   -5.23 KCAL/MOL
REMARK 923 INTER-LIGAND FREE ENERGY PREDICTED BY IDOCK:   -5.18 KCAL/MOL
REMARK 924 INTRA-LIGAND FREE ENERGY PREDICTED BY IDOCK:   -0.05 KCAL/MOL
REMARK 927      BINDING AFFINITY PREDICTED BY RF-SCORE:    0.00 PKD
ROOT
HETATM    1  C   UNL     1     -11.198  12.307  68.623  1.00  0.00    -0.259 C  
HETATM    2  N   UNL     1     -10.369  13.338  67.960  1.00  0.00    -0.235 N  
HETATM    3  C   UNL     1      -8.911  13.124  68.018  1.00  0.00    -0.191 C  
HETATM    4  C   UNL     1      -8.510  11.666  67.684  1.00  0.00    -0.142 C  
HETATM    5  N   UNL     1      -8.285  14.005  67.028  1.00  0.00    -0.375 NA 
HETATM    6  H   UNL     1      -7.677  13.615  66.307  1.00  0.00     0.000 HD 
HETATM    7 CL   UNL     1      -6.732  11.445  67.768  1.00  0.00    -0.067 Cl 
HETATM    8  C   UNL     1      -8.522  15.375  67.073  1.00  0.00    -0.231 A  
HETATM    9  C   UNL     1      -7.683  16.245  66.359  1.00  0.00    -0.193 A  
HETATM   10  C   UNL     1      -7.921  17.632  66.310  1.00  0.00    -0.257 A  
HETATM   11 CL   UNL     1      -6.775  18.584  65.436  1.00  0.00    -0.275 Cl 
HETATM   12  C   UNL     1      -9.038  18.160  66.959  1.00  0.00    -0.263 A  
HETATM   13  O   UNL     1     -12.100  15.200  68.087  1.00  0.00    -0.205 OA 
HETATM   14  C   UNL     1      -9.913  17.306  67.634  1.00  0.00    -0.297 A  
HETATM   15  C   UNL     1      -9.645  15.936  67.673  1.00  0.00    -0.221 A  
HETATM   16  O   UNL     1     -10.396  14.941  69.930  1.00  0.00    -0.154 OA 
HETATM   17  S   UNL     1     -10.757  14.891  68.528  1.00  0.00    -0.254 S  
ENDROOT
BRANCH  12  18
HETATM   18  S   UNL     1      -9.415  19.883  66.938  1.00  0.00    -0.415 S  
HETATM   19  O   UNL     1      -8.235  20.635  67.283  1.00  0.00    -0.336 OA 
HETATM   20  H1  UNL     1     -10.727  21.056  68.184  1.00  0.00     0.000 HD 
HETATM   21  H2  UNL     1     -10.871  19.342  68.825  1.00  0.00     0.000 HD 
HETATM   22  O   UNL     1     -10.183  20.176  65.748  1.00  0.00    -0.448 OA 
HETATM   23  N   UNL     1     -10.509  20.060  68.196  1.00  0.00    -0.360 N  
ENDBRANCH  12  18
TORSDOF 1
ENDMDL
MODEL       38
REMARK 921   NORMALIZED FREE ENERGY PREDICTED BY IDOCK:   -4.76 KCAL/MOL
REMARK 922        TOTAL FREE ENERGY PREDICTED BY IDOCK:   -5.22 KCAL/MOL
REMARK 923 INTER-LIGAND FREE ENERGY PREDICTED BY IDOCK:   -5.21 KCAL/MOL
REMARK 924 INTRA-LIGAND FREE ENERGY PREDICTED BY IDOCK:   -0.01 KCAL/MOL
REMARK 927      BINDING AFFINITY PREDICTED BY RF-SCORE:    0.00 PKD
ROOT
HETATM    1  C   UNL     1     -10.510   6.575  71.388  1.00  0.00    -0.213 C  
HETATM    2  N   UNL     1     -10.496   7.233  70.063  1.00  0.00    -0.218 N  
HETATM    3  C   UNL     1      -9.313   6.962  69.224  1.00  0.00    -0.144 C  
HETATM    4  C   UNL     1      -8.932   5.461  69.199  1.00  0.00    -0.104 C  
HETATM    5  N   UNL     1      -9.626   7.373  67.852  1.00  0.00    -0.139 NA 
HETATM    6  H   UNL     1      -9.538   6.706  67.085  1.00  0.00     0.000 HD 
HETATM    7 CL   UNL     1      -7.489   5.173  68.174  1.00  0.00    -0.075 Cl 
HETATM    8  C   UNL     1     -10.046   8.675  67.599  1.00  0.00    -0.213 A  
HETATM    9  C   UNL     1     -10.024   9.165  66.284  1.00  0.00    -0.352 A  
HETATM   10  C   UNL     1     -10.506  10.447  65.961  1.00  0.00    -0.140 A  
HETATM   11 CL   UNL     1     -10.367  10.934  64.310  1.00  0.00    -0.428 Cl 
HETATM   12  C   UNL     1     -11.052  11.248  66.965  1.00  0.00    -0.293 A  
HETATM   13  O   UNL     1     -12.093   9.117  70.678  1.00  0.00    -0.206 OA 
HETATM   14  C   UNL     1     -11.129  10.762  68.272  1.00  0.00    -0.327 A  
HETATM   15  C   UNL     1     -10.633   9.489  68.563  1.00  0.00    -0.212 A  
HETATM   16  O   UNL     1      -9.604   9.448  70.927  1.00  0.00    -0.267 OA 
HETATM   17  S   UNL     1     -10.740   8.907  70.210  1.00  0.00    -0.226 S  
ENDROOT
BRANCH  12  18
HETATM   18  S   UNL     1     -11.688  12.862  66.644  1.00  0.00    -0.397 S  
HETATM   19  O   UNL     1     -12.637  12.795  65.562  1.00  0.00    -0.611 OA 
HETATM   20  H1  UNL     1     -10.718  14.640  65.902  1.00  0.00     0.000 HD 
HETATM   21  H2  UNL     1      -9.396  13.369  65.965  1.00  0.00     0.000 HD 
HETATM   22  O   UNL     1     -12.015  13.492  67.904  1.00  0.00    -0.357 OA 
HETATM   23  N   UNL     1     -10.350  13.707  66.088  1.00  0.00    -0.290 N  
ENDBRANCH  12  18
TORSDOF 1
ENDMDL
MODEL       39
REMARK 921   NORMALIZED FREE ENERGY PREDICTED BY IDOCK:   -4.73 KCAL/MOL
REMARK 922        TOTAL FREE ENERGY PREDICTED BY IDOCK:   -5.19 KCAL/MOL
REMARK 923 INTER-LIGAND FREE ENERGY PREDICTED BY IDOCK:   -5.24 KCAL/MOL
REMARK 924 INTRA-LIGAND FREE ENERGY PREDICTED BY IDOCK:    0.04 KCAL/MOL
REMARK 927      BINDING AFFINITY PREDICTED BY RF-SCORE:    0.00 PKD
ROOT
HETATM    1  C   UNL     1     -11.351  11.378  66.974  1.00  0.00    -0.236 C  
HETATM    2  N   UNL     1     -10.438  12.534  66.834  1.00  0.00    -0.228 N  
HETATM    3  C   UNL     1      -9.061  12.327  67.322  1.00  0.00    -0.184 C  
HETATM    4  C   UNL     1      -8.462  10.976  66.859  1.00  0.00    -0.139 C  
HETATM    5  N   UNL     1      -8.223  13.403  66.784  1.00  0.00    -0.406 NA 
HETATM    6  H   UNL     1      -7.389  13.179  66.240  1.00  0.00     0.000 HD 
HETATM    7 CL   UNL     1      -6.792  10.760  67.476  1.00  0.00    -0.077 Cl 
HETATM    8  C   UNL     1      -8.569  14.731  67.016  1.00  0.00    -0.234 A  
HETATM    9  C   UNL     1      -7.617  15.739  66.801  1.00  0.00    -0.177 A  
HETATM   10  C   UNL     1      -7.935  17.103  66.948  1.00  0.00    -0.217 A  
HETATM   11 CL   UNL     1      -6.649  18.229  66.701  1.00  0.00    -0.212 Cl 
HETATM   12  C   UNL     1      -9.238  17.472  67.286  1.00  0.00    -0.240 A  
HETATM   13  O   UNL     1     -12.259  14.310  66.749  1.00  0.00    -0.441 OA 
HETATM   14  C   UNL     1     -10.212  16.487  67.457  1.00  0.00    -0.283 A  
HETATM   15  C   UNL     1      -9.864  15.142  67.313  1.00  0.00    -0.228 A  
HETATM   16  O   UNL     1     -11.215  13.687  68.960  1.00  0.00    -0.253 OA 
HETATM   17  S   UNL     1     -11.106  13.929  67.536  1.00  0.00    -0.295 S  
ENDROOT
BRANCH  12  18
HETATM   18  S   UNL     1      -9.722  19.157  67.480  1.00  0.00    -0.329 S  
HETATM   19  O   UNL     1     -11.154  19.228  67.630  1.00  0.00    -0.377 OA 
HETATM   20  H1  UNL     1      -9.618  20.822  66.112  1.00  0.00     0.000 HD 
HETATM   21  H2  UNL     1      -8.922  19.400  65.184  1.00  0.00     0.000 HD 
HETATM   22  O   UNL     1      -8.827  19.793  68.419  1.00  0.00    -0.323 OA 
HETATM   23  N   UNL     1      -9.337  19.848  66.001  1.00  0.00    -0.359 N  
ENDBRANCH  12  18
TORSDOF 1
ENDMDL
MODEL       40
REMARK 921   NORMALIZED FREE ENERGY PREDICTED BY IDOCK:   -4.62 KCAL/MOL
REMARK 922        TOTAL FREE ENERGY PREDICTED BY IDOCK:   -5.07 KCAL/MOL
REMARK 923 INTER-LIGAND FREE ENERGY PREDICTED BY IDOCK:   -4.89 KCAL/MOL
REMARK 924 INTRA-LIGAND FREE ENERGY PREDICTED BY IDOCK:   -0.18 KCAL/MOL
REMARK 927      BINDING AFFINITY PREDICTED BY RF-SCORE:    0.00 PKD
ROOT
HETATM    1  C   UNL     1      -6.954   7.982  67.734  1.00  0.00    -0.078 C  
HETATM    2  N   UNL     1      -7.967   8.717  66.945  1.00  0.00    -0.095 N  
HETATM    3  C   UNL     1      -7.949   8.472  65.490  1.00  0.00    -0.110 C  
HETATM    4  C   UNL     1      -7.831   6.968  65.141  1.00  0.00    -0.124 C  
HETATM    5  N   UNL     1      -9.209   8.970  64.932  1.00  0.00    -0.443 NA 
HETATM    6  H   UNL     1      -9.810   8.349  64.390  1.00  0.00     0.000 HD 
HETATM    7 CL   UNL     1      -7.809   6.712  63.367  1.00  0.00    -0.116 Cl 
HETATM    8  C   UNL     1      -9.584  10.294  65.142  1.00  0.00    -0.277 A  
HETATM    9  C   UNL     1     -10.594  10.860  64.349  1.00  0.00    -0.343 A  
HETATM   10  C   UNL     1     -11.063  12.169  64.569  1.00  0.00    -0.325 A  
HETATM   11 CL   UNL     1     -12.273  12.750  63.481  1.00  0.00    -0.604 Cl 
HETATM   12  C   UNL     1     -10.537  12.920  65.620  1.00  0.00    -0.277 A  
HETATM   13  O   UNL     1      -8.314  10.593  68.629  1.00  0.00    -0.121 OA 
HETATM   14  C   UNL     1      -9.566  12.359  66.452  1.00  0.00    -0.249 A  
HETATM   15  C   UNL     1      -9.114  11.061  66.204  1.00  0.00    -0.192 A  
HETATM   16  O   UNL     1      -6.610  10.858  66.787  1.00  0.00    -0.097 OA 
HETATM   17  S   UNL     1      -7.894  10.385  67.261  1.00  0.00    -0.107 S  
ENDROOT
BRANCH  12  18
HETATM   18  S   UNL     1     -11.077  14.563  65.970  1.00  0.00    -0.334 S  
HETATM   19  O   UNL     1     -10.758  15.418  64.855  1.00  0.00    -0.420 OA 
HETATM   20  H1  UNL     1     -10.415  15.979  67.456  1.00  0.00     0.000 HD 
HETATM   21  H2  UNL     1      -9.375  14.491  67.722  1.00  0.00     0.000 HD 
HETATM   22  O   UNL     1     -12.409  14.506  66.528  1.00  0.00    -0.346 OA 
HETATM   23  N   UNL     1     -10.104  15.029  67.254  1.00  0.00    -0.235 N  
ENDBRANCH  12  18
TORSDOF 1
ENDMDL
MODEL       41
REMARK 921   NORMALIZED FREE ENERGY PREDICTED BY IDOCK:   -4.52 KCAL/MOL
REMARK 922        TOTAL FREE ENERGY PREDICTED BY IDOCK:   -4.97 KCAL/MOL
REMARK 923 INTER-LIGAND FREE ENERGY PREDICTED BY IDOCK:   -4.78 KCAL/MOL
REMARK 924 INTRA-LIGAND FREE ENERGY PREDICTED BY IDOCK:   -0.19 KCAL/MOL
REMARK 927      BINDING AFFINITY PREDICTED BY RF-SCORE:    0.00 PKD
ROOT
HETATM    1  C   UNL     1     -12.154  14.381  68.096  1.00  0.00    -0.223 C  
HETATM    2  N   UNL     1     -10.971  13.540  67.809  1.00  0.00    -0.261 N  
HETATM    3  C   UNL     1      -9.990  14.111  66.867  1.00  0.00    -0.261 C  
HETATM    4  C   UNL     1      -9.664  15.594  67.173  1.00  0.00    -0.223 C  
HETATM    5  N   UNL     1      -8.749  13.340  66.983  1.00  0.00    -0.299 NA 
HETATM    6  H   UNL     1      -7.871  13.813  67.198  1.00  0.00     0.000 HD 
HETATM    7 CL   UNL     1      -8.473  16.252  66.006  1.00  0.00    -0.310 Cl 
HETATM    8  C   UNL     1      -8.771  11.961  66.800  1.00  0.00    -0.193 A  
HETATM    9  C   UNL     1      -7.568  11.274  66.579  1.00  0.00    -0.111 A  
HETATM   10  C   UNL     1      -7.524   9.872  66.462  1.00  0.00    -0.100 A  
HETATM   11 CL   UNL     1      -5.979   9.169  66.140  1.00  0.00    -0.057 Cl 
HETATM   12  C   UNL     1      -8.701   9.134  66.599  1.00  0.00    -0.127 A  
HETATM   13  O   UNL     1     -12.059  11.324  68.428  1.00  0.00    -0.598 OA 
HETATM   14  C   UNL     1      -9.902   9.794  66.867  1.00  0.00    -0.256 A  
HETATM   15  C   UNL     1      -9.915  11.187  66.969  1.00  0.00    -0.192 A  
HETATM   16  O   UNL     1     -12.127  12.132  66.039  1.00  0.00    -0.612 OA 
HETATM   17  S   UNL     1     -11.435  11.986  67.303  1.00  0.00    -0.321 S  
ENDROOT
BRANCH  12  18
HETATM   18  S   UNL     1      -8.733   7.375  66.476  1.00  0.00    -0.146 S  
HETATM   19  O   UNL     1      -8.405   6.984  65.128  1.00  0.00    -0.134 OA 
HETATM   20  H1  UNL     1     -10.364   5.977  66.660  1.00  0.00     0.000 HD 
HETATM   21  H2  UNL     1     -11.123   7.628  66.914  1.00  0.00     0.000 HD 
HETATM   22  O   UNL     1      -8.045   6.817  67.618  1.00  0.00    -0.114 OA 
HETATM   23  N   UNL     1     -10.346   6.994  66.731  1.00  0.00    -0.242 N  
ENDBRANCH  12  18
TORSDOF 1
ENDMDL
MODEL       42
REMARK 921   NORMALIZED FREE ENERGY PREDICTED BY IDOCK:   -4.49 KCAL/MOL
REMARK 922        TOTAL FREE ENERGY PREDICTED BY IDOCK:   -4.94 KCAL/MOL
REMARK 923 INTER-LIGAND FREE ENERGY PREDICTED BY IDOCK:   -4.75 KCAL/MOL
REMARK 924 INTRA-LIGAND FREE ENERGY PREDICTED BY IDOCK:   -0.18 KCAL/MOL
REMARK 927      BINDING AFFINITY PREDICTED BY RF-SCORE:    0.00 PKD
ROOT
HETATM    1  C   UNL     1     -11.767  14.123  67.558  1.00  0.00    -0.386 C  
HETATM    2  N   UNL     1     -11.043  12.962  66.996  1.00  0.00    -0.266 N  
HETATM    3  C   UNL     1     -11.503  12.496  65.674  1.00  0.00    -0.359 C  
HETATM    4  C   UNL     1     -11.721  13.660  64.676  1.00  0.00    -0.388 C  
HETATM    5  N   UNL     1     -10.473  11.612  65.121  1.00  0.00    -0.268 NA 
HETATM    6  H   UNL     1     -10.065  11.809  64.207  1.00  0.00     0.000 HD 
HETATM    7 CL   UNL     1     -12.284  13.055  63.084  1.00  0.00    -0.503 Cl 
HETATM    8  C   UNL     1     -10.052  10.502  65.847  1.00  0.00    -0.260 A  
HETATM    9  C   UNL     1      -9.331   9.486  65.200  1.00  0.00    -0.316 A  
HETATM   10  C   UNL     1      -8.817   8.379  65.901  1.00  0.00    -0.175 A  
HETATM   11 CL   UNL     1      -7.996   7.182  64.963  1.00  0.00    -0.125 Cl 
HETATM   12  C   UNL     1      -8.998   8.296  67.282  1.00  0.00    -0.137 A  
HETATM   13  O   UNL     1     -10.199  12.064  69.223  1.00  0.00     0.058 OA 
HETATM   14  C   UNL     1      -9.670   9.320  67.953  1.00  0.00    -0.180 A  
HETATM   15  C   UNL     1     -10.176  10.402  67.229  1.00  0.00    -0.211 A  
HETATM   16  O   UNL     1     -12.383  11.226  68.278  1.00  0.00    -0.542 OA 
HETATM   17  S   UNL     1     -11.015  11.668  68.097  1.00  0.00    -0.246 S  
ENDROOT
BRANCH  12  18
HETATM   18  S   UNL     1      -8.378   6.949  68.237  1.00  0.00    -0.122 S  
HETATM   19  O   UNL     1      -9.051   5.736  67.845  1.00  0.00    -0.112 OA 
HETATM   20  H1  UNL     1      -8.512   6.536  70.349  1.00  0.00     0.000 HD 
HETATM   21  H2  UNL     1      -9.401   8.125  70.118  1.00  0.00     0.000 HD 
HETATM   22  O   UNL     1      -6.936   7.037  68.283  1.00  0.00    -0.074 OA 
HETATM   23  N   UNL     1      -8.870   7.315  69.797  1.00  0.00    -0.142 N  
ENDBRANCH  12  18
TORSDOF 1
ENDMDL
MODEL       43
REMARK 921   NORMALIZED FREE ENERGY PREDICTED BY IDOCK:   -4.49 KCAL/MOL
REMARK 922        TOTAL FREE ENERGY PREDICTED BY IDOCK:   -4.94 KCAL/MOL
REMARK 923 INTER-LIGAND FREE ENERGY PREDICTED BY IDOCK:   -5.10 KCAL/MOL
REMARK 924 INTRA-LIGAND FREE ENERGY PREDICTED BY IDOCK:    0.16 KCAL/MOL
REMARK 927      BINDING AFFINITY PREDICTED BY RF-SCORE:    0.00 PKD
ROOT
HETATM    1  C   UNL     1     -11.731  12.645  67.275  1.00  0.00    -0.370 C  
HETATM    2  N   UNL     1     -11.022  13.858  67.740  1.00  0.00    -0.252 N  
HETATM    3  C   UNL     1     -11.777  14.732  68.658  1.00  0.00    -0.325 C  
HETATM    4  C   UNL     1     -12.493  13.938  69.779  1.00  0.00    -0.188 C  
HETATM    5  N   UNL     1     -10.828  15.652  69.290  1.00  0.00    -0.232 NA 
HETATM    6  H   UNL     1     -10.763  15.703  70.307  1.00  0.00     0.000 HD 
HETATM    7 CL   UNL     1     -13.402  15.033  70.871  1.00  0.00    -0.442 Cl 
HETATM    8  C   UNL     1     -10.014  16.458  68.499  1.00  0.00    -0.239 A  
HETATM    9  C   UNL     1      -9.361  17.558  69.076  1.00  0.00    -0.089 A  
HETATM   10  C   UNL     1      -8.469  18.361  68.340  1.00  0.00    -0.326 A  
HETATM   11 CL   UNL     1      -7.778  19.710  69.169  1.00  0.00    -0.322 Cl 
HETATM   12  C   UNL     1      -8.198  18.044  67.009  1.00  0.00    -0.227 A  
HETATM   13  O   UNL     1      -9.389  13.980  65.791  1.00  0.00    -0.081 OA 
HETATM   14  C   UNL     1      -8.800  16.925  66.429  1.00  0.00    -0.322 A  
HETATM   15  C   UNL     1      -9.687  16.153  67.182  1.00  0.00    -0.233 A  
HETATM   16  O   UNL     1     -11.574  15.238  65.680  1.00  0.00    -0.205 OA 
HETATM   17  S   UNL     1     -10.429  14.759  66.427  1.00  0.00    -0.303 S  
ENDROOT
BRANCH  12  18
HETATM   18  S   UNL     1      -7.086  18.991  66.020  1.00  0.00    -0.265 S  
HETATM   19  O   UNL     1      -6.659  18.201  64.892  1.00  0.00    -0.240 OA 
HETATM   20  H1  UNL     1      -5.113  19.750  66.446  1.00  0.00     0.000 HD 
HETATM   21  H2  UNL     1      -5.621  18.864  67.971  1.00  0.00     0.000 HD 
HETATM   22  O   UNL     1      -7.629  20.321  65.854  1.00  0.00    -0.266 OA 
HETATM   23  N   UNL     1      -5.756  19.202  67.018  1.00  0.00    -0.167 N  
ENDBRANCH  12  18
TORSDOF 1
ENDMDL
MODEL       44
REMARK 921   NORMALIZED FREE ENERGY PREDICTED BY IDOCK:   -4.43 KCAL/MOL
REMARK 922        TOTAL FREE ENERGY PREDICTED BY IDOCK:   -4.87 KCAL/MOL
REMARK 923 INTER-LIGAND FREE ENERGY PREDICTED BY IDOCK:   -4.72 KCAL/MOL
REMARK 924 INTRA-LIGAND FREE ENERGY PREDICTED BY IDOCK:   -0.15 KCAL/MOL
REMARK 927      BINDING AFFINITY PREDICTED BY RF-SCORE:    0.00 PKD
ROOT
HETATM    1  C   UNL     1      -9.907   4.663  70.149  1.00  0.00    -0.236 C  
HETATM    2  N   UNL     1     -10.009   6.006  69.536  1.00  0.00    -0.169 N  
HETATM    3  C   UNL     1     -11.299   6.698  69.717  1.00  0.00    -0.354 C  
HETATM    4  C   UNL     1     -11.819   6.616  71.173  1.00  0.00    -0.360 C  
HETATM    5  N   UNL     1     -11.105   8.112  69.384  1.00  0.00    -0.438 NA 
HETATM    6  H   UNL     1     -11.342   8.835  70.063  1.00  0.00     0.000 HD 
HETATM    7 CL   UNL     1     -13.389   7.464  71.352  1.00  0.00    -0.420 Cl 
HETATM    8  C   UNL     1     -10.597   8.466  68.138  1.00  0.00    -0.118 A  
HETATM    9  C   UNL     1     -10.721   9.790  67.692  1.00  0.00    -0.334 A  
HETATM   10  C   UNL     1     -10.160  10.219  66.474  1.00  0.00    -0.231 A  
HETATM   11 CL   UNL     1     -10.438  11.865  66.030  1.00  0.00    -0.272 Cl 
HETATM   12  C   UNL     1      -9.432   9.317  65.698  1.00  0.00    -0.256 A  
HETATM   13  O   UNL     1      -8.184   5.650  67.798  1.00  0.00    -0.101 OA 
HETATM   14  C   UNL     1      -9.254   8.006  66.146  1.00  0.00    -0.219 A  
HETATM   15  C   UNL     1      -9.831   7.608  67.354  1.00  0.00    -0.173 A  
HETATM   16  O   UNL     1     -10.587   5.146  67.217  1.00  0.00    -0.178 OA 
HETATM   17  S   UNL     1      -9.594   5.959  67.889  1.00  0.00    -0.119 S  
ENDROOT
BRANCH  12  18
HETATM   18  S   UNL     1      -8.688   9.774  64.165  1.00  0.00    -0.229 S  
HETATM   19  O   UNL     1      -9.707  10.244  63.261  1.00  0.00    -0.301 OA 
HETATM   20  H1  UNL     1      -7.682   8.585  62.674  1.00  0.00     0.000 HD 
HETATM   21  H2  UNL     1      -8.175   7.392  63.979  1.00  0.00     0.000 HD 
HETATM   22  O   UNL     1      -7.498  10.549  64.439  1.00  0.00    -0.057 OA 
HETATM   23  N   UNL     1      -8.111   8.321  63.560  1.00  0.00    -0.154 N  
ENDBRANCH  12  18
TORSDOF 1
ENDMDL
MODEL       45
REMARK 921   NORMALIZED FREE ENERGY PREDICTED BY IDOCK:   -4.41 KCAL/MOL
REMARK 922        TOTAL FREE ENERGY PREDICTED BY IDOCK:   -4.85 KCAL/MOL
REMARK 923 INTER-LIGAND FREE ENERGY PREDICTED BY IDOCK:   -4.74 KCAL/MOL
REMARK 924 INTRA-LIGAND FREE ENERGY PREDICTED BY IDOCK:   -0.11 KCAL/MOL
REMARK 927      BINDING AFFINITY PREDICTED BY RF-SCORE:    0.00 PKD
ROOT
HETATM    1  C   UNL     1     -11.935  13.596  68.688  1.00  0.00    -0.360 C  
HETATM    2  N   UNL     1     -11.497  12.270  68.199  1.00  0.00    -0.293 N  
HETATM    3  C   UNL     1     -11.269  11.246  69.236  1.00  0.00    -0.272 C  
HETATM    4  C   UNL     1     -12.406  11.199  70.286  1.00  0.00    -0.315 C  
HETATM    5  N   UNL     1     -11.207   9.939  68.576  1.00  0.00    -0.491 NA 
HETATM    6  H   UNL     1     -11.832   9.188  68.867  1.00  0.00     0.000 HD 
HETATM    7 CL   UNL     1     -12.091   9.947  71.530  1.00  0.00    -0.483 Cl 
HETATM    8  C   UNL     1     -10.291   9.725  67.550  1.00  0.00    -0.237 A  
HETATM    9  C   UNL     1      -9.996   8.413  67.150  1.00  0.00    -0.304 A  
HETATM   10  C   UNL     1      -9.135   8.142  66.069  1.00  0.00    -0.167 A  
HETATM   11 CL   UNL     1      -8.825   6.478  65.725  1.00  0.00    -0.135 Cl 
HETATM   12  C   UNL     1      -8.581   9.202  65.350  1.00  0.00    -0.169 A  
HETATM   13  O   UNL     1     -10.532  13.100  65.995  1.00  0.00    -0.274 OA 
HETATM   14  C   UNL     1      -8.901  10.516  65.700  1.00  0.00    -0.197 A  
HETATM   15  C   UNL     1      -9.750  10.753  66.783  1.00  0.00    -0.187 A  
HETATM   16  O   UNL     1      -9.043  12.901  68.022  1.00  0.00    -0.197 OA 
HETATM   17  S   UNL     1     -10.129  12.409  67.200  1.00  0.00    -0.214 S  
ENDROOT
BRANCH  12  18
HETATM   18  S   UNL     1      -7.503   8.951  63.977  1.00  0.00    -0.117 S  
HETATM   19  O   UNL     1      -6.171   8.682  64.459  1.00  0.00    -0.065 OA 
HETATM   20  H1  UNL     1      -6.848  10.303  62.430  1.00  0.00     0.000 HD 
HETATM   21  H2  UNL     1      -7.961  11.302  63.495  1.00  0.00     0.000 HD 
HETATM   22  O   UNL     1      -8.157   8.081  63.025  1.00  0.00    -0.156 OA 
HETATM   23  N   UNL     1      -7.472  10.449  63.224  1.00  0.00    -0.107 N  
ENDBRANCH  12  18
TORSDOF 1
ENDMDL
MODEL       46
REMARK 921   NORMALIZED FREE ENERGY PREDICTED BY IDOCK:   -4.38 KCAL/MOL
REMARK 922        TOTAL FREE ENERGY PREDICTED BY IDOCK:   -4.81 KCAL/MOL
REMARK 923 INTER-LIGAND FREE ENERGY PREDICTED BY IDOCK:   -4.64 KCAL/MOL
REMARK 924 INTRA-LIGAND FREE ENERGY PREDICTED BY IDOCK:   -0.17 KCAL/MOL
REMARK 927      BINDING AFFINITY PREDICTED BY RF-SCORE:    0.00 PKD
ROOT
HETATM    1  C   UNL     1     -13.175   8.697  72.200  1.00  0.00    -0.383 C  
HETATM    2  N   UNL     1     -12.112   9.081  71.246  1.00  0.00    -0.304 N  
HETATM    3  C   UNL     1     -10.740   9.108  71.788  1.00  0.00    -0.335 C  
HETATM    4  C   UNL     1     -10.414   7.858  72.643  1.00  0.00    -0.320 C  
HETATM    5  N   UNL     1      -9.807   9.141  70.658  1.00  0.00    -0.228 NA 
HETATM    6  H   UNL     1      -9.082   8.429  70.572  1.00  0.00     0.000 HD 
HETATM    7 CL   UNL     1      -8.742   7.929  73.287  1.00  0.00    -0.264 Cl 
HETATM    8  C   UNL     1      -9.913  10.147  69.703  1.00  0.00    -0.232 A  
HETATM    9  C   UNL     1      -8.844  10.381  68.825  1.00  0.00    -0.157 A  
HETATM   10  C   UNL     1      -8.926  11.335  67.792  1.00  0.00    -0.141 A  
HETATM   11 CL   UNL     1      -7.513  11.550  66.823  1.00  0.00    -0.140 Cl 
HETATM   12  C   UNL     1     -10.110  12.049  67.611  1.00  0.00    -0.197 A  
HETATM   13  O   UNL     1     -13.630  10.353  69.647  1.00  0.00     0.483 OA 
HETATM   14  C   UNL     1     -11.204  11.797  68.442  1.00  0.00    -0.307 A  
HETATM   15  C   UNL     1     -11.089  10.852  69.464  1.00  0.00    -0.268 A  
HETATM   16  O   UNL     1     -12.465  11.582  71.519  1.00  0.00    -0.270 OA 
HETATM   17  S   UNL     1     -12.474  10.560  70.492  1.00  0.00    -0.336 S  
ENDROOT
BRANCH  12  18
HETATM   18  S   UNL     1     -10.301  13.254  66.336  1.00  0.00    -0.291 S  
HETATM   19  O   UNL     1      -9.350  14.317  66.538  1.00  0.00    -0.276 OA 
HETATM   20  H1  UNL     1     -11.938  14.582  65.882  1.00  0.00     0.000 HD 
HETATM   21  H2  UNL     1     -12.490  13.633  67.353  1.00  0.00     0.000 HD 
HETATM   22  O   UNL     1     -10.422  12.572  65.067  1.00  0.00    -0.283 OA 
HETATM   23  N   UNL     1     -11.828  13.886  66.619  1.00  0.00    -0.396 N  
ENDBRANCH  12  18
TORSDOF 1
ENDMDL
MODEL       47
REMARK 921   NORMALIZED FREE ENERGY PREDICTED BY IDOCK:   -4.35 KCAL/MOL
REMARK 922        TOTAL FREE ENERGY PREDICTED BY IDOCK:   -4.78 KCAL/MOL
REMARK 923 INTER-LIGAND FREE ENERGY PREDICTED BY IDOCK:   -4.90 KCAL/MOL
REMARK 924 INTRA-LIGAND FREE ENERGY PREDICTED BY IDOCK:    0.11 KCAL/MOL
REMARK 927      BINDING AFFINITY PREDICTED BY RF-SCORE:    0.00 PKD
ROOT
HETATM    1  C   UNL     1     -10.119  18.796  68.586  1.00  0.00    -0.380 C  
HETATM    2  N   UNL     1      -9.541  17.437  68.671  1.00  0.00    -0.289 N  
HETATM    3  C   UNL     1      -8.198  17.272  68.082  1.00  0.00    -0.231 C  
HETATM    4  C   UNL     1      -7.227  18.408  68.488  1.00  0.00    -0.284 C  
HETATM    5  N   UNL     1      -7.643  16.005  68.569  1.00  0.00    -0.148 NA 
HETATM    6  H   UNL     1      -6.743  15.991  69.048  1.00  0.00     0.000 HD 
HETATM    7 CL   UNL     1      -5.609  18.174  67.751  1.00  0.00    -0.150 Cl 
HETATM    8  C   UNL     1      -8.348  14.821  68.375  1.00  0.00    -0.154 A  
HETATM    9  C   UNL     1      -7.689  13.592  68.530  1.00  0.00    -0.129 A  
HETATM   10  C   UNL     1      -8.371  12.365  68.419  1.00  0.00    -0.137 A  
HETATM   11 CL   UNL     1      -7.419  10.933  68.583  1.00  0.00    -0.098 Cl 
HETATM   12  C   UNL     1      -9.746  12.363  68.179  1.00  0.00    -0.214 A  
HETATM   13  O   UNL     1     -11.761  16.213  68.904  1.00  0.00    -0.357 OA 
HETATM   14  C   UNL     1     -10.430  13.575  68.071  1.00  0.00    -0.245 A  
HETATM   15  C   UNL     1      -9.725  14.776  68.176  1.00  0.00    -0.217 A  
HETATM   16  O   UNL     1     -10.750  16.557  66.618  1.00  0.00    -0.265 OA 
HETATM   17  S   UNL     1     -10.608  16.279  68.032  1.00  0.00    -0.318 S  
ENDROOT
BRANCH  12  18
HETATM   18  S   UNL     1     -10.677  10.872  68.037  1.00  0.00    -0.241 S  
HETATM   19  O   UNL     1     -10.126   9.878  68.923  1.00  0.00    -0.169 OA 
HETATM   20  H1  UNL     1     -10.911   9.506  66.385  1.00  0.00     0.000 HD 
HETATM   21  H2  UNL     1      -9.789  10.817  65.761  1.00  0.00     0.000 HD 
HETATM   22  O   UNL     1     -12.085  11.200  68.045  1.00  0.00    -0.635 OA 
HETATM   23  N   UNL     1     -10.373  10.368  66.467  1.00  0.00    -0.237 N  
ENDBRANCH  12  18
TORSDOF 1
ENDMDL
MODEL       48
REMARK 921   NORMALIZED FREE ENERGY PREDICTED BY IDOCK:   -4.34 KCAL/MOL
REMARK 922        TOTAL FREE ENERGY PREDICTED BY IDOCK:   -4.77 KCAL/MOL
REMARK 923 INTER-LIGAND FREE ENERGY PREDICTED BY IDOCK:   -4.69 KCAL/MOL
REMARK 924 INTRA-LIGAND FREE ENERGY PREDICTED BY IDOCK:   -0.09 KCAL/MOL
REMARK 927      BINDING AFFINITY PREDICTED BY RF-SCORE:    0.00 PKD
ROOT
HETATM    1  C   UNL     1     -10.630  16.831  68.602  1.00  0.00    -0.353 C  
HETATM    2  N   UNL     1     -10.813  15.371  68.448  1.00  0.00    -0.258 N  
HETATM    3  C   UNL     1     -11.289  14.653  69.645  1.00  0.00    -0.280 C  
HETATM    4  C   UNL     1     -12.467  15.378  70.344  1.00  0.00    -0.404 C  
HETATM    5  N   UNL     1     -11.757  13.330  69.224  1.00  0.00    -0.308 NA 
HETATM    6  H   UNL     1     -12.707  13.029  69.441  1.00  0.00     0.000 HD 
HETATM    7 CL   UNL     1     -13.014  14.478  71.795  1.00  0.00    -0.392 Cl 
HETATM    8  C   UNL     1     -10.901  12.484  68.525  1.00  0.00    -0.243 A  
HETATM    9  C   UNL     1     -11.215  11.121  68.415  1.00  0.00    -0.325 A  
HETATM   10  C   UNL     1     -10.424  10.235  67.658  1.00  0.00    -0.239 A  
HETATM   11 CL   UNL     1     -10.905   8.576  67.657  1.00  0.00    -0.172 Cl 
HETATM   12  C   UNL     1      -9.314  10.724  66.970  1.00  0.00    -0.156 A  
HETATM   13  O   UNL     1      -9.209  15.103  66.490  1.00  0.00    -0.249 OA 
HETATM   14  C   UNL     1      -9.011  12.086  67.026  1.00  0.00    -0.198 A  
HETATM   15  C   UNL     1      -9.809  12.938  67.793  1.00  0.00    -0.221 A  
HETATM   16  O   UNL     1      -8.371  14.800  68.851  1.00  0.00    -0.162 OA 
HETATM   17  S   UNL     1      -9.403  14.639  67.847  1.00  0.00    -0.203 S  
ENDROOT
BRANCH  12  18
HETATM   18  S   UNL     1      -8.277   9.686  65.991  1.00  0.00    -0.121 S  
HETATM   19  O   UNL     1      -7.855   8.554  66.778  1.00  0.00    -0.090 OA 
HETATM   20  H1  UNL     1      -6.323  10.034  65.147  1.00  0.00     0.000 HD 
HETATM   21  H2  UNL     1      -6.742  11.587  66.032  1.00  0.00     0.000 HD 
HETATM   22  O   UNL     1      -8.879   9.524  64.687  1.00  0.00    -0.192 OA 
HETATM   23  N   UNL     1      -6.923  10.635  65.712  1.00  0.00    -0.122 N  
ENDBRANCH  12  18
TORSDOF 1
ENDMDL
MODEL       49
REMARK 921   NORMALIZED FREE ENERGY PREDICTED BY IDOCK:   -4.31 KCAL/MOL
REMARK 922        TOTAL FREE ENERGY PREDICTED BY IDOCK:   -4.75 KCAL/MOL
REMARK 923 INTER-LIGAND FREE ENERGY PREDICTED BY IDOCK:   -4.57 KCAL/MOL
REMARK 924 INTRA-LIGAND FREE ENERGY PREDICTED BY IDOCK:   -0.17 KCAL/MOL
REMARK 927      BINDING AFFINITY PREDICTED BY RF-SCORE:    0.00 PKD
ROOT
HETATM    1  C   UNL     1     -10.518   7.192  73.708  1.00  0.00    -0.329 C  
HETATM    2  N   UNL     1     -10.547   6.943  72.250  1.00  0.00    -0.212 N  
HETATM    3  C   UNL     1     -11.875   7.016  71.612  1.00  0.00    -0.313 C  
HETATM    4  C   UNL     1     -12.687   8.253  72.069  1.00  0.00    -0.342 C  
HETATM    5  N   UNL     1     -11.677   7.113  70.163  1.00  0.00    -0.540 NA 
HETATM    6  H   UNL     1     -12.084   7.890  69.642  1.00  0.00     0.000 HD 
HETATM    7 CL   UNL     1     -14.295   8.304  71.276  1.00  0.00    -0.397 Cl 
HETATM    8  C   UNL     1     -10.933   6.142  69.500  1.00  0.00    -0.393 A  
HETATM    9  C   UNL     1     -11.018   6.041  68.103  1.00  0.00    -0.340 A  
HETATM   10  C   UNL     1     -10.232   5.127  67.376  1.00  0.00    -0.172 A  
HETATM   11 CL   UNL     1     -10.482   5.079  65.667  1.00  0.00    -0.138 Cl 
HETATM   12  C   UNL     1      -9.317   4.318  68.051  1.00  0.00    -0.152 A  
HETATM   13  O   UNL     1      -8.382   5.609  72.159  1.00  0.00    -0.114 OA 
HETATM   14  C   UNL     1      -9.181   4.437  69.436  1.00  0.00    -0.200 A  
HETATM   15  C   UNL     1      -9.982   5.346  70.131  1.00  0.00    -0.232 A  
HETATM   16  O   UNL     1     -10.583   4.412  72.459  1.00  0.00    -0.186 OA 
HETATM   17  S   UNL     1      -9.791   5.471  71.866  1.00  0.00    -0.173 S  
ENDROOT
BRANCH  12  18
HETATM   18  S   UNL     1      -8.287   3.156  67.216  1.00  0.00    -0.089 S  
HETATM   19  O   UNL     1      -9.084   2.037  66.781  1.00  0.00    -0.124 OA 
HETATM   20  H1  UNL     1      -6.667   1.930  67.940  1.00  0.00     0.000 HD 
HETATM   21  H2  UNL     1      -7.239   2.874  69.406  1.00  0.00     0.000 HD 
HETATM   22  O   UNL     1      -7.421   3.872  66.307  1.00  0.00    -0.081 OA 
HETATM   23  N   UNL     1      -7.262   2.602  68.423  1.00  0.00    -0.048 N  
ENDBRANCH  12  18
TORSDOF 1
ENDMDL
MODEL       50
REMARK 921   NORMALIZED FREE ENERGY PREDICTED BY IDOCK:   -4.29 KCAL/MOL
REMARK 922        TOTAL FREE ENERGY PREDICTED BY IDOCK:   -4.72 KCAL/MOL
REMARK 923 INTER-LIGAND FREE ENERGY PREDICTED BY IDOCK:   -4.72 KCAL/MOL
REMARK 924 INTRA-LIGAND FREE ENERGY PREDICTED BY IDOCK:    0.00 KCAL/MOL
REMARK 927      BINDING AFFINITY PREDICTED BY RF-SCORE:    0.00 PKD
ROOT
HETATM    1  C   UNL     1     -10.983  14.706  66.362  1.00  0.00    -0.325 C  
HETATM    2  N   UNL     1     -10.550  13.562  67.194  1.00  0.00    -0.263 N  
HETATM    3  C   UNL     1      -9.160  13.614  67.684  1.00  0.00    -0.207 C  
HETATM    4  C   UNL     1      -8.782  15.003  68.256  1.00  0.00    -0.166 C  
HETATM    5  N   UNL     1      -9.021  12.628  68.759  1.00  0.00    -0.389 NA 
HETATM    6  H   UNL     1      -8.688  12.917  69.679  1.00  0.00     0.000 HD 
HETATM    7 CL   UNL     1      -7.086  15.028  68.837  1.00  0.00    -0.111 Cl 
HETATM    8  C   UNL     1      -9.345  11.295  68.522  1.00  0.00    -0.182 A  
HETATM    9  C   UNL     1      -8.907  10.308  69.418  1.00  0.00    -0.177 A  
HETATM   10  C   UNL     1      -9.269   8.956  69.267  1.00  0.00    -0.145 A  
HETATM   11 CL   UNL     1      -8.612   7.846  70.416  1.00  0.00    -0.131 Cl 
HETATM   12  C   UNL     1     -10.111   8.583  68.218  1.00  0.00    -0.192 A  
HETATM   13  O   UNL     1     -12.271  11.912  66.303  1.00  0.00    -0.471 OA 
HETATM   14  C   UNL     1     -10.598   9.557  67.344  1.00  0.00    -0.337 A  
HETATM   15  C   UNL     1     -10.214  10.889  67.514  1.00  0.00    -0.190 A  
HETATM   16  O   UNL     1      -9.994  12.056  65.225  1.00  0.00    -0.251 OA 
HETATM   17  S   UNL     1     -10.838  12.087  66.402  1.00  0.00    -0.291 S  
ENDROOT
BRANCH  12  18
HETATM   18  S   UNL     1     -10.621   6.914  67.964  1.00  0.00    -0.223 S  
HETATM   19  O   UNL     1     -11.227   6.410  69.171  1.00  0.00    -0.353 OA 
HETATM   20  H1  UNL     1      -9.470   5.126  67.601  1.00  0.00     0.000 HD 
HETATM   21  H2  UNL     1      -8.227   6.467  67.759  1.00  0.00     0.000 HD 
HETATM   22  O   UNL     1     -11.285   6.820  66.683  1.00  0.00    -0.205 OA 
HETATM   23  N   UNL     1      -9.175   6.091  67.747  1.00  0.00    -0.109 N  
ENDBRANCH  12  18
TORSDOF 1
ENDMDL
MODEL       51
REMARK 921   NORMALIZED FREE ENERGY PREDICTED BY IDOCK:   -4.28 KCAL/MOL
REMARK 922        TOTAL FREE ENERGY PREDICTED BY IDOCK:   -4.72 KCAL/MOL
REMARK 923 INTER-LIGAND FREE ENERGY PREDICTED BY IDOCK:   -4.76 KCAL/MOL
REMARK 924 INTRA-LIGAND FREE ENERGY PREDICTED BY IDOCK:    0.05 KCAL/MOL
REMARK 927      BINDING AFFINITY PREDICTED BY RF-SCORE:    0.00 PKD
ROOT
HETATM    1  C   UNL     1      -6.291  18.432  66.934  1.00  0.00    -0.174 C  
HETATM    2  N   UNL     1      -7.377  17.431  66.846  1.00  0.00    -0.185 N  
HETATM    3  C   UNL     1      -8.738  17.936  67.111  1.00  0.00    -0.243 C  
HETATM    4  C   UNL     1      -9.032  19.268  66.379  1.00  0.00    -0.352 C  
HETATM    5  N   UNL     1      -9.694  16.934  66.631  1.00  0.00    -0.258 NA 
HETATM    6  H   UNL     1     -10.412  17.194  65.955  1.00  0.00     0.000 HD 
HETATM    7 CL   UNL     1     -10.691  19.851  66.729  1.00  0.00    -0.547 Cl 
HETATM    8  C   UNL     1      -9.620  15.626  67.100  1.00  0.00    -0.218 A  
HETATM    9  C   UNL     1     -10.709  14.762  66.912  1.00  0.00    -0.308 A  
HETATM   10  C   UNL     1     -10.660  13.409  67.299  1.00  0.00    -0.255 A  
HETATM   11 CL   UNL     1     -12.094  12.479  67.052  1.00  0.00    -0.281 Cl 
HETATM   12  C   UNL     1      -9.488  12.898  67.858  1.00  0.00    -0.208 A  
HETATM   13  O   UNL     1      -5.907  15.397  67.266  1.00  0.00    -0.334 OA 
HETATM   14  C   UNL     1      -8.375  13.728  68.009  1.00  0.00    -0.171 A  
HETATM   15  C   UNL     1      -8.458  15.068  67.624  1.00  0.00    -0.160 A  
HETATM   16  O   UNL     1      -7.049  16.542  69.203  1.00  0.00    -0.208 OA 
HETATM   17  S   UNL     1      -7.049  16.085  67.828  1.00  0.00    -0.158 S  
ENDROOT
BRANCH  12  18
HETATM   18  S   UNL     1      -9.337  11.213  68.360  1.00  0.00    -0.190 S  
HETATM   19  O   UNL     1      -7.964  10.937  68.698  1.00  0.00    -0.123 OA 
HETATM   20  H1  UNL     1      -9.606   9.381  67.255  1.00  0.00     0.000 HD 
HETATM   21  H2  UNL     1      -9.940  10.720  66.044  1.00  0.00     0.000 HD 
HETATM   22  O   UNL     1     -10.421  10.899  69.264  1.00  0.00    -0.216 OA 
HETATM   23  N   UNL     1      -9.694  10.355  66.964  1.00  0.00    -0.173 N  
ENDBRANCH  12  18
TORSDOF 1
ENDMDL
MODEL       52
REMARK 921   NORMALIZED FREE ENERGY PREDICTED BY IDOCK:   -4.27 KCAL/MOL
REMARK 922        TOTAL FREE ENERGY PREDICTED BY IDOCK:   -4.70 KCAL/MOL
REMARK 923 INTER-LIGAND FREE ENERGY PREDICTED BY IDOCK:   -4.52 KCAL/MOL
REMARK 924 INTRA-LIGAND FREE ENERGY PREDICTED BY IDOCK:   -0.18 KCAL/MOL
REMARK 927      BINDING AFFINITY PREDICTED BY RF-SCORE:    0.00 PKD
ROOT
HETATM    1  C   UNL     1     -13.409  12.607  71.965  1.00  0.00    -0.454 C  
HETATM    2  N   UNL     1     -12.308  11.908  71.266  1.00  0.00    -0.200 N  
HETATM    3  C   UNL     1     -12.021  12.371  69.895  1.00  0.00    -0.299 C  
HETATM    4  C   UNL     1     -11.971  13.916  69.788  1.00  0.00    -0.338 C  
HETATM    5  N   UNL     1     -10.709  11.847  69.505  1.00  0.00    -0.439 NA 
HETATM    6  H   UNL     1      -9.974  12.484  69.197  1.00  0.00     0.000 HD 
HETATM    7 CL   UNL     1     -11.625  14.440  68.108  1.00  0.00    -0.339 Cl 
HETATM    8  C   UNL     1     -10.468  10.478  69.557  1.00  0.00    -0.235 A  
HETATM    9  C   UNL     1      -9.359   9.946  68.882  1.00  0.00    -0.170 A  
HETATM   10  C   UNL     1      -9.026   8.580  68.962  1.00  0.00    -0.146 A  
HETATM   11 CL   UNL     1      -7.664   8.059  68.036  1.00  0.00    -0.115 Cl 
HETATM   12  C   UNL     1      -9.797   7.731  69.756  1.00  0.00    -0.178 A  
HETATM   13  O   UNL     1     -12.423   9.772  72.646  1.00  0.00     0.033 OA 
HETATM   14  C   UNL     1     -10.877   8.249  70.475  1.00  0.00    -0.245 A  
HETATM   15  C   UNL     1     -11.188   9.606  70.369  1.00  0.00    -0.283 A  
HETATM   16  O   UNL     1     -13.740   9.953  70.502  1.00  0.00    -0.018 OA 
HETATM   17  S   UNL     1     -12.547  10.226  71.278  1.00  0.00    -0.456 S  
ENDROOT
BRANCH  12  18
HETATM   18  S   UNL     1      -9.444   6.010  69.920  1.00  0.00    -0.152 S  
HETATM   19  O   UNL     1      -9.745   5.341  68.680  1.00  0.00    -0.128 OA 
HETATM   20  H1  UNL     1     -10.355   4.493  71.151  1.00  0.00     0.000 HD 
HETATM   21  H2  UNL     1     -11.273   6.034  71.540  1.00  0.00     0.000 HD 
HETATM   22  O   UNL     1      -8.163   5.859  70.574  1.00  0.00    -0.114 OA 
HETATM   23  N   UNL     1     -10.559   5.487  71.057  1.00  0.00    -0.242 N  
ENDBRANCH  12  18
TORSDOF 1
ENDMDL
MODEL       53
REMARK 921   NORMALIZED FREE ENERGY PREDICTED BY IDOCK:   -4.27 KCAL/MOL
REMARK 922        TOTAL FREE ENERGY PREDICTED BY IDOCK:   -4.70 KCAL/MOL
REMARK 923 INTER-LIGAND FREE ENERGY PREDICTED BY IDOCK:   -4.52 KCAL/MOL
REMARK 924 INTRA-LIGAND FREE ENERGY PREDICTED BY IDOCK:   -0.18 KCAL/MOL
REMARK 927      BINDING AFFINITY PREDICTED BY RF-SCORE:    0.00 PKD
ROOT
HETATM    1  C   UNL     1     -10.527  18.056  66.844  1.00  0.00    -0.341 C  
HETATM    2  N   UNL     1      -9.711  16.870  67.184  1.00  0.00    -0.247 N  
HETATM    3  C   UNL     1      -8.418  16.756  66.482  1.00  0.00    -0.283 C  
HETATM    4  C   UNL     1      -7.633  18.091  66.463  1.00  0.00    -0.245 C  
HETATM    5  N   UNL     1      -7.606  15.761  67.188  1.00  0.00    -0.207 NA 
HETATM    6  H   UNL     1      -6.678  16.009  67.533  1.00  0.00     0.000 HD 
HETATM    7 CL   UNL     1      -6.071  17.914  65.599  1.00  0.00    -0.231 Cl 
HETATM    8  C   UNL     1      -8.103  14.477  67.387  1.00  0.00    -0.200 A  
HETATM    9  C   UNL     1      -7.224  13.445  67.752  1.00  0.00    -0.156 A  
HETATM   10  C   UNL     1      -7.684  12.145  68.037  1.00  0.00    -0.134 A  
HETATM   11 CL   UNL     1      -6.482  10.966  68.422  1.00  0.00    -0.057 Cl 
HETATM   12  C   UNL     1      -9.052  11.875  67.990  1.00  0.00    -0.189 A  
HETATM   13  O   UNL     1     -11.648  15.435  68.003  1.00  0.00    -0.344 OA 
HETATM   14  C   UNL     1      -9.948  12.899  67.677  1.00  0.00    -0.218 A  
HETATM   15  C   UNL     1      -9.461  14.176  67.389  1.00  0.00    -0.220 A  
HETATM   16  O   UNL     1     -10.922  15.307  65.589  1.00  0.00    -0.334 OA 
HETATM   17  S   UNL     1     -10.608  15.439  66.997  1.00  0.00    -0.312 S  
ENDROOT
BRANCH  12  18
HETATM   18  S   UNL     1      -9.712  10.278  68.344  1.00  0.00    -0.161 S  
HETATM   19  O   UNL     1      -9.235   9.336  67.363  1.00  0.00    -0.126 OA 
HETATM   20  H1  UNL     1     -11.741   9.547  68.299  1.00  0.00     0.000 HD 
HETATM   21  H2  UNL     1     -11.860  11.311  67.807  1.00  0.00     0.000 HD 
HETATM   22  O   UNL     1      -9.588  10.028  69.762  1.00  0.00    -0.222 OA 
HETATM   23  N   UNL     1     -11.359  10.471  68.095  1.00  0.00    -0.293 N  
ENDBRANCH  12  18
TORSDOF 1
ENDMDL
MODEL       54
REMARK 921   NORMALIZED FREE ENERGY PREDICTED BY IDOCK:   -4.25 KCAL/MOL
REMARK 922        TOTAL FREE ENERGY PREDICTED BY IDOCK:   -4.68 KCAL/MOL
REMARK 923 INTER-LIGAND FREE ENERGY PREDICTED BY IDOCK:   -5.06 KCAL/MOL
REMARK 924 INTRA-LIGAND FREE ENERGY PREDICTED BY IDOCK:    0.38 KCAL/MOL
REMARK 927      BINDING AFFINITY PREDICTED BY RF-SCORE:    0.00 PKD
ROOT
HETATM    1  C   UNL     1      -9.705  12.979  66.037  1.00  0.00    -0.216 C  
HETATM    2  N   UNL     1      -9.645  11.518  66.263  1.00  0.00    -0.211 N  
HETATM    3  C   UNL     1      -9.983  10.674  65.102  1.00  0.00    -0.303 C  
HETATM    4  C   UNL     1      -9.294  11.150  63.799  1.00  0.00    -0.188 C  
HETATM    5  N   UNL     1      -9.525   9.310  65.384  1.00  0.00    -0.397 NA 
HETATM    6  H   UNL     1      -8.888   8.840  64.741  1.00  0.00     0.000 HD 
HETATM    7 CL   UNL     1      -9.732  10.103  62.411  1.00  0.00    -0.153 Cl 
HETATM    8  C   UNL     1      -9.962   8.658  66.534  1.00  0.00    -0.282 A  
HETATM    9  C   UNL     1      -9.805   7.268  66.641  1.00  0.00    -0.257 A  
HETATM   10  C   UNL     1     -10.161   6.569  67.810  1.00  0.00    -0.148 A  
HETATM   11 CL   UNL     1      -9.960   4.854  67.778  1.00  0.00    -0.200 Cl 
HETATM   12  C   UNL     1     -10.654   7.274  68.909  1.00  0.00    -0.191 A  
HETATM   13  O   UNL     1      -9.954  11.622  68.788  1.00  0.00    -0.200 OA 
HETATM   14  C   UNL     1     -10.772   8.664  68.841  1.00  0.00    -0.109 A  
HETATM   15  C   UNL     1     -10.420   9.328  67.664  1.00  0.00    -0.264 A  
HETATM   16  O   UNL     1     -11.965  11.359  67.286  1.00  0.00    -0.580 OA 
HETATM   17  S   UNL     1     -10.582  11.070  67.607  1.00  0.00    -0.234 S  
ENDROOT
BRANCH  12  18
HETATM   18  S   UNL     1     -11.113   6.477  70.414  1.00  0.00    -0.361 S  
HETATM   19  O   UNL     1     -12.507   6.725  70.680  1.00  0.00    -0.320 OA 
HETATM   20  H1  UNL     1     -10.492   6.837  72.448  1.00  0.00     0.000 HD 
HETATM   21  H2  UNL     1      -9.576   8.073  71.446  1.00  0.00     0.000 HD 
HETATM   22  O   UNL     1     -10.564   5.140  70.418  1.00  0.00    -0.249 OA 
HETATM   23  N   UNL     1     -10.226   7.298  71.577  1.00  0.00    -0.194 N  
ENDBRANCH  12  18
TORSDOF 1
ENDMDL
MODEL       55
REMARK 921   NORMALIZED FREE ENERGY PREDICTED BY IDOCK:   -4.22 KCAL/MOL
REMARK 922        TOTAL FREE ENERGY PREDICTED BY IDOCK:   -4.65 KCAL/MOL
REMARK 923 INTER-LIGAND FREE ENERGY PREDICTED BY IDOCK:   -4.69 KCAL/MOL
REMARK 924 INTRA-LIGAND FREE ENERGY PREDICTED BY IDOCK:    0.04 KCAL/MOL
REMARK 927      BINDING AFFINITY PREDICTED BY RF-SCORE:    0.00 PKD
ROOT
HETATM    1  C   UNL     1     -10.230  19.890  67.649  1.00  0.00    -0.425 C  
HETATM    2  N   UNL     1      -9.405  18.666  67.750  1.00  0.00    -0.288 N  
HETATM    3  C   UNL     1      -8.034  18.770  67.214  1.00  0.00    -0.239 C  
HETATM    4  C   UNL     1      -7.317  20.067  67.664  1.00  0.00    -0.288 C  
HETATM    5  N   UNL     1      -7.264  17.629  67.716  1.00  0.00    -0.187 NA 
HETATM    6  H   UNL     1      -6.397  17.782  68.232  1.00  0.00     0.000 HD 
HETATM    7 CL   UNL     1      -5.657  20.159  66.991  1.00  0.00    -0.176 Cl 
HETATM    8  C   UNL     1      -7.719  16.333  67.489  1.00  0.00    -0.146 A  
HETATM    9  C   UNL     1      -6.841  15.252  67.664  1.00  0.00    -0.205 A  
HETATM   10  C   UNL     1      -7.268  13.919  67.519  1.00  0.00    -0.161 A  
HETATM   11 CL   UNL     1      -6.065  12.695  67.714  1.00  0.00    -0.111 Cl 
HETATM   12  C   UNL     1      -8.606  13.654  67.225  1.00  0.00    -0.214 A  
HETATM   13  O   UNL     1     -11.354  17.035  67.888  1.00  0.00    -0.117 OA 
HETATM   14  C   UNL     1      -9.507  14.713  67.095  1.00  0.00    -0.234 A  
HETATM   15  C   UNL     1      -9.052  16.026  67.235  1.00  0.00    -0.204 A  
HETATM   16  O   UNL     1     -10.342  17.595  65.645  1.00  0.00    -0.606 OA 
HETATM   17  S   UNL     1     -10.203  17.332  67.063  1.00  0.00    -0.319 S  
ENDROOT
BRANCH  12  18
HETATM   18  S   UNL     1      -9.226  12.013  67.038  1.00  0.00    -0.201 S  
HETATM   19  O   UNL     1     -10.638  12.066  66.752  1.00  0.00    -0.217 OA 
HETATM   20  H1  UNL     1      -9.407  10.402  68.460  1.00  0.00     0.000 HD 
HETATM   21  H2  UNL     1      -8.671  11.791  69.407  1.00  0.00     0.000 HD 
HETATM   22  O   UNL     1      -8.310  11.262  66.210  1.00  0.00    -0.170 OA 
HETATM   23  N   UNL     1      -9.048  11.351  68.568  1.00  0.00    -0.178 N  
ENDBRANCH  12  18
TORSDOF 1
ENDMDL
MODEL       56
REMARK 921   NORMALIZED FREE ENERGY PREDICTED BY IDOCK:   -4.21 KCAL/MOL
REMARK 922        TOTAL FREE ENERGY PREDICTED BY IDOCK:   -4.64 KCAL/MOL
REMARK 923 INTER-LIGAND FREE ENERGY PREDICTED BY IDOCK:   -4.46 KCAL/MOL
REMARK 924 INTRA-LIGAND FREE ENERGY PREDICTED BY IDOCK:   -0.18 KCAL/MOL
REMARK 927      BINDING AFFINITY PREDICTED BY RF-SCORE:    0.00 PKD
ROOT
HETATM    1  C   UNL     1     -13.097  11.138  71.952  1.00  0.00    -0.408 C  
HETATM    2  N   UNL     1     -12.051  10.327  71.291  1.00  0.00    -0.377 N  
HETATM    3  C   UNL     1     -11.887  10.549  69.841  1.00  0.00    -0.282 C  
HETATM    4  C   UNL     1     -11.867  12.052  69.468  1.00  0.00    -0.326 C  
HETATM    5  N   UNL     1     -10.607   9.963  69.435  1.00  0.00    -0.215 NA 
HETATM    6  H   UNL     1      -9.909  10.536  68.961  1.00  0.00     0.000 HD 
HETATM    7 CL   UNL     1     -11.671  12.280  67.700  1.00  0.00    -0.415 Cl 
HETATM    8  C   UNL     1     -10.345   8.622  69.699  1.00  0.00    -0.213 A  
HETATM    9  C   UNL     1      -9.290   7.980  69.033  1.00  0.00    -0.147 A  
HETATM   10  C   UNL     1      -8.934   6.648  69.316  1.00  0.00    -0.135 A  
HETATM   11 CL   UNL     1      -7.649   5.974  68.379  1.00  0.00    -0.090 Cl 
HETATM   12  C   UNL     1      -9.624   5.949  70.307  1.00  0.00    -0.163 A  
HETATM   13  O   UNL     1     -12.021   8.460  73.020  1.00  0.00    -0.236 OA 
HETATM   14  C   UNL     1     -10.646   6.584  71.017  1.00  0.00    -0.275 A  
HETATM   15  C   UNL     1     -10.982   7.904  70.707  1.00  0.00    -0.252 A  
HETATM   16  O   UNL     1     -13.517   8.274  70.997  1.00  0.00    -0.052 OA 
HETATM   17  S   UNL     1     -12.267   8.673  71.611  1.00  0.00    -0.354 S  
ENDROOT
BRANCH  12  18
HETATM   18  S   UNL     1      -9.236   4.281  70.731  1.00  0.00    -0.151 S  
HETATM   19  O   UNL     1      -9.676   3.405  69.674  1.00  0.00    -0.144 OA 
HETATM   20  H1  UNL     1      -9.980   3.017  72.312  1.00  0.00     0.000 HD 
HETATM   21  H2  UNL     1     -10.860   4.613  72.526  1.00  0.00     0.000 HD 
HETATM   22  O   UNL     1      -7.886   4.234  71.244  1.00  0.00    -0.069 OA 
HETATM   23  N   UNL     1     -10.204   3.981  72.067  1.00  0.00    -0.155 N  
ENDBRANCH  12  18
TORSDOF 1
ENDMDL
MODEL       57
REMARK 921   NORMALIZED FREE ENERGY PREDICTED BY IDOCK:   -4.20 KCAL/MOL
REMARK 922        TOTAL FREE ENERGY PREDICTED BY IDOCK:   -4.62 KCAL/MOL
REMARK 923 INTER-LIGAND FREE ENERGY PREDICTED BY IDOCK:   -4.84 KCAL/MOL
REMARK 924 INTRA-LIGAND FREE ENERGY PREDICTED BY IDOCK:    0.21 KCAL/MOL
REMARK 927      BINDING AFFINITY PREDICTED BY RF-SCORE:    0.00 PKD
ROOT
HETATM    1  C   UNL     1      -7.325   9.169  68.171  1.00  0.00    -0.079 C  
HETATM    2  N   UNL     1      -8.169  10.355  68.438  1.00  0.00    -0.110 N  
HETATM    3  C   UNL     1      -9.565  10.076  68.825  1.00  0.00    -0.168 C  
HETATM    4  C   UNL     1      -9.674   8.957  69.891  1.00  0.00    -0.177 C  
HETATM    5  N   UNL     1     -10.130  11.302  69.396  1.00  0.00    -0.434 NA 
HETATM    6  H   UNL     1     -10.534  11.292  70.332  1.00  0.00     0.000 HD 
HETATM    7 CL   UNL     1     -11.384   8.644  70.332  1.00  0.00    -0.240 Cl 
HETATM    8  C   UNL     1     -10.116  12.480  68.655  1.00  0.00    -0.130 A  
HETATM    9  C   UNL     1     -10.936  13.550  69.043  1.00  0.00    -0.264 A  
HETATM   10  C   UNL     1     -10.905  14.789  68.375  1.00  0.00    -0.245 A  
HETATM   11 CL   UNL     1     -12.008  15.997  68.932  1.00  0.00    -0.267 Cl 
HETATM   12  C   UNL     1     -10.015  14.977  67.317  1.00  0.00    -0.233 A  
HETATM   13  O   UNL     1      -6.791  11.986  67.053  1.00  0.00    -0.143 OA 
HETATM   14  C   UNL     1      -9.155  13.941  66.945  1.00  0.00    -0.257 A  
HETATM   15  C   UNL     1      -9.216  12.720  67.621  1.00  0.00    -0.192 A  
HETATM   16  O   UNL     1      -8.737  10.774  65.998  1.00  0.00    -0.170 OA 
HETATM   17  S   UNL     1      -8.128  11.440  67.132  1.00  0.00    -0.161 S  
ENDROOT
BRANCH  12  18
HETATM   18  S   UNL     1      -9.906  16.500  66.434  1.00  0.00    -0.311 S  
HETATM   19  O   UNL     1     -10.525  16.349  65.142  1.00  0.00    -0.622 OA 
HETATM   20  H1  UNL     1      -8.195  17.569  65.671  1.00  0.00     0.000 HD 
HETATM   21  H2  UNL     1      -7.500  16.070  66.471  1.00  0.00     0.000 HD 
HETATM   22  O   UNL     1     -10.261  17.581  67.326  1.00  0.00    -0.313 OA 
HETATM   23  N   UNL     1      -8.258  16.689  66.182  1.00  0.00    -0.317 N  
ENDBRANCH  12  18
TORSDOF 1
ENDMDL
MODEL       58
REMARK 921   NORMALIZED FREE ENERGY PREDICTED BY IDOCK:   -4.19 KCAL/MOL
REMARK 922        TOTAL FREE ENERGY PREDICTED BY IDOCK:   -4.62 KCAL/MOL
REMARK 923 INTER-LIGAND FREE ENERGY PREDICTED BY IDOCK:   -4.61 KCAL/MOL
REMARK 924 INTRA-LIGAND FREE ENERGY PREDICTED BY IDOCK:   -0.01 KCAL/MOL
REMARK 927      BINDING AFFINITY PREDICTED BY RF-SCORE:    0.00 PKD
ROOT
HETATM    1  C   UNL     1     -12.090  14.239  68.967  1.00  0.00    -0.285 C  
HETATM    2  N   UNL     1     -11.045  13.200  68.845  1.00  0.00    -0.264 N  
HETATM    3  C   UNL     1      -9.787  13.626  68.202  1.00  0.00    -0.236 C  
HETATM    4  C   UNL     1      -9.278  14.988  68.735  1.00  0.00    -0.200 C  
HETATM    5  N   UNL     1      -8.765  12.616  68.491  1.00  0.00    -0.354 NA 
HETATM    6  H   UNL     1      -7.890  12.886  68.939  1.00  0.00     0.000 HD 
HETATM    7 CL   UNL     1      -7.752  15.473  67.928  1.00  0.00    -0.131 Cl 
HETATM    8  C   UNL     1      -8.993  11.285  68.153  1.00  0.00    -0.166 A  
HETATM    9  C   UNL     1      -7.915  10.387  68.117  1.00  0.00    -0.110 A  
HETATM   10  C   UNL     1      -8.099   9.016  67.854  1.00  0.00    -0.106 A  
HETATM   11 CL   UNL     1      -6.675   8.042  67.790  1.00  0.00    -0.067 Cl 
HETATM   12  C   UNL     1      -9.389   8.523  67.655  1.00  0.00    -0.137 A  
HETATM   13  O   UNL     1     -12.626  11.209  68.966  1.00  0.00    -0.370 OA 
HETATM   14  C   UNL     1     -10.481   9.390  67.735  1.00  0.00    -0.310 A  
HETATM   15  C   UNL     1     -10.266  10.747  67.988  1.00  0.00    -0.178 A  
HETATM   16  O   UNL     1     -11.997  12.179  66.723  1.00  0.00    -0.606 OA 
HETATM   17  S   UNL     1     -11.652  11.809  68.080  1.00  0.00    -0.314 S  
ENDROOT
BRANCH  12  18
HETATM   18  S   UNL     1      -9.709   6.818  67.331  1.00  0.00    -0.141 S  
HETATM   19  O   UNL     1      -9.001   6.009  68.292  1.00  0.00    -0.115 OA 
HETATM   20  H1  UNL     1      -9.178   5.577  65.649  1.00  0.00     0.000 HD 
HETATM   21  H2  UNL     1      -8.494   7.233  65.252  1.00  0.00     0.000 HD 
HETATM   22  O   UNL     1     -11.124   6.648  67.089  1.00  0.00    -0.392 OA 
HETATM   23  N   UNL     1      -8.994   6.563  65.836  1.00  0.00    -0.127 N  
ENDBRANCH  12  18
TORSDOF 1
ENDMDL
MODEL       59
REMARK 921   NORMALIZED FREE ENERGY PREDICTED BY IDOCK:   -4.17 KCAL/MOL
REMARK 922        TOTAL FREE ENERGY PREDICTED BY IDOCK:   -4.59 KCAL/MOL
REMARK 923 INTER-LIGAND FREE ENERGY PREDICTED BY IDOCK:   -4.71 KCAL/MOL
REMARK 924 INTRA-LIGAND FREE ENERGY PREDICTED BY IDOCK:    0.12 KCAL/MOL
REMARK 927      BINDING AFFINITY PREDICTED BY RF-SCORE:    0.00 PKD
ROOT
HETATM    1  C   UNL     1      -9.010  16.286  66.892  1.00  0.00    -0.217 C  
HETATM    2  N   UNL     1      -9.268  14.832  66.795  1.00  0.00    -0.247 N  
HETATM    3  C   UNL     1     -10.543  14.447  66.160  1.00  0.00    -0.298 C  
HETATM    4  C   UNL     1     -10.820  15.236  64.856  1.00  0.00    -0.425 C  
HETATM    5  N   UNL     1     -10.467  13.023  65.820  1.00  0.00    -0.276 NA 
HETATM    6  H   UNL     1     -10.625  12.716  64.859  1.00  0.00     0.000 HD 
HETATM    7 CL   UNL     1     -12.378  14.744  64.117  1.00  0.00    -0.420 Cl 
HETATM    8  C   UNL     1     -10.180  12.089  66.811  1.00  0.00    -0.202 A  
HETATM    9  C   UNL     1     -10.432  10.730  66.573  1.00  0.00    -0.299 A  
HETATM   10  C   UNL     1     -10.091   9.736  67.511  1.00  0.00    -0.197 A  
HETATM   11 CL   UNL     1     -10.509   8.111  67.104  1.00  0.00    -0.392 Cl 
HETATM   12  C   UNL     1      -9.457  10.102  68.699  1.00  0.00    -0.164 A  
HETATM   13  O   UNL     1      -7.728  14.155  68.705  1.00  0.00    -0.131 OA 
HETATM   14  C   UNL     1      -9.152  11.445  68.934  1.00  0.00    -0.022 A  
HETATM   15  C   UNL     1      -9.511  12.408  67.989  1.00  0.00    -0.208 A  
HETATM   16  O   UNL     1     -10.168  14.610  69.160  1.00  0.00    -0.231 OA 
HETATM   17  S   UNL     1      -9.119  14.082  68.312  1.00  0.00    -0.189 S  
ENDROOT
BRANCH  12  18
HETATM   18  S   UNL     1      -8.987   8.921  69.921  1.00  0.00    -0.166 S  
HETATM   19  O   UNL     1      -8.596   7.693  69.274  1.00  0.00    -0.134 OA 
HETATM   20  H1  UNL     1     -10.144   7.937  71.452  1.00  0.00     0.000 HD 
HETATM   21  H2  UNL     1     -11.338   9.025  70.580  1.00  0.00     0.000 HD 
HETATM   22  O   UNL     1      -8.138   9.571  70.894  1.00  0.00    -0.297 OA 
HETATM   23  N   UNL     1     -10.416   8.620  70.746  1.00  0.00    -0.197 N  
ENDBRANCH  12  18
TORSDOF 1
ENDMDL
MODEL       60
REMARK 921   NORMALIZED FREE ENERGY PREDICTED BY IDOCK:   -4.12 KCAL/MOL
REMARK 922        TOTAL FREE ENERGY PREDICTED BY IDOCK:   -4.54 KCAL/MOL
REMARK 923 INTER-LIGAND FREE ENERGY PREDICTED BY IDOCK:   -4.61 KCAL/MOL
REMARK 924 INTRA-LIGAND FREE ENERGY PREDICTED BY IDOCK:    0.07 KCAL/MOL
REMARK 927      BINDING AFFINITY PREDICTED BY RF-SCORE:    0.00 PKD
ROOT
HETATM    1  C   UNL     1      -8.187   8.813  67.020  1.00  0.00    -0.103 C  
HETATM    2  N   UNL     1      -8.853  10.034  66.516  1.00  0.00    -0.138 N  
HETATM    3  C   UNL     1      -8.612  10.359  65.097  1.00  0.00    -0.180 C  
HETATM    4  C   UNL     1      -8.752   9.124  64.173  1.00  0.00    -0.141 C  
HETATM    5  N   UNL     1      -9.610  11.350  64.684  1.00  0.00    -0.313 NA 
HETATM    6  H   UNL     1     -10.215  11.164  63.884  1.00  0.00     0.000 HD 
HETATM    7 CL   UNL     1      -8.449   9.556  62.460  1.00  0.00    -0.171 Cl 
HETATM    8  C   UNL     1      -9.729  12.546  65.385  1.00  0.00    -0.086 A  
HETATM    9  C   UNL     1     -10.427  13.618  64.809  1.00  0.00    -0.436 A  
HETATM   10  C   UNL     1     -10.642  14.823  65.505  1.00  0.00    -0.359 A  
HETATM   11 CL   UNL     1     -11.473  16.073  64.650  1.00  0.00    -0.332 Cl 
HETATM   12  C   UNL     1     -10.177  14.953  66.814  1.00  0.00    -0.259 A  
HETATM   13  O   UNL     1      -9.107  11.160  68.785  1.00  0.00    -0.177 OA 
HETATM   14  C   UNL     1      -9.522  13.880  67.424  1.00  0.00    -0.226 A  
HETATM   15  C   UNL     1      -9.316  12.701  66.705  1.00  0.00    -0.232 A  
HETATM   16  O   UNL     1      -7.068  11.627  67.373  1.00  0.00    -0.105 OA 
HETATM   17  S   UNL     1      -8.490  11.376  67.494  1.00  0.00    -0.142 S  
ENDROOT
BRANCH  12  18
HETATM   18  S   UNL     1     -10.413  16.424  67.759  1.00  0.00    -0.306 S  
HETATM   19  O   UNL     1     -10.217  17.572  66.911  1.00  0.00    -0.309 OA 
HETATM   20  H1  UNL     1      -9.283  17.240  69.404  1.00  0.00     0.000 HD 
HETATM   21  H2  UNL     1      -8.415  15.686  68.957  1.00  0.00     0.000 HD 
HETATM   22  O   UNL     1     -11.599  16.270  68.569  1.00  0.00    -0.346 OA 
HETATM   23  N   UNL     1      -9.147  16.390  68.858  1.00  0.00    -0.249 N  
ENDBRANCH  12  18
TORSDOF 1
ENDMDL
MODEL       61
REMARK 921   NORMALIZED FREE ENERGY PREDICTED BY IDOCK:   -4.09 KCAL/MOL
REMARK 922        TOTAL FREE ENERGY PREDICTED BY IDOCK:   -4.51 KCAL/MOL
REMARK 923 INTER-LIGAND FREE ENERGY PREDICTED BY IDOCK:   -4.43 KCAL/MOL
REMARK 924 INTRA-LIGAND FREE ENERGY PREDICTED BY IDOCK:   -0.08 KCAL/MOL
REMARK 927      BINDING AFFINITY PREDICTED BY RF-SCORE:    0.00 PKD
ROOT
HETATM    1  C   UNL     1     -11.585  12.886  67.804  1.00  0.00    -0.343 C  
HETATM    2  N   UNL     1     -11.291  11.449  67.610  1.00  0.00    -0.288 N  
HETATM    3  C   UNL     1     -11.133  10.654  68.843  1.00  0.00    -0.261 C  
HETATM    4  C   UNL     1     -12.240  10.948  69.886  1.00  0.00    -0.336 C  
HETATM    5  N   UNL     1     -11.217   9.236  68.481  1.00  0.00    -0.450 NA 
HETATM    6  H   UNL     1     -11.903   8.632  68.932  1.00  0.00     0.000 HD 
HETATM    7 CL   UNL     1     -12.012   9.967  71.370  1.00  0.00    -0.468 Cl 
HETATM    8  C   UNL     1     -10.356   8.716  67.519  1.00  0.00    -0.269 A  
HETATM    9  C   UNL     1     -10.200   7.326  67.411  1.00  0.00    -0.304 A  
HETATM   10  C   UNL     1      -9.401   6.744  66.408  1.00  0.00    -0.136 A  
HETATM   11 CL   UNL     1      -9.262   5.023  66.430  1.00  0.00    -0.133 Cl 
HETATM   12  C   UNL     1      -8.767   7.564  65.474  1.00  0.00    -0.035 A  
HETATM   13  O   UNL     1     -10.313  11.685  65.272  1.00  0.00    -0.247 OA 
HETATM   14  C   UNL     1      -8.948   8.948  65.533  1.00  0.00    -0.246 A  
HETATM   15  C   UNL     1      -9.740   9.496  66.545  1.00  0.00    -0.222 A  
HETATM   16  O   UNL     1      -8.793  11.778  67.284  1.00  0.00    -0.157 OA 
HETATM   17  S   UNL     1      -9.946  11.232  66.596  1.00  0.00    -0.215 S  
ENDROOT
BRANCH  12  18
HETATM   18  S   UNL     1      -7.758   6.917  64.180  1.00  0.00    -0.112 S  
HETATM   19  O   UNL     1      -6.429   6.678  64.685  1.00  0.00    -0.040 OA 
HETATM   20  H1  UNL     1      -7.075   7.811  62.341  1.00  0.00     0.000 HD 
HETATM   21  H2  UNL     1      -8.082   9.111  63.155  1.00  0.00     0.000 HD 
HETATM   22  O   UNL     1      -8.500   5.894  63.479  1.00  0.00    -0.041 OA 
HETATM   23  N   UNL     1      -7.659   8.186  63.088  1.00  0.00    -0.121 N  
ENDBRANCH  12  18
TORSDOF 1
ENDMDL
MODEL       62
REMARK 921   NORMALIZED FREE ENERGY PREDICTED BY IDOCK:   -4.08 KCAL/MOL
REMARK 922        TOTAL FREE ENERGY PREDICTED BY IDOCK:   -4.50 KCAL/MOL
REMARK 923 INTER-LIGAND FREE ENERGY PREDICTED BY IDOCK:   -4.32 KCAL/MOL
REMARK 924 INTRA-LIGAND FREE ENERGY PREDICTED BY IDOCK:   -0.18 KCAL/MOL
REMARK 927      BINDING AFFINITY PREDICTED BY RF-SCORE:    0.00 PKD
ROOT
HETATM    1  C   UNL     1     -12.262  15.573  69.712  1.00  0.00    -0.302 C  
HETATM    2  N   UNL     1     -11.072  14.861  69.194  1.00  0.00    -0.256 N  
HETATM    3  C   UNL     1     -10.183  15.649  68.319  1.00  0.00    -0.223 C  
HETATM    4  C   UNL     1      -9.891  17.061  68.884  1.00  0.00    -0.272 C  
HETATM    5  N   UNL     1      -8.909  14.933  68.206  1.00  0.00    -0.166 NA 
HETATM    6  H   UNL     1      -8.036  15.400  68.452  1.00  0.00     0.000 HD 
HETATM    7 CL   UNL     1      -8.812  17.987  67.792  1.00  0.00    -0.252 Cl 
HETATM    8  C   UNL     1      -8.894  13.614  67.762  1.00  0.00    -0.190 A  
HETATM    9  C   UNL     1      -7.685  13.042  67.337  1.00  0.00    -0.159 A  
HETATM   10  C   UNL     1      -7.598  11.692  66.949  1.00  0.00    -0.138 A  
HETATM   11 CL   UNL     1      -6.056  11.141  66.401  1.00  0.00    -0.141 Cl 
HETATM   12  C   UNL     1      -8.734  10.884  67.016  1.00  0.00    -0.141 A  
HETATM   13  O   UNL     1     -12.030  12.516  69.442  1.00  0.00    -0.298 OA 
HETATM   14  C   UNL     1      -9.937  11.420  67.483  1.00  0.00    -0.201 A  
HETATM   15  C   UNL     1      -9.993  12.766  67.851  1.00  0.00    -0.229 A  
HETATM   16  O   UNL     1     -12.300  13.759  67.263  1.00  0.00    -0.337 OA 
HETATM   17  S   UNL     1     -11.514  13.410  68.429  1.00  0.00    -0.341 S  
ENDROOT
BRANCH  12  18
HETATM   18  S   UNL     1      -8.710   9.180  66.560  1.00  0.00    -0.132 S  
HETATM   19  O   UNL     1      -8.556   9.071  65.131  1.00  0.00    -0.160 OA 
HETATM   20  H1  UNL     1     -10.241   7.666  66.675  1.00  0.00     0.000 HD 
HETATM   21  H2  UNL     1     -11.026   9.187  67.340  1.00  0.00     0.000 HD 
HETATM   22  O   UNL     1      -7.848   8.466  67.474  1.00  0.00    -0.097 OA 
HETATM   23  N   UNL     1     -10.255   8.651  66.939  1.00  0.00    -0.283 N  
ENDBRANCH  12  18
TORSDOF 1
ENDMDL
MODEL       63
REMARK 921   NORMALIZED FREE ENERGY PREDICTED BY IDOCK:   -4.07 KCAL/MOL
REMARK 922        TOTAL FREE ENERGY PREDICTED BY IDOCK:   -4.49 KCAL/MOL
REMARK 923 INTER-LIGAND FREE ENERGY PREDICTED BY IDOCK:   -4.48 KCAL/MOL
REMARK 924 INTRA-LIGAND FREE ENERGY PREDICTED BY IDOCK:   -0.01 KCAL/MOL
REMARK 927      BINDING AFFINITY PREDICTED BY RF-SCORE:    0.00 PKD
ROOT
HETATM    1  C   UNL     1      -9.606   4.115  68.197  1.00  0.00    -0.134 C  
HETATM    2  N   UNL     1      -9.648   5.409  67.482  1.00  0.00    -0.121 N  
HETATM    3  C   UNL     1      -8.448   5.747  66.694  1.00  0.00    -0.113 C  
HETATM    4  C   UNL     1      -7.943   4.558  65.839  1.00  0.00    -0.099 C  
HETATM    5  N   UNL     1      -8.797   6.843  65.785  1.00  0.00    -0.309 NA 
HETATM    6  H   UNL     1      -8.653   6.740  64.780  1.00  0.00     0.000 HD 
HETATM    7 CL   UNL     1      -6.482   5.006  64.901  1.00  0.00    -0.035 Cl 
HETATM    8  C   UNL     1      -9.324   8.025  66.297  1.00  0.00    -0.184 A  
HETATM    9  C   UNL     1      -9.344   9.176  65.495  1.00  0.00    -0.287 A  
HETATM   10  C   UNL     1      -9.933  10.377  65.935  1.00  0.00    -0.255 A  
HETATM   11 CL   UNL     1      -9.837  11.726  64.861  1.00  0.00    -0.269 Cl 
HETATM   12  C   UNL     1     -10.542  10.424  67.190  1.00  0.00    -0.261 A  
HETATM   13  O   UNL     1     -11.396   6.491  68.983  1.00  0.00    -0.302 OA 
HETATM   14  C   UNL     1     -10.576   9.276  67.984  1.00  0.00    -0.262 A  
HETATM   15  C   UNL     1      -9.976   8.102  67.524  1.00  0.00    -0.192 A  
HETATM   16  O   UNL     1      -8.943   6.793  69.492  1.00  0.00    -0.139 OA 
HETATM   17  S   UNL     1     -10.031   6.680  68.542  1.00  0.00    -0.157 S  
ENDROOT
BRANCH  12  18
HETATM   18  S   UNL     1     -11.311  11.884  67.813  1.00  0.00    -0.308 S  
HETATM   19  O   UNL     1     -12.171  12.440  66.799  1.00  0.00    -0.551 OA 
HETATM   20  H1  UNL     1     -10.473  13.789  68.380  1.00  0.00     0.000 HD 
HETATM   21  H2  UNL     1      -9.039  12.783  67.831  1.00  0.00     0.000 HD 
HETATM   22  O   UNL     1     -11.785  11.624  69.153  1.00  0.00    -0.271 OA 
HETATM   23  N   UNL     1     -10.028  12.944  68.020  1.00  0.00    -0.230 N  
ENDBRANCH  12  18
TORSDOF 1
ENDMDL
MODEL       64
REMARK 921   NORMALIZED FREE ENERGY PREDICTED BY IDOCK:   -4.07 KCAL/MOL
REMARK 922        TOTAL FREE ENERGY PREDICTED BY IDOCK:   -4.49 KCAL/MOL
REMARK 923 INTER-LIGAND FREE ENERGY PREDICTED BY IDOCK:   -4.31 KCAL/MOL
REMARK 924 INTRA-LIGAND FREE ENERGY PREDICTED BY IDOCK:   -0.18 KCAL/MOL
REMARK 927      BINDING AFFINITY PREDICTED BY RF-SCORE:    0.00 PKD
ROOT
HETATM    1  C   UNL     1      -6.677   7.252  63.949  1.00  0.00    -0.048 C  
HETATM    2  N   UNL     1      -7.572   7.955  64.894  1.00  0.00    -0.097 N  
HETATM    3  C   UNL     1      -8.660   7.143  65.473  1.00  0.00    -0.080 C  
HETATM    4  C   UNL     1      -8.172   5.757  65.962  1.00  0.00    -0.114 C  
HETATM    5  N   UNL     1      -9.200   7.867  66.627  1.00  0.00    -0.167 NA 
HETATM    6  H   UNL     1      -9.232   7.420  67.543  1.00  0.00     0.000 HD 
HETATM    7 CL   UNL     1      -9.521   4.800  66.655  1.00  0.00    -0.145 Cl 
HETATM    8  C   UNL     1      -9.669   9.168  66.470  1.00  0.00    -0.241 A  
HETATM    9  C   UNL     1     -10.478   9.735  67.466  1.00  0.00    -0.309 A  
HETATM   10  C   UNL     1     -10.919  11.071  67.394  1.00  0.00    -0.291 A  
HETATM   11 CL   UNL     1     -11.951  11.616  68.667  1.00  0.00    -0.366 Cl 
HETATM   12  C   UNL     1     -10.518  11.869  66.322  1.00  0.00    -0.239 A  
HETATM   13  O   UNL     1      -7.109  10.298  64.014  1.00  0.00    -0.126 OA 
HETATM   14  C   UNL     1      -9.672  11.339  65.344  1.00  0.00    -0.271 A  
HETATM   15  C   UNL     1      -9.260  10.008  65.439  1.00  0.00    -0.210 A  
HETATM   16  O   UNL     1      -9.043   8.969  63.088  1.00  0.00    -0.021 OA 
HETATM   17  S   UNL     1      -8.204   9.371  64.198  1.00  0.00    -0.170 S  
ENDROOT
BRANCH  12  18
HETATM   18  S   UNL     1     -11.015  13.553  66.160  1.00  0.00    -0.285 S  
HETATM   19  O   UNL     1     -12.446  13.616  66.001  1.00  0.00    -0.445 OA 
HETATM   20  H1  UNL     1     -10.614  15.001  64.613  1.00  0.00     0.000 HD 
HETATM   21  H2  UNL     1      -9.755  13.474  64.068  1.00  0.00     0.000 HD 
HETATM   22  O   UNL     1     -10.326  14.339  67.159  1.00  0.00    -0.259 OA 
HETATM   23  N   UNL     1     -10.326  14.027  64.707  1.00  0.00    -0.427 N  
ENDBRANCH  12  18
TORSDOF 1
ENDMDL
MODEL       65
REMARK 921   NORMALIZED FREE ENERGY PREDICTED BY IDOCK:   -4.04 KCAL/MOL
REMARK 922        TOTAL FREE ENERGY PREDICTED BY IDOCK:   -4.46 KCAL/MOL
REMARK 923 INTER-LIGAND FREE ENERGY PREDICTED BY IDOCK:   -4.27 KCAL/MOL
REMARK 924 INTRA-LIGAND FREE ENERGY PREDICTED BY IDOCK:   -0.19 KCAL/MOL
REMARK 927      BINDING AFFINITY PREDICTED BY RF-SCORE:    0.00 PKD
ROOT
HETATM    1  C   UNL     1     -14.107   7.672  71.577  1.00  0.00    -0.421 C  
HETATM    2  N   UNL     1     -12.676   7.893  71.883  1.00  0.00    -0.321 N  
HETATM    3  C   UNL     1     -12.058   9.072  71.247  1.00  0.00    -0.314 C  
HETATM    4  C   UNL     1     -12.941  10.339  71.359  1.00  0.00    -0.440 C  
HETATM    5  N   UNL     1     -10.789   9.341  71.930  1.00  0.00    -0.299 NA 
HETATM    6  H   UNL     1     -10.613  10.258  72.341  1.00  0.00     0.000 HD 
HETATM    7 CL   UNL     1     -12.159  11.748  70.573  1.00  0.00    -0.463 Cl 
HETATM    8  C   UNL     1      -9.824   8.342  72.016  1.00  0.00    -0.284 A  
HETATM    9  C   UNL     1      -8.507   8.682  72.360  1.00  0.00    -0.121 A  
HETATM   10  C   UNL     1      -7.509   7.704  72.534  1.00  0.00    -0.080 A  
HETATM   11 CL   UNL     1      -5.922   8.275  72.905  1.00  0.00    -0.062 Cl 
HETATM   12  C   UNL     1      -7.838   6.355  72.393  1.00  0.00    -0.102 A  
HETATM   13  O   UNL     1     -12.155   5.478  72.497  1.00  0.00    -0.183 OA 
HETATM   14  C   UNL     1      -9.154   5.992  72.099  1.00  0.00    -0.142 A  
HETATM   15  C   UNL     1     -10.120   6.986  71.924  1.00  0.00    -0.182 A  
HETATM   16  O   UNL     1     -11.823   6.270  70.124  1.00  0.00    -0.349 OA 
HETATM   17  S   UNL     1     -11.759   6.501  71.553  1.00  0.00    -0.322 S  
ENDROOT
BRANCH  12  18
HETATM   18  S   UNL     1      -6.652   5.067  72.605  1.00  0.00    -0.058 S  
HETATM   19  O   UNL     1      -5.700   5.112  71.523  1.00  0.00    -0.014 OA 
HETATM   20  H1  UNL     1      -6.871   2.922  72.541  1.00  0.00     0.000 HD 
HETATM   21  H2  UNL     1      -8.555   3.581  72.230  1.00  0.00     0.000 HD 
HETATM   22  O   UNL     1      -6.231   5.045  73.987  1.00  0.00    -0.055 OA 
HETATM   23  N   UNL     1      -7.556   3.667  72.419  1.00  0.00    -0.061 N  
ENDBRANCH  12  18
TORSDOF 1
ENDMDL
MODEL       66
REMARK 921   NORMALIZED FREE ENERGY PREDICTED BY IDOCK:   -4.03 KCAL/MOL
REMARK 922        TOTAL FREE ENERGY PREDICTED BY IDOCK:   -4.45 KCAL/MOL
REMARK 923 INTER-LIGAND FREE ENERGY PREDICTED BY IDOCK:   -4.52 KCAL/MOL
REMARK 924 INTRA-LIGAND FREE ENERGY PREDICTED BY IDOCK:    0.07 KCAL/MOL
REMARK 927      BINDING AFFINITY PREDICTED BY RF-SCORE:    0.00 PKD
ROOT
HETATM    1  C   UNL     1     -13.121  12.935  70.744  1.00  0.00     0.187 C  
HETATM    2  N   UNL     1     -12.259  13.707  69.822  1.00  0.00    -0.315 N  
HETATM    3  C   UNL     1     -11.045  13.016  69.348  1.00  0.00    -0.076 C  
HETATM    4  C   UNL     1     -11.327  11.561  68.896  1.00  0.00    -0.268 C  
HETATM    5  N   UNL     1     -10.524  13.755  68.195  1.00  0.00    -0.243 NA 
HETATM    6  H   UNL     1     -10.377  13.279  67.304  1.00  0.00     0.000 HD 
HETATM    7 CL   UNL     1      -9.829  10.754  68.332  1.00  0.00    -0.167 Cl 
HETATM    8  C   UNL     1     -10.228  15.110  68.318  1.00  0.00    -0.223 A  
HETATM    9  C   UNL     1      -9.432  15.734  67.346  1.00  0.00    -0.213 A  
HETATM   10  C   UNL     1      -9.164  17.116  67.381  1.00  0.00    -0.232 A  
HETATM   11 CL   UNL     1      -8.125  17.735  66.148  1.00  0.00    -0.256 Cl 
HETATM   12  C   UNL     1      -9.728  17.899  68.388  1.00  0.00    -0.340 A  
HETATM   13  O   UNL     1     -13.062  16.007  70.560  1.00  0.00    -0.292 OA 
HETATM   14  C   UNL     1     -10.564  17.307  69.337  1.00  0.00    -0.079 A  
HETATM   15  C   UNL     1     -10.803  15.932  69.282  1.00  0.00    -0.276 A  
HETATM   16  O   UNL     1     -11.044  14.968  71.662  1.00  0.00    -0.281 OA 
HETATM   17  S   UNL     1     -11.852  15.217  70.486  1.00  0.00    -0.359 S  
ENDROOT
BRANCH  12  18
HETATM   18  S   UNL     1      -9.453  19.638  68.499  1.00  0.00    -0.335 S  
HETATM   19  O   UNL     1      -9.428  20.202  67.173  1.00  0.00    -0.357 OA 
HETATM   20  H1  UNL     1      -7.741  20.755  69.185  1.00  0.00     0.000 HD 
HETATM   21  H2  UNL     1      -7.266  18.992  69.377  1.00  0.00     0.000 HD 
HETATM   22  O   UNL     1     -10.299  20.177  69.539  1.00  0.00    -0.186 OA 
HETATM   23  N   UNL     1      -7.900  19.750  69.122  1.00  0.00    -0.204 N  
ENDBRANCH  12  18
TORSDOF 1
ENDMDL
MODEL       67
REMARK 921   NORMALIZED FREE ENERGY PREDICTED BY IDOCK:   -4.03 KCAL/MOL
REMARK 922        TOTAL FREE ENERGY PREDICTED BY IDOCK:   -4.45 KCAL/MOL
REMARK 923 INTER-LIGAND FREE ENERGY PREDICTED BY IDOCK:   -4.26 KCAL/MOL
REMARK 924 INTRA-LIGAND FREE ENERGY PREDICTED BY IDOCK:   -0.19 KCAL/MOL
REMARK 927      BINDING AFFINITY PREDICTED BY RF-SCORE:    0.00 PKD
ROOT
HETATM    1  C   UNL     1     -13.257   9.670  72.070  1.00  0.00    -0.453 C  
HETATM    2  N   UNL     1     -11.838   9.555  71.669  1.00  0.00    -0.387 N  
HETATM    3  C   UNL     1     -11.500  10.102  70.341  1.00  0.00    -0.322 C  
HETATM    4  C   UNL     1     -12.125  11.498  70.097  1.00  0.00    -0.351 C  
HETATM    5  N   UNL     1     -10.042  10.239  70.266  1.00  0.00    -0.410 NA 
HETATM    6  H   UNL     1      -9.623  11.142  70.045  1.00  0.00     0.000 HD 
HETATM    7 CL   UNL     1     -11.695  12.127  68.473  1.00  0.00    -0.364 Cl 
HETATM    8  C   UNL     1      -9.231   9.131  70.495  1.00  0.00    -0.241 A  
HETATM    9  C   UNL     1      -7.884   9.168  70.103  1.00  0.00    -0.114 A  
HETATM   10  C   UNL     1      -7.002   8.106  70.378  1.00  0.00    -0.037 A  
HETATM   11 CL   UNL     1      -5.386   8.271  69.789  1.00  0.00    -0.026 Cl 
HETATM   12  C   UNL     1      -7.463   6.996  71.086  1.00  0.00    -0.081 A  
HETATM   13  O   UNL     1     -11.280   7.601  73.201  1.00  0.00    -0.391 OA 
HETATM   14  C   UNL     1      -8.787   6.960  71.529  1.00  0.00    -0.132 A  
HETATM   15  C   UNL     1      -9.641   8.025  71.233  1.00  0.00    -0.156 A  
HETATM   16  O   UNL     1     -12.039   7.164  70.834  1.00  0.00    -0.338 OA 
HETATM   17  S   UNL     1     -11.295   7.950  71.797  1.00  0.00    -0.280 S  
ENDROOT
BRANCH  12  18
HETATM   18  S   UNL     1      -6.421   5.629  71.481  1.00  0.00    -0.046 S  
HETATM   19  O   UNL     1      -6.040   4.953  70.267  1.00  0.00    -0.020 OA 
HETATM   20  H1  UNL     1      -6.831   3.807  72.560  1.00  0.00     0.000 HD 
HETATM   21  H2  UNL     1      -8.417   4.731  72.567  1.00  0.00     0.000 HD 
HETATM   22  O   UNL     1      -5.440   6.056  72.453  1.00  0.00    -0.029 OA 
HETATM   23  N   UNL     1      -7.433   4.598  72.332  1.00  0.00    -0.081 N  
ENDBRANCH  12  18
TORSDOF 1
ENDMDL
MODEL       68
REMARK 921   NORMALIZED FREE ENERGY PREDICTED BY IDOCK:   -4.02 KCAL/MOL
REMARK 922        TOTAL FREE ENERGY PREDICTED BY IDOCK:   -4.44 KCAL/MOL
REMARK 923 INTER-LIGAND FREE ENERGY PREDICTED BY IDOCK:   -4.50 KCAL/MOL
REMARK 924 INTRA-LIGAND FREE ENERGY PREDICTED BY IDOCK:    0.06 KCAL/MOL
REMARK 927      BINDING AFFINITY PREDICTED BY RF-SCORE:    0.00 PKD
ROOT
HETATM    1  C   UNL     1     -11.891  14.034  66.751  1.00  0.00    -0.424 C  
HETATM    2  N   UNL     1     -10.857  13.010  67.018  1.00  0.00    -0.258 N  
HETATM    3  C   UNL     1     -10.579  12.074  65.912  1.00  0.00    -0.265 C  
HETATM    4  C   UNL     1     -10.434  12.793  64.548  1.00  0.00    -0.368 C  
HETATM    5  N   UNL     1      -9.314  11.393  66.203  1.00  0.00    -0.210 NA 
HETATM    6  H   UNL     1      -8.549  11.425  65.529  1.00  0.00     0.000 HD 
HETATM    7 CL   UNL     1     -10.101  11.623  63.230  1.00  0.00    -0.436 Cl 
HETATM    8  C   UNL     1      -9.159  10.703  67.401  1.00  0.00    -0.139 A  
HETATM    9  C   UNL     1      -8.105   9.788  67.540  1.00  0.00    -0.114 A  
HETATM   10  C   UNL     1      -7.857   9.118  68.753  1.00  0.00    -0.096 A  
HETATM   11 CL   UNL     1      -6.556   7.982  68.760  1.00  0.00    -0.048 Cl 
HETATM   12  C   UNL     1      -8.659   9.390  69.863  1.00  0.00    -0.191 A  
HETATM   13  O   UNL     1     -11.069  13.066  69.554  1.00  0.00    -0.130 OA 
HETATM   14  C   UNL     1      -9.683  10.334  69.761  1.00  0.00    -0.183 A  
HETATM   15  C   UNL     1      -9.910  10.975  68.541  1.00  0.00    -0.192 A  
HETATM   16  O   UNL     1     -12.430  11.415  68.216  1.00  0.00    -0.314 OA 
HETATM   17  S   UNL     1     -11.202  12.150  68.442  1.00  0.00    -0.291 S  
ENDROOT
BRANCH  12  18
HETATM   18  S   UNL     1      -8.410   8.604  71.422  1.00  0.00    -0.167 S  
HETATM   19  O   UNL     1      -7.097   8.931  71.918  1.00  0.00    -0.248 OA 
HETATM   20  H1  UNL     1      -8.267   6.516  71.944  1.00  0.00     0.000 HD 
HETATM   21  H2  UNL     1      -8.528   6.535  70.128  1.00  0.00     0.000 HD 
HETATM   22  O   UNL     1      -9.596   8.788  72.229  1.00  0.00    -0.301 OA 
HETATM   23  N   UNL     1      -8.411   6.971  71.043  1.00  0.00    -0.124 N  
ENDBRANCH  12  18
TORSDOF 1
ENDMDL
MODEL       69
REMARK 921   NORMALIZED FREE ENERGY PREDICTED BY IDOCK:   -4.02 KCAL/MOL
REMARK 922        TOTAL FREE ENERGY PREDICTED BY IDOCK:   -4.44 KCAL/MOL
REMARK 923 INTER-LIGAND FREE ENERGY PREDICTED BY IDOCK:   -4.55 KCAL/MOL
REMARK 924 INTRA-LIGAND FREE ENERGY PREDICTED BY IDOCK:    0.11 KCAL/MOL
REMARK 927      BINDING AFFINITY PREDICTED BY RF-SCORE:    0.00 PKD
ROOT
HETATM    1  C   UNL     1     -11.027  16.914  68.778  1.00  0.00    -0.234 C  
HETATM    2  N   UNL     1     -10.873  15.463  68.535  1.00  0.00    -0.253 N  
HETATM    3  C   UNL     1     -11.270  14.990  67.195  1.00  0.00    -0.336 C  
HETATM    4  C   UNL     1     -10.724  15.892  66.061  1.00  0.00    -0.284 C  
HETATM    5  N   UNL     1     -10.720  13.644  67.009  1.00  0.00    -0.277 NA 
HETATM    6  H   UNL     1     -10.119  13.442  66.209  1.00  0.00     0.000 HD 
HETATM    7 CL   UNL     1     -11.230  15.287  64.450  1.00  0.00    -0.258 Cl 
HETATM    8  C   UNL     1     -11.019  12.641  67.926  1.00  0.00    -0.230 A  
HETATM    9  C   UNL     1     -10.782  11.301  67.586  1.00  0.00    -0.270 A  
HETATM   10  C   UNL     1     -10.996  10.253  68.502  1.00  0.00    -0.247 A  
HETATM   11 CL   UNL     1     -10.712   8.650  67.925  1.00  0.00    -0.214 Cl 
HETATM   12  C   UNL     1     -11.425  10.550  69.796  1.00  0.00    -0.294 A  
HETATM   13  O   UNL     1     -10.960  14.768  70.982  1.00  0.00    -0.088 OA 
HETATM   14  C   UNL     1     -11.619  11.881  70.171  1.00  0.00    -0.252 A  
HETATM   15  C   UNL     1     -11.408  12.898  69.237  1.00  0.00    -0.243 A  
HETATM   16  O   UNL     1     -13.081  14.823  69.616  1.00  0.00     0.210 OA 
HETATM   17  S   UNL     1     -11.662  14.555  69.735  1.00  0.00    -0.321 S  
ENDROOT
BRANCH  12  18
HETATM   18  S   UNL     1     -11.707   9.299  71.008  1.00  0.00    -0.327 S  
HETATM   19  O   UNL     1     -12.266   8.134  70.370  1.00  0.00     0.119 OA 
HETATM   20  H1  UNL     1     -13.064   9.237  72.683  1.00  0.00     0.000 HD 
HETATM   21  H2  UNL     1     -13.355  10.869  71.896  1.00  0.00     0.000 HD 
HETATM   22  O   UNL     1     -10.546   9.213  71.866  1.00  0.00    -0.348 OA 
HETATM   23  N   UNL     1     -12.900   9.960  71.983  1.00  0.00    -0.407 N  
ENDBRANCH  12  18
TORSDOF 1
ENDMDL
MODEL       70
REMARK 921   NORMALIZED FREE ENERGY PREDICTED BY IDOCK:   -3.99 KCAL/MOL
REMARK 922        TOTAL FREE ENERGY PREDICTED BY IDOCK:   -4.40 KCAL/MOL
REMARK 923 INTER-LIGAND FREE ENERGY PREDICTED BY IDOCK:   -4.41 KCAL/MOL
REMARK 924 INTRA-LIGAND FREE ENERGY PREDICTED BY IDOCK:    0.00 KCAL/MOL
REMARK 927      BINDING AFFINITY PREDICTED BY RF-SCORE:    0.00 PKD
ROOT
HETATM    1  C   UNL     1     -11.162   6.003  71.996  1.00  0.00    -0.288 C  
HETATM    2  N   UNL     1     -11.053   7.241  71.193  1.00  0.00    -0.248 N  
HETATM    3  C   UNL     1     -12.263   8.083  71.143  1.00  0.00    -0.245 C  
HETATM    4  C   UNL     1     -12.911   8.277  72.537  1.00  0.00    -0.118 C  
HETATM    5  N   UNL     1     -11.876   9.403  70.636  1.00  0.00    -0.390 NA 
HETATM    6  H   UNL     1     -12.083  10.241  71.179  1.00  0.00     0.000 HD 
HETATM    7 CL   UNL     1     -14.380   9.301  72.434  1.00  0.00    -0.276 Cl 
HETATM    8  C   UNL     1     -11.226   9.509  69.410  1.00  0.00    -0.035 A  
HETATM    9  C   UNL     1     -11.155  10.757  68.772  1.00  0.00    -0.312 A  
HETATM   10  C   UNL     1     -10.446  10.936  67.569  1.00  0.00    -0.215 A  
HETATM   11 CL   UNL     1     -10.490  12.516  66.872  1.00  0.00    -0.240 Cl 
HETATM   12  C   UNL     1      -9.766   9.856  67.005  1.00  0.00    -0.182 A  
HETATM   13  O   UNL     1      -9.141   6.439  69.716  1.00  0.00    -0.140 OA 
HETATM   14  C   UNL     1      -9.783   8.617  67.649  1.00  0.00    -0.201 A  
HETATM   15  C   UNL     1     -10.503   8.468  68.837  1.00  0.00    -0.188 A  
HETATM   16  O   UNL     1     -11.529   6.105  68.971  1.00  0.00    -0.340 OA 
HETATM   17  S   UNL     1     -10.508   6.903  69.620  1.00  0.00    -0.228 S  
ENDROOT
BRANCH  12  18
HETATM   18  S   UNL     1      -8.846   9.997  65.507  1.00  0.00    -0.177 S  
HETATM   19  O   UNL     1      -7.871  11.049  65.643  1.00  0.00    -0.076 OA 
HETATM   20  H1  UNL     1      -9.456  10.594  63.526  1.00  0.00     0.000 HD 
HETATM   21  H2  UNL     1     -10.980  10.699  64.545  1.00  0.00     0.000 HD 
HETATM   22  O   UNL     1      -8.478   8.672  65.061  1.00  0.00    -0.169 OA 
HETATM   23  N   UNL     1      -9.989  10.512  64.392  1.00  0.00    -0.342 N  
ENDBRANCH  12  18
TORSDOF 1
ENDMDL
MODEL       71
REMARK 921   NORMALIZED FREE ENERGY PREDICTED BY IDOCK:   -3.98 KCAL/MOL
REMARK 922        TOTAL FREE ENERGY PREDICTED BY IDOCK:   -4.39 KCAL/MOL
REMARK 923 INTER-LIGAND FREE ENERGY PREDICTED BY IDOCK:   -4.27 KCAL/MOL
REMARK 924 INTRA-LIGAND FREE ENERGY PREDICTED BY IDOCK:   -0.12 KCAL/MOL
REMARK 927      BINDING AFFINITY PREDICTED BY RF-SCORE:    0.00 PKD
ROOT
HETATM    1  C   UNL     1     -11.622  11.353  68.071  1.00  0.00    -0.286 C  
HETATM    2  N   UNL     1     -11.535  10.375  69.178  1.00  0.00    -0.224 N  
HETATM    3  C   UNL     1     -11.750  10.919  70.533  1.00  0.00    -0.342 C  
HETATM    4  C   UNL     1     -12.974  11.865  70.607  1.00  0.00     0.158 C  
HETATM    5  N   UNL     1     -11.992   9.792  71.439  1.00  0.00    -0.385 NA 
HETATM    6  H   UNL     1     -12.842   9.761  72.002  1.00  0.00     0.000 HD 
HETATM    7 CL   UNL     1     -13.200  12.507  72.266  1.00  0.00    -0.526 Cl 
HETATM    8  C   UNL     1     -11.059   8.764  71.529  1.00  0.00    -0.307 A  
HETATM    9  C   UNL     1     -11.114   7.874  72.613  1.00  0.00    -0.447 A  
HETATM   10  C   UNL     1     -10.242   6.773  72.715  1.00  0.00    -0.189 A  
HETATM   11 CL   UNL     1     -10.393   5.794  74.130  1.00  0.00    -0.286 Cl 
HETATM   12  C   UNL     1      -9.315   6.535  71.699  1.00  0.00    -0.146 A  
HETATM   13  O   UNL     1     -10.099   8.683  67.932  1.00  0.00    -0.182 OA 
HETATM   14  C   UNL     1      -9.276   7.380  70.588  1.00  0.00    -0.157 A  
HETATM   15  C   UNL     1     -10.147   8.470  70.520  1.00  0.00    -0.192 A  
HETATM   16  O   UNL     1      -9.002  10.461  69.347  1.00  0.00    -0.194 OA 
HETATM   17  S   UNL     1     -10.073   9.513  69.117  1.00  0.00    -0.206 S  
ENDROOT
BRANCH  12  18
HETATM   18  S   UNL     1      -8.195   5.174  71.744  1.00  0.00    -0.118 S  
HETATM   19  O   UNL     1      -7.440   5.217  72.971  1.00  0.00    -0.092 OA 
HETATM   20  H1  UNL     1      -6.483   4.714  70.514  1.00  0.00     0.000 HD 
HETATM   21  H2  UNL     1      -7.133   6.297  69.851  1.00  0.00     0.000 HD 
HETATM   22  O   UNL     1      -8.895   3.981  71.323  1.00  0.00    -0.094 OA 
HETATM   23  N   UNL     1      -7.132   5.501  70.488  1.00  0.00    -0.060 N  
ENDBRANCH  12  18
TORSDOF 1
ENDMDL
MODEL       72
REMARK 921   NORMALIZED FREE ENERGY PREDICTED BY IDOCK:   -3.97 KCAL/MOL
REMARK 922        TOTAL FREE ENERGY PREDICTED BY IDOCK:   -4.38 KCAL/MOL
REMARK 923 INTER-LIGAND FREE ENERGY PREDICTED BY IDOCK:   -4.38 KCAL/MOL
REMARK 924 INTRA-LIGAND FREE ENERGY PREDICTED BY IDOCK:   -0.01 KCAL/MOL
REMARK 927      BINDING AFFINITY PREDICTED BY RF-SCORE:    0.00 PKD
ROOT
HETATM    1  C   UNL     1     -10.543  12.524  64.858  1.00  0.00    -0.301 C  
HETATM    2  N   UNL     1     -10.632  11.256  65.615  1.00  0.00    -0.259 N  
HETATM    3  C   UNL     1     -10.727  11.389  67.082  1.00  0.00    -0.249 C  
HETATM    4  C   UNL     1     -11.749  12.469  67.516  1.00  0.00    -0.374 C  
HETATM    5  N   UNL     1     -11.169  10.102  67.626  1.00  0.00    -0.464 NA 
HETATM    6  H   UNL     1     -12.005  10.052  68.209  1.00  0.00     0.000 HD 
HETATM    7 CL   UNL     1     -11.834  12.604  69.302  1.00  0.00    -0.363 Cl 
HETATM    8  C   UNL     1     -10.446   8.946  67.343  1.00  0.00    -0.277 A  
HETATM    9  C   UNL     1     -10.659   7.793  68.114  1.00  0.00    -0.182 A  
HETATM   10  C   UNL     1     -10.010   6.578  67.825  1.00  0.00    -0.131 A  
HETATM   11 CL   UNL     1     -10.330   5.257  68.891  1.00  0.00    -0.257 Cl 
HETATM   12  C   UNL     1      -9.155   6.500  66.725  1.00  0.00    -0.144 A  
HETATM   13  O   UNL     1      -9.555   9.797  63.829  1.00  0.00    -0.156 OA 
HETATM   14  C   UNL     1      -8.967   7.623  65.916  1.00  0.00    -0.144 A  
HETATM   15  C   UNL     1      -9.617   8.817  66.233  1.00  0.00    -0.259 A  
HETATM   16  O   UNL     1      -8.127  10.835  65.633  1.00  0.00    -0.161 OA 
HETATM   17  S   UNL     1      -9.360  10.207  65.203  1.00  0.00    -0.259 S  
ENDROOT
BRANCH  12  18
HETATM   18  S   UNL     1      -8.312   5.014  66.287  1.00  0.00    -0.113 S  
HETATM   19  O   UNL     1      -9.267   3.943  66.159  1.00  0.00    -0.141 OA 
HETATM   20  H1  UNL     1      -6.882   3.827  67.382  1.00  0.00     0.000 HD 
HETATM   21  H2  UNL     1      -7.299   5.220  68.502  1.00  0.00     0.000 HD 
HETATM   22  O   UNL     1      -7.357   5.311  65.243  1.00  0.00    -0.066 OA 
HETATM   23  N   UNL     1      -7.369   4.686  67.635  1.00  0.00    -0.073 N  
ENDBRANCH  12  18
TORSDOF 1
ENDMDL
MODEL       73
REMARK 921   NORMALIZED FREE ENERGY PREDICTED BY IDOCK:   -3.95 KCAL/MOL
REMARK 922        TOTAL FREE ENERGY PREDICTED BY IDOCK:   -4.36 KCAL/MOL
REMARK 923 INTER-LIGAND FREE ENERGY PREDICTED BY IDOCK:   -4.53 KCAL/MOL
REMARK 924 INTRA-LIGAND FREE ENERGY PREDICTED BY IDOCK:    0.18 KCAL/MOL
REMARK 927      BINDING AFFINITY PREDICTED BY RF-SCORE:    0.00 PKD
ROOT
HETATM    1  C   UNL     1     -10.756   4.870  72.540  1.00  0.00    -0.196 C  
HETATM    2  N   UNL     1     -10.222   5.957  71.691  1.00  0.00    -0.196 N  
HETATM    3  C   UNL     1      -8.806   6.308  71.910  1.00  0.00    -0.139 C  
HETATM    4  C   UNL     1      -7.892   5.060  72.005  1.00  0.00    -0.110 C  
HETATM    5  N   UNL     1      -8.356   7.113  70.771  1.00  0.00    -0.127 NA 
HETATM    6  H   UNL     1      -7.544   6.822  70.227  1.00  0.00     0.000 HD 
HETATM    7 CL   UNL     1      -6.182   5.526  72.276  1.00  0.00    -0.041 Cl 
HETATM    8  C   UNL     1      -9.041   8.276  70.433  1.00  0.00    -0.147 A  
HETATM    9  C   UNL     1      -8.436   9.210  69.579  1.00  0.00    -0.128 A  
HETATM   10  C   UNL     1      -9.112  10.367  69.145  1.00  0.00    -0.187 A  
HETATM   11 CL   UNL     1      -8.223  11.452  68.137  1.00  0.00    -0.136 Cl 
HETATM   12  C   UNL     1     -10.431  10.582  69.547  1.00  0.00    -0.235 A  
HETATM   13  O   UNL     1     -12.471   7.040  71.191  1.00  0.00    -0.368 OA 
HETATM   14  C   UNL     1     -11.069   9.641  70.357  1.00  0.00    -0.346 A  
HETATM   15  C   UNL     1     -10.369   8.508  70.778  1.00  0.00    -0.198 A  
HETATM   16  O   UNL     1     -11.104   7.835  73.157  1.00  0.00    -0.409 OA 
HETATM   17  S   UNL     1     -11.193   7.347  71.796  1.00  0.00    -0.253 S  
ENDROOT
BRANCH  12  18
HETATM   18  S   UNL     1     -11.353  11.999  69.041  1.00  0.00    -0.294 S  
HETATM   19  O   UNL     1     -10.460  13.119  68.885  1.00  0.00    -0.197 OA 
HETATM   20  H1  UNL     1     -12.866  13.139  70.071  1.00  0.00     0.000 HD 
HETATM   21  H2  UNL     1     -12.385  11.816  71.249  1.00  0.00     0.000 HD 
HETATM   22  O   UNL     1     -12.272  11.607  67.996  1.00  0.00    -0.551 OA 
HETATM   23  N   UNL     1     -12.334  12.320  70.363  1.00  0.00    -0.274 N  
ENDBRANCH  12  18
TORSDOF 1
ENDMDL
MODEL       74
REMARK 921   NORMALIZED FREE ENERGY PREDICTED BY IDOCK:   -3.91 KCAL/MOL
REMARK 922        TOTAL FREE ENERGY PREDICTED BY IDOCK:   -4.32 KCAL/MOL
REMARK 923 INTER-LIGAND FREE ENERGY PREDICTED BY IDOCK:   -4.33 KCAL/MOL
REMARK 924 INTRA-LIGAND FREE ENERGY PREDICTED BY IDOCK:    0.02 KCAL/MOL
REMARK 927      BINDING AFFINITY PREDICTED BY RF-SCORE:    0.00 PKD
ROOT
HETATM    1  C   UNL     1     -14.143  14.500  72.298  1.00  0.00    -0.500 C  
HETATM    2  N   UNL     1     -13.171  14.020  71.291  1.00  0.00    -0.324 N  
HETATM    3  C   UNL     1     -12.580  12.693  71.550  1.00  0.00    -0.151 C  
HETATM    4  C   UNL     1     -13.638  11.643  71.972  1.00  0.00    -0.041 C  
HETATM    5  N   UNL     1     -11.949  12.228  70.312  1.00  0.00    -0.472 NA 
HETATM    6  H   UNL     1     -12.215  11.331  69.907  1.00  0.00     0.000 HD 
HETATM    7 CL   UNL     1     -12.883  10.047  72.282  1.00  0.00    -0.393 Cl 
HETATM    8  C   UNL     1     -10.985  13.015  69.689  1.00  0.00     0.201 A  
HETATM    9  C   UNL     1     -10.151  12.445  68.716  1.00  0.00    -0.068 A  
HETATM   10  C   UNL     1      -9.211  13.212  68.002  1.00  0.00    -0.211 A  
HETATM   11 CL   UNL     1      -8.218  12.364  66.871  1.00  0.00    -0.135 Cl 
HETATM   12  C   UNL     1      -9.120  14.584  68.242  1.00  0.00    -0.196 A  
HETATM   13  O   UNL     1     -12.547  16.320  70.399  1.00  0.00    -0.039 OA 
HETATM   14  C   UNL     1      -9.974  15.181  69.172  1.00  0.00    -0.238 A  
HETATM   15  C   UNL     1     -10.890  14.392  69.870  1.00  0.00     0.009 A  
HETATM   16  O   UNL     1     -11.200  15.291  72.268  1.00  0.00    -0.408 OA 
HETATM   17  S   UNL     1     -11.945  15.167  71.031  1.00  0.00    -0.370 S  
ENDROOT
BRANCH  12  18
HETATM   18  S   UNL     1      -7.977  15.618  67.385  1.00  0.00    -0.197 S  
HETATM   19  O   UNL     1      -6.697  14.960  67.314  1.00  0.00    -0.277 OA 
HETATM   20  H1  UNL     1      -7.144  17.538  67.907  1.00  0.00     0.000 HD 
HETATM   21  H2  UNL     1      -8.256  17.107  69.303  1.00  0.00     0.000 HD 
HETATM   22  O   UNL     1      -8.624  16.151  66.207  1.00  0.00    -0.304 OA 
HETATM   23  N   UNL     1      -7.806  16.940  68.402  1.00  0.00    -0.218 N  
ENDBRANCH  12  18
TORSDOF 1
ENDMDL
MODEL       75
REMARK 921   NORMALIZED FREE ENERGY PREDICTED BY IDOCK:   -3.83 KCAL/MOL
REMARK 922        TOTAL FREE ENERGY PREDICTED BY IDOCK:   -4.23 KCAL/MOL
REMARK 923 INTER-LIGAND FREE ENERGY PREDICTED BY IDOCK:   -4.27 KCAL/MOL
REMARK 924 INTRA-LIGAND FREE ENERGY PREDICTED BY IDOCK:    0.04 KCAL/MOL
REMARK 927      BINDING AFFINITY PREDICTED BY RF-SCORE:    0.00 PKD
ROOT
HETATM    1  C   UNL     1     -10.460  15.805  66.729  1.00  0.00    -0.305 C  
HETATM    2  N   UNL     1      -9.925  14.435  66.569  1.00  0.00    -0.273 N  
HETATM    3  C   UNL     1     -10.741  13.519  65.749  1.00  0.00    -0.275 C  
HETATM    4  C   UNL     1     -11.231  14.174  64.434  1.00  0.00    -0.278 C  
HETATM    5  N   UNL     1      -9.909  12.364  65.398  1.00  0.00    -0.389 NA 
HETATM    6  H   UNL     1      -9.777  12.107  64.420  1.00  0.00     0.000 HD 
HETATM    7 CL   UNL     1     -12.221  13.032  63.469  1.00  0.00    -0.594 Cl 
HETATM    8  C   UNL     1      -9.301  11.618  66.403  1.00  0.00    -0.213 A  
HETATM    9  C   UNL     1      -8.794  10.344  66.107  1.00  0.00    -0.172 A  
HETATM   10  C   UNL     1      -8.104   9.578  67.066  1.00  0.00    -0.113 A  
HETATM   11 CL   UNL     1      -7.582   8.007  66.574  1.00  0.00    -0.091 Cl 
HETATM   12  C   UNL     1      -7.887  10.106  68.340  1.00  0.00    -0.093 A  
HETATM   13  O   UNL     1      -8.487  14.459  68.669  1.00  0.00    -0.162 OA 
HETATM   14  C   UNL     1      -8.340  11.393  68.641  1.00  0.00    -0.136 A  
HETATM   15  C   UNL     1      -9.030  12.124  67.671  1.00  0.00    -0.178 A  
HETATM   16  O   UNL     1     -10.850  13.580  68.775  1.00  0.00    -0.248 OA 
HETATM   17  S   UNL     1      -9.589  13.731  68.078  1.00  0.00    -0.219 S  
ENDROOT
BRANCH  12  18
HETATM   18  S   UNL     1      -7.023   9.219  69.596  1.00  0.00    -0.060 S  
HETATM   19  O   UNL     1      -5.688   8.925  69.140  1.00  0.00    -0.035 OA 
HETATM   20  H1  UNL     1      -7.353   7.252  70.415  1.00  0.00     0.000 HD 
HETATM   21  H2  UNL     1      -8.665   7.465  69.149  1.00  0.00     0.000 HD 
HETATM   22  O   UNL     1      -7.268   9.858  70.869  1.00  0.00    -0.330 OA 
HETATM   23  N   UNL     1      -7.853   7.765  69.689  1.00  0.00    -0.105 N  
ENDBRANCH  12  18
TORSDOF 1
ENDMDL
MODEL       76
REMARK 921   NORMALIZED FREE ENERGY PREDICTED BY IDOCK:   -3.79 KCAL/MOL
REMARK 922        TOTAL FREE ENERGY PREDICTED BY IDOCK:   -4.20 KCAL/MOL
REMARK 923 INTER-LIGAND FREE ENERGY PREDICTED BY IDOCK:   -4.01 KCAL/MOL
REMARK 924 INTRA-LIGAND FREE ENERGY PREDICTED BY IDOCK:   -0.19 KCAL/MOL
REMARK 927      BINDING AFFINITY PREDICTED BY RF-SCORE:    0.00 PKD
ROOT
HETATM    1  C   UNL     1     -12.189  10.268  71.155  1.00  0.00    -0.397 C  
HETATM    2  N   UNL     1     -11.281   9.130  70.891  1.00  0.00    -0.274 N  
HETATM    3  C   UNL     1     -10.976   8.868  69.471  1.00  0.00    -0.084 C  
HETATM    4  C   UNL     1     -10.630  10.160  68.690  1.00  0.00    -0.210 C  
HETATM    5  N   UNL     1      -9.812   7.979  69.415  1.00  0.00    -0.178 NA 
HETATM    6  H   UNL     1      -8.982   8.254  68.889  1.00  0.00     0.000 HD 
HETATM    7 CL   UNL     1     -10.270   9.802  66.970  1.00  0.00    -0.275 Cl 
HETATM    8  C   UNL     1      -9.841   6.758  70.082  1.00  0.00    -0.177 A  
HETATM    9  C   UNL     1      -8.891   5.775  69.766  1.00  0.00    -0.129 A  
HETATM   10  C   UNL     1      -8.828   4.553  70.461  1.00  0.00    -0.099 A  
HETATM   11 CL   UNL     1      -7.640   3.418  69.927  1.00  0.00    -0.044 Cl 
HETATM   12  C   UNL     1      -9.711   4.316  71.515  1.00  0.00    -0.174 A  
HETATM   13  O   UNL     1     -11.744   7.902  73.072  1.00  0.00    -0.305 OA 
HETATM   14  C   UNL     1     -10.632   5.300  71.879  1.00  0.00    -0.274 A  
HETATM   15  C   UNL     1     -10.677   6.500  71.165  1.00  0.00    -0.240 A  
HETATM   16  O   UNL     1     -13.102   7.363  71.014  1.00  0.00    -0.259 OA 
HETATM   17  S   UNL     1     -11.844   7.713  71.641  1.00  0.00    -0.305 S  
ENDROOT
BRANCH  12  18
HETATM   18  S   UNL     1      -9.693   2.816  72.444  1.00  0.00    -0.154 S  
HETATM   19  O   UNL     1     -10.098   1.724  71.596  1.00  0.00    -0.152 OA 
HETATM   20  H1  UNL     1     -10.894   2.178  74.118  1.00  0.00     0.000 HD 
HETATM   21  H2  UNL     1     -11.507   3.858  73.707  1.00  0.00     0.000 HD 
HETATM   22  O   UNL     1      -8.474   2.765  73.220  1.00  0.00    -0.076 OA 
HETATM   23  N   UNL     1     -10.904   3.045  73.581  1.00  0.00    -0.201 N  
ENDBRANCH  12  18
TORSDOF 1
ENDMDL
MODEL       77
REMARK 921   NORMALIZED FREE ENERGY PREDICTED BY IDOCK:   -3.79 KCAL/MOL
REMARK 922        TOTAL FREE ENERGY PREDICTED BY IDOCK:   -4.19 KCAL/MOL
REMARK 923 INTER-LIGAND FREE ENERGY PREDICTED BY IDOCK:   -4.54 KCAL/MOL
REMARK 924 INTRA-LIGAND FREE ENERGY PREDICTED BY IDOCK:    0.35 KCAL/MOL
REMARK 927      BINDING AFFINITY PREDICTED BY RF-SCORE:    0.00 PKD
ROOT
HETATM    1  C   UNL     1      -5.205  12.797  68.582  1.00  0.00    -0.057 C  
HETATM    2  N   UNL     1      -6.214  13.592  67.848  1.00  0.00    -0.142 N  
HETATM    3  C   UNL     1      -6.493  14.935  68.392  1.00  0.00    -0.106 C  
HETATM    4  C   UNL     1      -5.202  15.711  68.752  1.00  0.00    -0.100 C  
HETATM    5  N   UNL     1      -7.210  15.699  67.367  1.00  0.00    -0.191 NA 
HETATM    6  H   UNL     1      -6.845  16.596  67.047  1.00  0.00     0.000 HD 
HETATM    7 CL   UNL     1      -5.581  17.334  69.412  1.00  0.00    -0.184 Cl 
HETATM    8  C   UNL     1      -8.392  15.197  66.831  1.00  0.00    -0.232 A  
HETATM    9  C   UNL     1      -9.244  16.052  66.115  1.00  0.00    -0.388 A  
HETATM   10  C   UNL     1     -10.414  15.580  65.489  1.00  0.00    -0.386 A  
HETATM   11 CL   UNL     1     -11.392  16.758  64.688  1.00  0.00    -0.081 Cl 
HETATM   12  C   UNL     1     -10.726  14.222  65.550  1.00  0.00    -0.331 A  
HETATM   13  O   UNL     1      -7.397  11.609  66.778  1.00  0.00    -0.137 OA 
HETATM   14  C   UNL     1      -9.866  13.345  66.216  1.00  0.00    -0.295 A  
HETATM   15  C   UNL     1      -8.718  13.844  66.835  1.00  0.00    -0.158 A  
HETATM   16  O   UNL     1      -8.213  12.515  68.987  1.00  0.00     0.153 OA 
HETATM   17  S   UNL     1      -7.662  12.722  67.664  1.00  0.00    -0.176 S  
ENDROOT
BRANCH  12  18
HETATM   18  S   UNL     1     -12.165  13.547  64.785  1.00  0.00    -0.410 S  
HETATM   19  O   UNL     1     -12.568  12.357  65.491  1.00  0.00    -0.616 OA 
HETATM   20  H1  UNL     1     -12.450  12.682  62.830  1.00  0.00     0.000 HD 
HETATM   21  H2  UNL     1     -10.677  13.154  62.886  1.00  0.00     0.000 HD 
HETATM   22  O   UNL     1     -13.093  14.621  64.513  1.00  0.00    -0.348 OA 
HETATM   23  N   UNL     1     -11.618  13.072  63.272  1.00  0.00    -0.355 N  
ENDBRANCH  12  18
TORSDOF 1
ENDMDL
MODEL       78
REMARK 921   NORMALIZED FREE ENERGY PREDICTED BY IDOCK:   -3.75 KCAL/MOL
REMARK 922        TOTAL FREE ENERGY PREDICTED BY IDOCK:   -4.15 KCAL/MOL
REMARK 923 INTER-LIGAND FREE ENERGY PREDICTED BY IDOCK:   -4.20 KCAL/MOL
REMARK 924 INTRA-LIGAND FREE ENERGY PREDICTED BY IDOCK:    0.05 KCAL/MOL
REMARK 927      BINDING AFFINITY PREDICTED BY RF-SCORE:    0.00 PKD
ROOT
HETATM    1  C   UNL     1     -12.569  11.750  64.672  1.00  0.00     0.381 C  
HETATM    2  N   UNL     1     -11.306  12.294  65.217  1.00  0.00    -0.328 N  
HETATM    3  C   UNL     1     -10.806  11.649  66.446  1.00  0.00    -0.287 C  
HETATM    4  C   UNL     1     -10.858  10.103  66.369  1.00  0.00     0.076 C  
HETATM    5  N   UNL     1      -9.407  12.047  66.630  1.00  0.00    -0.214 NA 
HETATM    6  H   UNL     1      -8.680  11.337  66.716  1.00  0.00     0.000 HD 
HETATM    7 CL   UNL     1     -10.247   9.356  67.880  1.00  0.00    -0.243 Cl 
HETATM    8  C   UNL     1      -9.073  13.396  66.685  1.00  0.00    -0.169 A  
HETATM    9  C   UNL     1      -7.820  13.778  67.186  1.00  0.00    -0.030 A  
HETATM   10  C   UNL     1      -7.402  15.123  67.196  1.00  0.00    -0.110 A  
HETATM   11 CL   UNL     1      -5.854  15.448  67.891  1.00  0.00    -0.152 Cl 
HETATM   12  C   UNL     1      -8.238  16.105  66.666  1.00  0.00    -0.286 A  
HETATM   13  O   UNL     1     -11.508  14.588  64.132  1.00  0.00    -0.226 OA 
HETATM   14  C   UNL     1      -9.470  15.742  66.117  1.00  0.00    -0.375 A  
HETATM   15  C   UNL     1      -9.861  14.401  66.130  1.00  0.00    -0.320 A  
HETATM   16  O   UNL     1     -12.412  14.215  66.458  1.00  0.00    -0.447 OA 
HETATM   17  S   UNL     1     -11.411  13.975  65.439  1.00  0.00    -0.327 S  
ENDROOT
BRANCH  12  18
HETATM   18  S   UNL     1      -7.788  17.810  66.629  1.00  0.00    -0.262 S  
HETATM   19  O   UNL     1      -8.874  18.579  66.077  1.00  0.00    -0.493 OA 
HETATM   20  H1  UNL     1      -6.266  18.844  65.504  1.00  0.00     0.000 HD 
HETATM   21  H2  UNL     1      -6.116  17.086  65.000  1.00  0.00     0.000 HD 
HETATM   22  O   UNL     1      -7.176  18.157  67.892  1.00  0.00    -0.215 OA 
HETATM   23  N   UNL     1      -6.526  17.859  65.525  1.00  0.00    -0.175 N  
ENDBRANCH  12  18
TORSDOF 1
ENDMDL
MODEL       79
REMARK 921   NORMALIZED FREE ENERGY PREDICTED BY IDOCK:   -3.74 KCAL/MOL
REMARK 922        TOTAL FREE ENERGY PREDICTED BY IDOCK:   -4.14 KCAL/MOL
REMARK 923 INTER-LIGAND FREE ENERGY PREDICTED BY IDOCK:   -4.17 KCAL/MOL
REMARK 924 INTRA-LIGAND FREE ENERGY PREDICTED BY IDOCK:    0.03 KCAL/MOL
REMARK 927      BINDING AFFINITY PREDICTED BY RF-SCORE:    0.00 PKD
ROOT
HETATM    1  C   UNL     1      -9.888  14.660  68.118  1.00  0.00    -0.224 C  
HETATM    2  N   UNL     1      -9.628  13.669  67.050  1.00  0.00    -0.243 N  
HETATM    3  C   UNL     1     -10.630  13.613  65.968  1.00  0.00    -0.290 C  
HETATM    4  C   UNL     1     -11.031  15.019  65.456  1.00  0.00    -0.358 C  
HETATM    5  N   UNL     1     -10.046  12.872  64.847  1.00  0.00    -0.473 NA 
HETATM    6  H   UNL     1      -9.997  13.297  63.922  1.00  0.00     0.000 HD 
HETATM    7 CL   UNL     1     -12.252  14.910  64.147  1.00  0.00    -0.413 Cl 
HETATM    8  C   UNL     1      -9.557  11.584  65.049  1.00  0.00    -0.197 A  
HETATM    9  C   UNL     1      -9.311  10.758  63.943  1.00  0.00    -0.284 A  
HETATM   10  C   UNL     1      -8.748   9.475  64.085  1.00  0.00    -0.215 A  
HETATM   11 CL   UNL     1      -8.551   8.551  62.639  1.00  0.00    -0.134 Cl 
HETATM   12  C   UNL     1      -8.392   9.018  65.354  1.00  0.00    -0.144 A  
HETATM   13  O   UNL     1      -8.143  12.146  68.448  1.00  0.00    -0.151 OA 
HETATM   14  C   UNL     1      -8.582   9.844  66.464  1.00  0.00    -0.131 A  
HETATM   15  C   UNL     1      -9.152  11.108  66.292  1.00  0.00    -0.194 A  
HETATM   16  O   UNL     1     -10.625  11.709  68.323  1.00  0.00    -0.190 OA 
HETATM   17  S   UNL     1      -9.382  12.119  67.701  1.00  0.00    -0.194 S  
ENDROOT
BRANCH  12  18
HETATM   18  S   UNL     1      -7.671   7.430  65.619  1.00  0.00    -0.111 S  
HETATM   19  O   UNL     1      -7.326   7.289  67.011  1.00  0.00    -0.088 OA 
HETATM   20  H1  UNL     1      -5.820   6.583  64.905  1.00  0.00     0.000 HD 
HETATM   21  H2  UNL     1      -5.870   8.278  64.201  1.00  0.00     0.000 HD 
HETATM   22  O   UNL     1      -8.463   6.439  64.927  1.00  0.00    -0.101 OA 
HETATM   23  N   UNL     1      -6.237   7.501  64.752  1.00  0.00    -0.038 N  
ENDBRANCH  12  18
TORSDOF 1
ENDMDL
MODEL       80
REMARK 921   NORMALIZED FREE ENERGY PREDICTED BY IDOCK:   -3.71 KCAL/MOL
REMARK 922        TOTAL FREE ENERGY PREDICTED BY IDOCK:   -4.10 KCAL/MOL
REMARK 923 INTER-LIGAND FREE ENERGY PREDICTED BY IDOCK:   -4.16 KCAL/MOL
REMARK 924 INTRA-LIGAND FREE ENERGY PREDICTED BY IDOCK:    0.06 KCAL/MOL
REMARK 927      BINDING AFFINITY PREDICTED BY RF-SCORE:    0.00 PKD
ROOT
HETATM    1  C   UNL     1     -11.576  11.612  69.342  1.00  0.00    -0.327 C  
HETATM    2  N   UNL     1     -11.347  10.150  69.360  1.00  0.00    -0.209 N  
HETATM    3  C   UNL     1     -11.645   9.469  70.634  1.00  0.00    -0.283 C  
HETATM    4  C   UNL     1     -12.996   9.914  71.245  1.00  0.00    -0.395 C  
HETATM    5  N   UNL     1     -11.719   8.029  70.371  1.00  0.00    -0.469 NA 
HETATM    6  H   UNL     1     -12.557   7.504  70.624  1.00  0.00     0.000 HD 
HETATM    7 CL   UNL     1     -13.320   9.068  72.793  1.00  0.00    -0.386 Cl 
HETATM    8  C   UNL     1     -10.643   7.378  69.775  1.00  0.00    -0.236 A  
HETATM    9  C   UNL     1     -10.569   5.978  69.825  1.00  0.00    -0.356 A  
HETATM   10  C   UNL     1      -9.543   5.265  69.176  1.00  0.00    -0.145 A  
HETATM   11 CL   UNL     1      -9.551   3.548  69.369  1.00  0.00    -0.230 Cl 
HETATM   12  C   UNL     1      -8.588   5.960  68.433  1.00  0.00    -0.113 A  
HETATM   13  O   UNL     1      -9.672  10.115  67.444  1.00  0.00    -0.154 OA 
HETATM   14  C   UNL     1      -8.671   7.350  68.329  1.00  0.00    -0.122 A  
HETATM   15  C   UNL     1      -9.695   8.030  68.992  1.00  0.00    -0.159 A  
HETATM   16  O   UNL     1      -8.855  10.323  69.823  1.00  0.00    -0.160 OA 
HETATM   17  S   UNL     1      -9.773   9.772  68.846  1.00  0.00    -0.180 S  
ENDROOT
BRANCH  12  18
HETATM   18  S   UNL     1      -7.277   5.144  67.581  1.00  0.00    -0.068 S  
HETATM   19  O   UNL     1      -7.773   3.921  67.002  1.00  0.00    -0.083 OA 
HETATM   20  H1  UNL     1      -5.456   4.251  68.315  1.00  0.00     0.000 HD 
HETATM   21  H2  UNL     1      -6.303   4.899  69.808  1.00  0.00     0.000 HD 
HETATM   22  O   UNL     1      -6.555   6.119  66.795  1.00  0.00    -0.054 OA 
HETATM   23  N   UNL     1      -6.214   4.724  68.807  1.00  0.00    -0.030 N  
ENDBRANCH  12  18
TORSDOF 1
ENDMDL
MODEL       81
REMARK 921   NORMALIZED FREE ENERGY PREDICTED BY IDOCK:   -3.70 KCAL/MOL
REMARK 922        TOTAL FREE ENERGY PREDICTED BY IDOCK:   -4.10 KCAL/MOL
REMARK 923 INTER-LIGAND FREE ENERGY PREDICTED BY IDOCK:   -3.93 KCAL/MOL
REMARK 924 INTRA-LIGAND FREE ENERGY PREDICTED BY IDOCK:   -0.17 KCAL/MOL
REMARK 927      BINDING AFFINITY PREDICTED BY RF-SCORE:    0.00 PKD
ROOT
HETATM    1  C   UNL     1      -7.562  10.352  65.549  1.00  0.00    -0.144 C  
HETATM    2  N   UNL     1      -7.969   9.361  66.569  1.00  0.00    -0.107 N  
HETATM    3  C   UNL     1      -8.140   7.977  66.087  1.00  0.00    -0.111 C  
HETATM    4  C   UNL     1      -6.976   7.518  65.174  1.00  0.00    -0.058 C  
HETATM    5  N   UNL     1      -8.177   7.092  67.255  1.00  0.00    -0.118 NA 
HETATM    6  H   UNL     1      -7.521   6.315  67.329  1.00  0.00     0.000 HD 
HETATM    7 CL   UNL     1      -7.220   5.834  64.607  1.00  0.00    -0.060 Cl 
HETATM    8  C   UNL     1      -9.109   7.316  68.263  1.00  0.00    -0.134 A  
HETATM    9  C   UNL     1      -9.373   6.303  69.198  1.00  0.00    -0.133 A  
HETATM   10  C   UNL     1     -10.251   6.502  70.280  1.00  0.00    -0.192 A  
HETATM   11 CL   UNL     1     -10.517   5.148  71.320  1.00  0.00    -0.275 Cl 
HETATM   12  C   UNL     1     -10.855   7.747  70.454  1.00  0.00    -0.244 A  
HETATM   13  O   UNL     1      -9.014  11.037  68.174  1.00  0.00    -0.140 OA 
HETATM   14  C   UNL     1     -10.569   8.784  69.564  1.00  0.00    -0.224 A  
HETATM   15  C   UNL     1      -9.701   8.554  68.494  1.00  0.00    -0.163 A  
HETATM   16  O   UNL     1     -10.446   9.909  66.430  1.00  0.00    -0.205 OA 
HETATM   17  S   UNL     1      -9.365   9.871  67.393  1.00  0.00    -0.138 S  
ENDROOT
BRANCH  12  18
HETATM   18  S   UNL     1     -11.959   8.083  71.789  1.00  0.00    -0.319 S  
HETATM   19  O   UNL     1     -13.224   7.441  71.536  1.00  0.00    -0.363 OA 
HETATM   20  H1  UNL     1     -12.845   9.933  72.456  1.00  0.00     0.000 HD 
HETATM   21  H2  UNL     1     -11.813  10.395  71.010  1.00  0.00     0.000 HD 
HETATM   22  O   UNL     1     -11.249   7.902  73.035  1.00  0.00    -0.411 OA 
HETATM   23  N   UNL     1     -12.207   9.739  71.685  1.00  0.00    -0.393 N  
ENDBRANCH  12  18
TORSDOF 1
ENDMDL
MODEL       82
REMARK 921   NORMALIZED FREE ENERGY PREDICTED BY IDOCK:   -3.67 KCAL/MOL
REMARK 922        TOTAL FREE ENERGY PREDICTED BY IDOCK:   -4.06 KCAL/MOL
REMARK 923 INTER-LIGAND FREE ENERGY PREDICTED BY IDOCK:   -3.89 KCAL/MOL
REMARK 924 INTRA-LIGAND FREE ENERGY PREDICTED BY IDOCK:   -0.17 KCAL/MOL
REMARK 927      BINDING AFFINITY PREDICTED BY RF-SCORE:    0.00 PKD
ROOT
HETATM    1  C   UNL     1     -11.011   7.608  73.056  1.00  0.00    -0.400 C  
HETATM    2  N   UNL     1     -10.619   7.511  71.632  1.00  0.00    -0.205 N  
HETATM    3  C   UNL     1      -9.802   6.338  71.269  1.00  0.00    -0.175 C  
HETATM    4  C   UNL     1     -10.349   5.022  71.875  1.00  0.00    -0.204 C  
HETATM    5  N   UNL     1      -9.820   6.208  69.809  1.00  0.00    -0.159 NA 
HETATM    6  H   UNL     1     -10.127   5.336  69.377  1.00  0.00     0.000 HD 
HETATM    7 CL   UNL     1      -9.327   3.621  71.415  1.00  0.00    -0.197 Cl 
HETATM    8  C   UNL     1      -9.418   7.277  69.014  1.00  0.00    -0.147 A  
HETATM    9  C   UNL     1      -9.117   7.056  67.662  1.00  0.00    -0.122 A  
HETATM   10  C   UNL     1      -8.778   8.113  66.795  1.00  0.00    -0.135 A  
HETATM   11 CL   UNL     1      -8.381   7.684  65.169  1.00  0.00    -0.128 Cl 
HETATM   12  C   UNL     1      -8.769   9.421  67.278  1.00  0.00    -0.128 A  
HETATM   13  O   UNL     1     -10.852   9.993  71.119  1.00  0.00    -0.260 OA 
HETATM   14  C   UNL     1      -9.114   9.669  68.609  1.00  0.00    -0.132 A  
HETATM   15  C   UNL     1      -9.437   8.599  69.447  1.00  0.00    -0.161 A  
HETATM   16  O   UNL     1      -8.622   9.066  71.849  1.00  0.00    -0.361 OA 
HETATM   17  S   UNL     1      -9.861   8.939  71.110  1.00  0.00    -0.301 S  
ENDROOT
BRANCH  12  18
HETATM   18  S   UNL     1      -8.366  10.803  66.258  1.00  0.00    -0.163 S  
HETATM   19  O   UNL     1      -6.950  10.801  65.989  1.00  0.00    -0.131 OA 
HETATM   20  H1  UNL     1      -8.456  12.921  66.650  1.00  0.00     0.000 HD 
HETATM   21  H2  UNL     1      -9.037  12.127  68.199  1.00  0.00     0.000 HD 
HETATM   22  O   UNL     1      -9.342  10.896  65.195  1.00  0.00    -0.202 OA 
HETATM   23  N   UNL     1      -8.690  12.123  67.240  1.00  0.00    -0.174 N  
ENDBRANCH  12  18
TORSDOF 1
ENDMDL
MODEL       83
REMARK 921   NORMALIZED FREE ENERGY PREDICTED BY IDOCK:   -3.60 KCAL/MOL
REMARK 922        TOTAL FREE ENERGY PREDICTED BY IDOCK:   -4.00 KCAL/MOL
REMARK 923 INTER-LIGAND FREE ENERGY PREDICTED BY IDOCK:   -3.82 KCAL/MOL
REMARK 924 INTRA-LIGAND FREE ENERGY PREDICTED BY IDOCK:   -0.18 KCAL/MOL
REMARK 927      BINDING AFFINITY PREDICTED BY RF-SCORE:    0.00 PKD
ROOT
HETATM    1  C   UNL     1     -11.322   8.986  71.955  1.00  0.00    -0.368 C  
HETATM    2  N   UNL     1     -10.697   8.682  70.649  1.00  0.00    -0.215 N  
HETATM    3  C   UNL     1     -11.154   9.503  69.511  1.00  0.00    -0.142 C  
HETATM    4  C   UNL     1     -11.221  11.011  69.855  1.00  0.00    -0.252 C  
HETATM    5  N   UNL     1     -10.198   9.329  68.414  1.00  0.00    -0.195 NA 
HETATM    6  H   UNL     1      -9.741  10.141  68.000  1.00  0.00     0.000 HD 
HETATM    7 CL   UNL     1     -11.784  11.973  68.450  1.00  0.00    -0.375 Cl 
HETATM    8  C   UNL     1      -9.914   8.052  67.939  1.00  0.00    -0.180 A  
HETATM    9  C   UNL     1      -9.276   7.903  66.699  1.00  0.00    -0.221 A  
HETATM   10  C   UNL     1      -8.899   6.639  66.205  1.00  0.00    -0.149 A  
HETATM   11 CL   UNL     1      -8.168   6.606  64.640  1.00  0.00    -0.081 Cl 
HETATM   12  C   UNL     1      -9.135   5.502  66.977  1.00  0.00    -0.112 A  
HETATM   13  O   UNL     1     -10.025   6.294  71.219  1.00  0.00    -0.178 OA 
HETATM   14  C   UNL     1      -9.726   5.632  68.237  1.00  0.00    -0.160 A  
HETATM   15  C   UNL     1     -10.097   6.898  68.695  1.00  0.00    -0.162 A  
HETATM   16  O   UNL     1     -12.247   6.743  70.110  1.00  0.00    -0.234 OA 
HETATM   17  S   UNL     1     -10.837   7.031  70.275  1.00  0.00    -0.265 S  
ENDROOT
BRANCH  12  18
HETATM   18  S   UNL     1      -8.685   3.884  66.439  1.00  0.00    -0.120 S  
HETATM   19  O   UNL     1      -9.440   3.547  65.258  1.00  0.00    -0.153 OA 
HETATM   20  H1  UNL     1      -8.967   1.957  67.367  1.00  0.00     0.000 HD 
HETATM   21  H2  UNL     1      -9.702   3.162  68.541  1.00  0.00     0.000 HD 
HETATM   22  O   UNL     1      -7.246   3.763  66.482  1.00  0.00    -0.066 OA 
HETATM   23  N   UNL     1      -9.227   2.893  67.679  1.00  0.00    -0.189 N  
ENDBRANCH  12  18
TORSDOF 1
ENDMDL
MODEL       84
REMARK 921   NORMALIZED FREE ENERGY PREDICTED BY IDOCK:   -3.59 KCAL/MOL
REMARK 922        TOTAL FREE ENERGY PREDICTED BY IDOCK:   -3.98 KCAL/MOL
REMARK 923 INTER-LIGAND FREE ENERGY PREDICTED BY IDOCK:   -3.97 KCAL/MOL
REMARK 924 INTRA-LIGAND FREE ENERGY PREDICTED BY IDOCK:   -0.01 KCAL/MOL
REMARK 927      BINDING AFFINITY PREDICTED BY RF-SCORE:    0.00 PKD
ROOT
HETATM    1  C   UNL     1     -11.931   8.074  72.351  1.00  0.00    -0.350 C  
HETATM    2  N   UNL     1     -11.374   7.840  71.000  1.00  0.00    -0.268 N  
HETATM    3  C   UNL     1     -10.359   6.774  70.899  1.00  0.00    -0.199 C  
HETATM    4  C   UNL     1     -10.771   5.487  71.656  1.00  0.00    -0.231 C  
HETATM    5  N   UNL     1     -10.197   6.436  69.483  1.00  0.00    -0.179 NA 
HETATM    6  H   UNL     1     -10.323   5.473  69.168  1.00  0.00     0.000 HD 
HETATM    7 CL   UNL     1      -9.511   4.219  71.514  1.00  0.00    -0.206 Cl 
HETATM    8  C   UNL     1      -9.870   7.431  68.566  1.00  0.00    -0.159 A  
HETATM    9  C   UNL     1      -9.391   7.071  67.297  1.00  0.00    -0.153 A  
HETATM   10  C   UNL     1      -9.117   8.034  66.307  1.00  0.00    -0.186 A  
HETATM   11 CL   UNL     1      -8.484   7.447  64.811  1.00  0.00     0.008 Cl 
HETATM   12  C   UNL     1      -9.353   9.382  66.576  1.00  0.00    -0.171 A  
HETATM   13  O   UNL     1     -11.909  10.153  70.082  1.00  0.00    -0.256 OA 
HETATM   14  C   UNL     1      -9.875   9.758  67.816  1.00  0.00    -0.191 A  
HETATM   15  C   UNL     1     -10.129   8.781  68.781  1.00  0.00    -0.198 A  
HETATM   16  O   UNL     1      -9.662   9.711  71.141  1.00  0.00    -0.163 OA 
HETATM   17  S   UNL     1     -10.780   9.282  70.326  1.00  0.00    -0.260 S  
ENDROOT
BRANCH  12  18
HETATM   18  S   UNL     1      -9.047  10.651  65.389  1.00  0.00    -0.197 S  
HETATM   19  O   UNL     1      -9.673  10.297  64.141  1.00  0.00    -0.303 OA 
HETATM   20  H1  UNL     1      -7.210  11.310  64.471  1.00  0.00     0.000 HD 
HETATM   21  H2  UNL     1      -6.715   9.949  65.598  1.00  0.00     0.000 HD 
HETATM   22  O   UNL     1      -9.267  11.935  66.014  1.00  0.00    -0.222 OA 
HETATM   23  N   UNL     1      -7.387  10.577  65.157  1.00  0.00    -0.082 N  
ENDBRANCH  12  18
TORSDOF 1
ENDMDL
MODEL       85
REMARK 921   NORMALIZED FREE ENERGY PREDICTED BY IDOCK:   -3.58 KCAL/MOL
REMARK 922        TOTAL FREE ENERGY PREDICTED BY IDOCK:   -3.97 KCAL/MOL
REMARK 923 INTER-LIGAND FREE ENERGY PREDICTED BY IDOCK:   -3.84 KCAL/MOL
REMARK 924 INTRA-LIGAND FREE ENERGY PREDICTED BY IDOCK:   -0.12 KCAL/MOL
REMARK 927      BINDING AFFINITY PREDICTED BY RF-SCORE:    0.00 PKD
ROOT
HETATM    1  C   UNL     1      -9.031   2.013  66.727  1.00  0.00    -0.106 C  
HETATM    2  N   UNL     1      -9.464   3.424  66.830  1.00  0.00    -0.175 N  
HETATM    3  C   UNL     1      -9.105   4.291  65.691  1.00  0.00    -0.136 C  
HETATM    4  C   UNL     1      -9.400   3.627  64.323  1.00  0.00    -0.144 C  
HETATM    5  N   UNL     1      -9.907   5.515  65.783  1.00  0.00    -0.367 NA 
HETATM    6  H   UNL     1     -10.495   5.802  65.001  1.00  0.00     0.000 HD 
HETATM    7 CL   UNL     1      -8.947   4.708  62.965  1.00  0.00    -0.139 Cl 
HETATM    8  C   UNL     1      -9.863   6.285  66.942  1.00  0.00    -0.156 A  
HETATM    9  C   UNL     1     -10.349   7.601  66.915  1.00  0.00    -0.388 A  
HETATM   10  C   UNL     1     -10.398   8.398  68.075  1.00  0.00    -0.215 A  
HETATM   11 CL   UNL     1     -10.972  10.015  67.879  1.00  0.00    -0.327 Cl 
HETATM   12  C   UNL     1      -9.982   7.862  69.294  1.00  0.00    -0.190 A  
HETATM   13  O   UNL     1      -9.641   3.469  69.368  1.00  0.00    -0.181 OA 
HETATM   14  C   UNL     1      -9.541   6.538  69.352  1.00  0.00    -0.149 A  
HETATM   15  C   UNL     1      -9.496   5.775  68.183  1.00  0.00    -0.111 A  
HETATM   16  O   UNL     1      -7.488   4.158  68.247  1.00  0.00    -0.063 OA 
HETATM   17  S   UNL     1      -8.935   4.121  68.286  1.00  0.00    -0.127 S  
ENDROOT
BRANCH  12  18
HETATM   18  S   UNL     1     -10.021   8.787  70.795  1.00  0.00    -0.231 S  
HETATM   19  O   UNL     1      -8.877   9.663  70.845  1.00  0.00    -0.206 OA 
HETATM   20  H1  UNL     1      -9.833   8.156  72.848  1.00  0.00     0.000 HD 
HETATM   21  H2  UNL     1      -9.692   6.614  71.862  1.00  0.00     0.000 HD 
HETATM   22  O   UNL     1     -11.364   9.279  71.004  1.00  0.00    -0.271 OA 
HETATM   23  N   UNL     1      -9.812   7.620  71.981  1.00  0.00    -0.163 N  
ENDBRANCH  12  18
TORSDOF 1
ENDMDL
MODEL       86
REMARK 921   NORMALIZED FREE ENERGY PREDICTED BY IDOCK:   -3.48 KCAL/MOL
REMARK 922        TOTAL FREE ENERGY PREDICTED BY IDOCK:   -3.87 KCAL/MOL
REMARK 923 INTER-LIGAND FREE ENERGY PREDICTED BY IDOCK:   -3.86 KCAL/MOL
REMARK 924 INTRA-LIGAND FREE ENERGY PREDICTED BY IDOCK:   -0.01 KCAL/MOL
REMARK 927      BINDING AFFINITY PREDICTED BY RF-SCORE:    0.00 PKD
ROOT
HETATM    1  C   UNL     1      -9.143   5.558  69.267  1.00  0.00    -0.112 C  
HETATM    2  N   UNL     1      -8.809   6.981  69.040  1.00  0.00    -0.135 N  
HETATM    3  C   UNL     1      -8.109   7.661  70.147  1.00  0.00    -0.118 C  
HETATM    4  C   UNL     1      -6.949   6.814  70.726  1.00  0.00    -0.067 C  
HETATM    5  N   UNL     1      -7.543   8.909  69.626  1.00  0.00    -0.070 NA 
HETATM    6  H   UNL     1      -6.545   9.096  69.719  1.00  0.00     0.000 HD 
HETATM    7 CL   UNL     1      -6.127   7.671  72.070  1.00  0.00    -0.039 Cl 
HETATM    8  C   UNL     1      -8.372   9.838  69.005  1.00  0.00    -0.127 A  
HETATM    9  C   UNL     1      -7.915  11.150  68.810  1.00  0.00    -0.144 A  
HETATM   10  C   UNL     1      -8.682  12.109  68.121  1.00  0.00    -0.185 A  
HETATM   11 CL   UNL     1      -8.013  13.697  68.004  1.00  0.00    -0.139 Cl 
HETATM   12  C   UNL     1      -9.918  11.745  67.587  1.00  0.00    -0.194 A  
HETATM   13  O   UNL     1     -10.597   7.402  67.278  1.00  0.00    -0.278 OA 
HETATM   14  C   UNL     1     -10.371  10.431  67.727  1.00  0.00    -0.245 A  
HETATM   15  C   UNL     1      -9.592   9.504  68.423  1.00  0.00    -0.142 A  
HETATM   16  O   UNL     1     -11.099   7.853  69.709  1.00  0.00    -0.196 OA 
HETATM   17  S   UNL     1     -10.186   7.867  68.585  1.00  0.00    -0.203 S  
ENDROOT
BRANCH  12  18
HETATM   18  S   UNL     1     -10.937  12.880  66.702  1.00  0.00    -0.283 S  
HETATM   19  O   UNL     1     -10.155  13.523  65.675  1.00  0.00    -0.291 OA 
HETATM   20  H1  UNL     1     -11.902  14.702  67.336  1.00  0.00     0.000 HD 
HETATM   21  H2  UNL     1     -11.023  14.086  68.825  1.00  0.00     0.000 HD 
HETATM   22  O   UNL     1     -12.200  12.241  66.408  1.00  0.00    -0.613 OA 
HETATM   23  N   UNL     1     -11.313  14.045  67.848  1.00  0.00    -0.276 N  
ENDBRANCH  12  18
TORSDOF 1
ENDMDL
MODEL       87
REMARK 921   NORMALIZED FREE ENERGY PREDICTED BY IDOCK:   -3.48 KCAL/MOL
REMARK 922        TOTAL FREE ENERGY PREDICTED BY IDOCK:   -3.86 KCAL/MOL
REMARK 923 INTER-LIGAND FREE ENERGY PREDICTED BY IDOCK:   -3.85 KCAL/MOL
REMARK 924 INTRA-LIGAND FREE ENERGY PREDICTED BY IDOCK:   -0.01 KCAL/MOL
REMARK 927      BINDING AFFINITY PREDICTED BY RF-SCORE:    0.00 PKD
ROOT
HETATM    1  C   UNL     1      -8.034   7.864  64.161  1.00  0.00    -0.125 C  
HETATM    2  N   UNL     1      -8.851   8.250  65.332  1.00  0.00    -0.124 N  
HETATM    3  C   UNL     1      -9.136   9.692  65.470  1.00  0.00    -0.204 C  
HETATM    4  C   UNL     1      -9.579  10.341  64.135  1.00  0.00    -0.315 C  
HETATM    5  N   UNL     1     -10.228   9.847  66.435  1.00  0.00    -0.239 NA 
HETATM    6  H   UNL     1     -11.076  10.349  66.172  1.00  0.00     0.000 HD 
HETATM    7 CL   UNL     1      -9.911  12.090  64.343  1.00  0.00    -0.274 Cl 
HETATM    8  C   UNL     1     -10.105   9.307  67.712  1.00  0.00    -0.204 A  
HETATM    9  C   UNL     1     -10.977   9.730  68.727  1.00  0.00    -0.185 A  
HETATM   10  C   UNL     1     -10.946   9.163  70.015  1.00  0.00    -0.220 A  
HETATM   11 CL   UNL     1     -12.044   9.820  71.176  1.00  0.00    -0.427 Cl 
HETATM   12  C   UNL     1     -10.048   8.132  70.290  1.00  0.00    -0.192 A  
HETATM   13  O   UNL     1      -8.296   6.202  66.737  1.00  0.00    -0.108 OA 
HETATM   14  C   UNL     1      -9.204   7.663  69.281  1.00  0.00    -0.145 A  
HETATM   15  C   UNL     1      -9.252   8.251  68.015  1.00  0.00    -0.136 A  
HETATM   16  O   UNL     1      -6.900   8.293  66.958  1.00  0.00    -0.067 OA 
HETATM   17  S   UNL     1      -8.182   7.644  66.771  1.00  0.00    -0.127 S  
ENDROOT
BRANCH  12  18
HETATM   18  S   UNL     1      -9.951   7.361  71.874  1.00  0.00    -0.171 S  
HETATM   19  O   UNL     1     -11.278   7.024  72.323  1.00  0.00    -0.246 OA 
HETATM   20  H1  UNL     1      -9.323   8.136  73.786  1.00  0.00     0.000 HD 
HETATM   21  H2  UNL     1      -9.142   9.543  72.620  1.00  0.00     0.000 HD 
HETATM   22  O   UNL     1      -8.885   6.384  71.851  1.00  0.00    -0.138 OA 
HETATM   23  N   UNL     1      -9.379   8.582  72.870  1.00  0.00    -0.205 N  
ENDBRANCH  12  18
TORSDOF 1
ENDMDL
MODEL       88
REMARK 921   NORMALIZED FREE ENERGY PREDICTED BY IDOCK:   -3.48 KCAL/MOL
REMARK 922        TOTAL FREE ENERGY PREDICTED BY IDOCK:   -3.86 KCAL/MOL
REMARK 923 INTER-LIGAND FREE ENERGY PREDICTED BY IDOCK:   -3.73 KCAL/MOL
REMARK 924 INTRA-LIGAND FREE ENERGY PREDICTED BY IDOCK:   -0.13 KCAL/MOL
REMARK 927      BINDING AFFINITY PREDICTED BY RF-SCORE:    0.00 PKD
ROOT
HETATM    1  C   UNL     1      -8.849   4.702  72.566  1.00  0.00    -0.118 C  
HETATM    2  N   UNL     1      -9.098   5.454  71.317  1.00  0.00    -0.141 N  
HETATM    3  C   UNL     1      -8.103   5.265  70.244  1.00  0.00    -0.091 C  
HETATM    4  C   UNL     1      -7.730   3.777  70.034  1.00  0.00    -0.048 C  
HETATM    5  N   UNL     1      -8.681   5.769  68.995  1.00  0.00    -0.112 NA 
HETATM    6  H   UNL     1      -8.744   5.161  68.178  1.00  0.00     0.000 HD 
HETATM    7 CL   UNL     1      -6.517   3.589  68.727  1.00  0.00    -0.032 Cl 
HETATM    8  C   UNL     1      -9.146   7.079  68.927  1.00  0.00    -0.134 A  
HETATM    9  C   UNL     1      -9.385   7.663  67.674  1.00  0.00    -0.158 A  
HETATM   10  C   UNL     1      -9.925   8.957  67.548  1.00  0.00    -0.203 A  
HETATM   11 CL   UNL     1     -10.115   9.564  65.942  1.00  0.00    -0.343 Cl 
HETATM   12  C   UNL     1     -10.264   9.674  68.696  1.00  0.00    -0.189 A  
HETATM   13  O   UNL     1     -10.547   7.261  72.372  1.00  0.00    -0.217 OA 
HETATM   14  C   UNL     1     -10.080   9.093  69.953  1.00  0.00    -0.219 A  
HETATM   15  C   UNL     1      -9.534   7.811  70.045  1.00  0.00    -0.161 A  
HETATM   16  O   UNL     1      -8.058   7.616  72.152  1.00  0.00    -0.097 OA 
HETATM   17  S   UNL     1      -9.313   7.110  71.633  1.00  0.00    -0.151 S  
ENDROOT
BRANCH  12  18
HETATM   18  S   UNL     1     -10.955  11.295  68.628  1.00  0.00    -0.239 S  
HETATM   19  O   UNL     1      -9.905  12.251  68.380  1.00  0.00    -0.213 OA 
HETATM   20  H1  UNL     1     -11.907  12.489  70.150  1.00  0.00     0.000 HD 
HETATM   21  H2  UNL     1     -11.458  10.920  70.989  1.00  0.00     0.000 HD 
HETATM   22  O   UNL     1     -12.154  11.256  67.821  1.00  0.00    -0.631 OA 
HETATM   23  N   UNL     1     -11.508  11.552  70.190  1.00  0.00    -0.232 N  
ENDBRANCH  12  18
TORSDOF 1
ENDMDL
MODEL       89
REMARK 921   NORMALIZED FREE ENERGY PREDICTED BY IDOCK:   -3.46 KCAL/MOL
REMARK 922        TOTAL FREE ENERGY PREDICTED BY IDOCK:   -3.84 KCAL/MOL
REMARK 923 INTER-LIGAND FREE ENERGY PREDICTED BY IDOCK:   -3.84 KCAL/MOL
REMARK 924 INTRA-LIGAND FREE ENERGY PREDICTED BY IDOCK:    0.00 KCAL/MOL
REMARK 927      BINDING AFFINITY PREDICTED BY RF-SCORE:    0.00 PKD
ROOT
HETATM    1  C   UNL     1      -8.315   9.738  68.622  1.00  0.00    -0.111 C  
HETATM    2  N   UNL     1      -8.686  11.162  68.783  1.00  0.00    -0.154 N  
HETATM    3  C   UNL     1     -10.132  11.454  68.769  1.00  0.00    -0.188 C  
HETATM    4  C   UNL     1     -10.946  10.474  69.651  1.00  0.00    -0.283 C  
HETATM    5  N   UNL     1     -10.326  12.807  69.297  1.00  0.00    -0.384 NA 
HETATM    6  H   UNL     1     -10.945  12.963  70.092  1.00  0.00     0.000 HD 
HETATM    7 CL   UNL     1     -12.696  10.859  69.604  1.00  0.00    -0.099 Cl 
HETATM    8  C   UNL     1      -9.663  13.880  68.709  1.00  0.00    -0.093 A  
HETATM    9  C   UNL     1     -10.090  15.189  68.981  1.00  0.00    -0.244 A  
HETATM   10  C   UNL     1      -9.410  16.313  68.473  1.00  0.00    -0.213 A  
HETATM   11 CL   UNL     1     -10.082  17.859  68.848  1.00  0.00    -0.372 Cl 
HETATM   12  C   UNL     1      -8.261  16.130  67.704  1.00  0.00    -0.147 A  
HETATM   13  O   UNL     1      -6.469  12.113  67.972  1.00  0.00    -0.059 OA 
HETATM   14  C   UNL     1      -7.790  14.837  67.462  1.00  0.00    -0.208 A  
HETATM   15  C   UNL     1      -8.491  13.742  67.971  1.00  0.00    -0.176 A  
HETATM   16  O   UNL     1      -8.355  11.753  66.335  1.00  0.00    -0.142 OA 
HETATM   17  S   UNL     1      -7.879  12.135  67.649  1.00  0.00    -0.165 S  
ENDROOT
BRANCH  12  18
HETATM   18  S   UNL     1      -7.344  17.482  67.039  1.00  0.00    -0.207 S  
HETATM   19  O   UNL     1      -6.970  18.376  68.106  1.00  0.00    -0.224 OA 
HETATM   20  H1  UNL     1      -7.935  19.065  65.699  1.00  0.00     0.000 HD 
HETATM   21  H2  UNL     1      -9.444  18.045  65.923  1.00  0.00     0.000 HD 
HETATM   22  O   UNL     1      -6.371  16.968  66.101  1.00  0.00    -0.197 OA 
HETATM   23  N   UNL     1      -8.465  18.283  66.083  1.00  0.00    -0.178 N  
ENDBRANCH  12  18
TORSDOF 1
ENDMDL
MODEL       90
REMARK 921   NORMALIZED FREE ENERGY PREDICTED BY IDOCK:   -3.45 KCAL/MOL
REMARK 922        TOTAL FREE ENERGY PREDICTED BY IDOCK:   -3.83 KCAL/MOL
REMARK 923 INTER-LIGAND FREE ENERGY PREDICTED BY IDOCK:   -3.64 KCAL/MOL
REMARK 924 INTRA-LIGAND FREE ENERGY PREDICTED BY IDOCK:   -0.19 KCAL/MOL
REMARK 927      BINDING AFFINITY PREDICTED BY RF-SCORE:    0.00 PKD
ROOT
HETATM    1  C   UNL     1     -10.805  10.348  70.206  1.00  0.00    -0.242 C  
HETATM    2  N   UNL     1     -10.777   9.107  69.401  1.00  0.00    -0.221 N  
HETATM    3  C   UNL     1     -10.982   7.852  70.149  1.00  0.00    -0.233 C  
HETATM    4  C   UNL     1     -12.160   7.941  71.150  1.00  0.00    -0.276 C  
HETATM    5  N   UNL     1     -11.287   6.793  69.182  1.00  0.00    -0.562 NA 
HETATM    6  H   UNL     1     -12.144   6.248  69.274  1.00  0.00     0.000 HD 
HETATM    7 CL   UNL     1     -12.374   6.400  72.041  1.00  0.00    -0.351 Cl 
HETATM    8  C   UNL     1     -10.405   6.534  68.138  1.00  0.00    -0.187 A  
HETATM    9  C   UNL     1     -10.515   5.332  67.423  1.00  0.00    -0.213 A  
HETATM   10  C   UNL     1      -9.697   5.052  66.311  1.00  0.00    -0.183 A  
HETATM   11 CL   UNL     1      -9.910   3.511  65.561  1.00  0.00    -0.075 Cl 
HETATM   12  C   UNL     1      -8.771   6.004  65.883  1.00  0.00    -0.154 A  
HETATM   13  O   UNL     1      -9.409  10.061  67.479  1.00  0.00    -0.143 OA 
HETATM   14  C   UNL     1      -8.679   7.227  66.551  1.00  0.00    -0.141 A  
HETATM   15  C   UNL     1      -9.497   7.472  67.656  1.00  0.00    -0.138 A  
HETATM   16  O   UNL     1      -8.245   8.906  69.396  1.00  0.00    -0.102 OA 
HETATM   17  S   UNL     1      -9.357   9.012  68.474  1.00  0.00    -0.140 S  
ENDROOT
BRANCH  12  18
HETATM   18  S   UNL     1      -7.716   5.738  64.494  1.00  0.00    -0.102 S  
HETATM   19  O   UNL     1      -6.763   4.705  64.810  1.00  0.00    -0.043 OA 
HETATM   20  H1  UNL     1      -6.260   7.026  63.561  1.00  0.00     0.000 HD 
HETATM   21  H2  UNL     1      -6.946   8.013  64.948  1.00  0.00     0.000 HD 
HETATM   22  O   UNL     1      -8.527   5.686  63.298  1.00  0.00    -0.092 OA 
HETATM   23  N   UNL     1      -6.869   7.180  64.364  1.00  0.00    -0.046 N  
ENDBRANCH  12  18
TORSDOF 1
ENDMDL
MODEL       91
REMARK 921   NORMALIZED FREE ENERGY PREDICTED BY IDOCK:   -3.44 KCAL/MOL
REMARK 922        TOTAL FREE ENERGY PREDICTED BY IDOCK:   -3.82 KCAL/MOL
REMARK 923 INTER-LIGAND FREE ENERGY PREDICTED BY IDOCK:   -3.86 KCAL/MOL
REMARK 924 INTRA-LIGAND FREE ENERGY PREDICTED BY IDOCK:    0.03 KCAL/MOL
REMARK 927      BINDING AFFINITY PREDICTED BY RF-SCORE:    0.00 PKD
ROOT
HETATM    1  C   UNL     1      -6.336   4.010  66.648  1.00  0.00    -0.036 C  
HETATM    2  N   UNL     1      -7.558   4.459  67.350  1.00  0.00    -0.080 N  
HETATM    3  C   UNL     1      -8.742   4.684  66.499  1.00  0.00    -0.111 C  
HETATM    4  C   UNL     1      -8.970   3.537  65.483  1.00  0.00    -0.141 C  
HETATM    5  N   UNL     1      -9.918   4.759  67.371  1.00  0.00    -0.175 NA 
HETATM    6  H   UNL     1     -10.710   4.135  67.217  1.00  0.00     0.000 HD 
HETATM    7 CL   UNL     1     -10.414   3.848  64.466  1.00  0.00    -0.250 Cl 
HETATM    8  C   UNL     1      -9.952   5.684  68.409  1.00  0.00    -0.156 A  
HETATM    9  C   UNL     1     -11.176   5.990  69.023  1.00  0.00    -0.298 A  
HETATM   10  C   UNL     1     -11.257   6.862  70.126  1.00  0.00    -0.313 A  
HETATM   11 CL   UNL     1     -12.837   7.184  70.744  1.00  0.00    -0.193 Cl 
HETATM   12  C   UNL     1     -10.088   7.416  70.649  1.00  0.00    -0.190 A  
HETATM   13  O   UNL     1      -6.363   5.440  69.372  1.00  0.00    -0.031 OA 
HETATM   14  C   UNL     1      -8.854   7.087  70.085  1.00  0.00    -0.145 A  
HETATM   15  C   UNL     1      -8.807   6.227  68.985  1.00  0.00    -0.124 A  
HETATM   16  O   UNL     1      -6.897   6.912  67.394  1.00  0.00    -0.071 OA 
HETATM   17  S   UNL     1      -7.247   5.835  68.297  1.00  0.00    -0.077 S  
ENDROOT
BRANCH  12  18
HETATM   18  S   UNL     1     -10.099   8.508  72.034  1.00  0.00    -0.329 S  
HETATM   19  O   UNL     1      -8.743   8.838  72.393  1.00  0.00    -0.392 OA 
HETATM   20  H1  UNL     1     -10.737   8.198  74.071  1.00  0.00     0.000 HD 
HETATM   21  H2  UNL     1     -11.037   6.594  73.230  1.00  0.00     0.000 HD 
HETATM   22  O   UNL     1     -11.097   9.530  71.813  1.00  0.00    -0.352 OA 
HETATM   23  N   UNL     1     -10.731   7.567  73.270  1.00  0.00    -0.393 N  
ENDBRANCH  12  18
TORSDOF 1
ENDMDL
MODEL       92
REMARK 921   NORMALIZED FREE ENERGY PREDICTED BY IDOCK:   -3.43 KCAL/MOL
REMARK 922        TOTAL FREE ENERGY PREDICTED BY IDOCK:   -3.81 KCAL/MOL
REMARK 923 INTER-LIGAND FREE ENERGY PREDICTED BY IDOCK:   -3.85 KCAL/MOL
REMARK 924 INTRA-LIGAND FREE ENERGY PREDICTED BY IDOCK:    0.04 KCAL/MOL
REMARK 927      BINDING AFFINITY PREDICTED BY RF-SCORE:    0.00 PKD
ROOT
HETATM    1  C   UNL     1      -8.354  17.599  68.725  1.00  0.00    -0.215 C  
HETATM    2  N   UNL     1      -8.771  16.226  68.364  1.00  0.00    -0.197 N  
HETATM    3  C   UNL     1      -9.752  15.595  69.267  1.00  0.00    -0.271 C  
HETATM    4  C   UNL     1     -10.919  16.544  69.635  1.00  0.00    -0.287 C  
HETATM    5  N   UNL     1     -10.315  14.429  68.580  1.00  0.00    -0.242 NA 
HETATM    6  H   UNL     1     -11.324  14.347  68.455  1.00  0.00     0.000 HD 
HETATM    7 CL   UNL     1     -12.087  15.743  70.735  1.00  0.00    -0.430 Cl 
HETATM    8  C   UNL     1      -9.470  13.435  68.098  1.00  0.00    -0.218 A  
HETATM    9  C   UNL     1     -10.002  12.184  67.749  1.00  0.00    -0.198 A  
HETATM   10  C   UNL     1      -9.205  11.169  67.187  1.00  0.00    -0.158 A  
HETATM   11 CL   UNL     1      -9.988   9.665  66.856  1.00  0.00    -0.255 Cl 
HETATM   12  C   UNL     1      -7.854  11.414  66.939  1.00  0.00    -0.158 A  
HETATM   13  O   UNL     1      -6.702  15.667  66.991  1.00  0.00    -0.267 OA 
HETATM   14  C   UNL     1      -7.314  12.668  67.234  1.00  0.00    -0.106 A  
HETATM   15  C   UNL     1      -8.128  13.652  67.799  1.00  0.00    -0.173 A  
HETATM   16  O   UNL     1      -6.771  15.097  69.449  1.00  0.00    -0.136 OA 
HETATM   17  S   UNL     1      -7.423  15.212  68.160  1.00  0.00    -0.124 S  
ENDROOT
BRANCH  12  18
HETATM   18  S   UNL     1      -6.789  10.201  66.229  1.00  0.00    -0.111 S  
HETATM   19  O   UNL     1      -5.504  10.794  65.957  1.00  0.00    -0.093 OA 
HETATM   20  H1  UNL     1      -6.892   9.163  64.341  1.00  0.00     0.000 HD 
HETATM   21  H2  UNL     1      -8.360  10.265  64.358  1.00  0.00     0.000 HD 
HETATM   22  O   UNL     1      -6.916   8.973  66.981  1.00  0.00    -0.076 OA 
HETATM   23  N   UNL     1      -7.508   9.864  64.752  1.00  0.00    -0.131 N  
ENDBRANCH  12  18
TORSDOF 1
ENDMDL
MODEL       93
REMARK 921   NORMALIZED FREE ENERGY PREDICTED BY IDOCK:   -3.41 KCAL/MOL
REMARK 922        TOTAL FREE ENERGY PREDICTED BY IDOCK:   -3.79 KCAL/MOL
REMARK 923 INTER-LIGAND FREE ENERGY PREDICTED BY IDOCK:   -3.64 KCAL/MOL
REMARK 924 INTRA-LIGAND FREE ENERGY PREDICTED BY IDOCK:   -0.15 KCAL/MOL
REMARK 927      BINDING AFFINITY PREDICTED BY RF-SCORE:    0.00 PKD
ROOT
HETATM    1  C   UNL     1      -7.404  11.058  67.113  1.00  0.00    -0.116 C  
HETATM    2  N   UNL     1      -8.440  10.350  67.897  1.00  0.00    -0.114 N  
HETATM    3  C   UNL     1      -9.652  11.131  68.213  1.00  0.00    -0.185 C  
HETATM    4  C   UNL     1     -10.194  11.909  66.988  1.00  0.00    -0.210 C  
HETATM    5  N   UNL     1     -10.692  10.196  68.652  1.00  0.00    -0.211 NA 
HETATM    6  H   UNL     1     -11.595  10.175  68.179  1.00  0.00     0.000 HD 
HETATM    7 CL   UNL     1     -11.662  12.847  67.412  1.00  0.00    -0.415 Cl 
HETATM    8  C   UNL     1     -10.443   9.336  69.717  1.00  0.00    -0.222 A  
HETATM    9  C   UNL     1     -11.517   8.691  70.349  1.00  0.00    -0.151 A  
HETATM   10  C   UNL     1     -11.317   7.755  71.382  1.00  0.00    -0.251 A  
HETATM   11 CL   UNL     1     -12.736   7.080  72.100  1.00  0.00    -0.194 Cl 
HETATM   12  C   UNL     1     -10.018   7.430  71.773  1.00  0.00    -0.171 A  
HETATM   13  O   UNL     1      -6.873   8.632  68.930  1.00  0.00    -0.059 OA 
HETATM   14  C   UNL     1      -8.933   8.024  71.124  1.00  0.00    -0.162 A  
HETATM   15  C   UNL     1      -9.163   8.956  70.109  1.00  0.00    -0.180 A  
HETATM   16  O   UNL     1      -7.349  10.789  70.149  1.00  0.00    -0.119 OA 
HETATM   17  S   UNL     1      -7.785   9.686  69.317  1.00  0.00    -0.104 S  
ENDROOT
BRANCH  12  18
HETATM   18  S   UNL     1      -9.679   6.261  73.049  1.00  0.00    -0.156 S  
HETATM   19  O   UNL     1     -10.295   6.702  74.276  1.00  0.00    -0.361 OA 
HETATM   20  H1  UNL     1      -7.822   5.698  73.991  1.00  0.00     0.000 HD 
HETATM   21  H2  UNL     1      -7.360   6.974  72.756  1.00  0.00     0.000 HD 
HETATM   22  O   UNL     1      -9.890   4.930  72.528  1.00  0.00    -0.149 OA 
HETATM   23  N   UNL     1      -8.018   6.373  73.253  1.00  0.00    -0.104 N  
ENDBRANCH  12  18
TORSDOF 1
ENDMDL
MODEL       94
REMARK 921   NORMALIZED FREE ENERGY PREDICTED BY IDOCK:   -3.38 KCAL/MOL
REMARK 922        TOTAL FREE ENERGY PREDICTED BY IDOCK:   -3.76 KCAL/MOL
REMARK 923 INTER-LIGAND FREE ENERGY PREDICTED BY IDOCK:   -3.57 KCAL/MOL
REMARK 924 INTRA-LIGAND FREE ENERGY PREDICTED BY IDOCK:   -0.19 KCAL/MOL
REMARK 927      BINDING AFFINITY PREDICTED BY RF-SCORE:    0.00 PKD
ROOT
HETATM    1  C   UNL     1      -7.354  14.937  67.484  1.00  0.00    -0.204 C  
HETATM    2  N   UNL     1      -8.074  13.653  67.331  1.00  0.00    -0.180 N  
HETATM    3  C   UNL     1      -9.388  13.572  67.997  1.00  0.00    -0.213 C  
HETATM    4  C   UNL     1     -10.258  14.829  67.751  1.00  0.00    -0.232 C  
HETATM    5  N   UNL     1     -10.101  12.413  67.451  1.00  0.00    -0.201 NA 
HETATM    6  H   UNL     1     -11.026  12.530  67.035  1.00  0.00     0.000 HD 
HETATM    7 CL   UNL     1     -11.844  14.694  68.578  1.00  0.00    -0.358 Cl 
HETATM    8  C   UNL     1      -9.514  11.153  67.500  1.00  0.00    -0.168 A  
HETATM    9  C   UNL     1     -10.305  10.013  67.294  1.00  0.00    -0.293 A  
HETATM   10  C   UNL     1      -9.750   8.720  67.260  1.00  0.00    -0.183 A  
HETATM   11 CL   UNL     1     -10.854   7.408  67.049  1.00  0.00    -0.402 Cl 
HETATM   12  C   UNL     1      -8.371   8.560  67.402  1.00  0.00    -0.120 A  
HETATM   13  O   UNL     1      -6.013  12.241  66.848  1.00  0.00    -0.251 OA 
HETATM   14  C   UNL     1      -7.559   9.685  67.559  1.00  0.00    -0.095 A  
HETATM   15  C   UNL     1      -8.140  10.955  67.599  1.00  0.00    -0.115 A  
HETATM   16  O   UNL     1      -6.841  12.484  69.219  1.00  0.00    -0.091 OA 
HETATM   17  S   UNL     1      -7.097  12.345  67.800  1.00  0.00    -0.136 S  
ENDROOT
BRANCH  12  18
HETATM   18  S   UNL     1      -7.594   6.978  67.360  1.00  0.00    -0.111 S  
HETATM   19  O   UNL     1      -7.968   6.231  68.534  1.00  0.00    -0.103 OA 
HETATM   20  H1  UNL     1      -5.512   6.424  67.471  1.00  0.00     0.000 HD 
HETATM   21  H2  UNL     1      -5.523   8.256  67.580  1.00  0.00     0.000 HD 
HETATM   22  O   UNL     1      -7.733   6.426  66.031  1.00  0.00    -0.088 OA 
HETATM   23  N   UNL     1      -5.962   7.339  67.495  1.00  0.00    -0.032 N  
ENDBRANCH  12  18
TORSDOF 1
ENDMDL
MODEL       95
REMARK 921   NORMALIZED FREE ENERGY PREDICTED BY IDOCK:   -3.37 KCAL/MOL
REMARK 922        TOTAL FREE ENERGY PREDICTED BY IDOCK:   -3.75 KCAL/MOL
REMARK 923 INTER-LIGAND FREE ENERGY PREDICTED BY IDOCK:   -3.56 KCAL/MOL
REMARK 924 INTRA-LIGAND FREE ENERGY PREDICTED BY IDOCK:   -0.18 KCAL/MOL
REMARK 927      BINDING AFFINITY PREDICTED BY RF-SCORE:    0.00 PKD
ROOT
HETATM    1  C   UNL     1      -6.181   9.411  67.795  1.00  0.00    -0.054 C  
HETATM    2  N   UNL     1      -7.074   8.660  68.706  1.00  0.00    -0.063 N  
HETATM    3  C   UNL     1      -7.102   7.197  68.516  1.00  0.00    -0.081 C  
HETATM    4  C   UNL     1      -5.686   6.590  68.361  1.00  0.00    -0.016 C  
HETATM    5  N   UNL     1      -7.726   6.599  69.699  1.00  0.00    -0.104 NA 
HETATM    6  H   UNL     1      -7.230   5.885  70.233  1.00  0.00     0.000 HD 
HETATM    7 CL   UNL     1      -5.763   4.814  68.128  1.00  0.00    -0.016 Cl 
HETATM    8  C   UNL     1      -8.996   7.008  70.094  1.00  0.00    -0.145 A  
HETATM    9  C   UNL     1      -9.724   6.223  71.001  1.00  0.00    -0.196 A  
HETATM   10  C   UNL     1     -10.981   6.626  71.490  1.00  0.00    -0.247 A  
HETATM   11 CL   UNL     1     -11.782   5.533  72.561  1.00  0.00    -0.290 Cl 
HETATM   12  C   UNL     1     -11.511   7.854  71.091  1.00  0.00    -0.273 A  
HETATM   13  O   UNL     1      -8.614  10.613  69.246  1.00  0.00    -0.151 OA 
HETATM   14  C   UNL     1     -10.782   8.673  70.227  1.00  0.00    -0.243 A  
HETATM   15  C   UNL     1      -9.542   8.241  69.751  1.00  0.00    -0.171 A  
HETATM   16  O   UNL     1      -9.174   9.064  67.335  1.00  0.00    -0.136 OA 
HETATM   17  S   UNL     1      -8.652   9.288  68.667  1.00  0.00    -0.128 S  
ENDROOT
BRANCH  12  18
HETATM   18  S   UNL     1     -13.073   8.439  71.664  1.00  0.00    -0.318 S  
HETATM   19  O   UNL     1     -14.116   7.567  71.183  1.00  0.00    -0.332 OA 
HETATM   20  H1  UNL     1     -14.154  10.250  71.214  1.00  0.00     0.000 HD 
HETATM   21  H2  UNL     1     -12.607  10.363  70.231  1.00  0.00     0.000 HD 
HETATM   22  O   UNL     1     -12.956   8.784  73.063  1.00  0.00    -0.286 OA 
HETATM   23  N   UNL     1     -13.250   9.912  70.883  1.00  0.00    -0.311 N  
ENDBRANCH  12  18
TORSDOF 1
ENDMDL
MODEL       96
REMARK 921   NORMALIZED FREE ENERGY PREDICTED BY IDOCK:   -3.32 KCAL/MOL
REMARK 922        TOTAL FREE ENERGY PREDICTED BY IDOCK:   -3.69 KCAL/MOL
REMARK 923 INTER-LIGAND FREE ENERGY PREDICTED BY IDOCK:   -4.04 KCAL/MOL
REMARK 924 INTRA-LIGAND FREE ENERGY PREDICTED BY IDOCK:    0.35 KCAL/MOL
REMARK 927      BINDING AFFINITY PREDICTED BY RF-SCORE:    0.00 PKD
ROOT
HETATM    1  C   UNL     1      -7.561  11.599  66.646  1.00  0.00    -0.050 C  
HETATM    2  N   UNL     1      -8.056  10.853  67.824  1.00  0.00    -0.114 N  
HETATM    3  C   UNL     1      -7.650   9.437  67.903  1.00  0.00    -0.087 C  
HETATM    4  C   UNL     1      -6.146   9.231  67.598  1.00  0.00    -0.054 C  
HETATM    5  N   UNL     1      -7.904   8.969  69.269  1.00  0.00    -0.093 NA 
HETATM    6  H   UNL     1      -7.149   8.561  69.819  1.00  0.00     0.000 HD 
HETATM    7 CL   UNL     1      -5.693   7.499  67.701  1.00  0.00    -0.034 Cl 
HETATM    8  C   UNL     1      -9.180   9.084  69.814  1.00  0.00    -0.167 A  
HETATM    9  C   UNL     1      -9.508   8.351  70.964  1.00  0.00    -0.212 A  
HETATM   10  C   UNL     1     -10.757   8.486  71.599  1.00  0.00    -0.281 A  
HETATM   11 CL   UNL     1     -11.039   7.482  72.976  1.00  0.00    -0.423 Cl 
HETATM   12  C   UNL     1     -11.689   9.395  71.095  1.00  0.00    -0.345 A  
HETATM   13  O   UNL     1     -10.049  12.367  68.287  1.00  0.00    -0.217 OA 
HETATM   14  C   UNL     1     -11.364  10.170  69.980  1.00  0.00    -0.351 A  
HETATM   15  C   UNL     1     -10.120  10.007  69.366  1.00  0.00    -0.219 A  
HETATM   16  O   UNL     1     -10.330  10.336  66.817  1.00  0.00    -0.221 OA 
HETATM   17  S   UNL     1      -9.743  10.989  67.969  1.00  0.00    -0.177 S  
ENDROOT
BRANCH  12  18
HETATM   18  S   UNL     1     -13.272   9.633  71.836  1.00  0.00    -0.465 S  
HETATM   19  O   UNL     1     -14.299   9.254  70.899  1.00  0.00     0.025 OA 
HETATM   20  H1  UNL     1     -14.280  11.433  72.464  1.00  0.00     0.000 HD 
HETATM   21  H2  UNL     1     -12.670  12.001  71.789  1.00  0.00     0.000 HD 
HETATM   22  O   UNL     1     -13.239   9.108  73.182  1.00  0.00    -0.151 OA 
HETATM   23  N   UNL     1     -13.365  11.295  72.036  1.00  0.00    -0.408 N  
ENDBRANCH  12  18
TORSDOF 1
ENDMDL
MODEL       97
REMARK 921   NORMALIZED FREE ENERGY PREDICTED BY IDOCK:   -3.30 KCAL/MOL
REMARK 922        TOTAL FREE ENERGY PREDICTED BY IDOCK:   -3.68 KCAL/MOL
REMARK 923 INTER-LIGAND FREE ENERGY PREDICTED BY IDOCK:   -3.68 KCAL/MOL
REMARK 924 INTRA-LIGAND FREE ENERGY PREDICTED BY IDOCK:   -0.00 KCAL/MOL
REMARK 927      BINDING AFFINITY PREDICTED BY RF-SCORE:    0.00 PKD
ROOT
HETATM    1  C   UNL     1      -8.541  10.743  65.627  1.00  0.00    -0.180 C  
HETATM    2  N   UNL     1      -8.810  10.339  67.025  1.00  0.00    -0.136 N  
HETATM    3  C   UNL     1      -7.952  10.963  68.050  1.00  0.00    -0.109 C  
HETATM    4  C   UNL     1      -7.790  12.489  67.843  1.00  0.00    -0.144 C  
HETATM    5  N   UNL     1      -8.578  10.746  69.358  1.00  0.00    -0.375 NA 
HETATM    6  H   UNL     1      -8.792  11.541  69.960  1.00  0.00     0.000 HD 
HETATM    7 CL   UNL     1      -6.738  13.209  69.104  1.00  0.00    -0.105 Cl 
HETATM    8  C   UNL     1      -8.879   9.453  69.775  1.00  0.00    -0.183 A  
HETATM    9  C   UNL     1      -9.159   9.212  71.129  1.00  0.00    -0.275 A  
HETATM   10  C   UNL     1      -9.542   7.939  71.592  1.00  0.00    -0.163 A  
HETATM   11 CL   UNL     1      -9.805   7.781  73.292  1.00  0.00    -0.352 Cl 
HETATM   12  C   UNL     1      -9.679   6.890  70.683  1.00  0.00    -0.175 A  
HETATM   13  O   UNL     1      -9.915   8.118  66.458  1.00  0.00    -0.256 OA 
HETATM   14  C   UNL     1      -9.452   7.120  69.324  1.00  0.00    -0.152 A  
HETATM   15  C   UNL     1      -9.065   8.391  68.896  1.00  0.00    -0.147 A  
HETATM   16  O   UNL     1      -7.434   8.207  66.906  1.00  0.00    -0.088 OA 
HETATM   17  S   UNL     1      -8.785   8.648  67.188  1.00  0.00    -0.129 S  
ENDROOT
BRANCH  12  18
HETATM   18  S   UNL     1     -10.164   5.268  71.178  1.00  0.00    -0.220 S  
HETATM   19  O   UNL     1     -11.398   5.344  71.918  1.00  0.00    -0.137 OA 
HETATM   20  H1  UNL     1      -9.242   3.872  72.539  1.00  0.00     0.000 HD 
HETATM   21  H2  UNL     1      -8.143   5.342  72.549  1.00  0.00     0.000 HD 
HETATM   22  O   UNL     1     -10.006   4.372  70.054  1.00  0.00    -0.223 OA 
HETATM   23  N   UNL     1      -8.961   4.810  72.252  1.00  0.00    -0.126 N  
ENDBRANCH  12  18
TORSDOF 1
ENDMDL
MODEL       98
REMARK 921   NORMALIZED FREE ENERGY PREDICTED BY IDOCK:   -3.19 KCAL/MOL
REMARK 922        TOTAL FREE ENERGY PREDICTED BY IDOCK:   -3.56 KCAL/MOL
REMARK 923 INTER-LIGAND FREE ENERGY PREDICTED BY IDOCK:   -3.59 KCAL/MOL
REMARK 924 INTRA-LIGAND FREE ENERGY PREDICTED BY IDOCK:    0.04 KCAL/MOL
REMARK 927      BINDING AFFINITY PREDICTED BY RF-SCORE:    0.00 PKD
ROOT
HETATM    1  C   UNL     1      -9.083   9.845  63.671  1.00  0.00    -0.259 C  
HETATM    2  N   UNL     1      -9.481   9.653  65.083  1.00  0.00    -0.270 N  
HETATM    3  C   UNL     1      -9.546  10.877  65.904  1.00  0.00    -0.216 C  
HETATM    4  C   UNL     1     -10.275  12.038  65.183  1.00  0.00    -0.276 C  
HETATM    5  N   UNL     1     -10.291  10.563  67.126  1.00  0.00    -0.222 NA 
HETATM    6  H   UNL     1     -11.115  11.109  67.378  1.00  0.00     0.000 HD 
HETATM    7 CL   UNL     1     -10.329  13.508  66.210  1.00  0.00    -0.287 Cl 
HETATM    8  C   UNL     1      -9.871   9.518  67.943  1.00  0.00    -0.156 A  
HETATM    9  C   UNL     1     -10.361   9.426  69.255  1.00  0.00    -0.217 A  
HETATM   10  C   UNL     1     -10.028   8.349  70.098  1.00  0.00    -0.187 A  
HETATM   11 CL   UNL     1     -10.664   8.397  71.703  1.00  0.00    -0.310 Cl 
HETATM   12  C   UNL     1      -9.214   7.325  69.615  1.00  0.00    -0.143 A  
HETATM   13  O   UNL     1      -8.787   7.209  65.231  1.00  0.00     0.009 OA 
HETATM   14  C   UNL     1      -8.755   7.371  68.296  1.00  0.00    -0.122 A  
HETATM   15  C   UNL     1      -9.095   8.457  67.487  1.00  0.00    -0.134 A  
HETATM   16  O   UNL     1      -7.155   9.019  65.883  1.00  0.00    -0.086 OA 
HETATM   17  S   UNL     1      -8.502   8.489  65.841  1.00  0.00    -0.162 S  
ENDROOT
BRANCH  12  18
HETATM   18  S   UNL     1      -8.757   5.935  70.601  1.00  0.00    -0.138 S  
HETATM   19  O   UNL     1      -7.943   5.041  69.818  1.00  0.00    -0.072 OA 
HETATM   20  H1  UNL     1      -9.954   4.359  71.459  1.00  0.00     0.000 HD 
HETATM   21  H2  UNL     1     -11.148   5.432  70.570  1.00  0.00     0.000 HD 
HETATM   22  O   UNL     1      -8.336   6.406  71.901  1.00  0.00    -0.116 OA 
HETATM   23  N   UNL     1     -10.218   5.162  70.889  1.00  0.00    -0.229 N  
ENDBRANCH  12  18
TORSDOF 1
ENDMDL
MODEL       99
REMARK 921   NORMALIZED FREE ENERGY PREDICTED BY IDOCK:   -3.17 KCAL/MOL
REMARK 922        TOTAL FREE ENERGY PREDICTED BY IDOCK:   -3.54 KCAL/MOL
REMARK 923 INTER-LIGAND FREE ENERGY PREDICTED BY IDOCK:   -3.57 KCAL/MOL
REMARK 924 INTRA-LIGAND FREE ENERGY PREDICTED BY IDOCK:    0.03 KCAL/MOL
REMARK 927      BINDING AFFINITY PREDICTED BY RF-SCORE:    0.00 PKD
ROOT
HETATM    1  C   UNL     1      -7.397  10.103  63.539  1.00  0.00    -0.127 C  
HETATM    2  N   UNL     1      -7.733   9.306  64.740  1.00  0.00    -0.107 N  
HETATM    3  C   UNL     1      -8.142   7.911  64.491  1.00  0.00    -0.114 C  
HETATM    4  C   UNL     1      -7.215   7.190  63.482  1.00  0.00    -0.075 C  
HETATM    5  N   UNL     1      -8.077   7.186  65.764  1.00  0.00    -0.122 NA 
HETATM    6  H   UNL     1      -7.512   6.341  65.843  1.00  0.00     0.000 HD 
HETATM    7 CL   UNL     1      -7.746   5.500  63.203  1.00  0.00    -0.076 Cl 
HETATM    8  C   UNL     1      -8.789   7.655  66.864  1.00  0.00    -0.131 A  
HETATM    9  C   UNL     1      -9.000   6.808  67.962  1.00  0.00    -0.117 A  
HETATM   10  C   UNL     1      -9.648   7.253  69.130  1.00  0.00    -0.155 A  
HETATM   11 CL   UNL     1      -9.884   6.084  70.379  1.00  0.00    -0.211 Cl 
HETATM   12  C   UNL     1     -10.066   8.581  69.219  1.00  0.00    -0.202 A  
HETATM   13  O   UNL     1      -8.283  11.291  66.236  1.00  0.00    -0.169 OA 
HETATM   14  C   UNL     1      -9.822   9.455  68.157  1.00  0.00    -0.183 A  
HETATM   15  C   UNL     1      -9.186   8.981  67.008  1.00  0.00    -0.136 A  
HETATM   16  O   UNL     1     -10.116  10.167  64.915  1.00  0.00    -0.330 OA 
HETATM   17  S   UNL     1      -8.896  10.098  65.693  1.00  0.00    -0.175 S  
ENDROOT
BRANCH  12  18
HETATM   18  S   UNL     1     -10.875   9.223  70.649  1.00  0.00    -0.304 S  
HETATM   19  O   UNL     1     -11.115  10.633  70.469  1.00  0.00    -0.276 OA 
HETATM   20  H1  UNL     1     -10.191   9.431  72.683  1.00  0.00     0.000 HD 
HETATM   21  H2  UNL     1      -8.780   8.679  71.783  1.00  0.00     0.000 HD 
HETATM   22  O   UNL     1     -11.932   8.315  71.032  1.00  0.00    -0.296 OA 
HETATM   23  N   UNL     1      -9.724   9.060  71.857  1.00  0.00    -0.266 N  
ENDBRANCH  12  18
TORSDOF 1
ENDMDL
MODEL      100
REMARK 921   NORMALIZED FREE ENERGY PREDICTED BY IDOCK:   -3.11 KCAL/MOL
REMARK 922        TOTAL FREE ENERGY PREDICTED BY IDOCK:   -3.47 KCAL/MOL
REMARK 923 INTER-LIGAND FREE ENERGY PREDICTED BY IDOCK:   -3.54 KCAL/MOL
REMARK 924 INTRA-LIGAND FREE ENERGY PREDICTED BY IDOCK:    0.07 KCAL/MOL
REMARK 927      BINDING AFFINITY PREDICTED BY RF-SCORE:    0.00 PKD
ROOT
HETATM    1  C   UNL     1     -13.994   9.160  72.891  1.00  0.00     0.014 C  
HETATM    2  N   UNL     1     -12.784   8.918  72.075  1.00  0.00    -0.365 N  
HETATM    3  C   UNL     1     -12.526   9.897  71.001  1.00  0.00    -0.346 C  
HETATM    4  C   UNL     1     -12.697  11.361  71.478  1.00  0.00    -0.357 C  
HETATM    5  N   UNL     1     -11.141   9.724  70.554  1.00  0.00    -0.296 NA 
HETATM    6  H   UNL     1     -10.498  10.516  70.564  1.00  0.00     0.000 HD 
HETATM    7 CL   UNL     1     -12.381  12.519  70.146  1.00  0.00    -0.266 Cl 
HETATM    8  C   UNL     1     -10.707   8.478  70.114  1.00  0.00    -0.235 A  
HETATM    9  C   UNL     1      -9.512   8.381  69.384  1.00  0.00    -0.158 A  
HETATM   10  C   UNL     1      -8.988   7.138  68.980  1.00  0.00    -0.134 A  
HETATM   11 CL   UNL     1      -7.538   7.177  68.042  1.00  0.00    -0.109 Cl 
HETATM   12  C   UNL     1      -9.651   5.964  69.338  1.00  0.00    -0.138 A  
HETATM   13  O   UNL     1     -12.629   6.423  72.553  1.00  0.00     0.004 OA 
HETATM   14  C   UNL     1     -10.815   6.035  70.106  1.00  0.00    -0.409 A  
HETATM   15  C   UNL     1     -11.316   7.283  70.485  1.00  0.00    -0.280 A  
HETATM   16  O   UNL     1     -13.894   7.237  70.528  1.00  0.00     0.444 OA 
HETATM   17  S   UNL     1     -12.777   7.340  71.445  1.00  0.00    -0.371 S  
ENDROOT
BRANCH  12  18
HETATM   18  S   UNL     1      -9.058   4.367  68.882  1.00  0.00    -0.135 S  
HETATM   19  O   UNL     1      -9.721   3.937  67.677  1.00  0.00    -0.179 OA 
HETATM   20  H1  UNL     1      -9.248   2.456  69.864  1.00  0.00     0.000 HD 
HETATM   21  H2  UNL     1     -10.130   3.641  70.954  1.00  0.00     0.000 HD 
HETATM   22  O   UNL     1      -7.617   4.354  69.002  1.00  0.00    -0.055 OA 
HETATM   23  N   UNL     1      -9.591   3.380  70.128  1.00  0.00    -0.173 N  
ENDBRANCH  12  18
TORSDOF 1
ENDMDL
MODEL      101
REMARK 921   NORMALIZED FREE ENERGY PREDICTED BY IDOCK:   -3.07 KCAL/MOL
REMARK 922        TOTAL FREE ENERGY PREDICTED BY IDOCK:   -3.43 KCAL/MOL
REMARK 923 INTER-LIGAND FREE ENERGY PREDICTED BY IDOCK:   -3.27 KCAL/MOL
REMARK 924 INTRA-LIGAND FREE ENERGY PREDICTED BY IDOCK:   -0.17 KCAL/MOL
REMARK 927      BINDING AFFINITY PREDICTED BY RF-SCORE:    0.00 PKD
ROOT
HETATM    1  C   UNL     1      -7.604  13.591  67.524  1.00  0.00    -0.167 C  
HETATM    2  N   UNL     1      -8.286  12.303  67.273  1.00  0.00    -0.175 N  
HETATM    3  C   UNL     1      -9.708  12.242  67.663  1.00  0.00    -0.194 C  
HETATM    4  C   UNL     1     -10.504  13.490  67.206  1.00  0.00    -0.248 C  
HETATM    5  N   UNL     1     -10.303  11.065  67.024  1.00  0.00    -0.218 NA 
HETATM    6  H   UNL     1     -11.125  11.166  66.428  1.00  0.00     0.000 HD 
HETATM    7 CL   UNL     1     -12.224  13.381  67.702  1.00  0.00    -0.291 Cl 
HETATM    8  C   UNL     1      -9.744   9.808  67.233  1.00  0.00    -0.169 A  
HETATM    9  C   UNL     1     -10.485   8.661  66.910  1.00  0.00    -0.329 A  
HETATM   10  C   UNL     1      -9.941   7.367  67.031  1.00  0.00    -0.231 A  
HETATM   11 CL   UNL     1     -10.988   6.048  66.647  1.00  0.00    -0.318 Cl 
HETATM   12  C   UNL     1      -8.620   7.215  67.452  1.00  0.00    -0.121 A  
HETATM   13  O   UNL     1      -6.178  10.877  67.260  1.00  0.00    -0.057 OA 
HETATM   14  C   UNL     1      -7.849   8.345  67.732  1.00  0.00    -0.107 A  
HETATM   15  C   UNL     1      -8.419   9.615  67.612  1.00  0.00    -0.125 A  
HETATM   16  O   UNL     1      -7.463  11.199  69.408  1.00  0.00    -0.106 OA 
HETATM   17  S   UNL     1      -7.430  11.012  67.971  1.00  0.00    -0.094 S  
ENDROOT
BRANCH  12  18
HETATM   18  S   UNL     1      -7.859   5.633  67.620  1.00  0.00    -0.098 S  
HETATM   19  O   UNL     1      -8.569   4.864  68.610  1.00  0.00    -0.093 OA 
HETATM   20  H1  UNL     1      -5.907   5.075  68.349  1.00  0.00     0.000 HD 
HETATM   21  H2  UNL     1      -5.959   6.905  68.483  1.00  0.00     0.000 HD 
HETATM   22  O   UNL     1      -7.584   5.107  66.302  1.00  0.00    -0.086 OA 
HETATM   23  N   UNL     1      -6.347   5.990  68.252  1.00  0.00    -0.042 N  
ENDBRANCH  12  18
TORSDOF 1
ENDMDL
MODEL      102
REMARK 921   NORMALIZED FREE ENERGY PREDICTED BY IDOCK:   -3.02 KCAL/MOL
REMARK 922        TOTAL FREE ENERGY PREDICTED BY IDOCK:   -3.38 KCAL/MOL
REMARK 923 INTER-LIGAND FREE ENERGY PREDICTED BY IDOCK:   -3.28 KCAL/MOL
REMARK 924 INTRA-LIGAND FREE ENERGY PREDICTED BY IDOCK:   -0.10 KCAL/MOL
REMARK 927      BINDING AFFINITY PREDICTED BY RF-SCORE:    0.00 PKD
ROOT
HETATM    1  C   UNL     1     -12.908  13.759  69.707  1.00  0.00     0.353 C  
HETATM    2  N   UNL     1     -11.542  14.042  69.214  1.00  0.00    -0.287 N  
HETATM    3  C   UNL     1     -10.543  12.981  69.446  1.00  0.00     0.276 C  
HETATM    4  C   UNL     1     -11.076  11.572  69.086  1.00  0.00    -0.259 C  
HETATM    5  N   UNL     1      -9.382  13.258  68.595  1.00  0.00    -0.391 NA 
HETATM    6  H   UNL     1      -9.049  12.553  67.938  1.00  0.00     0.000 HD 
HETATM    7 CL   UNL     1      -9.836  10.312  69.385  1.00  0.00    -0.240 Cl 
HETATM    8  C   UNL     1      -8.736  14.487  68.686  1.00  0.00    -0.172 A  
HETATM    9  C   UNL     1      -7.453  14.635  68.136  1.00  0.00    -0.125 A  
HETATM   10  C   UNL     1      -6.785  15.874  68.133  1.00  0.00    -0.123 A  
HETATM   11 CL   UNL     1      -5.191  15.893  67.468  1.00  0.00    -0.121 Cl 
HETATM   12  C   UNL     1      -7.421  16.998  68.662  1.00  0.00    -0.229 A  
HETATM   13  O   UNL     1     -11.771  16.577  69.221  1.00  0.00    -0.098 OA 
HETATM   14  C   UNL     1      -8.716  16.884  69.170  1.00  0.00    -0.060 A  
HETATM   15  C   UNL     1      -9.350  15.639  69.167  1.00  0.00    -0.252 A  
HETATM   16  O   UNL     1     -10.850  15.393  71.251  1.00  0.00    -0.288 OA 
HETATM   17  S   UNL     1     -10.972  15.526  69.813  1.00  0.00    -0.324 S  
ENDROOT
BRANCH  12  18
HETATM   18  S   UNL     1      -6.659  18.589  68.688  1.00  0.00    -0.255 S  
HETATM   19  O   UNL     1      -5.777  18.678  69.825  1.00  0.00    -0.227 OA 
HETATM   20  H1  UNL     1      -7.502  20.553  68.982  1.00  0.00     0.000 HD 
HETATM   21  H2  UNL     1      -8.928  19.403  69.090  1.00  0.00     0.000 HD 
HETATM   22  O   UNL     1      -6.213  18.913  67.352  1.00  0.00    -0.178 OA 
HETATM   23  N   UNL     1      -7.942  19.633  68.966  1.00  0.00    -0.282 N  
ENDBRANCH  12  18
TORSDOF 1
ENDMDL
MODEL      103
REMARK 921   NORMALIZED FREE ENERGY PREDICTED BY IDOCK:   -3.02 KCAL/MOL
REMARK 922        TOTAL FREE ENERGY PREDICTED BY IDOCK:   -3.38 KCAL/MOL
REMARK 923 INTER-LIGAND FREE ENERGY PREDICTED BY IDOCK:   -3.37 KCAL/MOL
REMARK 924 INTRA-LIGAND FREE ENERGY PREDICTED BY IDOCK:   -0.00 KCAL/MOL
REMARK 927      BINDING AFFINITY PREDICTED BY RF-SCORE:    0.00 PKD
ROOT
HETATM    1  C   UNL     1      -8.737   9.440  70.482  1.00  0.00    -0.231 C  
HETATM    2  N   UNL     1      -9.257   8.548  69.422  1.00  0.00    -0.153 N  
HETATM    3  C   UNL     1     -10.274   7.568  69.849  1.00  0.00    -0.210 C  
HETATM    4  C   UNL     1     -11.365   8.198  70.750  1.00  0.00    -0.270 C  
HETATM    5  N   UNL     1     -10.927   7.041  68.648  1.00  0.00    -0.442 NA 
HETATM    6  H   UNL     1     -11.940   7.101  68.547  1.00  0.00     0.000 HD 
HETATM    7 CL   UNL     1     -12.579   6.976  71.251  1.00  0.00    -0.425 Cl 
HETATM    8  C   UNL     1     -10.160   6.457  67.643  1.00  0.00    -0.151 A  
HETATM    9  C   UNL     1     -10.786   5.665  66.669  1.00  0.00    -0.339 A  
HETATM   10  C   UNL     1     -10.070   5.113  65.589  1.00  0.00     0.012 A  
HETATM   11 CL   UNL     1     -10.963   4.117  64.497  1.00  0.00    -0.200 Cl 
HETATM   12  C   UNL     1      -8.707   5.381  65.460  1.00  0.00    -0.154 A  
HETATM   13  O   UNL     1      -7.246   8.763  67.877  1.00  0.00    -0.081 OA 
HETATM   14  C   UNL     1      -8.074   6.207  66.392  1.00  0.00    -0.111 A  
HETATM   15  C   UNL     1      -8.809   6.733  67.457  1.00  0.00    -0.117 A  
HETATM   16  O   UNL     1      -7.336   6.892  69.568  1.00  0.00    -0.085 OA 
HETATM   17  S   UNL     1      -7.989   7.761  68.610  1.00  0.00    -0.123 S  
ENDROOT
BRANCH  12  18
HETATM   18  S   UNL     1      -7.739   4.738  64.133  1.00  0.00    -0.083 S  
HETATM   19  O   UNL     1      -8.351   5.097  62.879  1.00  0.00    -0.102 OA 
HETATM   20  H1  UNL     1      -7.330   2.705  63.540  1.00  0.00     0.000 HD 
HETATM   21  H2  UNL     1      -8.415   2.561  65.014  1.00  0.00     0.000 HD 
HETATM   22  O   UNL     1      -6.344   5.005  64.403  1.00  0.00    -0.031 OA 
HETATM   23  N   UNL     1      -7.890   3.077  64.308  1.00  0.00    -0.077 N  
ENDBRANCH  12  18
TORSDOF 1
ENDMDL
MODEL      104
REMARK 921   NORMALIZED FREE ENERGY PREDICTED BY IDOCK:   -2.90 KCAL/MOL
REMARK 922        TOTAL FREE ENERGY PREDICTED BY IDOCK:   -3.25 KCAL/MOL
REMARK 923 INTER-LIGAND FREE ENERGY PREDICTED BY IDOCK:   -3.31 KCAL/MOL
REMARK 924 INTRA-LIGAND FREE ENERGY PREDICTED BY IDOCK:    0.06 KCAL/MOL
REMARK 927      BINDING AFFINITY PREDICTED BY RF-SCORE:    0.00 PKD
ROOT
HETATM    1  C   UNL     1      -9.410  13.599  67.611  1.00  0.00    -0.215 C  
HETATM    2  N   UNL     1      -9.170  12.249  67.054  1.00  0.00    -0.198 N  
HETATM    3  C   UNL     1     -10.214  11.733  66.149  1.00  0.00    -0.220 C  
HETATM    4  C   UNL     1     -10.673  12.784  65.108  1.00  0.00    -0.294 C  
HETATM    5  N   UNL     1      -9.658  10.588  65.422  1.00  0.00    -0.217 NA 
HETATM    6  H   UNL     1      -9.660  10.579  64.402  1.00  0.00     0.000 HD 
HETATM    7 CL   UNL     1     -11.944  12.121  64.031  1.00  0.00    -0.510 Cl 
HETATM    8  C   UNL     1      -9.127   9.512  66.127  1.00  0.00    -0.166 A  
HETATM    9  C   UNL     1      -8.907   8.294  65.466  1.00  0.00    -0.152 A  
HETATM   10  C   UNL     1      -8.304   7.198  66.111  1.00  0.00    -0.133 A  
HETATM   11 CL   UNL     1      -8.143   5.747  65.187  1.00  0.00    -0.126 Cl 
HETATM   12  C   UNL     1      -7.883   7.327  67.435  1.00  0.00    -0.112 A  
HETATM   13  O   UNL     1      -7.587  11.475  68.890  1.00  0.00    -0.128 OA 
HETATM   14  C   UNL     1      -8.048   8.545  68.097  1.00  0.00    -0.119 A  
HETATM   15  C   UNL     1      -8.658   9.612  67.433  1.00  0.00    -0.125 A  
HETATM   16  O   UNL     1     -10.059  11.011  69.086  1.00  0.00    -0.206 OA 
HETATM   17  S   UNL     1      -8.855  11.126  68.289  1.00  0.00    -0.160 S  
ENDROOT
BRANCH  12  18
HETATM   18  S   UNL     1      -7.110   6.007  68.314  1.00  0.00    -0.084 S  
HETATM   19  O   UNL     1      -6.549   6.514  69.541  1.00  0.00    -0.045 OA 
HETATM   20  H1  UNL     1      -5.384   4.808  67.828  1.00  0.00     0.000 HD 
HETATM   21  H2  UNL     1      -5.564   5.973  66.421  1.00  0.00     0.000 HD 
HETATM   22  O   UNL     1      -7.989   4.859  68.296  1.00  0.00    -0.085 OA 
HETATM   23  N   UNL     1      -5.831   5.571  67.320  1.00  0.00    -0.017 N  
ENDBRANCH  12  18
TORSDOF 1
ENDMDL
MODEL      105
REMARK 921   NORMALIZED FREE ENERGY PREDICTED BY IDOCK:   -2.88 KCAL/MOL
REMARK 922        TOTAL FREE ENERGY PREDICTED BY IDOCK:   -3.23 KCAL/MOL
REMARK 923 INTER-LIGAND FREE ENERGY PREDICTED BY IDOCK:   -3.50 KCAL/MOL
REMARK 924 INTRA-LIGAND FREE ENERGY PREDICTED BY IDOCK:    0.27 KCAL/MOL
REMARK 927      BINDING AFFINITY PREDICTED BY RF-SCORE:    0.00 PKD
ROOT
HETATM    1  C   UNL     1      -6.567  12.085  66.794  1.00  0.00     0.041 C  
HETATM    2  N   UNL     1      -7.350  10.912  67.243  1.00  0.00    -0.098 N  
HETATM    3  C   UNL     1      -7.946  10.090  66.172  1.00  0.00    -0.113 C  
HETATM    4  C   UNL     1      -6.949   9.796  65.024  1.00  0.00    -0.119 C  
HETATM    5  N   UNL     1      -8.353   8.810  66.758  1.00  0.00    -0.107 NA 
HETATM    6  H   UNL     1      -8.004   7.934  66.368  1.00  0.00     0.000 HD 
HETATM    7 CL   UNL     1      -7.711   8.800  63.742  1.00  0.00    -0.125 Cl 
HETATM    8  C   UNL     1      -9.218   8.792  67.848  1.00  0.00    -0.139 A  
HETATM    9  C   UNL     1      -9.866   7.597  68.196  1.00  0.00    -0.186 A  
HETATM   10  C   UNL     1     -10.693   7.504  69.332  1.00  0.00    -0.193 A  
HETATM   11 CL   UNL     1     -11.466   5.984  69.605  1.00  0.00    -0.364 Cl 
HETATM   12  C   UNL     1     -10.852   8.618  70.158  1.00  0.00    -0.233 A  
HETATM   13  O   UNL     1      -7.868  11.805  69.569  1.00  0.00     0.288 OA 
HETATM   14  C   UNL     1     -10.177   9.803  69.858  1.00  0.00    -0.291 A  
HETATM   15  C   UNL     1      -9.371   9.867  68.719  1.00  0.00    -0.157 A  
HETATM   16  O   UNL     1      -9.482  12.223  67.676  1.00  0.00    -0.179 OA 
HETATM   17  S   UNL     1      -8.540  11.366  68.366  1.00  0.00    -0.153 S  
ENDROOT
BRANCH  12  18
HETATM   18  S   UNL     1     -11.860   8.584  71.605  1.00  0.00    -0.334 S  
HETATM   19  O   UNL     1     -12.211   9.932  71.974  1.00  0.00    -0.321 OA 
HETATM   20  H1  UNL     1     -11.410   7.974  73.624  1.00  0.00     0.000 HD 
HETATM   21  H2  UNL     1      -9.850   7.718  72.692  1.00  0.00     0.000 HD 
HETATM   22  O   UNL     1     -12.860   7.552  71.451  1.00  0.00    -0.347 OA 
HETATM   23  N   UNL     1     -10.828   7.993  72.788  1.00  0.00    -0.368 N  
ENDBRANCH  12  18
TORSDOF 1
ENDMDL
MODEL      106
REMARK 921   NORMALIZED FREE ENERGY PREDICTED BY IDOCK:   -2.88 KCAL/MOL
REMARK 922        TOTAL FREE ENERGY PREDICTED BY IDOCK:   -3.23 KCAL/MOL
REMARK 923 INTER-LIGAND FREE ENERGY PREDICTED BY IDOCK:   -3.51 KCAL/MOL
REMARK 924 INTRA-LIGAND FREE ENERGY PREDICTED BY IDOCK:    0.28 KCAL/MOL
REMARK 927      BINDING AFFINITY PREDICTED BY RF-SCORE:    0.00 PKD
ROOT
HETATM    1  C   UNL     1      -7.870  20.447  66.342  1.00  0.00    -0.137 C  
HETATM    2  N   UNL     1      -8.448  19.306  67.085  1.00  0.00    -0.280 N  
HETATM    3  C   UNL     1      -7.704  18.878  68.285  1.00  0.00    -0.301 C  
HETATM    4  C   UNL     1      -7.272  20.071  69.174  1.00  0.00    -0.149 C  
HETATM    5  N   UNL     1      -8.583  18.016  69.080  1.00  0.00    -0.089 NA 
HETATM    6  H   UNL     1      -8.777  18.242  70.055  1.00  0.00     0.000 HD 
HETATM    7 CL   UNL     1      -6.368  19.511  70.618  1.00  0.00    -0.084 Cl 
HETATM    8  C   UNL     1      -9.152  16.886  68.499  1.00  0.00    -0.257 A  
HETATM    9  C   UNL     1      -9.708  15.894  69.321  1.00  0.00    -0.263 A  
HETATM   10  C   UNL     1     -10.363  14.768  68.785  1.00  0.00    -0.248 A  
HETATM   11 CL   UNL     1     -10.952  13.604  69.917  1.00  0.00     0.094 Cl 
HETATM   12  C   UNL     1     -10.494  14.643  67.402  1.00  0.00    -0.255 A  
HETATM   13  O   UNL     1      -9.764  18.347  65.129  1.00  0.00     0.645 OA 
HETATM   14  C   UNL     1      -9.991  15.644  66.567  1.00  0.00    -0.287 A  
HETATM   15  C   UNL     1      -9.339  16.744  67.128  1.00  0.00    -0.229 A  
HETATM   16  O   UNL     1      -7.422  17.527  65.590  1.00  0.00    -0.462 OA 
HETATM   17  S   UNL     1      -8.717  17.980  66.057  1.00  0.00     0.149 S  
ENDROOT
BRANCH  12  18
HETATM   18  S   UNL     1     -11.308  13.271  66.650  1.00  0.00    -0.335 S  
HETATM   19  O   UNL     1     -10.337  12.460  65.960  1.00  0.00    -0.241 OA 
HETATM   20  H1  UNL     1     -12.755  13.190  65.053  1.00  0.00     0.000 HD 
HETATM   21  H2  UNL     1     -12.384  14.974  65.268  1.00  0.00     0.000 HD 
HETATM   22  O   UNL     1     -12.236  12.702  67.602  1.00  0.00    -0.367 OA 
HETATM   23  N   UNL     1     -12.284  13.983  65.488  1.00  0.00    -0.414 N  
ENDBRANCH  12  18
TORSDOF 1
ENDMDL
MODEL      107
REMARK 921   NORMALIZED FREE ENERGY PREDICTED BY IDOCK:   -2.82 KCAL/MOL
REMARK 922        TOTAL FREE ENERGY PREDICTED BY IDOCK:   -3.16 KCAL/MOL
REMARK 923 INTER-LIGAND FREE ENERGY PREDICTED BY IDOCK:   -3.18 KCAL/MOL
REMARK 924 INTRA-LIGAND FREE ENERGY PREDICTED BY IDOCK:    0.02 KCAL/MOL
REMARK 927      BINDING AFFINITY PREDICTED BY RF-SCORE:    0.00 PKD
ROOT
HETATM    1  C   UNL     1     -11.379   9.236  71.587  1.00  0.00    -0.397 C  
HETATM    2  N   UNL     1     -10.399   8.361  70.908  1.00  0.00    -0.191 N  
HETATM    3  C   UNL     1     -10.056   8.734  69.522  1.00  0.00    -0.202 C  
HETATM    4  C   UNL     1      -9.780  10.250  69.365  1.00  0.00    -0.222 C  
HETATM    5  N   UNL     1      -8.839   8.010  69.146  1.00  0.00    -0.144 NA 
HETATM    6  H   UNL     1      -8.020   8.521  68.815  1.00  0.00     0.000 HD 
HETATM    7 CL   UNL     1      -9.372  10.664  67.669  1.00  0.00    -0.152 Cl 
HETATM    8  C   UNL     1      -8.802   6.622  69.240  1.00  0.00    -0.133 A  
HETATM    9  C   UNL     1      -7.788   5.911  68.580  1.00  0.00    -0.102 A  
HETATM   10  C   UNL     1      -7.660   4.514  68.703  1.00  0.00    -0.064 A  
HETATM   11 CL   UNL     1      -6.396   3.770  67.791  1.00  0.00    -0.036 Cl 
HETATM   12  C   UNL     1      -8.542   3.814  69.526  1.00  0.00    -0.067 A  
HETATM   13  O   UNL     1     -10.817   6.310  72.356  1.00  0.00    -0.221 OA 
HETATM   14  C   UNL     1      -9.529   4.508  70.231  1.00  0.00    -0.241 A  
HETATM   15  C   UNL     1      -9.636   5.892  70.081  1.00  0.00    -0.162 A  
HETATM   16  O   UNL     1     -12.108   6.616  70.210  1.00  0.00    -0.350 OA 
HETATM   17  S   UNL     1     -10.883   6.734  70.974  1.00  0.00    -0.252 S  
ENDROOT
BRANCH  12  18
HETATM   18  S   UNL     1      -8.445   2.066  69.744  1.00  0.00    -0.051 S  
HETATM   19  O   UNL     1      -7.141   1.720  70.249  1.00  0.00    -0.033 OA 
HETATM   20  H1  UNL     1      -8.496   0.460  68.306  1.00  0.00     0.000 HD 
HETATM   21  H2  UNL     1      -8.651   1.993  67.310  1.00  0.00     0.000 HD 
HETATM   22  O   UNL     1      -9.656   1.610  70.388  1.00  0.00    -0.103 OA 
HETATM   23  N   UNL     1      -8.553   1.470  68.180  1.00  0.00    -0.062 N  
ENDBRANCH  12  18
TORSDOF 1
ENDMDL
MODEL      108
REMARK 921   NORMALIZED FREE ENERGY PREDICTED BY IDOCK:   -2.76 KCAL/MOL
REMARK 922        TOTAL FREE ENERGY PREDICTED BY IDOCK:   -3.11 KCAL/MOL
REMARK 923 INTER-LIGAND FREE ENERGY PREDICTED BY IDOCK:   -2.99 KCAL/MOL
REMARK 924 INTRA-LIGAND FREE ENERGY PREDICTED BY IDOCK:   -0.12 KCAL/MOL
REMARK 927      BINDING AFFINITY PREDICTED BY RF-SCORE:    0.00 PKD
ROOT
HETATM    1  C   UNL     1     -10.834   5.583  66.478  1.00  0.00    -0.163 C  
HETATM    2  N   UNL     1      -9.916   6.281  67.404  1.00  0.00    -0.128 N  
HETATM    3  C   UNL     1      -8.483   6.216  67.060  1.00  0.00    -0.105 C  
HETATM    4  C   UNL     1      -8.219   6.498  65.560  1.00  0.00    -0.138 C  
HETATM    5  N   UNL     1      -7.782   7.236  67.844  1.00  0.00    -0.110 NA 
HETATM    6  H   UNL     1      -7.214   7.942  67.375  1.00  0.00     0.000 HD 
HETATM    7 CL   UNL     1      -6.469   6.405  65.180  1.00  0.00    -0.038 Cl 
HETATM    8  C   UNL     1      -7.892   7.239  69.231  1.00  0.00    -0.116 A  
HETATM    9  C   UNL     1      -6.979   7.982  69.995  1.00  0.00    -0.048 A  
HETATM   10  C   UNL     1      -7.089   8.081  71.395  1.00  0.00    -0.063 A  
HETATM   11 CL   UNL     1      -5.863   8.987  72.206  1.00  0.00    -0.078 Cl 
HETATM   12  C   UNL     1      -8.151   7.451  72.046  1.00  0.00    -0.094 A  
HETATM   13  O   UNL     1     -11.469   6.221  69.421  1.00  0.00    -0.427 OA 
HETATM   14  C   UNL     1      -9.099   6.748  71.300  1.00  0.00    -0.150 A  
HETATM   15  C   UNL     1      -8.957   6.660  69.913  1.00  0.00    -0.144 A  
HETATM   16  O   UNL     1      -9.791   4.369  69.072  1.00  0.00    -0.173 OA 
HETATM   17  S   UNL     1     -10.159   5.769  69.006  1.00  0.00    -0.211 S  
ENDROOT
BRANCH  12  18
HETATM   18  S   UNL     1      -8.369   7.534  73.794  1.00  0.00    -0.201 S  
HETATM   19  O   UNL     1      -7.492   6.582  74.430  1.00  0.00    -0.098 OA 
HETATM   20  H1  UNL     1     -10.067   7.043  75.030  1.00  0.00     0.000 HD 
HETATM   21  H2  UNL     1     -10.612   6.693  73.312  1.00  0.00     0.000 HD 
HETATM   22  O   UNL     1      -8.402   8.922  74.194  1.00  0.00    -0.176 OA 
HETATM   23  N   UNL     1      -9.941   6.996  74.019  1.00  0.00    -0.325 N  
ENDBRANCH  12  18
TORSDOF 1
ENDMDL
MODEL      109
REMARK 921   NORMALIZED FREE ENERGY PREDICTED BY IDOCK:   -2.71 KCAL/MOL
REMARK 922        TOTAL FREE ENERGY PREDICTED BY IDOCK:   -3.05 KCAL/MOL
REMARK 923 INTER-LIGAND FREE ENERGY PREDICTED BY IDOCK:   -2.91 KCAL/MOL
REMARK 924 INTRA-LIGAND FREE ENERGY PREDICTED BY IDOCK:   -0.14 KCAL/MOL
REMARK 927      BINDING AFFINITY PREDICTED BY RF-SCORE:    0.00 PKD
ROOT
HETATM    1  C   UNL     1      -6.235   5.041  63.900  1.00  0.00    -0.022 C  
HETATM    2  N   UNL     1      -7.211   5.126  65.009  1.00  0.00    -0.065 N  
HETATM    3  C   UNL     1      -8.579   4.672  64.697  1.00  0.00    -0.144 C  
HETATM    4  C   UNL     1      -8.599   3.328  63.927  1.00  0.00    -0.089 C  
HETATM    5  N   UNL     1      -9.292   4.479  65.963  1.00  0.00    -0.145 NA 
HETATM    6  H   UNL     1      -9.721   3.578  66.178  1.00  0.00     0.000 HD 
HETATM    7 CL   UNL     1     -10.277   2.811  63.563  1.00  0.00    -0.158 Cl 
HETATM    8  C   UNL     1      -9.383   5.528  66.873  1.00  0.00    -0.127 A  
HETATM    9  C   UNL     1     -10.327   5.464  67.910  1.00  0.00    -0.222 A  
HETATM   10  C   UNL     1     -10.411   6.461  68.900  1.00  0.00    -0.201 A  
HETATM   11 CL   UNL     1     -11.655   6.274  70.083  1.00  0.00    -0.460 Cl 
HETATM   12  C   UNL     1      -9.515   7.531  68.875  1.00  0.00    -0.145 A  
HETATM   13  O   UNL     1      -5.977   6.927  66.318  1.00  0.00    -0.032 OA 
HETATM   14  C   UNL     1      -8.536   7.589  67.880  1.00  0.00    -0.121 A  
HETATM   15  C   UNL     1      -8.484   6.589  66.906  1.00  0.00    -0.114 A  
HETATM   16  O   UNL     1      -7.747   7.582  64.643  1.00  0.00    -0.107 OA 
HETATM   17  S   UNL     1      -7.249   6.691  65.671  1.00  0.00    -0.072 S  
ENDROOT
BRANCH  12  18
HETATM   18  S   UNL     1      -9.545   8.816  70.082  1.00  0.00    -0.180 S  
HETATM   19  O   UNL     1     -10.620   9.728  69.782  1.00  0.00    -0.222 OA 
HETATM   20  H1  UNL     1      -8.122  10.378  70.517  1.00  0.00     0.000 HD 
HETATM   21  H2  UNL     1      -7.383   9.435  69.126  1.00  0.00     0.000 HD 
HETATM   22  O   UNL     1      -9.391   8.226  71.393  1.00  0.00    -0.149 OA 
HETATM   23  N   UNL     1      -8.104   9.634  69.819  1.00  0.00    -0.136 N  
ENDBRANCH  12  18
TORSDOF 1
ENDMDL
MODEL      110
REMARK 921   NORMALIZED FREE ENERGY PREDICTED BY IDOCK:   -2.66 KCAL/MOL
REMARK 922        TOTAL FREE ENERGY PREDICTED BY IDOCK:   -2.99 KCAL/MOL
REMARK 923 INTER-LIGAND FREE ENERGY PREDICTED BY IDOCK:   -2.84 KCAL/MOL
REMARK 924 INTRA-LIGAND FREE ENERGY PREDICTED BY IDOCK:   -0.15 KCAL/MOL
REMARK 927      BINDING AFFINITY PREDICTED BY RF-SCORE:    0.00 PKD
ROOT
HETATM    1  C   UNL     1      -8.158   6.672  72.610  1.00  0.00    -0.102 C  
HETATM    2  N   UNL     1      -8.928   7.588  71.739  1.00  0.00    -0.121 N  
HETATM    3  C   UNL     1     -10.336   7.217  71.503  1.00  0.00    -0.201 C  
HETATM    4  C   UNL     1     -11.068   6.802  72.804  1.00  0.00    -0.257 C  
HETATM    5  N   UNL     1     -11.025   8.386  70.948  1.00  0.00    -0.237 NA 
HETATM    6  H   UNL     1     -11.858   8.755  71.407  1.00  0.00     0.000 HD 
HETATM    7 CL   UNL     1     -12.773   6.356  72.476  1.00  0.00     0.125 Cl 
HETATM    8  C   UNL     1     -10.539   8.992  69.794  1.00  0.00    -0.228 A  
HETATM    9  C   UNL     1     -11.360   9.879  69.081  1.00  0.00    -0.088 A  
HETATM   10  C   UNL     1     -10.895  10.576  67.950  1.00  0.00    -0.282 A  
HETATM   11 CL   UNL     1     -12.034  11.593  67.144  1.00  0.00    -0.084 Cl 
HETATM   12  C   UNL     1      -9.572  10.410  67.538  1.00  0.00    -0.156 A  
HETATM   13  O   UNL     1      -6.914   8.570  70.531  1.00  0.00    -0.036 OA 
HETATM   14  C   UNL     1      -8.723   9.569  68.261  1.00  0.00    -0.120 A  
HETATM   15  C   UNL     1      -9.217   8.884  69.374  1.00  0.00    -0.146 A  
HETATM   16  O   UNL     1      -8.104   6.566  69.564  1.00  0.00    -0.115 OA 
HETATM   17  S   UNL     1      -8.131   7.837  70.259  1.00  0.00    -0.114 S  
ENDROOT
BRANCH  12  18
HETATM   18  S   UNL     1      -8.906  11.252  66.138  1.00  0.00    -0.174 S  
HETATM   19  O   UNL     1      -9.380  10.623  64.932  1.00  0.00    -0.197 OA 
HETATM   20  H1  UNL     1      -6.874  11.439  65.439  1.00  0.00     0.000 HD 
HETATM   21  H2  UNL     1      -6.762  10.411  66.955  1.00  0.00     0.000 HD 
HETATM   22  O   UNL     1      -9.028  12.677  66.352  1.00  0.00    -0.167 OA 
HETATM   23  N   UNL     1      -7.259  10.952  66.248  1.00  0.00    -0.140 N  
ENDBRANCH  12  18
TORSDOF 1
ENDMDL
MODEL      111
REMARK 921   NORMALIZED FREE ENERGY PREDICTED BY IDOCK:   -2.59 KCAL/MOL
REMARK 922        TOTAL FREE ENERGY PREDICTED BY IDOCK:   -2.93 KCAL/MOL
REMARK 923 INTER-LIGAND FREE ENERGY PREDICTED BY IDOCK:   -2.74 KCAL/MOL
REMARK 924 INTRA-LIGAND FREE ENERGY PREDICTED BY IDOCK:   -0.19 KCAL/MOL
REMARK 927      BINDING AFFINITY PREDICTED BY RF-SCORE:    0.00 PKD
ROOT
HETATM    1  C   UNL     1     -11.065   9.423  71.558  1.00  0.00    -0.376 C  
HETATM    2  N   UNL     1     -10.356   9.616  70.274  1.00  0.00    -0.261 N  
HETATM    3  C   UNL     1     -10.982  10.563  69.331  1.00  0.00    -0.250 C  
HETATM    4  C   UNL     1     -11.436  11.875  70.019  1.00  0.00    -0.130 C  
HETATM    5  N   UNL     1      -9.990  10.906  68.309  1.00  0.00    -0.170 NA 
HETATM    6  H   UNL     1      -9.745  11.882  68.140  1.00  0.00     0.000 HD 
HETATM    7 CL   UNL     1     -12.194  12.996  68.843  1.00  0.00    -0.184 Cl 
HETATM    8  C   UNL     1      -9.383   9.897  67.567  1.00  0.00    -0.140 A  
HETATM    9  C   UNL     1      -8.702  10.223  66.385  1.00  0.00    -0.144 A  
HETATM   10  C   UNL     1      -8.007   9.253  65.637  1.00  0.00    -0.103 A  
HETATM   11 CL   UNL     1      -7.259   9.791  64.176  1.00  0.00    -0.124 Cl 
HETATM   12  C   UNL     1      -7.964   7.935  66.093  1.00  0.00    -0.104 A  
HETATM   13  O   UNL     1      -9.114   7.395  70.312  1.00  0.00    -0.150 OA 
HETATM   14  C   UNL     1      -8.594   7.598  67.293  1.00  0.00    -0.121 A  
HETATM   15  C   UNL     1      -9.283   8.581  68.008  1.00  0.00    -0.136 A  
HETATM   16  O   UNL     1     -11.353   7.562  69.161  1.00  0.00     0.129 OA 
HETATM   17  S   UNL     1     -10.065   8.129  69.507  1.00  0.00    -0.197 S  
ENDROOT
BRANCH  12  18
HETATM   18  S   UNL     1      -7.108   6.662  65.223  1.00  0.00    -0.066 S  
HETATM   19  O   UNL     1      -7.806   6.370  63.996  1.00  0.00    -0.107 OA 
HETATM   20  H1  UNL     1      -6.778   4.589  65.720  1.00  0.00     0.000 HD 
HETATM   21  H2  UNL     1      -7.752   5.264  67.121  1.00  0.00     0.000 HD 
HETATM   22  O   UNL     1      -5.693   6.956  65.242  1.00  0.00    -0.030 OA 
HETATM   23  N   UNL     1      -7.272   5.325  66.223  1.00  0.00    -0.072 N  
ENDBRANCH  12  18
TORSDOF 1
ENDMDL
MODEL      112
REMARK 921   NORMALIZED FREE ENERGY PREDICTED BY IDOCK:   -2.59 KCAL/MOL
REMARK 922        TOTAL FREE ENERGY PREDICTED BY IDOCK:   -2.92 KCAL/MOL
REMARK 923 INTER-LIGAND FREE ENERGY PREDICTED BY IDOCK:   -2.79 KCAL/MOL
REMARK 924 INTRA-LIGAND FREE ENERGY PREDICTED BY IDOCK:   -0.13 KCAL/MOL
REMARK 927      BINDING AFFINITY PREDICTED BY RF-SCORE:    0.00 PKD
ROOT
HETATM    1  C   UNL     1      -8.089   8.884  65.948  1.00  0.00    -0.109 C  
HETATM    2  N   UNL     1      -8.101   7.955  67.100  1.00  0.00    -0.116 N  
HETATM    3  C   UNL     1      -8.271   6.527  66.771  1.00  0.00    -0.110 C  
HETATM    4  C   UNL     1      -7.374   6.076  65.592  1.00  0.00    -0.076 C  
HETATM    5  N   UNL     1      -7.896   5.743  67.952  1.00  0.00    -0.097 NA 
HETATM    6  H   UNL     1      -7.177   5.023  67.881  1.00  0.00     0.000 HD 
HETATM    7 CL   UNL     1      -7.612   4.338  65.221  1.00  0.00    -0.084 Cl 
HETATM    8  C   UNL     1      -8.524   5.983  69.170  1.00  0.00    -0.114 A  
HETATM    9  C   UNL     1      -8.419   5.036  70.200  1.00  0.00    -0.097 A  
HETATM   10  C   UNL     1      -8.972   5.262  71.475  1.00  0.00    -0.135 A  
HETATM   11 CL   UNL     1      -8.809   3.985  72.627  1.00  0.00    -0.110 Cl 
HETATM   12  C   UNL     1      -9.615   6.471  71.740  1.00  0.00    -0.152 A  
HETATM   13  O   UNL     1      -8.801   9.681  68.834  1.00  0.00    -0.128 OA 
HETATM   14  C   UNL     1      -9.688   7.448  70.745  1.00  0.00    -0.171 A  
HETATM   15  C   UNL     1      -9.139   7.191  69.486  1.00  0.00    -0.146 A  
HETATM   16  O   UNL     1     -10.556   8.311  67.646  1.00  0.00    -0.241 OA 
HETATM   17  S   UNL     1      -9.248   8.432  68.258  1.00  0.00    -0.134 S  
ENDROOT
BRANCH  12  18
HETATM   18  S   UNL     1     -10.325   6.839  73.313  1.00  0.00    -0.300 S  
HETATM   19  O   UNL     1     -11.273   5.812  73.661  1.00  0.00    -0.107 OA 
HETATM   20  H1  UNL     1     -11.601   8.460  73.942  1.00  0.00     0.000 HD 
HETATM   21  H2  UNL     1     -11.285   8.768  72.160  1.00  0.00     0.000 HD 
HETATM   22  O   UNL     1      -9.270   7.238  74.217  1.00  0.00    -0.233 OA 
HETATM   23  N   UNL     1     -11.191   8.248  73.033  1.00  0.00    -0.136 N  
ENDBRANCH  12  18
TORSDOF 1
ENDMDL
MODEL      113
REMARK 921   NORMALIZED FREE ENERGY PREDICTED BY IDOCK:   -2.53 KCAL/MOL
REMARK 922        TOTAL FREE ENERGY PREDICTED BY IDOCK:   -2.86 KCAL/MOL
REMARK 923 INTER-LIGAND FREE ENERGY PREDICTED BY IDOCK:   -2.90 KCAL/MOL
REMARK 924 INTRA-LIGAND FREE ENERGY PREDICTED BY IDOCK:    0.04 KCAL/MOL
REMARK 927      BINDING AFFINITY PREDICTED BY RF-SCORE:    0.00 PKD
ROOT
HETATM    1  C   UNL     1     -10.438   5.182  70.551  1.00  0.00    -0.208 C  
HETATM    2  N   UNL     1      -9.524   6.344  70.493  1.00  0.00    -0.162 N  
HETATM    3  C   UNL     1      -9.059   6.862  71.794  1.00  0.00    -0.138 C  
HETATM    4  C   UNL     1      -8.606   5.735  72.755  1.00  0.00    -0.119 C  
HETATM    5  N   UNL     1      -7.911   7.739  71.549  1.00  0.00    -0.089 NA 
HETATM    6  H   UNL     1      -7.022   7.561  72.016  1.00  0.00     0.000 HD 
HETATM    7 CL   UNL     1      -8.053   6.402  74.325  1.00  0.00    -0.121 Cl 
HETATM    8  C   UNL     1      -8.037   8.815  70.676  1.00  0.00    -0.133 A  
HETATM    9  C   UNL     1      -7.072   9.834  70.693  1.00  0.00    -0.097 A  
HETATM   10  C   UNL     1      -7.109  10.907  69.782  1.00  0.00    -0.088 A  
HETATM   11 CL   UNL     1      -5.885  12.113  69.956  1.00  0.00    -0.138 Cl 
HETATM   12  C   UNL     1      -8.112  10.950  68.813  1.00  0.00    -0.145 A  
HETATM   13  O   UNL     1     -10.255   7.151  68.192  1.00  0.00    -0.173 OA 
HETATM   14  C   UNL     1      -9.054   9.921  68.747  1.00  0.00    -0.147 A  
HETATM   15  C   UNL     1      -8.996   8.875  69.670  1.00  0.00    -0.147 A  
HETATM   16  O   UNL     1     -11.374   8.069  70.260  1.00  0.00    -0.243 OA 
HETATM   17  S   UNL     1     -10.191   7.601  69.566  1.00  0.00    -0.213 S  
ENDROOT
BRANCH  12  18
HETATM   18  S   UNL     1      -8.225  12.252  67.628  1.00  0.00    -0.179 S  
HETATM   19  O   UNL     1      -9.353  12.014  66.763  1.00  0.00    -0.193 OA 
HETATM   20  H1  UNL     1      -6.903  12.817  66.021  1.00  0.00     0.000 HD 
HETATM   21  H2  UNL     1      -6.102  11.364  66.807  1.00  0.00     0.000 HD 
HETATM   22  O   UNL     1      -8.040  13.515  68.306  1.00  0.00    -0.143 OA 
HETATM   23  N   UNL     1      -6.837  12.064  66.706  1.00  0.00    -0.027 N  
ENDBRANCH  12  18
TORSDOF 1
ENDMDL
MODEL      114
REMARK 921   NORMALIZED FREE ENERGY PREDICTED BY IDOCK:   -2.50 KCAL/MOL
REMARK 922        TOTAL FREE ENERGY PREDICTED BY IDOCK:   -2.82 KCAL/MOL
REMARK 923 INTER-LIGAND FREE ENERGY PREDICTED BY IDOCK:   -3.72 KCAL/MOL
REMARK 924 INTRA-LIGAND FREE ENERGY PREDICTED BY IDOCK:    0.90 KCAL/MOL
REMARK 927      BINDING AFFINITY PREDICTED BY RF-SCORE:    0.00 PKD
ROOT
HETATM    1  C   UNL     1      -9.538   4.292  69.269  1.00  0.00    -0.190 C  
HETATM    2  N   UNL     1      -9.610   5.767  69.173  1.00  0.00    -0.130 N  
HETATM    3  C   UNL     1     -10.492   6.433  70.151  1.00  0.00    -0.216 C  
HETATM    4  C   UNL     1     -10.299   5.892  71.589  1.00  0.00    -0.219 C  
HETATM    5  N   UNL     1     -10.165   7.861  70.156  1.00  0.00    -0.199 NA 
HETATM    6  H   UNL     1      -9.904   8.324  71.027  1.00  0.00     0.000 HD 
HETATM    7 CL   UNL     1     -11.389   6.721  72.747  1.00  0.00    -0.260 Cl 
HETATM    8  C   UNL     1     -10.213   8.586  68.969  1.00  0.00    -0.207 A  
HETATM    9  C   UNL     1     -10.232   9.988  69.016  1.00  0.00    -0.216 A  
HETATM   10  C   UNL     1     -10.205  10.771  67.846  1.00  0.00    -0.176 A  
HETATM   11 CL   UNL     1     -10.286  12.483  68.058  1.00  0.00    -0.216 Cl 
HETATM   12  C   UNL     1     -10.126  10.144  66.602  1.00  0.00    -0.223 A  
HETATM   13  O   UNL     1      -8.898   5.914  66.734  1.00  0.00    -0.116 OA 
HETATM   14  C   UNL     1     -10.056   8.750  66.534  1.00  0.00    -0.349 A  
HETATM   15  C   UNL     1     -10.094   8.001  67.712  1.00  0.00    -0.195 A  
HETATM   16  O   UNL     1     -11.348   5.782  67.320  1.00  0.00     0.129 OA 
HETATM   17  S   UNL     1     -10.008   6.257  67.596  1.00  0.00    -0.145 S  
ENDROOT
BRANCH  12  18
HETATM   18  S   UNL     1     -10.077  11.049  65.089  1.00  0.00    -0.309 S  
HETATM   19  O   UNL     1      -8.867  10.723  64.376  1.00  0.00    -0.180 OA 
HETATM   20  H1  UNL     1      -9.920  13.167  64.716  1.00  0.00     0.000 HD 
HETATM   21  H2  UNL     1      -9.909  13.005  66.544  1.00  0.00     0.000 HD 
HETATM   22  O   UNL     1     -11.375  10.972  64.459  1.00  0.00    -0.040 OA 
HETATM   23  N   UNL     1      -9.949  12.644  65.591  1.00  0.00    -0.262 N  
ENDBRANCH  12  18
TORSDOF 1
ENDMDL
MODEL      115
REMARK 921   NORMALIZED FREE ENERGY PREDICTED BY IDOCK:   -2.45 KCAL/MOL
REMARK 922        TOTAL FREE ENERGY PREDICTED BY IDOCK:   -2.78 KCAL/MOL
REMARK 923 INTER-LIGAND FREE ENERGY PREDICTED BY IDOCK:   -3.03 KCAL/MOL
REMARK 924 INTRA-LIGAND FREE ENERGY PREDICTED BY IDOCK:    0.26 KCAL/MOL
REMARK 927      BINDING AFFINITY PREDICTED BY RF-SCORE:    0.00 PKD
ROOT
HETATM    1  C   UNL     1      -7.427   9.716  70.547  1.00  0.00    -0.132 C  
HETATM    2  N   UNL     1      -8.077   8.866  69.525  1.00  0.00    -0.098 N  
HETATM    3  C   UNL     1      -9.530   9.057  69.360  1.00  0.00    -0.159 C  
HETATM    4  C   UNL     1      -9.930  10.553  69.300  1.00  0.00    -0.213 C  
HETATM    5  N   UNL     1      -9.929   8.430  68.097  1.00  0.00    -0.184 NA 
HETATM    6  H   UNL     1     -10.416   8.975  67.386  1.00  0.00     0.000 HD 
HETATM    7 CL   UNL     1     -11.702  10.744  69.103  1.00  0.00    -0.367 Cl 
HETATM    8  C   UNL     1      -9.643   7.087  67.871  1.00  0.00    -0.123 A  
HETATM    9  C   UNL     1     -10.301   6.405  66.837  1.00  0.00    -0.306 A  
HETATM   10  C   UNL     1      -9.996   5.068  66.517  1.00  0.00    -0.224 A  
HETATM   11 CL   UNL     1     -10.924   4.343  65.253  1.00  0.00    -0.171 Cl 
HETATM   12  C   UNL     1      -8.991   4.406  67.222  1.00  0.00    -0.120 A  
HETATM   13  O   UNL     1      -6.315   7.029  69.540  1.00  0.00    -0.033 OA 
HETATM   14  C   UNL     1      -8.289   5.081  68.223  1.00  0.00    -0.095 A  
HETATM   15  C   UNL     1      -8.621   6.404  68.524  1.00  0.00    -0.122 A  
HETATM   16  O   UNL     1      -8.330   6.848  71.048  1.00  0.00    -0.123 OA 
HETATM   17  S   UNL     1      -7.727   7.223  69.785  1.00  0.00    -0.109 S  
ENDROOT
BRANCH  12  18
HETATM   18  S   UNL     1      -8.539   2.736  66.879  1.00  0.00    -0.117 S  
HETATM   19  O   UNL     1      -8.908   2.410  65.524  1.00  0.00    -0.119 OA 
HETATM   20  H1  UNL     1      -9.269   0.879  67.697  1.00  0.00     0.000 HD 
HETATM   21  H2  UNL     1     -10.227   2.186  68.558  1.00  0.00     0.000 HD 
HETATM   22  O   UNL     1      -7.203   2.503  67.379  1.00  0.00    -0.051 OA 
HETATM   23  N   UNL     1      -9.530   1.844  67.897  1.00  0.00    -0.164 N  
ENDBRANCH  12  18
TORSDOF 1
ENDMDL
MODEL      116
REMARK 921   NORMALIZED FREE ENERGY PREDICTED BY IDOCK:   -2.43 KCAL/MOL
REMARK 922        TOTAL FREE ENERGY PREDICTED BY IDOCK:   -2.75 KCAL/MOL
REMARK 923 INTER-LIGAND FREE ENERGY PREDICTED BY IDOCK:   -2.80 KCAL/MOL
REMARK 924 INTRA-LIGAND FREE ENERGY PREDICTED BY IDOCK:    0.05 KCAL/MOL
REMARK 927      BINDING AFFINITY PREDICTED BY RF-SCORE:    0.00 PKD
ROOT
HETATM    1  C   UNL     1      -9.526   7.871  73.150  1.00  0.00    -0.278 C  
HETATM    2  N   UNL     1      -9.554   7.371  71.757  1.00  0.00    -0.150 N  
HETATM    3  C   UNL     1      -9.458   5.908  71.598  1.00  0.00    -0.149 C  
HETATM    4  C   UNL     1     -10.386   5.142  72.573  1.00  0.00    -0.204 C  
HETATM    5  N   UNL     1      -9.864   5.574  70.230  1.00  0.00    -0.184 NA 
HETATM    6  H   UNL     1     -10.619   4.908  70.068  1.00  0.00     0.000 HD 
HETATM    7 CL   UNL     1     -10.238   3.368  72.352  1.00  0.00    -0.225 Cl 
HETATM    8  C   UNL     1      -9.216   6.169  69.151  1.00  0.00    -0.127 A  
HETATM    9  C   UNL     1      -9.362   5.618  67.869  1.00  0.00    -0.112 A  
HETATM   10  C   UNL     1      -8.790   6.221  66.732  1.00  0.00    -0.126 A  
HETATM   11 CL   UNL     1      -9.009   5.402  65.228  1.00  0.00    -0.140 Cl 
HETATM   12  C   UNL     1      -8.084   7.417  66.872  1.00  0.00    -0.120 A  
HETATM   13  O   UNL     1      -8.754   9.533  70.678  1.00  0.00    -0.218 OA 
HETATM   14  C   UNL     1      -7.968   8.008  68.132  1.00  0.00    -0.128 A  
HETATM   15  C   UNL     1      -8.539   7.381  69.242  1.00  0.00    -0.137 A  
HETATM   16  O   UNL     1      -7.080   7.763  71.334  1.00  0.00    -0.055 OA 
HETATM   17  S   UNL     1      -8.375   8.143  70.808  1.00  0.00    -0.126 S  
ENDROOT
BRANCH  12  18
HETATM   18  S   UNL     1      -7.346   8.243  65.499  1.00  0.00    -0.074 S  
HETATM   19  O   UNL     1      -6.667   9.427  65.964  1.00  0.00    -0.078 OA 
HETATM   20  H1  UNL     1      -8.235   9.222  63.796  1.00  0.00     0.000 HD 
HETATM   21  H2  UNL     1      -9.654   8.603  64.782  1.00  0.00     0.000 HD 
HETATM   22  O   UNL     1      -6.683   7.264  64.668  1.00  0.00    -0.042 OA 
HETATM   23  N   UNL     1      -8.662   8.744  64.589  1.00  0.00    -0.123 N  
ENDBRANCH  12  18
TORSDOF 1
ENDMDL
MODEL      117
REMARK 921   NORMALIZED FREE ENERGY PREDICTED BY IDOCK:   -2.35 KCAL/MOL
REMARK 922        TOTAL FREE ENERGY PREDICTED BY IDOCK:   -2.67 KCAL/MOL
REMARK 923 INTER-LIGAND FREE ENERGY PREDICTED BY IDOCK:   -2.50 KCAL/MOL
REMARK 924 INTRA-LIGAND FREE ENERGY PREDICTED BY IDOCK:   -0.17 KCAL/MOL
REMARK 927      BINDING AFFINITY PREDICTED BY RF-SCORE:    0.00 PKD
ROOT
HETATM    1  C   UNL     1      -5.570  11.394  68.706  1.00  0.00    -0.042 C  
HETATM    2  N   UNL     1      -6.863  12.103  68.819  1.00  0.00    -0.090 N  
HETATM    3  C   UNL     1      -8.020  11.434  68.192  1.00  0.00    -0.133 C  
HETATM    4  C   UNL     1      -8.085   9.923  68.525  1.00  0.00    -0.101 C  
HETATM    5  N   UNL     1      -9.240  12.064  68.704  1.00  0.00    -0.380 NA 
HETATM    6  H   UNL     1      -9.959  11.498  69.153  1.00  0.00     0.000 HD 
HETATM    7 CL   UNL     1      -9.499   9.145  67.743  1.00  0.00    -0.156 Cl 
HETATM    8  C   UNL     1      -9.415  13.439  68.575  1.00  0.00    -0.121 A  
HETATM    9  C   UNL     1     -10.692  13.992  68.750  1.00  0.00    -0.272 A  
HETATM   10  C   UNL     1     -10.912  15.382  68.705  1.00  0.00    -0.273 A  
HETATM   11 CL   UNL     1     -12.545  15.914  68.887  1.00  0.00     0.466 Cl 
HETATM   12  C   UNL     1      -9.830  16.242  68.512  1.00  0.00    -0.223 A  
HETATM   13  O   UNL     1      -5.872  14.421  69.168  1.00  0.00    -0.090 OA 
HETATM   14  C   UNL     1      -8.543  15.716  68.383  1.00  0.00    -0.173 A  
HETATM   15  C   UNL     1      -8.358  14.332  68.423  1.00  0.00    -0.164 A  
HETATM   16  O   UNL     1      -6.445  13.638  66.839  1.00  0.00     0.161 OA 
HETATM   17  S   UNL     1      -6.735  13.701  68.257  1.00  0.00    -0.127 S  
ENDROOT
BRANCH  12  18
HETATM   18  S   UNL     1     -10.016  17.995  68.453  1.00  0.00    -0.395 S  
HETATM   19  O   UNL     1     -10.850  18.350  67.332  1.00  0.00    -0.403 OA 
HETATM   20  H1  UNL     1      -8.575  19.556  68.083  1.00  0.00     0.000 HD 
HETATM   21  H2  UNL     1      -7.618  17.993  67.981  1.00  0.00     0.000 HD 
HETATM   22  O   UNL     1     -10.290  18.479  69.787  1.00  0.00     0.305 OA 
HETATM   23  N   UNL     1      -8.467  18.543  68.118  1.00  0.00    -0.288 N  
ENDBRANCH  12  18
TORSDOF 1
ENDMDL
MODEL      118
REMARK 921   NORMALIZED FREE ENERGY PREDICTED BY IDOCK:   -2.31 KCAL/MOL
REMARK 922        TOTAL FREE ENERGY PREDICTED BY IDOCK:   -2.63 KCAL/MOL
REMARK 923 INTER-LIGAND FREE ENERGY PREDICTED BY IDOCK:   -3.03 KCAL/MOL
REMARK 924 INTRA-LIGAND FREE ENERGY PREDICTED BY IDOCK:    0.40 KCAL/MOL
REMARK 927      BINDING AFFINITY PREDICTED BY RF-SCORE:    0.00 PKD
ROOT
HETATM    1  C   UNL     1      -8.184  10.112  68.290  1.00  0.00    -0.110 C  
HETATM    2  N   UNL     1      -8.801   9.161  69.241  1.00  0.00    -0.140 N  
HETATM    3  C   UNL     1      -9.749   9.745  70.209  1.00  0.00    -0.223 C  
HETATM    4  C   UNL     1     -10.746  10.727  69.547  1.00  0.00    -0.226 C  
HETATM    5  N   UNL     1     -10.519   8.650  70.805  1.00  0.00    -0.197 NA 
HETATM    6  H   UNL     1     -11.538   8.658  70.762  1.00  0.00     0.000 HD 
HETATM    7 CL   UNL     1     -11.877  11.418  70.755  1.00  0.00    -0.345 Cl 
HETATM    8  C   UNL     1      -9.856   7.598  71.431  1.00  0.00    -0.174 A  
HETATM    9  C   UNL     1     -10.571   6.738  72.279  1.00  0.00    -0.241 A  
HETATM   10  C   UNL     1      -9.967   5.616  72.878  1.00  0.00    -0.176 A  
HETATM   11 CL   UNL     1     -10.957   4.679  73.939  1.00  0.00    -0.360 Cl 
HETATM   12  C   UNL     1      -8.631   5.325  72.601  1.00  0.00    -0.117 A  
HETATM   13  O   UNL     1      -6.974   7.396  69.082  1.00  0.00    -0.071 OA 
HETATM   14  C   UNL     1      -7.915   6.140  71.721  1.00  0.00    -0.103 A  
HETATM   15  C   UNL     1      -8.538   7.252  71.150  1.00  0.00    -0.130 A  
HETATM   16  O   UNL     1      -6.847   9.178  70.865  1.00  0.00    -0.077 OA 
HETATM   17  S   UNL     1      -7.615   8.255  70.054  1.00  0.00    -0.074 S  
ENDROOT
BRANCH  12  18
HETATM   18  S   UNL     1      -7.802   3.934  73.300  1.00  0.00    -0.085 S  
HETATM   19  O   UNL     1      -6.409   4.253  73.487  1.00  0.00    -0.040 OA 
HETATM   20  H1  UNL     1      -7.415   1.971  72.496  1.00  0.00     0.000 HD 
HETATM   21  H2  UNL     1      -8.327   2.855  71.172  1.00  0.00     0.000 HD 
HETATM   22  O   UNL     1      -8.611   3.402  74.374  1.00  0.00    -0.085 OA 
HETATM   23  N   UNL     1      -7.894   2.775  72.092  1.00  0.00    -0.053 N  
ENDBRANCH  12  18
TORSDOF 1
ENDMDL
MODEL      119
REMARK 921   NORMALIZED FREE ENERGY PREDICTED BY IDOCK:   -2.28 KCAL/MOL
REMARK 922        TOTAL FREE ENERGY PREDICTED BY IDOCK:   -2.60 KCAL/MOL
REMARK 923 INTER-LIGAND FREE ENERGY PREDICTED BY IDOCK:   -2.76 KCAL/MOL
REMARK 924 INTRA-LIGAND FREE ENERGY PREDICTED BY IDOCK:    0.17 KCAL/MOL
REMARK 927      BINDING AFFINITY PREDICTED BY RF-SCORE:    0.00 PKD
ROOT
HETATM    1  C   UNL     1     -10.164   8.362  70.643  1.00  0.00    -0.194 C  
HETATM    2  N   UNL     1      -9.668   7.914  69.323  1.00  0.00    -0.157 N  
HETATM    3  C   UNL     1     -10.089   8.730  68.168  1.00  0.00    -0.190 C  
HETATM    4  C   UNL     1      -9.940  10.250  68.427  1.00  0.00    -0.157 C  
HETATM    5  N   UNL     1      -9.235   8.379  67.029  1.00  0.00    -0.145 NA 
HETATM    6  H   UNL     1      -8.706   9.103  66.544  1.00  0.00     0.000 HD 
HETATM    7 CL   UNL     1     -10.465  11.207  67.004  1.00  0.00    -0.262 Cl 
HETATM    8  C   UNL     1      -9.149   7.054  66.613  1.00  0.00    -0.152 A  
HETATM    9  C   UNL     1      -8.615   6.761  65.348  1.00  0.00    -0.057 A  
HETATM   10  C   UNL     1      -8.436   5.436  64.907  1.00  0.00    -0.148 A  
HETATM   11 CL   UNL     1      -7.817   5.230  63.308  1.00  0.00    -0.082 Cl 
HETATM   12  C   UNL     1      -8.765   4.379  65.757  1.00  0.00    -0.120 A  
HETATM   13  O   UNL     1      -9.272   5.491  69.990  1.00  0.00    -0.135 OA 
HETATM   14  C   UNL     1      -9.251   4.648  67.038  1.00  0.00    -0.137 A  
HETATM   15  C   UNL     1      -9.427   5.973  67.443  1.00  0.00    -0.111 A  
HETATM   16  O   UNL     1     -11.485   6.171  68.986  1.00  0.00    -0.340 OA 
HETATM   17  S   UNL     1     -10.041   6.279  69.053  1.00  0.00    -0.186 S  
ENDROOT
BRANCH  12  18
HETATM   18  S   UNL     1      -8.561   2.691  65.287  1.00  0.00    -0.110 S  
HETATM   19  O   UNL     1      -7.155   2.391  65.181  1.00  0.00    -0.053 OA 
HETATM   20  H1  UNL     1      -9.086   1.659  63.467  1.00  0.00     0.000 HD 
HETATM   21  H2  UNL     1      -9.616   3.395  63.198  1.00  0.00     0.000 HD 
HETATM   22  O   UNL     1      -9.455   1.877  66.079  1.00  0.00     0.070 OA 
HETATM   23  N   UNL     1      -9.204   2.635  63.739  1.00  0.00    -0.099 N  
ENDBRANCH  12  18
TORSDOF 1
ENDMDL
MODEL      120
REMARK 921   NORMALIZED FREE ENERGY PREDICTED BY IDOCK:   -2.26 KCAL/MOL
REMARK 922        TOTAL FREE ENERGY PREDICTED BY IDOCK:   -2.57 KCAL/MOL
REMARK 923 INTER-LIGAND FREE ENERGY PREDICTED BY IDOCK:   -2.83 KCAL/MOL
REMARK 924 INTRA-LIGAND FREE ENERGY PREDICTED BY IDOCK:    0.26 KCAL/MOL
REMARK 927      BINDING AFFINITY PREDICTED BY RF-SCORE:    0.00 PKD
ROOT
HETATM    1  C   UNL     1      -9.709   4.268  66.507  1.00  0.00    -0.219 C  
HETATM    2  N   UNL     1      -9.357   5.693  66.693  1.00  0.00    -0.139 N  
HETATM    3  C   UNL     1      -8.043   5.954  67.310  1.00  0.00    -0.102 C  
HETATM    4  C   UNL     1      -6.915   5.089  66.695  1.00  0.00    -0.067 C  
HETATM    5  N   UNL     1      -7.708   7.363  67.083  1.00  0.00    -0.113 NA 
HETATM    6  H   UNL     1      -6.834   7.614  66.621  1.00  0.00     0.000 HD 
HETATM    7 CL   UNL     1      -5.336   5.432  67.473  1.00  0.00    -0.007 Cl 
HETATM    8  C   UNL     1      -8.587   8.358  67.501  1.00  0.00    -0.129 A  
HETATM    9  C   UNL     1      -8.135   9.684  67.593  1.00  0.00    -0.113 A  
HETATM   10  C   UNL     1      -9.000  10.740  67.939  1.00  0.00    -0.139 A  
HETATM   11 CL   UNL     1      -8.292  12.311  68.063  1.00  0.00    -0.157 Cl 
HETATM   12  C   UNL     1     -10.351  10.475  68.166  1.00  0.00    -0.172 A  
HETATM   13  O   UNL     1     -11.748   6.565  66.691  1.00  0.00     0.432 OA 
HETATM   14  C   UNL     1     -10.831   9.171  68.032  1.00  0.00    -0.135 A  
HETATM   15  C   UNL     1      -9.947   8.142  67.698  1.00  0.00    -0.185 A  
HETATM   16  O   UNL     1     -10.637   5.952  68.872  1.00  0.00    -0.235 OA 
HETATM   17  S   UNL     1     -10.577   6.518  67.540  1.00  0.00    -0.325 S  
ENDROOT
BRANCH  12  18
HETATM   18  S   UNL     1     -11.503  11.741  68.592  1.00  0.00    -0.316 S  
HETATM   19  O   UNL     1     -10.803  12.829  69.228  1.00  0.00    -0.133 OA 
HETATM   20  H1  UNL     1     -13.134  11.749  70.004  1.00  0.00     0.000 HD 
HETATM   21  H2  UNL     1     -12.404  10.069  70.130  1.00  0.00     0.000 HD 
HETATM   22  O   UNL     1     -12.390  11.958  67.472  1.00  0.00    -0.326 OA 
HETATM   23  N   UNL     1     -12.468  11.017  69.757  1.00  0.00    -0.254 N  
ENDBRANCH  12  18
TORSDOF 1
ENDMDL
MODEL      121
REMARK 921   NORMALIZED FREE ENERGY PREDICTED BY IDOCK:   -1.82 KCAL/MOL
REMARK 922        TOTAL FREE ENERGY PREDICTED BY IDOCK:   -2.11 KCAL/MOL
REMARK 923 INTER-LIGAND FREE ENERGY PREDICTED BY IDOCK:   -2.40 KCAL/MOL
REMARK 924 INTRA-LIGAND FREE ENERGY PREDICTED BY IDOCK:    0.29 KCAL/MOL
REMARK 927      BINDING AFFINITY PREDICTED BY RF-SCORE:    0.00 PKD
ROOT
HETATM    1  C   UNL     1      -8.954   7.458  71.862  1.00  0.00    -0.125 C  
HETATM    2  N   UNL     1      -8.764   7.120  70.434  1.00  0.00    -0.148 N  
HETATM    3  C   UNL     1      -7.715   6.124  70.143  1.00  0.00    -0.097 C  
HETATM    4  C   UNL     1      -7.779   4.900  71.090  1.00  0.00    -0.083 C  
HETATM    5  N   UNL     1      -7.911   5.648  68.771  1.00  0.00    -0.095 NA 
HETATM    6  H   UNL     1      -8.023   4.651  68.586  1.00  0.00     0.000 HD 
HETATM    7 CL   UNL     1      -6.488   3.716  70.709  1.00  0.00    -0.030 Cl 
HETATM    8  C   UNL     1      -7.943   6.559  67.720  1.00  0.00    -0.115 A  
HETATM    9  C   UNL     1      -7.794   6.100  66.403  1.00  0.00    -0.104 A  
HETATM   10  C   UNL     1      -7.893   6.968  65.299  1.00  0.00    -0.121 A  
HETATM   11 CL   UNL     1      -7.635   6.270  63.740  1.00  0.00    -0.084 Cl 
HETATM   12  C   UNL     1      -8.178   8.317  65.509  1.00  0.00    -0.138 A  
HETATM   13  O   UNL     1      -9.751   9.277  69.511  1.00  0.00    -0.162 OA 
HETATM   14  C   UNL     1      -8.379   8.786  66.809  1.00  0.00    -0.108 A  
HETATM   15  C   UNL     1      -8.265   7.903  67.885  1.00  0.00    -0.129 A  
HETATM   16  O   UNL     1      -7.269   9.112  69.934  1.00  0.00    -0.053 OA 
HETATM   17  S   UNL     1      -8.519   8.520  69.503  1.00  0.00    -0.128 S  
ENDROOT
BRANCH  12  18
HETATM   18  S   UNL     1      -8.329   9.469  64.182  1.00  0.00    -0.186 S  
HETATM   19  O   UNL     1      -8.595   8.755  62.958  1.00  0.00    -0.179 OA 
HETATM   20  H1  UNL     1      -6.879  10.792  63.288  1.00  0.00     0.000 HD 
HETATM   21  H2  UNL     1      -5.965   9.911  64.614  1.00  0.00     0.000 HD 
HETATM   22  O   UNL     1      -9.159  10.571  64.615  1.00  0.00    -0.192 OA 
HETATM   23  N   UNL     1      -6.792  10.126  64.056  1.00  0.00    -0.124 N  
ENDBRANCH  12  18
TORSDOF 1
ENDMDL
MODEL      122
REMARK 921   NORMALIZED FREE ENERGY PREDICTED BY IDOCK:   -1.60 KCAL/MOL
REMARK 922        TOTAL FREE ENERGY PREDICTED BY IDOCK:   -1.87 KCAL/MOL
REMARK 923 INTER-LIGAND FREE ENERGY PREDICTED BY IDOCK:   -2.07 KCAL/MOL
REMARK 924 INTRA-LIGAND FREE ENERGY PREDICTED BY IDOCK:    0.20 KCAL/MOL
REMARK 927      BINDING AFFINITY PREDICTED BY RF-SCORE:    0.00 PKD
ROOT
HETATM    1  C   UNL     1      -8.049  10.090  68.228  1.00  0.00    -0.104 C  
HETATM    2  N   UNL     1      -8.582   8.800  68.721  1.00  0.00    -0.135 N  
HETATM    3  C   UNL     1      -9.645   8.892  69.739  1.00  0.00    -0.171 C  
HETATM    4  C   UNL     1     -10.729   9.937  69.375  1.00  0.00    -0.232 C  
HETATM    5  N   UNL     1     -10.294   7.582  69.836  1.00  0.00    -0.217 NA 
HETATM    6  H   UNL     1     -11.302   7.498  69.703  1.00  0.00     0.000 HD 
HETATM    7 CL   UNL     1     -12.000  10.023  70.637  1.00  0.00    -0.381 Cl 
HETATM    8  C   UNL     1      -9.531   6.451  70.110  1.00  0.00    -0.160 A  
HETATM    9  C   UNL     1     -10.168   5.273  70.530  1.00  0.00    -0.334 A  
HETATM   10  C   UNL     1      -9.453   4.080  70.749  1.00  0.00    -0.170 A  
HETATM   11 CL   UNL     1     -10.362   2.724  71.314  1.00  0.00     0.359 Cl 
HETATM   12  C   UNL     1      -8.078   4.050  70.514  1.00  0.00    -0.054 A  
HETATM   13  O   UNL     1      -6.533   7.414  68.123  1.00  0.00    -0.042 OA 
HETATM   14  C   UNL     1      -7.432   5.198  70.049  1.00  0.00    -0.063 A  
HETATM   15  C   UNL     1      -8.166   6.369  69.850  1.00  0.00    -0.126 A  
HETATM   16  O   UNL     1      -6.731   8.434  70.423  1.00  0.00    -0.036 OA 
HETATM   17  S   UNL     1      -7.330   7.792  69.270  1.00  0.00    -0.089 S  
ENDROOT
BRANCH  12  18
HETATM   18  S   UNL     1      -7.109   2.596  70.753  1.00  0.00    -0.033 S  
HETATM   19  O   UNL     1      -7.695   1.799  71.802  1.00  0.00    -0.039 OA 
HETATM   20  H1  UNL     1      -5.090   2.346  71.467  1.00  0.00     0.000 HD 
HETATM   21  H2  UNL     1      -5.384   4.157  71.499  1.00  0.00     0.000 HD 
HETATM   22  O   UNL     1      -6.788   2.034  69.461  1.00  0.00    -0.033 OA 
HETATM   23  N   UNL     1      -5.649   3.187  71.328  1.00  0.00    -0.012 N  
ENDBRANCH  12  18
TORSDOF 1
ENDMDL
MODEL      123
REMARK 921   NORMALIZED FREE ENERGY PREDICTED BY IDOCK:   -1.36 KCAL/MOL
REMARK 922        TOTAL FREE ENERGY PREDICTED BY IDOCK:   -1.62 KCAL/MOL
REMARK 923 INTER-LIGAND FREE ENERGY PREDICTED BY IDOCK:   -1.60 KCAL/MOL
REMARK 924 INTRA-LIGAND FREE ENERGY PREDICTED BY IDOCK:   -0.01 KCAL/MOL
REMARK 927      BINDING AFFINITY PREDICTED BY RF-SCORE:    0.00 PKD
ROOT
HETATM    1  C   UNL     1     -12.957  15.282  72.038  1.00  0.00    -0.370 C  
HETATM    2  N   UNL     1     -12.114  14.336  71.274  1.00  0.00    -0.346 N  
HETATM    3  C   UNL     1     -11.812  14.724  69.883  1.00  0.00    -0.316 C  
HETATM    4  C   UNL     1     -11.386  16.208  69.758  1.00  0.00    -0.323 C  
HETATM    5  N   UNL     1     -10.701  13.892  69.412  1.00  0.00    -0.442 NA 
HETATM    6  H   UNL     1      -9.852  14.328  69.050  1.00  0.00     0.000 HD 
HETATM    7 CL   UNL     1     -11.032  16.642  68.055  1.00  0.00    -0.343 Cl 
HETATM    8  C   UNL     1     -10.806  12.505  69.459  1.00  0.00     0.193 A  
HETATM    9  C   UNL     1      -9.912  11.719  68.718  1.00  0.00    -0.128 A  
HETATM   10  C   UNL     1      -9.926  10.313  68.788  1.00  0.00    -0.179 A  
HETATM   11 CL   UNL     1      -8.800   9.476  67.779  1.00  0.00    -0.119 Cl 
HETATM   12  C   UNL     1     -10.830   9.676  69.639  1.00  0.00    -0.244 A  
HETATM   13  O   UNL     1     -12.666  12.286  72.678  1.00  0.00     0.302 OA 
HETATM   14  C   UNL     1     -11.696  10.442  70.423  1.00  0.00    -0.419 A  
HETATM   15  C   UNL     1     -11.665  11.834  70.325  1.00  0.00    -0.228 A  
HETATM   16  O   UNL     1     -14.035  12.806  70.623  1.00  0.00     1.708 OA 
HETATM   17  S   UNL     1     -12.764  12.767  71.317  1.00  0.00    -0.169 S  
ENDROOT
BRANCH  12  18
HETATM   18  S   UNL     1     -10.906   7.921  69.794  1.00  0.00    -0.152 S  
HETATM   19  O   UNL     1      -9.583   7.405  70.040  1.00  0.00    -0.168 OA 
HETATM   20  H1  UNL     1     -11.410   6.397  68.354  1.00  0.00     0.000 HD 
HETATM   21  H2  UNL     1     -11.558   7.982  67.440  1.00  0.00     0.000 HD 
HETATM   22  O   UNL     1     -12.026   7.578  70.642  1.00  0.00    -0.241 OA 
HETATM   23  N   UNL     1     -11.367   7.412  68.264  1.00  0.00     0.381 N  
ENDBRANCH  12  18
TORSDOF 1
ENDMDL
MODEL      124
REMARK 921   NORMALIZED FREE ENERGY PREDICTED BY IDOCK:   -1.31 KCAL/MOL
REMARK 922        TOTAL FREE ENERGY PREDICTED BY IDOCK:   -1.57 KCAL/MOL
REMARK 923 INTER-LIGAND FREE ENERGY PREDICTED BY IDOCK:   -2.47 KCAL/MOL
REMARK 924 INTRA-LIGAND FREE ENERGY PREDICTED BY IDOCK:    0.90 KCAL/MOL
REMARK 927      BINDING AFFINITY PREDICTED BY RF-SCORE:    0.00 PKD
ROOT
HETATM    1  C   UNL     1      -9.420  12.617  66.287  1.00  0.00    -0.207 C  
HETATM    2  N   UNL     1      -9.177  11.311  66.937  1.00  0.00    -0.172 N  
HETATM    3  C   UNL     1      -7.996  11.243  67.819  1.00  0.00    -0.117 C  
HETATM    4  C   UNL     1      -7.890  12.462  68.768  1.00  0.00     0.020 C  
HETATM    5  N   UNL     1      -8.114  10.036  68.642  1.00  0.00    -0.098 NA 
HETATM    6  H   UNL     1      -8.083  10.105  69.660  1.00  0.00     0.000 HD 
HETATM    7 CL   UNL     1      -6.442  12.345  69.819  1.00  0.00    -0.076 Cl 
HETATM    8  C   UNL     1      -8.270   8.795  68.032  1.00  0.00    -0.118 A  
HETATM    9  C   UNL     1      -8.050   7.627  68.778  1.00  0.00    -0.127 A  
HETATM   10  C   UNL     1      -8.264   6.346  68.232  1.00  0.00    -0.116 A  
HETATM   11 CL   UNL     1      -7.902   5.000  69.251  1.00  0.00    -0.075 Cl 
HETATM   12  C   UNL     1      -8.739   6.228  66.926  1.00  0.00    -0.113 A  
HETATM   13  O   UNL     1     -10.454   9.917  65.234  1.00  0.00    -0.066 OA 
HETATM   14  C   UNL     1      -9.012   7.378  66.182  1.00  0.00    -0.182 A  
HETATM   15  C   UNL     1      -8.780   8.634  66.748  1.00  0.00    -0.124 A  
HETATM   16  O   UNL     1      -7.976  10.293  64.944  1.00  0.00    -0.151 OA 
HETATM   17  S   UNL     1      -9.127  10.058  65.791  1.00  0.00    -0.176 S  
ENDROOT
BRANCH  12  18
HETATM   18  S   UNL     1      -9.045   4.663  66.170  1.00  0.00    -0.136 S  
HETATM   19  O   UNL     1     -10.467   4.451  66.072  1.00  0.00    -0.242 OA 
HETATM   20  H1  UNL     1      -8.627   2.661  66.852  1.00  0.00     0.000 HD 
HETATM   21  H2  UNL     1      -8.013   3.756  68.191  1.00  0.00     0.000 HD 
HETATM   22  O   UNL     1      -8.174   4.522  65.025  1.00  0.00    -0.104 OA 
HETATM   23  N   UNL     1      -8.449   3.565  67.289  1.00  0.00    -0.095 N  
ENDBRANCH  12  18
TORSDOF 1
ENDMDL
MODEL      125
REMARK 921   NORMALIZED FREE ENERGY PREDICTED BY IDOCK:   -0.26 KCAL/MOL
REMARK 922        TOTAL FREE ENERGY PREDICTED BY IDOCK:   -0.46 KCAL/MOL
REMARK 923 INTER-LIGAND FREE ENERGY PREDICTED BY IDOCK:   -0.64 KCAL/MOL
REMARK 924 INTRA-LIGAND FREE ENERGY PREDICTED BY IDOCK:    0.18 KCAL/MOL
REMARK 927      BINDING AFFINITY PREDICTED BY RF-SCORE:    0.00 PKD
ROOT
HETATM    1  C   UNL     1     -11.640   7.735  68.223  1.00  0.00     1.406 C  
HETATM    2  N   UNL     1     -11.225   6.832  69.319  1.00  0.00    -0.235 N  
HETATM    3  C   UNL     1     -11.654   7.228  70.674  1.00  0.00    -0.290 C  
HETATM    4  C   UNL     1     -13.141   7.659  70.725  1.00  0.00     0.223 C  
HETATM    5  N   UNL     1     -11.487   6.071  71.558  1.00  0.00    -0.257 NA 
HETATM    6  H   UNL     1     -12.278   5.719  72.096  1.00  0.00     0.000 HD 
HETATM    7 CL   UNL     1     -13.622   8.137  72.385  1.00  0.00    -0.156 Cl 
HETATM    8  C   UNL     1     -10.244   5.454  71.662  1.00  0.00    -0.209 A  
HETATM    9  C   UNL     1      -9.993   4.581  72.732  1.00  0.00    -0.209 A  
HETATM   10  C   UNL     1      -8.781   3.874  72.845  1.00  0.00    -0.098 A  
HETATM   11 CL   UNL     1      -8.594   2.876  74.242  1.00  0.00    -0.075 Cl 
HETATM   12  C   UNL     1      -7.809   4.014  71.853  1.00  0.00    -0.075 A  
HETATM   13  O   UNL     1      -9.242   5.810  68.093  1.00  0.00    -0.110 OA 
HETATM   14  C   UNL     1      -8.058   4.840  70.754  1.00  0.00    -0.085 A  
HETATM   15  C   UNL     1      -9.266   5.536  70.675  1.00  0.00    -0.150 A  
HETATM   16  O   UNL     1      -8.904   7.834  69.562  1.00  0.00    -0.138 OA 
HETATM   17  S   UNL     1      -9.548   6.565  69.289  1.00  0.00    -0.138 S  
ENDROOT
BRANCH  12  18
HETATM   18  S   UNL     1      -6.269   3.157  71.912  1.00  0.00    -0.015 S  
HETATM   19  O   UNL     1      -5.364   3.734  70.950  1.00  0.00    -0.004 OA 
HETATM   20  H1  UNL     1      -5.767   1.121  71.407  1.00  0.00     0.000 HD 
HETATM   21  H2  UNL     1      -7.568   1.260  71.082  1.00  0.00     0.000 HD 
HETATM   22  O   UNL     1      -5.892   2.971  73.295  1.00  0.00    -0.003 OA 
HETATM   23  N   UNL     1      -6.657   1.617  71.374  1.00  0.00    -0.019 N  
ENDBRANCH  12  18
TORSDOF 1
ENDMDL
MODEL      126
REMARK 921   NORMALIZED FREE ENERGY PREDICTED BY IDOCK:   -0.01 KCAL/MOL
REMARK 922        TOTAL FREE ENERGY PREDICTED BY IDOCK:   -0.19 KCAL/MOL
REMARK 923 INTER-LIGAND FREE ENERGY PREDICTED BY IDOCK:   -0.79 KCAL/MOL
REMARK 924 INTRA-LIGAND FREE ENERGY PREDICTED BY IDOCK:    0.60 KCAL/MOL
REMARK 927      BINDING AFFINITY PREDICTED BY RF-SCORE:    0.00 PKD
ROOT
HETATM    1  C   UNL     1      -6.347   7.719  68.664  1.00  0.00    -0.044 C  
HETATM    2  N   UNL     1      -7.348   8.663  69.205  1.00  0.00    -0.074 N  
HETATM    3  C   UNL     1      -8.476   8.055  69.937  1.00  0.00    -0.126 C  
HETATM    4  C   UNL     1      -8.016   6.964  70.936  1.00  0.00    -0.098 C  
HETATM    5  N   UNL     1      -9.146   9.113  70.697  1.00  0.00    -0.237 NA 
HETATM    6  H   UNL     1      -9.266   9.022  71.706  1.00  0.00     0.000 HD 
HETATM    7 CL   UNL     1      -9.413   6.247  71.802  1.00  0.00    -0.156 Cl 
HETATM    8  C   UNL     1      -9.620  10.244  70.038  1.00  0.00     0.060 A  
HETATM    9  C   UNL     1     -10.539  11.085  70.684  1.00  0.00     1.281 A  
HETATM   10  C   UNL     1     -10.993  12.281  70.094  1.00  0.00     0.865 A  
HETATM   11 CL   UNL     1     -12.162  13.188  70.984  1.00  0.00    -0.355 Cl 
HETATM   12  C   UNL     1     -10.496  12.663  68.847  1.00  0.00    -0.080 A  
HETATM   13  O   UNL     1      -6.837  10.558  67.584  1.00  0.00    -0.072 OA 
HETATM   14  C   UNL     1      -9.544  11.865  68.209  1.00  0.00    -0.201 A  
HETATM   15  C   UNL     1      -9.120  10.680  68.815  1.00  0.00    -0.169 A  
HETATM   16  O   UNL     1      -8.641   8.883  67.029  1.00  0.00    -0.115 OA 
HETATM   17  S   UNL     1      -7.929   9.700  67.990  1.00  0.00    -0.097 S  
ENDROOT
BRANCH  12  18
HETATM   18  S   UNL     1     -11.004  14.148  68.044  1.00  0.00    -0.263 S  
HETATM   19  O   UNL     1      -9.862  14.769  67.421  1.00  0.00    -0.220 OA 
HETATM   20  H1  UNL     1     -11.775  15.995  68.847  1.00  0.00     0.000 HD 
HETATM   21  H2  UNL     1     -11.481  14.927  70.310  1.00  0.00     0.000 HD 
HETATM   22  O   UNL     1     -12.221  13.887  67.309  1.00  0.00    -0.394 OA 
HETATM   23  N   UNL     1     -11.483  15.136  69.312  1.00  0.00    -0.290 N  
ENDBRANCH  12  18
TORSDOF 1
ENDMDL
MODEL      127
REMARK 921   NORMALIZED FREE ENERGY PREDICTED BY IDOCK:    0.65 KCAL/MOL
REMARK 922        TOTAL FREE ENERGY PREDICTED BY IDOCK:    0.50 KCAL/MOL
REMARK 923 INTER-LIGAND FREE ENERGY PREDICTED BY IDOCK:    0.07 KCAL/MOL
REMARK 924 INTRA-LIGAND FREE ENERGY PREDICTED BY IDOCK:    0.43 KCAL/MOL
REMARK 927      BINDING AFFINITY PREDICTED BY RF-SCORE:    0.00 PKD
ROOT
HETATM    1  C   UNL     1      -6.989  12.134  67.994  1.00  0.00    -0.090 C  
HETATM    2  N   UNL     1      -8.294  11.586  68.426  1.00  0.00    -0.149 N  
HETATM    3  C   UNL     1      -9.088  12.450  69.321  1.00  0.00     0.934 C  
HETATM    4  C   UNL     1      -9.137  13.921  68.838  1.00  0.00     0.098 C  
HETATM    5  N   UNL     1     -10.460  11.936  69.347  1.00  0.00    -0.427 NA 
HETATM    6  H   UNL     1     -11.241  12.546  69.103  1.00  0.00     0.000 HD 
HETATM    7 CL   UNL     1     -10.107  14.939  69.951  1.00  0.00    -0.044 Cl 
HETATM    8  C   UNL     1     -10.696  10.612  69.705  1.00  0.00    -0.244 A  
HETATM    9  C   UNL     1     -11.995  10.211  70.053  1.00  0.00    -0.210 A  
HETATM   10  C   UNL     1     -12.303   8.870  70.351  1.00  0.00     0.383 A  
HETATM   11 CL   UNL     1     -13.933   8.534  70.813  1.00  0.00     0.237 Cl 
HETATM   12  C   UNL     1     -11.302   7.901  70.270  1.00  0.00    -0.150 A  
HETATM   13  O   UNL     1      -7.697   9.140  68.060  1.00  0.00    -0.091 OA 
HETATM   14  C   UNL     1     -10.014   8.270  69.877  1.00  0.00    -0.190 A  
HETATM   15  C   UNL     1      -9.736   9.610  69.597  1.00  0.00    -0.213 A  
HETATM   16  O   UNL     1      -7.332  10.196  70.322  1.00  0.00    -0.160 OA 
HETATM   17  S   UNL     1      -8.112  10.042  69.111  1.00  0.00    -0.139 S  
ENDROOT
BRANCH  12  18
HETATM   18  S   UNL     1     -11.606   6.198  70.616  1.00  0.00    -0.063 S  
HETATM   19  O   UNL     1     -12.982   6.028  71.008  1.00  0.00     1.017 OA 
HETATM   20  H1  UNL     1     -10.834   4.913  72.167  1.00  0.00     0.000 HD 
HETATM   21  H2  UNL     1     -10.051   6.545  72.468  1.00  0.00     0.000 HD 
HETATM   22  O   UNL     1     -11.009   5.397  69.571  1.00  0.00    -0.212 OA 
HETATM   23  N   UNL     1     -10.659   5.898  71.966  1.00  0.00    -0.213 N  
ENDBRANCH  12  18
TORSDOF 1
ENDMDL
MODEL      128
REMARK 921   NORMALIZED FREE ENERGY PREDICTED BY IDOCK:    0.75 KCAL/MOL
REMARK 922        TOTAL FREE ENERGY PREDICTED BY IDOCK:    0.62 KCAL/MOL
REMARK 923 INTER-LIGAND FREE ENERGY PREDICTED BY IDOCK:    0.58 KCAL/MOL
REMARK 924 INTRA-LIGAND FREE ENERGY PREDICTED BY IDOCK:    0.03 KCAL/MOL
REMARK 927      BINDING AFFINITY PREDICTED BY RF-SCORE:    0.00 PKD
ROOT
HETATM    1  C   UNL     1     -11.281   8.796  73.268  1.00  0.00     1.797 C  
HETATM    2  N   UNL     1     -11.148   8.196  71.922  1.00  0.00    -0.266 N  
HETATM    3  C   UNL     1     -11.867   6.925  71.712  1.00  0.00    -0.316 C  
HETATM    4  C   UNL     1     -13.317   6.964  72.257  1.00  0.00     0.209 C  
HETATM    5  N   UNL     1     -11.932   6.675  70.269  1.00  0.00    -0.583 NA 
HETATM    6  H   UNL     1     -12.834   6.529  69.815  1.00  0.00     0.000 HD 
HETATM    7 CL   UNL     1     -14.155   5.403  71.987  1.00  0.00     1.855 Cl 
HETATM    8  C   UNL     1     -10.760   6.636  69.520  1.00  0.00    -0.260 A  
HETATM    9  C   UNL     1     -10.780   6.076  68.234  1.00  0.00    -0.352 A  
HETATM   10  C   UNL     1      -9.642   6.078  67.405  1.00  0.00    -0.112 A  
HETATM   11 CL   UNL     1      -9.802   5.308  65.868  1.00  0.00    -0.147 Cl 
HETATM   12  C   UNL     1      -8.466   6.680  67.856  1.00  0.00    -0.119 A  
HETATM   13  O   UNL     1      -8.960   9.350  71.325  1.00  0.00    -0.282 OA 
HETATM   14  C   UNL     1      -8.438   7.286  69.113  1.00  0.00    -0.133 A  
HETATM   15  C   UNL     1      -9.580   7.259  69.916  1.00  0.00    -0.163 A  
HETATM   16  O   UNL     1      -8.923   7.069  72.403  1.00  0.00    -0.129 OA 
HETATM   17  S   UNL     1      -9.515   8.024  71.488  1.00  0.00    -0.170 S  
ENDROOT
BRANCH  12  18
HETATM   18  S   UNL     1      -6.999   6.736  66.878  1.00  0.00    -0.072 S  
HETATM   19  O   UNL     1      -6.004   7.529  67.554  1.00  0.00    -0.039 OA 
HETATM   20  H1  UNL     1      -6.624   7.617  64.945  1.00  0.00     0.000 HD 
HETATM   21  H2  UNL     1      -8.390   7.974  65.295  1.00  0.00     0.000 HD 
HETATM   22  O   UNL     1      -6.711   5.404  66.395  1.00  0.00    -0.054 OA 
HETATM   23  N   UNL     1      -7.472   7.584  65.510  1.00  0.00    -0.080 N  
ENDBRANCH  12  18
TORSDOF 1
ENDMDL
MODEL      129
REMARK 921   NORMALIZED FREE ENERGY PREDICTED BY IDOCK:    0.80 KCAL/MOL
REMARK 922        TOTAL FREE ENERGY PREDICTED BY IDOCK:    0.66 KCAL/MOL
REMARK 923 INTER-LIGAND FREE ENERGY PREDICTED BY IDOCK:    0.01 KCAL/MOL
REMARK 924 INTRA-LIGAND FREE ENERGY PREDICTED BY IDOCK:    0.65 KCAL/MOL
REMARK 927      BINDING AFFINITY PREDICTED BY RF-SCORE:    0.00 PKD
ROOT
HETATM    1  C   UNL     1     -13.558  13.362  71.282  1.00  0.00     0.078 C  
HETATM    2  N   UNL     1     -12.495  14.323  70.913  1.00  0.00    -0.330 N  
HETATM    3  C   UNL     1     -12.273  15.431  71.861  1.00  0.00    -0.379 C  
HETATM    4  C   UNL     1     -12.223  14.953  73.333  1.00  0.00    -0.350 C  
HETATM    5  N   UNL     1     -10.983  16.049  71.541  1.00  0.00     0.103 NA 
HETATM    6  H   UNL     1     -10.262  16.130  72.257  1.00  0.00     0.000 HD 
HETATM    7 CL   UNL     1     -11.956  16.327  74.454  1.00  0.00    -0.332 Cl 
HETATM    8  C   UNL     1     -10.745  16.527  70.255  1.00  0.00    -0.081 A  
HETATM    9  C   UNL     1      -9.672  17.402  70.032  1.00  0.00     1.183 A  
HETATM   10  C   UNL     1      -9.341  17.856  68.741  1.00  0.00    -0.229 A  
HETATM   11 CL   UNL     1      -8.026  18.971  68.625  1.00  0.00    -0.380 Cl 
HETATM   12  C   UNL     1     -10.076  17.404  67.644  1.00  0.00    -0.327 A  
HETATM   13  O   UNL     1     -12.551  13.841  68.414  1.00  0.00     0.108 OA 
HETATM   14  C   UNL     1     -11.118  16.494  67.839  1.00  0.00    -0.229 A  
HETATM   15  C   UNL     1     -11.428  16.069  69.133  1.00  0.00    -0.347 A  
HETATM   16  O   UNL     1     -13.969  15.698  69.367  1.00  0.00     2.150 OA 
HETATM   17  S   UNL     1     -12.740  14.932  69.346  1.00  0.00     0.362 S  
ENDROOT
BRANCH  12  18
HETATM   18  S   UNL     1      -9.721  17.915  65.994  1.00  0.00    -0.039 S  
HETATM   19  O   UNL     1      -9.791  16.774  65.116  1.00  0.00    -0.297 OA 
HETATM   20  H1  UNL     1      -7.911  18.688  65.113  1.00  0.00     0.000 HD 
HETATM   21  H2  UNL     1      -7.493  18.391  66.876  1.00  0.00     0.000 HD 
HETATM   22  O   UNL     1     -10.449  19.133  65.717  1.00  0.00    -0.502 OA 
HETATM   23  N   UNL     1      -8.116  18.393  66.068  1.00  0.00    -0.155 N  
ENDBRANCH  12  18
TORSDOF 1
ENDMDL
MODEL      130
REMARK 921   NORMALIZED FREE ENERGY PREDICTED BY IDOCK:    0.90 KCAL/MOL
REMARK 922        TOTAL FREE ENERGY PREDICTED BY IDOCK:    0.77 KCAL/MOL
REMARK 923 INTER-LIGAND FREE ENERGY PREDICTED BY IDOCK:    0.78 KCAL/MOL
REMARK 924 INTRA-LIGAND FREE ENERGY PREDICTED BY IDOCK:   -0.01 KCAL/MOL
REMARK 927      BINDING AFFINITY PREDICTED BY RF-SCORE:    0.00 PKD
ROOT
HETATM    1  C   UNL     1     -12.095  11.144  64.097  1.00  0.00     0.959 C  
HETATM    2  N   UNL     1     -11.486  11.911  65.206  1.00  0.00    -0.294 N  
HETATM    3  C   UNL     1     -11.846  13.340  65.272  1.00  0.00    -0.357 C  
HETATM    4  C   UNL     1     -13.365  13.581  65.083  1.00  0.00     0.463 C  
HETATM    5  N   UNL     1     -11.469  13.842  66.596  1.00  0.00    -0.331 NA 
HETATM    6  H   UNL     1     -12.166  14.288  67.192  1.00  0.00     0.000 HD 
HETATM    7 CL   UNL     1     -13.761  15.327  65.165  1.00  0.00     1.899 Cl 
HETATM    8  C   UNL     1     -10.157  13.706  67.039  1.00  0.00    -0.248 A  
HETATM    9  C   UNL     1      -9.716  14.464  68.135  1.00  0.00    -0.223 A  
HETATM   10  C   UNL     1      -8.423  14.312  68.671  1.00  0.00    -0.142 A  
HETATM   11 CL   UNL     1      -8.003  15.349  69.987  1.00  0.00     0.097 Cl 
HETATM   12  C   UNL     1      -7.560  13.362  68.123  1.00  0.00    -0.138 A  
HETATM   13  O   UNL     1      -9.503  10.354  65.555  1.00  0.00    -0.185 OA 
HETATM   14  C   UNL     1      -7.995  12.563  67.064  1.00  0.00    -0.086 A  
HETATM   15  C   UNL     1      -9.281  12.744  66.548  1.00  0.00    -0.189 A  
HETATM   16  O   UNL     1      -9.289  12.331  64.002  1.00  0.00     0.153 OA 
HETATM   17  S   UNL     1      -9.797  11.730  65.218  1.00  0.00    -0.218 S  
ENDROOT
BRANCH  12  18
HETATM   18  S   UNL     1      -5.929  13.100  68.741  1.00  0.00    -0.082 S  
HETATM   19  O   UNL     1      -5.982  12.923  70.170  1.00  0.00    -0.146 OA 
HETATM   20  H1  UNL     1      -4.216  14.409  68.802  1.00  0.00     0.000 HD 
HETATM   21  H2  UNL     1      -5.542  15.400  68.009  1.00  0.00     0.000 HD 
HETATM   22  O   UNL     1      -5.253  12.154  67.882  1.00  0.00    -0.052 OA 
HETATM   23  N   UNL     1      -5.159  14.560  68.444  1.00  0.00    -0.098 N  
ENDBRANCH  12  18
TORSDOF 1
ENDMDL
MODEL      131
REMARK 921   NORMALIZED FREE ENERGY PREDICTED BY IDOCK:    2.71 KCAL/MOL
REMARK 922        TOTAL FREE ENERGY PREDICTED BY IDOCK:    2.68 KCAL/MOL
REMARK 923 INTER-LIGAND FREE ENERGY PREDICTED BY IDOCK:    2.25 KCAL/MOL
REMARK 924 INTRA-LIGAND FREE ENERGY PREDICTED BY IDOCK:    0.44 KCAL/MOL
REMARK 927      BINDING AFFINITY PREDICTED BY RF-SCORE:    0.00 PKD
ROOT
HETATM    1  C   UNL     1     -12.775  12.038  69.853  1.00  0.00     0.362 C  
HETATM    2  N   UNL     1     -12.105  10.847  69.286  1.00  0.00    -0.320 N  
HETATM    3  C   UNL     1     -12.352   9.575  69.992  1.00  0.00     0.470 C  
HETATM    4  C   UNL     1     -13.847   9.367  70.338  1.00  0.00     0.876 C  
HETATM    5  N   UNL     1     -11.934   8.480  69.111  1.00  0.00     0.970 NA 
HETATM    6  H   UNL     1     -12.592   7.741  68.865  1.00  0.00     0.000 HD 
HETATM    7 CL   UNL     1     -14.106   7.814  71.197  1.00  0.00    -0.318 Cl 
HETATM    8  C   UNL     1     -10.635   8.452  68.612  1.00  0.00    -0.113 A  
HETATM    9  C   UNL     1     -10.134   7.264  68.058  1.00  0.00    -0.207 A  
HETATM   10  C   UNL     1      -8.856   7.200  67.471  1.00  0.00    -0.119 A  
HETATM   11 CL   UNL     1      -8.353   5.658  66.877  1.00  0.00    -0.108 Cl 
HETATM   12  C   UNL     1      -8.071   8.352  67.407  1.00  0.00    -0.106 A  
HETATM   13  O   UNL     1     -10.249  12.120  68.097  1.00  0.00    -0.192 OA 
HETATM   14  C   UNL     1      -8.570   9.556  67.908  1.00  0.00    -0.119 A  
HETATM   15  C   UNL     1      -9.838   9.587  68.493  1.00  0.00    -0.158 A  
HETATM   16  O   UNL     1      -9.885  11.271  70.445  1.00  0.00     1.633 OA 
HETATM   17  S   UNL     1     -10.435  11.109  69.115  1.00  0.00    -0.141 S  
ENDROOT
BRANCH  12  18
HETATM   18  S   UNL     1      -6.464   8.361  66.681  1.00  0.00    -0.056 S  
HETATM   19  O   UNL     1      -6.588   8.443  65.247  1.00  0.00    -0.055 OA 
HETATM   20  H1  UNL     1      -4.931   6.845  66.625  1.00  0.00     0.000 HD 
HETATM   21  H2  UNL     1      -6.314   6.088  67.565  1.00  0.00     0.000 HD 
HETATM   22  O   UNL     1      -5.622   9.272  67.424  1.00  0.00    -0.041 OA 
HETATM   23  N   UNL     1      -5.860   6.840  67.046  1.00  0.00    -0.014 N  
ENDBRANCH  12  18
TORSDOF 1
ENDMDL
MODEL      132
REMARK 921   NORMALIZED FREE ENERGY PREDICTED BY IDOCK:    5.91 KCAL/MOL
REMARK 922        TOTAL FREE ENERGY PREDICTED BY IDOCK:    6.07 KCAL/MOL
REMARK 923 INTER-LIGAND FREE ENERGY PREDICTED BY IDOCK:    5.71 KCAL/MOL
REMARK 924 INTRA-LIGAND FREE ENERGY PREDICTED BY IDOCK:    0.36 KCAL/MOL
REMARK 927      BINDING AFFINITY PREDICTED BY RF-SCORE:    0.00 PKD
ROOT
HETATM    1  C   UNL     1      -8.855  19.566  67.856  1.00  0.00    -0.323 C  
HETATM    2  N   UNL     1      -9.208  18.299  68.533  1.00  0.00    -0.317 N  
HETATM    3  C   UNL     1      -9.353  17.121  67.657  1.00  0.00    -0.239 C  
HETATM    4  C   UNL     1      -8.201  16.999  66.629  1.00  0.00    -0.260 C  
HETATM    5  N   UNL     1      -9.335  15.923  68.502  1.00  0.00    -0.200 NA 
HETATM    6  H   UNL     1      -8.656  15.182  68.325  1.00  0.00     0.000 HD 
HETATM    7 CL   UNL     1      -8.415  15.560  65.581  1.00  0.00     0.879 Cl 
HETATM    8  C   UNL     1     -10.247  15.799  69.545  1.00  0.00    -0.271 A  
HETATM    9  C   UNL     1     -10.458  14.542  70.133  1.00  0.00     0.300 A  
HETATM   10  C   UNL     1     -11.312  14.373  71.239  1.00  0.00     0.343 A  
HETATM   11 CL   UNL     1     -11.514  12.760  71.823  1.00  0.00     2.847 Cl 
HETATM   12  C   UNL     1     -11.946  15.486  71.793  1.00  0.00    -0.419 A  
HETATM   13  O   UNL     1     -10.256  19.373  70.589  1.00  0.00     0.882 OA 
HETATM   14  C   UNL     1     -11.712  16.753  71.255  1.00  0.00     0.489 A  
HETATM   15  C   UNL     1     -10.866  16.888  70.151  1.00  0.00     0.164 A  
HETATM   16  O   UNL     1     -11.702  18.778  68.609  1.00  0.00     2.124 OA 
HETATM   17  S   UNL     1     -10.595  18.487  69.497  1.00  0.00     1.294 S  
ENDROOT
BRANCH  12  18
HETATM   18  S   UNL     1     -13.023  15.364  73.185  1.00  0.00    -0.563 S  
HETATM   19  O   UNL     1     -14.346  15.790  72.804  1.00  0.00    -0.453 OA 
HETATM   20  H1  UNL     1     -13.038  16.438  75.055  1.00  0.00     0.000 HD 
HETATM   21  H2  UNL     1     -11.614  17.127  74.125  1.00  0.00     0.000 HD 
HETATM   22  O   UNL     1     -12.791  14.098  73.843  1.00  0.00    -0.138 OA 
HETATM   23  N   UNL     1     -12.416  16.508  74.251  1.00  0.00    -0.430 N  
ENDBRANCH  12  18
TORSDOF 1
ENDMDL
MODEL      133
REMARK 921   NORMALIZED FREE ENERGY PREDICTED BY IDOCK:    9.25 KCAL/MOL
REMARK 922        TOTAL FREE ENERGY PREDICTED BY IDOCK:    9.61 KCAL/MOL
REMARK 923 INTER-LIGAND FREE ENERGY PREDICTED BY IDOCK:    8.92 KCAL/MOL
REMARK 924 INTRA-LIGAND FREE ENERGY PREDICTED BY IDOCK:    0.69 KCAL/MOL
REMARK 927      BINDING AFFINITY PREDICTED BY RF-SCORE:    0.00 PKD
ROOT
HETATM    1  C   UNL     1      -8.769  12.148  63.273  1.00  0.00     1.529 C  
HETATM    2  N   UNL     1      -8.847  11.261  64.456  1.00  0.00     0.086 N  
HETATM    3  C   UNL     1      -9.340   9.894  64.202  1.00  0.00    -0.237 C  
HETATM    4  C   UNL     1      -8.685   9.247  62.956  1.00  0.00    -0.196 C  
HETATM    5  N   UNL     1      -9.009   9.070  65.368  1.00  0.00    -0.224 NA 
HETATM    6  H   UNL     1      -8.464   8.215  65.253  1.00  0.00     0.000 HD 
HETATM    7 CL   UNL     1      -9.312   7.590  62.679  1.00  0.00     1.542 Cl 
HETATM    8  C   UNL     1      -9.441   9.456  66.633  1.00  0.00    -0.177 A  
HETATM    9  C   UNL     1      -9.422   8.526  67.683  1.00  0.00    -0.173 A  
HETATM   10  C   UNL     1      -9.777   8.884  68.998  1.00  0.00    -0.171 A  
HETATM   11 CL   UNL     1      -9.757   7.621  70.176  1.00  0.00    -0.179 Cl 
HETATM   12  C   UNL     1     -10.128  10.205  69.280  1.00  0.00    -0.222 A  
HETATM   13  O   UNL     1      -8.990  13.125  66.183  1.00  0.00     0.011 OA 
HETATM   14  C   UNL     1     -10.106  11.158  68.259  1.00  0.00    -0.196 A  
HETATM   15  C   UNL     1      -9.758  10.771  66.963  1.00  0.00    -0.176 A  
HETATM   16  O   UNL     1     -11.104  12.129  65.232  1.00  0.00    -0.303 OA 
HETATM   17  S   UNL     1      -9.742  11.986  65.704  1.00  0.00    -0.187 S  
ENDROOT
BRANCH  12  18
HETATM   18  S   UNL     1     -10.575  10.739  70.900  1.00  0.00     1.822 S  
HETATM   19  O   UNL     1      -9.913  11.985  71.192  1.00  0.00     6.254 OA 
HETATM   20  H1  UNL     1     -10.161   9.878  72.834  1.00  0.00     0.000 HD 
HETATM   21  H2  UNL     1      -9.365   8.744  71.630  1.00  0.00     0.000 HD 
HETATM   22  O   UNL     1     -12.002  10.579  71.066  1.00  0.00    -0.343 OA 
HETATM   23  N   UNL     1      -9.904   9.569  71.897  1.00  0.00     0.462 N  
ENDBRANCH  12  18
TORSDOF 1
ENDMDL
