MODEL        1
REMARK 921   NORMALIZED FREE ENERGY PREDICTED BY IDOCK:   -8.05 KCAL/MOL
REMARK 922        TOTAL FREE ENERGY PREDICTED BY IDOCK:  -13.09 KCAL/MOL
REMARK 923 INTER-LIGAND FREE ENERGY PREDICTED BY IDOCK:  -11.34 KCAL/MOL
REMARK 924 INTRA-LIGAND FREE ENERGY PREDICTED BY IDOCK:   -1.75 KCAL/MOL
REMARK 927      BINDING AFFINITY PREDICTED BY RF-SCORE:    0.00 PKD
ROOT
HETATM    1  C   UNK A   0     -10.165  14.137  65.496  1.00  0.00    -0.351 C  
HETATM    2  N   UNK A   0     -10.711  13.601  66.739  1.00  0.00    -0.272 NA 
ENDROOT
BRANCH   2   3
HETATM    3  C   UNK A   0     -10.212  12.405  67.244  1.00  0.00    -0.215 A  
HETATM    4  C   UNK A   0      -9.451  10.008  68.547  1.00  0.00    -0.150 A  
HETATM    5  C   UNK A   0      -9.071  12.343  68.063  1.00  0.00    -0.195 A  
HETATM    6  C   UNK A   0     -10.888  11.197  67.008  1.00  0.00    -0.338 A  
HETATM    7  C   UNK A   0     -10.527  10.015  67.660  1.00  0.00    -0.297 A  
HETATM    8  C   UNK A   0      -8.679  11.157  68.699  1.00  0.00    -0.153 A  
BRANCH   4   9
HETATM    9  C   UNK A   0      -9.135   8.798  69.344  1.00  0.00    -0.145 C  
HETATM   10  O   UNK A   0      -7.997   8.354  69.392  1.00  0.00    -0.107 OA 
ATOM     11  N   GLU A   1     -10.201   8.256  70.052  1.00  0.00    -0.198 N  
ATOM     12  H   GLU A   1     -11.144   8.621  69.922  1.00  0.00     0.000 HD 
BRANCH  11  13
ATOM     13  CA  GLU A   1      -9.954   7.147  70.993  1.00  0.00    -0.188 C  
ATOM     14  OXT GLU A   1     -10.083   4.715  70.748  1.00  0.00    -0.224 OA 
ATOM     15  C   GLU A   1     -10.408   5.824  70.348  1.00  0.00    -0.244 C  
ATOM     16  O   GLU A   1     -11.352   5.999  69.389  1.00  0.00    -0.398 OA 
BRANCH  13  17
ATOM     17  CB  GLU A   1     -10.721   7.381  72.303  1.00  0.00    -0.275 C  
BRANCH  17  18
ATOM     18  CG  GLU A   1     -11.477   8.713  72.327  1.00  0.00    -0.423 C  
ATOM     19  OE2 GLU A   1     -13.492   7.491  71.757  1.00  0.00    -0.349 OA 
ATOM     20  OE1 GLU A   1     -13.610   9.725  72.072  1.00  0.00    -0.399 OA 
ATOM     21  CD  GLU A   1     -12.944   8.549  72.019  1.00  0.00    -0.371 C  
ENDBRANCH  17  18
ENDBRANCH  13  17
ENDBRANCH  11  13
ENDBRANCH   4   9
ENDBRANCH   2   3
BRANCH   2  22
HETATM   22  C   UNK A   0     -12.029  14.091  67.177  1.00  0.00    -0.430 C  
BRANCH  22  23
HETATM   23  C   UNK A   0     -12.031  14.727  68.554  1.00  0.00    -0.248 A  
HETATM   24  N   UNK A   0     -13.499  12.660  71.921  1.00  0.00    -0.407 NA 
HETATM   25  C   UNK A   0     -12.000  15.865  71.059  1.00  0.00    -0.412 A  
HETATM   26  C   UNK A   0     -11.467  15.964  68.808  1.00  0.00    -0.393 A  
HETATM   27  N   UNK A   0     -12.024  16.458  72.249  1.00  0.00    -0.615 NA 
HETATM   28  C   UNK A   0     -13.048  13.989  71.965  1.00  0.00    -0.401 A  
HETATM   29  C   UNK A   0     -12.531  14.593  70.823  1.00  0.00    -0.340 A  
HETATM   30  N   UNK A   0     -11.447  16.535  70.041  1.00  0.00    -0.364 NA 
HETATM   31  C   UNK A   0     -12.594  15.805  73.253  1.00  0.00    -0.511 A  
HETATM   32  H1  UNK A   0     -13.474  12.219  71.002  1.00  0.00     0.000 HD 
HETATM   33  H1  UNK A   0     -13.106  15.939  75.244  1.00  0.00     0.000 HD 
HETATM   34  N   UNK A   0     -12.668  16.441  74.472  1.00  0.00    -0.949 NA 
HETATM   35  N   UNK A   0     -13.081  14.568  73.173  1.00  0.00    -0.571 NA 
HETATM   36  N   UNK A   0     -12.558  14.016  69.578  1.00  0.00    -0.407 NA 
HETATM   37  H2  UNK A   0     -14.438  12.596  72.314  1.00  0.00     0.000 HD 
HETATM   38  H2  UNK A   0     -12.297  17.383  74.599  1.00  0.00     0.000 HD 
ENDBRANCH  22  23
ENDBRANCH   2  22
TORSDOF 7
ENDMDL
MODEL        2
REMARK 921   NORMALIZED FREE ENERGY PREDICTED BY IDOCK:   -7.76 KCAL/MOL
REMARK 922        TOTAL FREE ENERGY PREDICTED BY IDOCK:  -12.68 KCAL/MOL
REMARK 923 INTER-LIGAND FREE ENERGY PREDICTED BY IDOCK:  -11.81 KCAL/MOL
REMARK 924 INTRA-LIGAND FREE ENERGY PREDICTED BY IDOCK:   -0.87 KCAL/MOL
REMARK 927      BINDING AFFINITY PREDICTED BY RF-SCORE:    0.00 PKD
ROOT
HETATM    1  C   UNK A   0     -10.759  15.272  70.333  1.00  0.00    -0.240 C  
HETATM    2  N   UNK A   0     -11.830  14.533  69.671  1.00  0.00    -0.299 NA 
ENDROOT
BRANCH   2   3
HETATM    3  C   UNK A   0     -12.159  13.259  70.119  1.00  0.00    -0.333 A  
HETATM    4  C   UNK A   0     -12.573  10.718  71.301  1.00  0.00    -0.532 A  
HETATM    5  C   UNK A   0     -11.601  12.092  69.569  1.00  0.00    -0.389 A  
HETATM    6  C   UNK A   0     -13.027  13.092  71.210  1.00  0.00    -0.330 A  
HETATM    7  C   UNK A   0     -13.223  11.844  71.808  1.00  0.00    -0.426 A  
HETATM    8  C   UNK A   0     -11.813  10.829  70.140  1.00  0.00    -0.427 A  
BRANCH   4   9
HETATM    9  C   UNK A   0     -12.666   9.412  71.998  1.00  0.00    -0.403 C  
HETATM   10  O   UNK A   0     -13.687   9.081  72.582  1.00  0.00    -0.470 OA 
ATOM     11  N   GLU A   1     -11.544   8.600  71.892  1.00  0.00    -0.325 N  
ATOM     12  H   GLU A   1     -10.692   8.952  71.455  1.00  0.00     0.000 HD 
BRANCH  11  13
ATOM     13  CA  GLU A   1     -11.597   7.223  72.419  1.00  0.00    -0.268 C  
ATOM     14  OXT GLU A   1     -10.496   6.140  74.319  1.00  0.00    -0.287 OA 
ATOM     15  C   GLU A   1     -10.520   7.055  73.508  1.00  0.00    -0.375 C  
ATOM     16  O   GLU A   1      -9.492   7.931  73.376  1.00  0.00    -0.271 OA 
BRANCH  13  17
ATOM     17  CB  GLU A   1     -11.358   6.211  71.288  1.00  0.00    -0.335 C  
BRANCH  17  18
ATOM     18  CG  GLU A   1     -11.404   6.847  69.895  1.00  0.00    -0.321 C  
ATOM     19  OE2 GLU A   1     -10.195   4.918  69.060  1.00  0.00    -0.179 OA 
ATOM     20  OE1 GLU A   1     -10.809   6.544  67.616  1.00  0.00    -0.269 OA 
ATOM     21  CD  GLU A   1     -10.737   5.991  68.848  1.00  0.00    -0.317 C  
ENDBRANCH  17  18
ENDBRANCH  13  17
ENDBRANCH  11  13
ENDBRANCH   4   9
ENDBRANCH   2   3
BRANCH   2  22
HETATM   22  C   UNK A   0     -12.221  14.959  68.315  1.00  0.00     0.020 C  
BRANCH  22  23
HETATM   23  C   UNK A   0     -11.503  14.224  67.200  1.00  0.00    -0.359 A  
HETATM   24  N   UNK A   0     -13.635  12.165  64.204  1.00  0.00    -0.165 NA 
HETATM   25  C   UNK A   0     -10.203  12.923  65.155  1.00  0.00    -0.271 A  
HETATM   26  C   UNK A   0     -10.130  14.268  67.038  1.00  0.00    -0.260 A  
HETATM   27  N   UNK A   0      -9.548  12.257  64.208  1.00  0.00    -0.507 NA 
HETATM   28  C   UNK A   0     -12.234  12.169  64.293  1.00  0.00    -0.377 A  
HETATM   29  C   UNK A   0     -11.595  12.911  65.281  1.00  0.00    -0.340 A  
HETATM   30  N   UNK A   0      -9.478  13.629  66.032  1.00  0.00    -0.488 NA 
HETATM   31  C   UNK A   0     -10.264  11.538  63.353  1.00  0.00    -0.420 A  
HETATM   32  H1  UNK A   0     -14.122  12.681  64.937  1.00  0.00     0.000 HD 
HETATM   33  H1  UNK A   0     -10.135  10.250  61.749  1.00  0.00     0.000 HD 
HETATM   34  N   UNK A   0      -9.584  10.803  62.406  1.00  0.00    -0.559 NA 
HETATM   35  N   UNK A   0     -11.595  11.491  63.329  1.00  0.00    -0.863 NA 
HETATM   36  N   UNK A   0     -12.256  13.551  66.299  1.00  0.00    -0.424 NA 
HETATM   37  H2  UNK A   0     -13.981  11.207  64.163  1.00  0.00     0.000 HD 
HETATM   38  H2  UNK A   0      -8.565  10.812  62.364  1.00  0.00     0.000 HD 
ENDBRANCH  22  23
ENDBRANCH   2  22
TORSDOF 7
ENDMDL
MODEL        3
REMARK 921   NORMALIZED FREE ENERGY PREDICTED BY IDOCK:   -7.70 KCAL/MOL
REMARK 922        TOTAL FREE ENERGY PREDICTED BY IDOCK:  -12.60 KCAL/MOL
REMARK 923 INTER-LIGAND FREE ENERGY PREDICTED BY IDOCK:  -10.96 KCAL/MOL
REMARK 924 INTRA-LIGAND FREE ENERGY PREDICTED BY IDOCK:   -1.64 KCAL/MOL
REMARK 927      BINDING AFFINITY PREDICTED BY RF-SCORE:    0.00 PKD
ROOT
HETATM    1  C   UNK A   0      -8.864  10.854  68.778  1.00  0.00    -0.161 C  
HETATM    2  N   UNK A   0      -9.690  11.836  68.081  1.00  0.00    -0.186 NA 
ENDROOT
BRANCH   2   3
HETATM    3  C   UNK A   0      -9.119  13.031  67.658  1.00  0.00    -0.198 A  
HETATM    4  C   UNK A   0      -8.131  15.623  67.087  1.00  0.00    -0.247 A  
HETATM    5  C   UNK A   0      -9.685  13.828  66.648  1.00  0.00    -0.293 A  
HETATM    6  C   UNK A   0      -7.967  13.530  68.287  1.00  0.00    -0.147 A  
HETATM    7  C   UNK A   0      -7.485  14.815  68.022  1.00  0.00    -0.135 A  
HETATM    8  C   UNK A   0      -9.193  15.106  66.350  1.00  0.00    -0.334 A  
BRANCH   4   9
HETATM    9  C   UNK A   0      -7.712  17.032  66.886  1.00  0.00    -0.216 C  
HETATM   10  O   UNK A   0      -7.510  17.476  65.766  1.00  0.00    -0.490 OA 
ATOM     11  N   GLU A   1      -7.622  17.797  68.043  1.00  0.00    -0.229 N  
ATOM     12  H   GLU A   1      -7.732  17.361  68.959  1.00  0.00     0.000 HD 
BRANCH  11  13
ATOM     13  CA  GLU A   1      -7.364  19.245  67.933  1.00  0.00    -0.256 C  
ATOM     14  OXT GLU A   1      -5.720  20.714  68.998  1.00  0.00    -0.307 OA 
ATOM     15  C   GLU A   1      -6.342  19.661  69.008  1.00  0.00    -0.297 C  
ATOM     16  O   GLU A   1      -6.322  18.820  70.073  1.00  0.00    -0.180 OA 
BRANCH  13  17
ATOM     17  CB  GLU A   1      -8.670  20.033  68.120  1.00  0.00    -0.229 C  
BRANCH  17  18
ATOM     18  CG  GLU A   1      -9.415  20.281  66.806  1.00  0.00    -0.518 C  
ATOM     19  OE2 GLU A   1     -10.811  18.368  67.324  1.00  0.00    -0.389 OA 
ATOM     20  OE1 GLU A   1     -11.199  19.533  65.428  1.00  0.00    -0.326 OA 
ATOM     21  CD  GLU A   1     -10.526  19.288  66.575  1.00  0.00    -0.462 C  
ENDBRANCH  17  18
ENDBRANCH  13  17
ENDBRANCH  11  13
ENDBRANCH   4   9
ENDBRANCH   2   3
BRANCH   2  22
HETATM   22  C   UNK A   0     -11.152  11.732  68.230  1.00  0.00    -0.240 C  
BRANCH  22  23
HETATM   23  C   UNK A   0     -11.703  12.420  69.464  1.00  0.00    -0.322 A  
HETATM   24  N   UNK A   0     -11.326  16.583  70.004  1.00  0.00    -0.406 NA 
HETATM   25  C   UNK A   0     -12.737  13.676  71.682  1.00  0.00    -0.305 A  
HETATM   26  C   UNK A   0     -12.443  11.755  70.425  1.00  0.00    -0.197 A  
HETATM   27  N   UNK A   0     -13.198  14.250  72.790  1.00  0.00    -0.507 NA 
HETATM   28  C   UNK A   0     -11.895  15.727  70.960  1.00  0.00    -0.420 A  
HETATM   29  C   UNK A   0     -12.031  14.368  70.694  1.00  0.00    -0.323 A  
HETATM   30  N   UNK A   0     -12.957  12.365  71.524  1.00  0.00    -0.349 NA 
HETATM   31  C   UNK A   0     -12.959  15.543  72.960  1.00  0.00    -0.499 A  
HETATM   32  H1  UNK A   0     -10.978  16.128  69.160  1.00  0.00     0.000 HD 
HETATM   33  H1  UNK A   0     -13.203  17.122  74.262  1.00  0.00     0.000 HD 
HETATM   34  N   UNK A   0     -13.387  16.127  74.132  1.00  0.00    -0.842 NA 
HETATM   35  N   UNK A   0     -12.353  16.326  72.069  1.00  0.00    -0.570 NA 
HETATM   36  N   UNK A   0     -11.506  13.753  69.585  1.00  0.00    -0.376 NA 
HETATM   37  H2  UNK A   0     -10.587  17.142  70.430  1.00  0.00     0.000 HD 
HETATM   38  H2  UNK A   0     -13.872  15.582  74.845  1.00  0.00     0.000 HD 
ENDBRANCH  22  23
ENDBRANCH   2  22
TORSDOF 7
ENDMDL
MODEL        4
REMARK 921   NORMALIZED FREE ENERGY PREDICTED BY IDOCK:   -7.66 KCAL/MOL
REMARK 922        TOTAL FREE ENERGY PREDICTED BY IDOCK:  -12.55 KCAL/MOL
REMARK 923 INTER-LIGAND FREE ENERGY PREDICTED BY IDOCK:  -11.07 KCAL/MOL
REMARK 924 INTRA-LIGAND FREE ENERGY PREDICTED BY IDOCK:   -1.48 KCAL/MOL
REMARK 927      BINDING AFFINITY PREDICTED BY RF-SCORE:    0.00 PKD
ROOT
HETATM    1  C   UNK A   0      -9.319   9.325  65.400  1.00  0.00    -0.226 C  
HETATM    2  N   UNK A   0      -9.322  10.338  66.451  1.00  0.00    -0.161 NA 
ENDROOT
BRANCH   2   3
HETATM    3  C   UNK A   0      -9.402  11.682  66.105  1.00  0.00    -0.224 A  
HETATM    4  C   UNK A   0      -9.846  14.442  65.646  1.00  0.00    -0.322 A  
HETATM    5  C   UNK A   0     -10.112  12.136  64.979  1.00  0.00    -0.289 A  
HETATM    6  C   UNK A   0      -8.821  12.663  66.924  1.00  0.00    -0.201 A  
HETATM    7  C   UNK A   0      -9.050  14.026  66.713  1.00  0.00    -0.250 A  
HETATM    8  C   UNK A   0     -10.324  13.500  64.738  1.00  0.00    -0.405 A  
BRANCH   4   9
HETATM    9  C   UNK A   0     -10.205  15.871  65.482  1.00  0.00    -0.365 C  
HETATM   10  O   UNK A   0     -10.997  16.228  64.621  1.00  0.00    -0.674 OA 
ATOM     11  N   GLU A   1      -9.622  16.741  66.395  1.00  0.00    -0.267 N  
ATOM     12  H   GLU A   1      -8.914  16.404  67.048  1.00  0.00     0.000 HD 
BRANCH  11  13
ATOM     13  CA  GLU A   1     -10.036  18.157  66.412  1.00  0.00    -0.389 C  
ATOM     14  OXT GLU A   1      -8.825  20.235  65.959  1.00  0.00    -0.223 OA 
ATOM     15  C   GLU A   1      -8.791  19.051  66.261  1.00  0.00    -0.277 C  
ATOM     16  O   GLU A   1      -7.649  18.441  66.667  1.00  0.00    -0.218 OA 
BRANCH  13  17
ATOM     17  CB  GLU A   1     -10.759  18.484  67.728  1.00  0.00    -0.378 C  
BRANCH  17  18
ATOM     18  CG  GLU A   1     -10.180  17.736  68.932  1.00  0.00    -0.345 C  
ATOM     19  OE2 GLU A   1     -11.879  16.039  68.597  1.00  0.00    -0.367 OA 
ATOM     20  OE1 GLU A   1     -10.380  15.782  70.268  1.00  0.00    -0.286 OA 
ATOM     21  CD  GLU A   1     -10.916  16.452  69.222  1.00  0.00    -0.322 C  
ENDBRANCH  17  18
ENDBRANCH  13  17
ENDBRANCH  11  13
ENDBRANCH   4   9
ENDBRANCH   2   3
BRANCH   2  22
HETATM   22  C   UNK A   0      -8.813   9.950  67.779  1.00  0.00    -0.129 C  
BRANCH  22  23
HETATM   23  C   UNK A   0      -9.893   9.561  68.770  1.00  0.00    -0.169 A  
HETATM   24  N   UNK A   0     -12.111  12.479  70.852  1.00  0.00    -0.435 NA 
HETATM   25  C   UNK A   0     -11.879   8.859  70.540  1.00  0.00    -0.047 A  
HETATM   26  C   UNK A   0     -10.285   8.250  68.975  1.00  0.00    -0.217 A  
HETATM   27  N   UNK A   0     -12.796   8.491  71.430  1.00  0.00    -0.426 NA 
HETATM   28  C   UNK A   0     -12.256  11.099  71.065  1.00  0.00    -0.333 A  
HETATM   29  C   UNK A   0     -11.525  10.191  70.306  1.00  0.00    -0.306 A  
HETATM   30  N   UNK A   0     -11.264   7.893  69.846  1.00  0.00    -0.444 NA 
HETATM   31  C   UNK A   0     -13.389   9.445  72.135  1.00  0.00    -0.468 A  
HETATM   32  H1  UNK A   0     -11.404  12.745  70.166  1.00  0.00     0.000 HD 
HETATM   33  H1  UNK A   0     -14.755   9.796  73.638  1.00  0.00     0.000 HD 
HETATM   34  N   UNK A   0     -14.299   9.062  73.096  1.00  0.00    -1.133 NA 
HETATM   35  N   UNK A   0     -13.185  10.750  71.966  1.00  0.00    -0.546 NA 
HETATM   36  N   UNK A   0     -10.532  10.555  69.431  1.00  0.00    -0.230 NA 
HETATM   37  H2  UNK A   0     -11.934  12.953  71.738  1.00  0.00     0.000 HD 
HETATM   38  H2  UNK A   0     -14.509   8.077  73.259  1.00  0.00     0.000 HD 
ENDBRANCH  22  23
ENDBRANCH   2  22
TORSDOF 7
ENDMDL
MODEL        5
REMARK 921   NORMALIZED FREE ENERGY PREDICTED BY IDOCK:   -7.62 KCAL/MOL
REMARK 922        TOTAL FREE ENERGY PREDICTED BY IDOCK:  -12.49 KCAL/MOL
REMARK 923 INTER-LIGAND FREE ENERGY PREDICTED BY IDOCK:  -11.43 KCAL/MOL
REMARK 924 INTRA-LIGAND FREE ENERGY PREDICTED BY IDOCK:   -1.06 KCAL/MOL
REMARK 927      BINDING AFFINITY PREDICTED BY RF-SCORE:    0.00 PKD
ROOT
HETATM    1  C   UNK A   0     -12.408  14.176  66.380  1.00  0.00    -0.400 C  
HETATM    2  N   UNK A   0     -11.787  14.493  67.663  1.00  0.00    -0.461 NA 
ENDROOT
BRANCH   2   3
HETATM    3  C   UNK A   0     -11.776  13.536  68.671  1.00  0.00    -0.354 A  
HETATM    4  C   UNK A   0     -12.074  11.461  70.576  1.00  0.00    -0.487 A  
HETATM    5  C   UNK A   0     -12.272  13.788  69.963  1.00  0.00    -0.407 A  
HETATM    6  C   UNK A   0     -11.325  12.233  68.410  1.00  0.00    -0.340 A  
HETATM    7  C   UNK A   0     -11.484  11.201  69.339  1.00  0.00    -0.368 A  
HETATM    8  C   UNK A   0     -12.409  12.769  70.915  1.00  0.00    -0.356 A  
BRANCH   4   9
HETATM    9  C   UNK A   0     -12.369  10.356  71.521  1.00  0.00    -0.368 C  
HETATM   10  O   UNK A   0     -13.412  10.331  72.156  1.00  0.00    -0.401 OA 
ATOM     11  N   GLU A   1     -11.407   9.355  71.585  1.00  0.00    -0.389 N  
ATOM     12  H   GLU A   1     -10.522   9.458  71.089  1.00  0.00     0.000 HD 
BRANCH  11  13
ATOM     13  CA  GLU A   1     -11.680   8.141  72.378  1.00  0.00    -0.399 C  
ATOM     14  OXT GLU A   1     -10.400   6.982  74.114  1.00  0.00    -0.346 OA 
ATOM     15  C   GLU A   1     -10.414   7.756  73.167  1.00  0.00    -0.349 C  
ATOM     16  O   GLU A   1      -9.274   8.226  72.601  1.00  0.00    -0.232 OA 
BRANCH  13  17
ATOM     17  CB  GLU A   1     -12.092   6.984  71.454  1.00  0.00    -0.396 C  
BRANCH  17  18
ATOM     18  CG  GLU A   1     -11.303   6.954  70.142  1.00  0.00    -0.364 C  
ATOM     19  OE2 GLU A   1     -10.316   4.864  70.874  1.00  0.00    -0.217 OA 
ATOM     20  OE1 GLU A   1      -9.754   5.699  68.851  1.00  0.00    -0.124 OA 
ATOM     21  CD  GLU A   1     -10.423   5.735  70.026  1.00  0.00    -0.283 C  
ENDBRANCH  17  18
ENDBRANCH  13  17
ENDBRANCH  11  13
ENDBRANCH   4   9
ENDBRANCH   2   3
BRANCH   2  22
HETATM   22  C   UNK A   0     -11.586  15.915  67.996  1.00  0.00    -0.168 C  
BRANCH  22  23
HETATM   23  C   UNK A   0     -10.370  16.542  67.342  1.00  0.00    -0.290 A  
HETATM   24  N   UNK A   0      -9.878  20.725  67.185  1.00  0.00    -0.591 NA 
HETATM   25  C   UNK A   0      -8.145  17.680  66.192  1.00  0.00    -0.193 A  
HETATM   26  C   UNK A   0      -9.312  15.794  66.857  1.00  0.00    -0.227 A  
HETATM   27  N   UNK A   0      -7.087  18.205  65.582  1.00  0.00    -0.530 NA 
HETATM   28  C   UNK A   0      -8.987  19.818  66.589  1.00  0.00    -0.368 A  
HETATM   29  C   UNK A   0      -9.187  18.448  66.722  1.00  0.00    -0.293 A  
HETATM   30  N   UNK A   0      -8.210  16.346  66.286  1.00  0.00    -0.329 NA 
HETATM   31  C   UNK A   0      -7.034  19.525  65.466  1.00  0.00    -0.273 A  
HETATM   32  H1  UNK A   0     -10.684  20.306  67.649  1.00  0.00     0.000 HD 
HETATM   33  H1  UNK A   0      -5.925  21.083  64.697  1.00  0.00     0.000 HD 
HETATM   34  N   UNK A   0      -5.965  20.067  64.786  1.00  0.00    -0.229 NA 
HETATM   35  N   UNK A   0      -7.928  20.368  65.979  1.00  0.00    -0.540 NA 
HETATM   36  N   UNK A   0     -10.304  17.893  67.293  1.00  0.00    -0.357 NA 
HETATM   37  H2  UNK A   0     -10.188  21.413  66.499  1.00  0.00     0.000 HD 
HETATM   38  H2  UNK A   0      -5.239  19.473  64.385  1.00  0.00     0.000 HD 
ENDBRANCH  22  23
ENDBRANCH   2  22
TORSDOF 7
ENDMDL
MODEL        6
REMARK 921   NORMALIZED FREE ENERGY PREDICTED BY IDOCK:   -7.59 KCAL/MOL
REMARK 922        TOTAL FREE ENERGY PREDICTED BY IDOCK:  -12.44 KCAL/MOL
REMARK 923 INTER-LIGAND FREE ENERGY PREDICTED BY IDOCK:  -11.62 KCAL/MOL
REMARK 924 INTRA-LIGAND FREE ENERGY PREDICTED BY IDOCK:   -0.82 KCAL/MOL
REMARK 927      BINDING AFFINITY PREDICTED BY RF-SCORE:    0.00 PKD
ROOT
HETATM    1  C   UNK A   0     -13.485   9.248  71.520  1.00  0.00    -0.370 C  
HETATM    2  N   UNK A   0     -12.237   9.968  71.286  1.00  0.00    -0.371 NA 
ENDROOT
BRANCH   2   3
HETATM    3  C   UNK A   0     -12.259  11.158  70.568  1.00  0.00    -0.384 A  
HETATM    4  C   UNK A   0     -11.930  13.578  69.132  1.00  0.00    -0.378 A  
HETATM    5  C   UNK A   0     -12.476  12.408  71.173  1.00  0.00    -0.323 A  
HETATM    6  C   UNK A   0     -11.989  11.161  69.190  1.00  0.00    -0.413 A  
HETATM    7  C   UNK A   0     -11.809  12.351  68.480  1.00  0.00    -0.352 A  
HETATM    8  C   UNK A   0     -12.329  13.609  70.466  1.00  0.00    -0.425 A  
BRANCH   4   9
HETATM    9  C   UNK A   0     -11.616  14.845  68.428  1.00  0.00    -0.325 C  
HETATM   10  O   UNK A   0     -11.695  15.921  69.001  1.00  0.00    -0.385 OA 
ATOM     11  N   GLU A   1     -11.189  14.705  67.113  1.00  0.00    -0.333 N  
ATOM     12  H   GLU A   1     -11.208  13.791  66.659  1.00  0.00     0.000 HD 
BRANCH  11  13
ATOM     13  CA  GLU A   1     -10.706  15.891  66.380  1.00  0.00    -0.256 C  
ATOM     14  OXT GLU A   1     -11.162  16.736  64.128  1.00  0.00    -1.155 OA 
ATOM     15  C   GLU A   1     -11.158  15.796  64.910  1.00  0.00    -0.399 C  
ATOM     16  O   GLU A   1     -11.390  14.520  64.509  1.00  0.00    -0.368 OA 
BRANCH  13  17
ATOM     17  CB  GLU A   1      -9.174  15.973  66.452  1.00  0.00    -0.339 C  
BRANCH  17  18
ATOM     18  CG  GLU A   1      -8.675  16.912  67.554  1.00  0.00    -0.214 C  
ATOM     19  OE2 GLU A   1      -8.279  18.585  65.844  1.00  0.00    -0.497 OA 
ATOM     20  OE1 GLU A   1      -7.844  19.092  68.003  1.00  0.00    -0.271 OA 
ATOM     21  CD  GLU A   1      -8.255  18.258  67.020  1.00  0.00    -0.239 C  
ENDBRANCH  17  18
ENDBRANCH  13  17
ENDBRANCH  11  13
ENDBRANCH   4   9
ENDBRANCH   2   3
BRANCH   2  22
HETATM   22  C   UNK A   0     -10.976   9.219  71.431  1.00  0.00    -0.359 C  
BRANCH  22  23
HETATM   23  C   UNK A   0     -10.836   8.045  70.481  1.00  0.00    -0.241 A  
HETATM   24  N   UNK A   0     -10.176   8.626  66.359  1.00  0.00    -0.378 NA 
HETATM   25  C   UNK A   0     -10.545   5.916  68.763  1.00  0.00    -0.272 A  
HETATM   26  C   UNK A   0     -10.814   6.731  70.913  1.00  0.00    -0.249 A  
HETATM   27  N   UNK A   0     -10.462   4.870  67.947  1.00  0.00     0.018 NA 
HETATM   28  C   UNK A   0     -10.353   7.362  66.944  1.00  0.00    -0.296 A  
HETATM   29  C   UNK A   0     -10.519   7.242  68.320  1.00  0.00    -0.199 A  
HETATM   30  N   UNK A   0     -10.671   5.673  70.074  1.00  0.00    -0.323 NA 
HETATM   31  C   UNK A   0     -10.362   5.109  66.646  1.00  0.00    -0.281 A  
HETATM   32  H1  UNK A   0     -10.242   9.418  66.999  1.00  0.00     0.000 HD 
HETATM   33  H1  UNK A   0     -10.255   4.211  64.794  1.00  0.00     0.000 HD 
HETATM   34  N   UNK A   0     -10.332   4.026  65.794  1.00  0.00    -0.452 NA 
HETATM   35  N   UNK A   0     -10.266   6.321  66.103  1.00  0.00    -0.410 NA 
HETATM   36  N   UNK A   0     -10.669   8.312  69.165  1.00  0.00    -0.381 NA 
HETATM   37  H2  UNK A   0     -10.828   8.747  65.584  1.00  0.00     0.000 HD 
HETATM   38  H2  UNK A   0     -10.385   3.073  66.153  1.00  0.00     0.000 HD 
ENDBRANCH  22  23
ENDBRANCH   2  22
TORSDOF 7
ENDMDL
MODEL        7
REMARK 921   NORMALIZED FREE ENERGY PREDICTED BY IDOCK:   -7.56 KCAL/MOL
REMARK 922        TOTAL FREE ENERGY PREDICTED BY IDOCK:  -12.40 KCAL/MOL
REMARK 923 INTER-LIGAND FREE ENERGY PREDICTED BY IDOCK:  -11.25 KCAL/MOL
REMARK 924 INTRA-LIGAND FREE ENERGY PREDICTED BY IDOCK:   -1.15 KCAL/MOL
REMARK 927      BINDING AFFINITY PREDICTED BY RF-SCORE:    0.00 PKD
ROOT
HETATM    1  C   UNK A   0     -10.457  13.926  66.887  1.00  0.00    -0.276 C  
HETATM    2  N   UNK A   0     -11.141  14.231  68.140  1.00  0.00    -0.250 NA 
ENDROOT
BRANCH   2   3
HETATM    3  C   UNK A   0     -11.651  13.193  68.910  1.00  0.00    -0.311 A  
HETATM    4  C   UNK A   0     -12.368  11.094  70.672  1.00  0.00    -0.482 A  
HETATM    5  C   UNK A   0     -11.560  11.844  68.524  1.00  0.00    -0.375 A  
HETATM    6  C   UNK A   0     -12.226  13.454  70.164  1.00  0.00    -0.385 A  
HETATM    7  C   UNK A   0     -12.567  12.423  71.045  1.00  0.00    -0.349 A  
HETATM    8  C   UNK A   0     -11.926  10.800  69.385  1.00  0.00    -0.353 A  
BRANCH   4   9
HETATM    9  C   UNK A   0     -12.602   9.993  71.639  1.00  0.00    -0.427 C  
HETATM   10  O   UNK A   0     -13.637   9.932  72.286  1.00  0.00    -0.402 OA 
ATOM     11  N   GLU A   1     -11.595   9.039  71.709  1.00  0.00    -0.352 N  
ATOM     12  H   GLU A   1     -10.720   9.174  71.202  1.00  0.00     0.000 HD 
BRANCH  11  13
ATOM     13  CA  GLU A   1     -11.803   7.827  72.525  1.00  0.00    -0.302 C  
ATOM     14  OXT GLU A   1     -10.437   6.739  74.240  1.00  0.00    -0.338 OA 
ATOM     15  C   GLU A   1     -10.503   7.498  73.284  1.00  0.00    -0.371 C  
ATOM     16  O   GLU A   1      -9.396   7.999  72.680  1.00  0.00    -0.196 OA 
BRANCH  13  17
ATOM     17  CB  GLU A   1     -12.200   6.644  71.629  1.00  0.00    -0.401 C  
BRANCH  17  18
ATOM     18  CG  GLU A   1     -11.424   6.605  70.309  1.00  0.00    -0.449 C  
ATOM     19  OE2 GLU A   1     -10.237   4.667  71.153  1.00  0.00    -0.192 OA 
ATOM     20  OE1 GLU A   1      -9.776   5.423  69.073  1.00  0.00    -0.131 OA 
ATOM     21  CD  GLU A   1     -10.434   5.469  70.254  1.00  0.00    -0.295 C  
ENDBRANCH  17  18
ENDBRANCH  13  17
ENDBRANCH  11  13
ENDBRANCH   4   9
ENDBRANCH   2   3
BRANCH   2  22
HETATM   22  C   UNK A   0     -11.644  15.604  68.330  1.00  0.00    -0.350 C  
BRANCH  22  23
HETATM   23  C   UNK A   0     -10.583  16.679  68.198  1.00  0.00    -0.336 A  
HETATM   24  N   UNK A   0     -10.950  19.783  65.370  1.00  0.00    -0.317 NA 
HETATM   25  C   UNK A   0      -8.679  18.653  67.983  1.00  0.00    -0.303 A  
HETATM   26  C   UNK A   0      -9.498  16.769  69.051  1.00  0.00    -0.217 A  
HETATM   27  N   UNK A   0      -7.718  19.564  67.863  1.00  0.00    -0.281 NA 
HETATM   28  C   UNK A   0      -9.829  19.621  66.200  1.00  0.00    -0.436 A  
HETATM   29  C   UNK A   0      -9.797  18.600  67.145  1.00  0.00    -0.314 A  
HETATM   30  N   UNK A   0      -8.552  17.739  68.953  1.00  0.00    -0.189 NA 
HETATM   31  C   UNK A   0      -7.830  20.455  66.887  1.00  0.00    -0.294 A  
HETATM   32  H1  UNK A   0     -11.679  19.077  65.475  1.00  0.00     0.000 HD 
HETATM   33  H1  UNK A   0      -6.895  22.050  65.976  1.00  0.00     0.000 HD 
HETATM   34  N   UNK A   0      -6.808  21.364  66.727  1.00  0.00    -0.796 NA 
HETATM   35  N   UNK A   0      -8.872  20.549  66.062  1.00  0.00    -0.495 NA 
HETATM   36  N   UNK A   0     -10.751  17.618  67.238  1.00  0.00    -0.288 NA 
HETATM   37  H2  UNK A   0     -10.658  19.842  64.395  1.00  0.00     0.000 HD 
HETATM   38  H2  UNK A   0      -5.992  21.353  67.339  1.00  0.00     0.000 HD 
ENDBRANCH  22  23
ENDBRANCH   2  22
TORSDOF 7
ENDMDL
MODEL        8
REMARK 921   NORMALIZED FREE ENERGY PREDICTED BY IDOCK:   -7.49 KCAL/MOL
REMARK 922        TOTAL FREE ENERGY PREDICTED BY IDOCK:  -12.31 KCAL/MOL
REMARK 923 INTER-LIGAND FREE ENERGY PREDICTED BY IDOCK:  -11.18 KCAL/MOL
REMARK 924 INTRA-LIGAND FREE ENERGY PREDICTED BY IDOCK:   -1.13 KCAL/MOL
REMARK 927      BINDING AFFINITY PREDICTED BY RF-SCORE:    0.00 PKD
ROOT
HETATM    1  C   UNK A   0     -12.899  13.158  65.278  1.00  0.00    -0.266 C  
HETATM    2  N   UNK A   0     -11.577  12.836  65.809  1.00  0.00    -0.355 NA 
ENDROOT
BRANCH   2   3
HETATM    3  C   UNK A   0     -11.470  12.243  67.061  1.00  0.00    -0.354 A  
HETATM    4  C   UNK A   0     -11.587  10.881  69.543  1.00  0.00    -0.384 A  
HETATM    5  C   UNK A   0     -11.817  12.908  68.250  1.00  0.00    -0.372 A  
HETATM    6  C   UNK A   0     -11.068  10.903  67.180  1.00  0.00    -0.308 A  
HETATM    7  C   UNK A   0     -11.139  10.221  68.398  1.00  0.00    -0.302 A  
HETATM    8  C   UNK A   0     -11.863  12.245  69.484  1.00  0.00    -0.380 A  
BRANCH   4   9
HETATM    9  C   UNK A   0     -11.791  10.143  70.812  1.00  0.00    -0.351 C  
HETATM   10  O   UNK A   0     -12.615  10.517  71.633  1.00  0.00    -0.394 OA 
ATOM     11  N   GLU A   1     -11.024   8.993  70.963  1.00  0.00    -0.260 N  
ATOM     12  H   GLU A   1     -10.301   8.764  70.281  1.00  0.00     0.000 HD 
BRANCH  11  13
ATOM     13  CA  GLU A   1     -11.268   8.109  72.118  1.00  0.00    -0.329 C  
ATOM     14  OXT GLU A   1      -9.854   7.420  73.994  1.00  0.00    -0.274 OA 
ATOM     15  C   GLU A   1      -9.939   7.867  72.859  1.00  0.00    -0.294 C  
ATOM     16  O   GLU A   1      -8.852   8.034  72.065  1.00  0.00    -0.129 OA 
BRANCH  13  17
ATOM     17  CB  GLU A   1     -11.856   6.770  71.648  1.00  0.00    -0.370 C  
BRANCH  17  18
ATOM     18  CG  GLU A   1     -11.580   6.479  70.170  1.00  0.00    -0.466 C  
ATOM     19  OE2 GLU A   1      -9.822   4.967  70.876  1.00  0.00    -0.180 OA 
ATOM     20  OE1 GLU A   1     -10.248   5.209  68.670  1.00  0.00    -0.171 OA 
ATOM     21  CD  GLU A   1     -10.464   5.484  69.976  1.00  0.00    -0.303 C  
ENDBRANCH  17  18
ENDBRANCH  13  17
ENDBRANCH  11  13
ENDBRANCH   4   9
ENDBRANCH   2   3
BRANCH   2  22
HETATM   22  C   UNK A   0     -10.415  13.525  65.219  1.00  0.00    -0.336 C  
BRANCH  22  23
HETATM   23  C   UNK A   0     -10.418  15.029  65.413  1.00  0.00    -0.384 A  
HETATM   24  N   UNK A   0      -7.996  16.868  68.331  1.00  0.00    -0.221 NA 
HETATM   25  C   UNK A   0     -10.394  17.760  65.740  1.00  0.00    -0.186 A  
HETATM   26  C   UNK A   0     -11.125  15.888  64.591  1.00  0.00    -0.354 A  
HETATM   27  N   UNK A   0     -10.442  19.078  65.913  1.00  0.00    -0.532 NA 
HETATM   28  C   UNK A   0      -8.905  17.571  67.524  1.00  0.00    -0.229 A  
HETATM   29  C   UNK A   0      -9.638  16.905  66.547  1.00  0.00    -0.278 A  
HETATM   30  N   UNK A   0     -11.121  17.238  64.744  1.00  0.00    -0.920 NA 
HETATM   31  C   UNK A   0      -9.742  19.594  66.915  1.00  0.00    -0.369 A  
HETATM   32  H1  UNK A   0      -7.971  15.859  68.185  1.00  0.00     0.000 HD 
HETATM   33  H1  UNK A   0      -9.297  21.348  67.900  1.00  0.00     0.000 HD 
HETATM   34  N   UNK A   0      -9.835  20.952  67.130  1.00  0.00    -0.575 NA 
HETATM   35  N   UNK A   0      -8.938  18.898  67.716  1.00  0.00    -0.287 NA 
HETATM   36  N   UNK A   0      -9.646  15.541  66.399  1.00  0.00    -0.268 NA 
HETATM   37  H2  UNK A   0      -8.168  17.075  69.314  1.00  0.00     0.000 HD 
HETATM   38  H2  UNK A   0     -10.422  21.540  66.538  1.00  0.00     0.000 HD 
ENDBRANCH  22  23
ENDBRANCH   2  22
TORSDOF 7
ENDMDL
MODEL        9
REMARK 921   NORMALIZED FREE ENERGY PREDICTED BY IDOCK:   -7.41 KCAL/MOL
REMARK 922        TOTAL FREE ENERGY PREDICTED BY IDOCK:  -12.19 KCAL/MOL
REMARK 923 INTER-LIGAND FREE ENERGY PREDICTED BY IDOCK:  -10.95 KCAL/MOL
REMARK 924 INTRA-LIGAND FREE ENERGY PREDICTED BY IDOCK:   -1.24 KCAL/MOL
REMARK 927      BINDING AFFINITY PREDICTED BY RF-SCORE:    0.00 PKD
ROOT
HETATM    1  C   UNK A   0     -10.431  12.048  65.437  1.00  0.00    -0.275 C  
HETATM    2  N   UNK A   0      -9.872  12.638  66.649  1.00  0.00    -0.238 NA 
ENDROOT
BRANCH   2   3
HETATM    3  C   UNK A   0      -9.638  14.007  66.698  1.00  0.00    -0.289 A  
HETATM    4  C   UNK A   0      -9.015  16.760  66.454  1.00  0.00    -0.325 A  
HETATM    5  C   UNK A   0      -8.509  14.564  67.323  1.00  0.00    -0.234 A  
HETATM    6  C   UNK A   0     -10.506  14.900  66.048  1.00  0.00    -0.326 A  
HETATM    7  C   UNK A   0     -10.196  16.255  65.910  1.00  0.00    -0.384 A  
HETATM    8  C   UNK A   0      -8.201  15.928  67.219  1.00  0.00    -0.211 A  
BRANCH   4   9
HETATM    9  C   UNK A   0      -8.606  18.164  66.207  1.00  0.00    -0.179 C  
HETATM   10  O   UNK A   0      -9.439  19.044  66.048  1.00  0.00    -0.457 OA 
ATOM     11  N   GLU A   1      -7.236  18.397  66.222  1.00  0.00    -0.239 N  
ATOM     12  H   GLU A   1      -6.582  17.618  66.288  1.00  0.00     0.000 HD 
BRANCH  11  13
ATOM     13  CA  GLU A   1      -6.739  19.784  66.141  1.00  0.00    -0.226 C  
ATOM     14  OXT GLU A   1      -6.213  21.239  64.244  1.00  0.00    -0.263 OA 
ATOM     15  C   GLU A   1      -6.379  20.108  64.678  1.00  0.00    -0.274 C  
ATOM     16  O   GLU A   1      -6.092  19.003  63.946  1.00  0.00    -0.416 OA 
BRANCH  13  17
ATOM     17  CB  GLU A   1      -5.501  19.958  67.034  1.00  0.00    -0.169 C  
BRANCH  17  18
ATOM     18  CG  GLU A   1      -5.803  20.701  68.339  1.00  0.00    -0.355 C  
ATOM     19  OE2 GLU A   1      -6.704  18.631  69.221  1.00  0.00    -0.275 OA 
ATOM     20  OE1 GLU A   1      -6.668  20.467  70.538  1.00  0.00    -0.339 OA 
ATOM     21  CD  GLU A   1      -6.434  19.811  69.379  1.00  0.00    -0.346 C  
ENDBRANCH  17  18
ENDBRANCH  13  17
ENDBRANCH  11  13
ENDBRANCH   4   9
ENDBRANCH   2   3
BRANCH   2  22
HETATM   22  C   UNK A   0      -9.183  11.740  67.594  1.00  0.00    -0.180 C  
BRANCH  22  23
HETATM   23  C   UNK A   0     -10.109  11.007  68.545  1.00  0.00    -0.190 A  
HETATM   24  N   UNK A   0     -12.689  13.097  71.141  1.00  0.00    -0.343 NA 
HETATM   25  C   UNK A   0     -11.817   9.677  70.242  1.00  0.00    -0.099 A  
HETATM   26  C   UNK A   0     -10.239   9.630  68.548  1.00  0.00    -0.193 A  
HETATM   27  N   UNK A   0     -12.593   9.010  71.091  1.00  0.00    -0.458 NA 
HETATM   28  C   UNK A   0     -12.565  11.698  71.133  1.00  0.00    -0.335 A  
HETATM   29  C   UNK A   0     -11.728  11.072  70.215  1.00  0.00    -0.355 A  
HETATM   30  N   UNK A   0     -11.079   8.963  69.383  1.00  0.00    -0.436 NA 
HETATM   31  C   UNK A   0     -13.306   9.716  71.960  1.00  0.00    -0.457 A  
HETATM   32  H1  UNK A   0     -12.087  13.593  70.483  1.00  0.00     0.000 HD 
HETATM   33  H1  UNK A   0     -14.616   9.567  73.544  1.00  0.00     0.000 HD 
HETATM   34  N   UNK A   0     -14.068   9.024  72.876  1.00  0.00    -1.110 NA 
HETATM   35  N   UNK A   0     -13.356  11.046  71.997  1.00  0.00    -0.531 NA 
HETATM   36  N   UNK A   0     -10.876  11.748  69.377  1.00  0.00    -0.441 NA 
HETATM   37  H2  UNK A   0     -12.547  13.455  72.085  1.00  0.00     0.000 HD 
HETATM   38  H2  UNK A   0     -14.084   8.004  72.886  1.00  0.00     0.000 HD 
ENDBRANCH  22  23
ENDBRANCH   2  22
TORSDOF 7
ENDMDL
MODEL       10
REMARK 921   NORMALIZED FREE ENERGY PREDICTED BY IDOCK:   -7.39 KCAL/MOL
REMARK 922        TOTAL FREE ENERGY PREDICTED BY IDOCK:  -12.16 KCAL/MOL
REMARK 923 INTER-LIGAND FREE ENERGY PREDICTED BY IDOCK:  -11.14 KCAL/MOL
REMARK 924 INTRA-LIGAND FREE ENERGY PREDICTED BY IDOCK:   -1.01 KCAL/MOL
REMARK 927      BINDING AFFINITY PREDICTED BY RF-SCORE:    0.00 PKD
ROOT
HETATM    1  C   UNK A   0      -8.375   8.306  66.896  1.00  0.00    -0.114 C  
HETATM    2  N   UNK A   0      -9.818   8.433  66.712  1.00  0.00    -0.235 NA 
ENDROOT
BRANCH   2   3
HETATM    3  C   UNK A   0     -10.415   9.682  66.838  1.00  0.00    -0.212 A  
HETATM    4  C   UNK A   0     -11.287  12.359  67.150  1.00  0.00    -0.390 A  
HETATM    5  C   UNK A   0     -10.977  10.137  68.044  1.00  0.00    -0.326 A  
HETATM    6  C   UNK A   0     -10.417  10.581  65.760  1.00  0.00    -0.214 A  
HETATM    7  C   UNK A   0     -10.830  11.908  65.912  1.00  0.00    -0.342 A  
HETATM    8  C   UNK A   0     -11.424  11.456  68.201  1.00  0.00    -0.375 A  
BRANCH   4   9
HETATM    9  C   UNK A   0     -11.607  13.791  67.363  1.00  0.00    -0.362 C  
HETATM   10  O   UNK A   0     -12.183  14.443  66.505  1.00  0.00    -0.424 OA 
ATOM     11  N   GLU A   1     -11.250  14.302  68.605  1.00  0.00    -0.250 N  
ATOM     12  H   GLU A   1     -10.709  13.737  69.259  1.00  0.00     0.000 HD 
BRANCH  11  13
ATOM     13  CA  GLU A   1     -11.665  15.671  68.969  1.00  0.00    -0.395 C  
ATOM     14  OXT GLU A   1     -10.468  17.806  68.989  1.00  0.00    -0.332 OA 
ATOM     15  C   GLU A   1     -10.424  16.584  69.000  1.00  0.00    -0.303 C  
ATOM     16  O   GLU A   1      -9.271  15.903  69.218  1.00  0.00    -0.238 OA 
BRANCH  13  17
ATOM     17  CB  GLU A   1     -12.349  15.671  70.345  1.00  0.00    -0.427 C  
BRANCH  17  18
ATOM     18  CG  GLU A   1     -12.492  14.269  70.945  1.00  0.00    -0.424 C  
ATOM     19  OE2 GLU A   1     -14.325  15.114  72.287  1.00  0.00    -0.508 OA 
ATOM     20  OE1 GLU A   1     -13.749  12.935  72.455  1.00  0.00    -0.565 OA 
ATOM     21  CD  GLU A   1     -13.610  14.183  71.953  1.00  0.00    -0.417 C  
ENDBRANCH  17  18
ENDBRANCH  13  17
ENDBRANCH  11  13
ENDBRANCH   4   9
ENDBRANCH   2   3
BRANCH   2  22
HETATM   22  C   UNK A   0     -10.634   7.212  66.830  1.00  0.00    -0.301 C  
BRANCH  22  23
HETATM   23  C   UNK A   0     -10.587   6.561  68.199  1.00  0.00    -0.251 A  
HETATM   24  N   UNK A   0     -13.244   7.709  71.264  1.00  0.00    -0.542 NA 
HETATM   25  C   UNK A   0     -10.528   5.356  70.671  1.00  0.00    -0.259 A  
HETATM   26  C   UNK A   0      -9.753   5.497  68.494  1.00  0.00    -0.134 A  
HETATM   27  N   UNK A   0     -10.442   4.795  71.874  1.00  0.00    -0.169 NA 
HETATM   28  C   UNK A   0     -12.218   6.766  71.441  1.00  0.00    -0.363 A  
HETATM   29  C   UNK A   0     -11.408   6.400  70.371  1.00  0.00    -0.389 A  
HETATM   30  N   UNK A   0      -9.716   4.895  69.712  1.00  0.00    -0.173 NA 
HETATM   31  C   UNK A   0     -11.229   5.267  72.832  1.00  0.00    -0.312 A  
HETATM   32  H1  UNK A   0     -13.296   8.130  70.335  1.00  0.00     0.000 HD 
HETATM   33  H1  UNK A   0     -11.707   5.087  74.829  1.00  0.00     0.000 HD 
HETATM   34  N   UNK A   0     -11.102   4.724  74.092  1.00  0.00    -0.345 NA 
HETATM   35  N   UNK A   0     -12.149   6.214  72.660  1.00  0.00    -0.530 NA 
HETATM   36  N   UNK A   0     -11.444   7.014  69.144  1.00  0.00    -0.522 NA 
HETATM   37  H2  UNK A   0     -13.176   8.437  71.974  1.00  0.00     0.000 HD 
HETATM   38  H2  UNK A   0     -10.426   3.984  74.281  1.00  0.00     0.000 HD 
ENDBRANCH  22  23
ENDBRANCH   2  22
TORSDOF 7
ENDMDL
MODEL       11
REMARK 921   NORMALIZED FREE ENERGY PREDICTED BY IDOCK:   -7.36 KCAL/MOL
REMARK 922        TOTAL FREE ENERGY PREDICTED BY IDOCK:  -12.12 KCAL/MOL
REMARK 923 INTER-LIGAND FREE ENERGY PREDICTED BY IDOCK:  -10.69 KCAL/MOL
REMARK 924 INTRA-LIGAND FREE ENERGY PREDICTED BY IDOCK:   -1.42 KCAL/MOL
REMARK 927      BINDING AFFINITY PREDICTED BY RF-SCORE:    0.00 PKD
ROOT
HETATM    1  C   UNK A   0      -9.922  13.741  65.764  1.00  0.00    -0.275 C  
HETATM    2  N   UNK A   0     -10.583  13.376  67.013  1.00  0.00    -0.263 NA 
ENDROOT
BRANCH   2   3
HETATM    3  C   UNK A   0     -10.236  12.188  67.647  1.00  0.00    -0.197 A  
HETATM    4  C   UNK A   0      -9.647   9.932  69.255  1.00  0.00    -0.215 A  
HETATM    5  C   UNK A   0      -8.923  11.903  68.062  1.00  0.00    -0.185 A  
HETATM    6  C   UNK A   0     -11.221  11.240  67.966  1.00  0.00    -0.351 A  
HETATM    7  C   UNK A   0     -10.940  10.133  68.773  1.00  0.00    -0.264 A  
HETATM    8  C   UNK A   0      -8.622  10.780  68.845  1.00  0.00    -0.155 A  
BRANCH   4   9
HETATM    9  C   UNK A   0      -9.359   8.839  70.215  1.00  0.00    -0.174 C  
HETATM   10  O   UNK A   0      -8.805   9.065  71.280  1.00  0.00    -0.215 OA 
ATOM     11  N   GLU A   1      -9.804   7.578  69.834  1.00  0.00    -0.185 N  
ATOM     12  H   GLU A   1     -10.197   7.430  68.905  1.00  0.00     0.000 HD 
BRANCH  11  13
ATOM     13  CA  GLU A   1      -9.703   6.457  70.788  1.00  0.00    -0.180 C  
ATOM     14  OXT GLU A   1      -8.599   4.276  70.658  1.00  0.00    -0.076 OA 
ATOM     15  C   GLU A   1      -9.069   5.245  70.079  1.00  0.00    -0.128 C  
ATOM     16  O   GLU A   1      -9.238   5.271  68.733  1.00  0.00    -0.110 OA 
BRANCH  13  17
ATOM     17  CB  GLU A   1     -11.095   6.084  71.319  1.00  0.00    -0.337 C  
BRANCH  17  18
ATOM     18  CG  GLU A   1     -12.203   7.004  70.799  1.00  0.00    -0.343 C  
ATOM     19  OE2 GLU A   1     -11.926   8.343  72.801  1.00  0.00    -0.367 OA 
ATOM     20  OE1 GLU A   1     -13.444   8.978  71.252  1.00  0.00    -0.301 OA 
ATOM     21  CD  GLU A   1     -12.486   8.153  71.734  1.00  0.00    -0.330 C  
ENDBRANCH  17  18
ENDBRANCH  13  17
ENDBRANCH  11  13
ENDBRANCH   4   9
ENDBRANCH   2   3
BRANCH   2  22
HETATM   22  C   UNK A   0     -11.865  14.031  67.328  1.00  0.00    -0.411 C  
BRANCH  22  23
HETATM   23  C   UNK A   0     -11.901  14.711  68.683  1.00  0.00    -0.311 A  
HETATM   24  N   UNK A   0     -13.604  12.819  72.042  1.00  0.00    -0.435 NA 
HETATM   25  C   UNK A   0     -11.932  15.929  71.150  1.00  0.00    -0.427 A  
HETATM   26  C   UNK A   0     -11.296  15.932  68.924  1.00  0.00    -0.377 A  
HETATM   27  N   UNK A   0     -11.983  16.562  72.318  1.00  0.00    -0.620 NA 
HETATM   28  C   UNK A   0     -13.098  14.129  72.065  1.00  0.00    -0.387 A  
HETATM   29  C   UNK A   0     -12.506  14.673  70.930  1.00  0.00    -0.336 A  
HETATM   30  N   UNK A   0     -11.306  16.542  70.138  1.00  0.00    -0.437 NA 
HETATM   31  C   UNK A   0     -12.624  15.966  73.315  1.00  0.00    -0.527 A  
HETATM   32  H1  UNK A   0     -13.557  12.347  71.139  1.00  0.00     0.000 HD 
HETATM   33  H1  UNK A   0     -13.218  16.187  75.276  1.00  0.00     0.000 HD 
HETATM   34  N   UNK A   0     -12.725  16.645  74.510  1.00  0.00    -0.809 NA 
HETATM   35  N   UNK A   0     -13.160  14.749  73.252  1.00  0.00    -0.549 NA 
HETATM   36  N   UNK A   0     -12.502  14.057  69.703  1.00  0.00    -0.418 NA 
HETATM   37  H2  UNK A   0     -14.561  12.807  72.394  1.00  0.00     0.000 HD 
HETATM   38  H2  UNK A   0     -12.319  17.574  74.624  1.00  0.00     0.000 HD 
ENDBRANCH  22  23
ENDBRANCH   2  22
TORSDOF 7
ENDMDL
MODEL       12
REMARK 921   NORMALIZED FREE ENERGY PREDICTED BY IDOCK:   -7.32 KCAL/MOL
REMARK 922        TOTAL FREE ENERGY PREDICTED BY IDOCK:  -12.06 KCAL/MOL
REMARK 923 INTER-LIGAND FREE ENERGY PREDICTED BY IDOCK:  -11.11 KCAL/MOL
REMARK 924 INTRA-LIGAND FREE ENERGY PREDICTED BY IDOCK:   -0.94 KCAL/MOL
REMARK 927      BINDING AFFINITY PREDICTED BY RF-SCORE:    0.00 PKD
ROOT
HETATM    1  C   UNK A   0     -13.137  15.599  71.234  1.00  0.00    -0.473 C  
HETATM    2  N   UNK A   0     -12.175  14.639  70.699  1.00  0.00    -0.302 NA 
ENDROOT
BRANCH   2   3
HETATM    3  C   UNK A   0     -12.477  13.283  70.725  1.00  0.00    -0.324 A  
HETATM    4  C   UNK A   0     -12.810  10.485  71.022  1.00  0.00    -0.502 A  
HETATM    5  C   UNK A   0     -11.994  12.378  69.763  1.00  0.00    -0.359 A  
HETATM    6  C   UNK A   0     -13.235  12.743  71.777  1.00  0.00    -0.471 A  
HETATM    7  C   UNK A   0     -13.389  11.363  71.938  1.00  0.00    -0.409 A  
HETATM    8  C   UNK A   0     -12.168  10.993  69.896  1.00  0.00    -0.408 A  
BRANCH   4   9
HETATM    9  C   UNK A   0     -12.853   9.020  71.246  1.00  0.00    -0.245 C  
HETATM   10  O   UNK A   0     -13.765   8.505  71.877  1.00  0.00    -0.375 OA 
ATOM     11  N   GLU A   1     -11.825   8.296  70.654  1.00  0.00    -0.472 N  
ATOM     12  H   GLU A   1     -11.051   8.779  70.198  1.00  0.00     0.000 HD 
BRANCH  11  13
ATOM     13  CA  GLU A   1     -11.866   6.822  70.690  1.00  0.00    -0.387 C  
ATOM     14  OXT GLU A   1     -11.385   5.201  72.460  1.00  0.00    -0.209 OA 
ATOM     15  C   GLU A   1     -11.246   6.330  72.011  1.00  0.00    -0.281 C  
ATOM     16  O   GLU A   1     -10.378   7.222  72.553  1.00  0.00    -0.197 OA 
BRANCH  13  17
ATOM     17  CB  GLU A   1     -11.089   6.240  69.499  1.00  0.00    -0.476 C  
BRANCH  17  18
ATOM     18  CG  GLU A   1     -10.329   7.303  68.700  1.00  0.00    -0.208 C  
ATOM     19  OE2 GLU A   1     -11.285   6.360  66.682  1.00  0.00    -0.245 OA 
ATOM     20  OE1 GLU A   1      -9.929   8.160  66.522  1.00  0.00    -0.256 OA 
ATOM     21  CD  GLU A   1     -10.578   7.198  67.217  1.00  0.00    -0.327 C  
ENDBRANCH  17  18
ENDBRANCH  13  17
ENDBRANCH  11  13
ENDBRANCH   4   9
ENDBRANCH   2   3
BRANCH   2  22
HETATM   22  C   UNK A   0     -10.775  15.078  70.557  1.00  0.00    -0.067 C  
BRANCH  22  23
HETATM   23  C   UNK A   0     -10.521  15.969  69.356  1.00  0.00    -0.271 A  
HETATM   24  N   UNK A   0     -10.504  20.169  69.706  1.00  0.00    -0.490 NA 
HETATM   25  C   UNK A   0     -10.022  17.585  67.187  1.00  0.00    -0.314 A  
HETATM   26  C   UNK A   0     -10.182  15.469  68.112  1.00  0.00    -0.227 A  
HETATM   27  N   UNK A   0      -9.832  18.344  66.111  1.00  0.00    -0.506 NA 
HETATM   28  C   UNK A   0     -10.350  19.494  68.485  1.00  0.00    -0.331 A  
HETATM   29  C   UNK A   0     -10.317  18.103  68.451  1.00  0.00    -0.356 A  
HETATM   30  N   UNK A   0      -9.934  16.258  67.034  1.00  0.00    -0.249 NA 
HETATM   31  C   UNK A   0      -9.943  19.658  66.256  1.00  0.00    -0.466 A  
HETATM   32  H1  UNK A   0     -10.648  19.573  70.522  1.00  0.00     0.000 HD 
HETATM   33  H1  UNK A   0      -9.886  21.452  65.243  1.00  0.00     0.000 HD 
HETATM   34  N   UNK A   0      -9.801  20.441  65.132  1.00  0.00    -0.165 NA 
HETATM   35  N   UNK A   0     -10.160  20.277  67.414  1.00  0.00    -0.412 NA 
HETATM   36  N   UNK A   0     -10.574  17.309  69.540  1.00  0.00    -0.335 NA 
HETATM   37  H2  UNK A   0     -11.257  20.853  69.635  1.00  0.00     0.000 HD 
HETATM   38  H2  UNK A   0      -9.617  20.025  64.219  1.00  0.00     0.000 HD 
ENDBRANCH  22  23
ENDBRANCH   2  22
TORSDOF 7
ENDMDL
MODEL       13
REMARK 921   NORMALIZED FREE ENERGY PREDICTED BY IDOCK:   -7.30 KCAL/MOL
REMARK 922        TOTAL FREE ENERGY PREDICTED BY IDOCK:  -12.04 KCAL/MOL
REMARK 923 INTER-LIGAND FREE ENERGY PREDICTED BY IDOCK:  -10.80 KCAL/MOL
REMARK 924 INTRA-LIGAND FREE ENERGY PREDICTED BY IDOCK:   -1.24 KCAL/MOL
REMARK 927      BINDING AFFINITY PREDICTED BY RF-SCORE:    0.00 PKD
ROOT
HETATM    1  C   UNK A   0     -10.154  11.360  65.085  1.00  0.00    -0.271 C  
HETATM    2  N   UNK A   0     -11.097  11.856  66.083  1.00  0.00    -0.316 NA 
ENDROOT
BRANCH   2   3
HETATM    3  C   UNK A   0     -11.246  11.170  67.282  1.00  0.00    -0.277 A  
HETATM    4  C   UNK A   0     -11.274   9.987  69.856  1.00  0.00    -0.327 A  
HETATM    5  C   UNK A   0     -10.638   9.926  67.527  1.00  0.00    -0.333 A  
HETATM    6  C   UNK A   0     -11.970  11.740  68.342  1.00  0.00    -0.250 A  
HETATM    7  C   UNK A   0     -11.974  11.170  69.618  1.00  0.00    -0.429 A  
HETATM    8  C   UNK A   0     -10.660   9.328  68.795  1.00  0.00    -0.220 A  
BRANCH   4   9
HETATM    9  C   UNK A   0     -11.159   9.439  71.229  1.00  0.00    -0.376 C  
HETATM   10  O   UNK A   0     -12.110   9.459  71.997  1.00  0.00    -0.362 OA 
ATOM     11  N   GLU A   1      -9.931   8.871  71.543  1.00  0.00    -0.296 N  
ATOM     12  H   GLU A   1      -9.149   8.942  70.892  1.00  0.00     0.000 HD 
BRANCH  11  13
ATOM     13  CA  GLU A   1      -9.769   8.162  72.827  1.00  0.00    -0.281 C  
ATOM     14  OXT GLU A   1      -7.949   8.107  74.463  1.00  0.00    -0.231 OA 
ATOM     15  C   GLU A   1      -8.318   8.329  73.318  1.00  0.00    -0.184 C  
ATOM     16  O   GLU A   1      -7.444   8.583  72.312  1.00  0.00    -0.185 OA 
BRANCH  13  17
ATOM     17  CB  GLU A   1     -10.094   6.670  72.655  1.00  0.00    -0.191 C  
BRANCH  17  18
ATOM     18  CG  GLU A   1      -9.571   6.089  71.338  1.00  0.00    -0.180 C  
ATOM     19  OE2 GLU A   1     -11.825   6.249  70.461  1.00  0.00    -0.319 OA 
ATOM     20  OE1 GLU A   1     -10.176   5.470  69.127  1.00  0.00    -0.197 OA 
ATOM     21  CD  GLU A   1     -10.652   5.955  70.297  1.00  0.00    -0.286 C  
ENDBRANCH  17  18
ENDBRANCH  13  17
ENDBRANCH  11  13
ENDBRANCH   4   9
ENDBRANCH   2   3
BRANCH   2  22
HETATM   22  C   UNK A   0     -12.149  12.784  65.630  1.00  0.00    -0.459 C  
BRANCH  22  23
HETATM   23  C   UNK A   0     -11.714  14.236  65.569  1.00  0.00    -0.353 A  
HETATM   24  N   UNK A   0     -10.573  16.331  69.043  1.00  0.00    -0.264 NA 
HETATM   25  C   UNK A   0     -10.890  16.858  65.454  1.00  0.00    -0.106 A  
HETATM   26  C   UNK A   0     -11.568  14.923  64.377  1.00  0.00    -0.288 A  
HETATM   27  N   UNK A   0     -10.547  18.140  65.378  1.00  0.00    -0.557 NA 
HETATM   28  C   UNK A   0     -10.651  16.923  67.773  1.00  0.00    -0.340 A  
HETATM   29  C   UNK A   0     -10.988  16.158  66.661  1.00  0.00    -0.055 A  
HETATM   30  N   UNK A   0     -11.162  16.218  64.310  1.00  0.00    -1.202 NA 
HETATM   31  C   UNK A   0     -10.301  18.781  66.512  1.00  0.00    -0.424 A  
HETATM   32  H1  UNK A   0     -10.839  15.347  69.085  1.00  0.00     0.000 HD 
HETATM   33  H1  UNK A   0      -9.811  20.617  67.312  1.00  0.00     0.000 HD 
HETATM   34  N   UNK A   0     -10.000  20.124  66.439  1.00  0.00    -0.514 NA 
HETATM   35  N   UNK A   0     -10.302  18.216  67.718  1.00  0.00    -0.382 NA 
HETATM   36  N   UNK A   0     -11.404  14.853  66.733  1.00  0.00    -0.345 NA 
HETATM   37  H2  UNK A   0     -11.121  16.870  69.714  1.00  0.00     0.000 HD 
HETATM   38  H2  UNK A   0      -9.967  20.608  65.541  1.00  0.00     0.000 HD 
ENDBRANCH  22  23
ENDBRANCH   2  22
TORSDOF 7
ENDMDL
MODEL       14
REMARK 921   NORMALIZED FREE ENERGY PREDICTED BY IDOCK:   -7.25 KCAL/MOL
REMARK 922        TOTAL FREE ENERGY PREDICTED BY IDOCK:  -11.96 KCAL/MOL
REMARK 923 INTER-LIGAND FREE ENERGY PREDICTED BY IDOCK:  -11.29 KCAL/MOL
REMARK 924 INTRA-LIGAND FREE ENERGY PREDICTED BY IDOCK:   -0.68 KCAL/MOL
REMARK 927      BINDING AFFINITY PREDICTED BY RF-SCORE:    0.00 PKD
ROOT
HETATM    1  C   UNK A   0     -11.523  12.752  66.486  1.00  0.00    -0.355 C  
HETATM    2  N   UNK A   0     -10.217  12.945  67.111  1.00  0.00    -0.237 NA 
ENDROOT
BRANCH   2   3
HETATM    3  C   UNK A   0      -9.457  14.058  66.772  1.00  0.00    -0.282 A  
HETATM    4  C   UNK A   0      -7.993  16.458  66.421  1.00  0.00    -0.329 A  
HETATM    5  C   UNK A   0      -9.971  15.131  66.023  1.00  0.00    -0.335 A  
HETATM    6  C   UNK A   0      -8.138  14.186  67.236  1.00  0.00    -0.188 A  
HETATM    7  C   UNK A   0      -7.416  15.373  67.081  1.00  0.00    -0.224 A  
HETATM    8  C   UNK A   0      -9.247  16.316  65.833  1.00  0.00    -0.268 A  
BRANCH   4   9
HETATM    9  C   UNK A   0      -7.294  17.765  66.361  1.00  0.00    -0.275 C  
HETATM   10  O   UNK A   0      -6.774  18.154  65.326  1.00  0.00    -0.443 OA 
ATOM     11  N   GLU A   1      -7.323  18.511  67.533  1.00  0.00    -0.218 N  
ATOM     12  H   GLU A   1      -7.708  18.111  68.389  1.00  0.00     0.000 HD 
BRANCH  11  13
ATOM     13  CA  GLU A   1      -6.792  19.887  67.527  1.00  0.00    -0.231 C  
ATOM     14  OXT GLU A   1      -5.288  21.081  69.045  1.00  0.00    -0.333 OA 
ATOM     15  C   GLU A   1      -6.064  20.155  68.858  1.00  0.00    -0.302 C  
ATOM     16  O   GLU A   1      -6.499  19.361  69.869  1.00  0.00    -0.286 OA 
BRANCH  13  17
ATOM     17  CB  GLU A   1      -7.935  20.897  67.343  1.00  0.00    -0.189 C  
BRANCH  17  18
ATOM     18  CG  GLU A   1      -9.176  20.287  66.685  1.00  0.00    -0.428 C  
ATOM     19  OE2 GLU A   1     -10.011  19.785  68.904  1.00  0.00    -0.441 OA 
ATOM     20  OE1 GLU A   1     -11.271  19.251  67.106  1.00  0.00    -0.324 OA 
ATOM     21  CD  GLU A   1     -10.164  19.760  67.694  1.00  0.00    -0.434 C  
ENDBRANCH  17  18
ENDBRANCH  13  17
ENDBRANCH  11  13
ENDBRANCH   4   9
ENDBRANCH   2   3
BRANCH   2  22
HETATM   22  C   UNK A   0      -9.572  11.773  67.727  1.00  0.00    -0.184 C  
BRANCH  22  23
HETATM   23  C   UNK A   0     -10.457  11.010  68.694  1.00  0.00    -0.192 A  
HETATM   24  N   UNK A   0     -12.874  13.018  71.503  1.00  0.00    -0.338 NA 
HETATM   25  C   UNK A   0     -12.093   9.630  70.421  1.00  0.00    -0.051 A  
HETATM   26  C   UNK A   0     -10.606   9.636  68.647  1.00  0.00    -0.217 A  
HETATM   27  N   UNK A   0     -12.834   8.936  71.281  1.00  0.00    -0.469 NA 
HETATM   28  C   UNK A   0     -12.768  11.620  71.432  1.00  0.00    -0.339 A  
HETATM   29  C   UNK A   0     -11.988  11.024  70.446  1.00  0.00    -0.368 A  
HETATM   30  N   UNK A   0     -11.410   8.944  69.496  1.00  0.00    -0.423 NA 
HETATM   31  C   UNK A   0     -13.492   9.613  72.213  1.00  0.00    -0.400 A  
HETATM   32  H1  UNK A   0     -12.300  13.535  70.837  1.00  0.00     0.000 HD 
HETATM   33  H1  UNK A   0     -14.721   9.412  73.856  1.00  0.00     0.000 HD 
HETATM   34  N   UNK A   0     -14.215   8.892  73.139  1.00  0.00    -1.200 NA 
HETATM   35  N   UNK A   0     -13.522  10.941  72.308  1.00  0.00    -0.528 NA 
HETATM   36  N   UNK A   0     -11.172  11.724  69.594  1.00  0.00    -0.456 NA 
HETATM   37  H2  UNK A   0     -12.679  13.335  72.453  1.00  0.00     0.000 HD 
HETATM   38  H2  UNK A   0     -14.244   7.873  73.107  1.00  0.00     0.000 HD 
ENDBRANCH  22  23
ENDBRANCH   2  22
TORSDOF 7
ENDMDL
MODEL       15
REMARK 921   NORMALIZED FREE ENERGY PREDICTED BY IDOCK:   -7.24 KCAL/MOL
REMARK 922        TOTAL FREE ENERGY PREDICTED BY IDOCK:  -11.95 KCAL/MOL
REMARK 923 INTER-LIGAND FREE ENERGY PREDICTED BY IDOCK:  -11.07 KCAL/MOL
REMARK 924 INTRA-LIGAND FREE ENERGY PREDICTED BY IDOCK:   -0.88 KCAL/MOL
REMARK 927      BINDING AFFINITY PREDICTED BY RF-SCORE:    0.00 PKD
ROOT
HETATM    1  C   UNK A   0      -9.597   8.593  72.082  1.00  0.00    -0.307 C  
HETATM    2  N   UNK A   0     -10.553   8.281  71.024  1.00  0.00    -0.201 NA 
ENDROOT
BRANCH   2   3
HETATM    3  C   UNK A   0     -11.024   9.300  70.205  1.00  0.00    -0.247 A  
HETATM    4  C   UNK A   0     -11.636  11.521  68.556  1.00  0.00    -0.377 A  
HETATM    5  C   UNK A   0     -11.707  10.423  70.706  1.00  0.00    -0.464 A  
HETATM    6  C   UNK A   0     -10.766   9.281  68.826  1.00  0.00    -0.184 A  
HETATM    7  C   UNK A   0     -11.050  10.379  68.010  1.00  0.00    -0.359 A  
HETATM    8  C   UNK A   0     -12.026  11.519  69.893  1.00  0.00    -0.426 A  
BRANCH   4   9
HETATM    9  C   UNK A   0     -11.827  12.741  67.735  1.00  0.00    -0.332 C  
HETATM   10  O   UNK A   0     -11.987  13.834  68.259  1.00  0.00    -0.357 OA 
ATOM     11  N   GLU A   1     -11.759  12.551  66.361  1.00  0.00    -0.394 N  
ATOM     12  H   GLU A   1     -11.694  11.609  65.973  1.00  0.00     0.000 HD 
BRANCH  11  13
ATOM     13  CA  GLU A   1     -11.781  13.724  65.466  1.00  0.00    -0.346 C  
ATOM     14  OXT GLU A   1     -12.763  14.094  63.255  1.00  0.00    -0.714 OA 
ATOM     15  C   GLU A   1     -12.358  13.309  64.100  1.00  0.00    -0.341 C  
ATOM     16  O   GLU A   1     -12.214  11.984  63.845  1.00  0.00    -0.445 OA 
BRANCH  13  17
ATOM     17  CB  GLU A   1     -10.362  14.284  65.288  1.00  0.00    -0.417 C  
BRANCH  17  18
ATOM     18  CG  GLU A   1     -10.169  15.655  65.943  1.00  0.00    -0.372 C  
ATOM     19  OE2 GLU A   1     -11.253  16.643  64.013  1.00  0.00    -1.052 OA 
ATOM     20  OE1 GLU A   1     -10.578  17.982  65.703  1.00  0.00    -0.599 OA 
ATOM     21  CD  GLU A   1     -10.723  16.778  65.104  1.00  0.00    -0.143 C  
ENDBRANCH  17  18
ENDBRANCH  13  17
ENDBRANCH  11  13
ENDBRANCH   4   9
ENDBRANCH   2   3
BRANCH   2  22
HETATM   22  C   UNK A   0     -11.304   7.017  71.130  1.00  0.00    -0.282 C  
BRANCH  22  23
HETATM   23  C   UNK A   0     -10.672   5.853  70.391  1.00  0.00    -0.303 A  
HETATM   24  N   UNK A   0     -10.813   5.588  66.187  1.00  0.00    -0.706 NA 
HETATM   25  C   UNK A   0      -9.492   3.762  69.047  1.00  0.00    -0.163 A  
HETATM   26  C   UNK A   0      -9.931   4.874  71.030  1.00  0.00    -0.212 A  
HETATM   27  N   UNK A   0      -8.961   2.713  68.426  1.00  0.00    -0.124 NA 
HETATM   28  C   UNK A   0     -10.253   4.595  67.007  1.00  0.00    -0.126 A  
HETATM   29  C   UNK A   0     -10.198   4.772  68.385  1.00  0.00     0.018 A  
HETATM   30  N   UNK A   0      -9.345   3.838  70.376  1.00  0.00    -0.148 NA 
HETATM   31  C   UNK A   0      -9.126   2.625  67.113  1.00  0.00    -0.154 A  
HETATM   32  H1  UNK A   0     -11.216   6.386  66.679  1.00  0.00     0.000 HD 
HETATM   33  H1  UNK A   0      -8.752   1.443  65.467  1.00  0.00     0.000 HD 
HETATM   34  N   UNK A   0      -8.624   1.511  66.477  1.00  0.00    -0.101 NA 
HETATM   35  N   UNK A   0      -9.724   3.546  66.361  1.00  0.00    -0.402 NA 
HETATM   36  N   UNK A   0     -10.796   5.816  69.044  1.00  0.00    -0.290 NA 
HETATM   37  H2  UNK A   0     -11.506   5.176  65.562  1.00  0.00     0.000 HD 
HETATM   38  H2  UNK A   0      -8.141   0.779  66.998  1.00  0.00     0.000 HD 
ENDBRANCH  22  23
ENDBRANCH   2  22
TORSDOF 7
ENDMDL
MODEL       16
REMARK 921   NORMALIZED FREE ENERGY PREDICTED BY IDOCK:   -7.23 KCAL/MOL
REMARK 922        TOTAL FREE ENERGY PREDICTED BY IDOCK:  -11.94 KCAL/MOL
REMARK 923 INTER-LIGAND FREE ENERGY PREDICTED BY IDOCK:  -10.66 KCAL/MOL
REMARK 924 INTRA-LIGAND FREE ENERGY PREDICTED BY IDOCK:   -1.27 KCAL/MOL
REMARK 927      BINDING AFFINITY PREDICTED BY RF-SCORE:    0.00 PKD
ROOT
HETATM    1  C   UNK A   0     -10.216  14.050  65.581  1.00  0.00    -0.334 C  
HETATM    2  N   UNK A   0     -10.811  13.538  66.812  1.00  0.00    -0.281 NA 
ENDROOT
BRANCH   2   3
HETATM    3  C   UNK A   0     -10.395  12.310  67.313  1.00  0.00    -0.214 A  
HETATM    4  C   UNK A   0      -9.534   9.694  67.976  1.00  0.00    -0.146 A  
HETATM    5  C   UNK A   0     -11.295  11.334  67.777  1.00  0.00    -0.354 A  
HETATM    6  C   UNK A   0      -9.035  11.964  67.307  1.00  0.00    -0.176 A  
HETATM    7  C   UNK A   0      -8.605  10.671  67.617  1.00  0.00    -0.118 A  
HETATM    8  C   UNK A   0     -10.874  10.042  68.120  1.00  0.00    -0.303 A  
BRANCH   4   9
HETATM    9  C   UNK A   0      -9.112   8.287  68.181  1.00  0.00    -0.134 C  
HETATM   10  O   UNK A   0      -7.934   7.997  68.322  1.00  0.00    -0.123 OA 
ATOM     11  N   GLU A   1     -10.145   7.360  68.249  1.00  0.00    -0.171 N  
ATOM     12  H   GLU A   1     -11.105   7.643  68.055  1.00  0.00     0.000 HD 
BRANCH  11  13
ATOM     13  CA  GLU A   1      -9.838   5.961  68.605  1.00  0.00    -0.136 C  
ATOM     14  OXT GLU A   1      -9.593   3.932  67.257  1.00  0.00    -0.193 OA 
ATOM     15  C   GLU A   1     -10.031   5.069  67.364  1.00  0.00    -0.177 C  
ATOM     16  O   GLU A   1     -10.888   5.601  66.457  1.00  0.00    -0.284 OA 
BRANCH  13  17
ATOM     17  CB  GLU A   1     -10.760   5.487  69.739  1.00  0.00    -0.355 C  
BRANCH  17  18
ATOM     18  CG  GLU A   1     -11.565   6.624  70.373  1.00  0.00    -0.457 C  
ATOM     19  OE2 GLU A   1     -10.018   6.576  72.238  1.00  0.00    -0.165 OA 
ATOM     20  OE1 GLU A   1     -11.695   8.090  72.237  1.00  0.00    -0.324 OA 
ATOM     21  CD  GLU A   1     -10.997   7.065  71.698  1.00  0.00    -0.230 C  
ENDBRANCH  17  18
ENDBRANCH  13  17
ENDBRANCH  11  13
ENDBRANCH   4   9
ENDBRANCH   2   3
BRANCH   2  22
HETATM   22  C   UNK A   0     -12.103  14.107  67.238  1.00  0.00    -0.372 C  
BRANCH  22  23
HETATM   23  C   UNK A   0     -12.086  14.723  68.623  1.00  0.00    -0.188 A  
HETATM   24  N   UNK A   0     -13.637  12.664  71.958  1.00  0.00    -0.413 NA 
HETATM   25  C   UNK A   0     -12.021  15.824  71.143  1.00  0.00    -0.423 A  
HETATM   26  C   UNK A   0     -11.478  15.936  68.895  1.00  0.00    -0.386 A  
HETATM   27  N   UNK A   0     -12.027  16.402  72.341  1.00  0.00    -0.583 NA 
HETATM   28  C   UNK A   0     -13.138  13.975  72.021  1.00  0.00    -0.401 A  
HETATM   29  C   UNK A   0     -12.597  14.576  70.889  1.00  0.00    -0.344 A  
HETATM   30  N   UNK A   0     -11.441  16.489  70.136  1.00  0.00    -0.390 NA 
HETATM   31  C   UNK A   0     -12.622  15.756  73.335  1.00  0.00    -0.545 A  
HETATM   32  H1  UNK A   0     -13.625  12.235  71.032  1.00  0.00     0.000 HD 
HETATM   33  H1  UNK A   0     -13.136  15.881  75.327  1.00  0.00     0.000 HD 
HETATM   34  N   UNK A   0     -12.677  16.378  74.563  1.00  0.00    -0.949 NA 
HETATM   35  N   UNK A   0     -13.153  14.539  73.237  1.00  0.00    -0.589 NA 
HETATM   36  N   UNK A   0     -12.641  14.018  69.636  1.00  0.00    -0.405 NA 
HETATM   37  H2  UNK A   0     -14.578  12.629  72.348  1.00  0.00     0.000 HD 
HETATM   38  H2  UNK A   0     -12.273  17.304  74.703  1.00  0.00     0.000 HD 
ENDBRANCH  22  23
ENDBRANCH   2  22
TORSDOF 7
ENDMDL
MODEL       17
REMARK 921   NORMALIZED FREE ENERGY PREDICTED BY IDOCK:   -7.23 KCAL/MOL
REMARK 922        TOTAL FREE ENERGY PREDICTED BY IDOCK:  -11.93 KCAL/MOL
REMARK 923 INTER-LIGAND FREE ENERGY PREDICTED BY IDOCK:  -10.97 KCAL/MOL
REMARK 924 INTRA-LIGAND FREE ENERGY PREDICTED BY IDOCK:   -0.96 KCAL/MOL
REMARK 927      BINDING AFFINITY PREDICTED BY RF-SCORE:    0.00 PKD
ROOT
HETATM    1  C   UNK A   0     -11.439  11.744  63.517  1.00  0.00    -0.394 C  
HETATM    2  N   UNK A   0     -11.440  12.183  64.910  1.00  0.00    -0.331 NA 
ENDROOT
BRANCH   2   3
HETATM    3  C   UNK A   0     -10.855  11.378  65.880  1.00  0.00    -0.234 A  
HETATM    4  C   UNK A   0      -9.921   9.483  67.768  1.00  0.00    -0.216 A  
HETATM    5  C   UNK A   0     -11.169  11.485  67.247  1.00  0.00    -0.365 A  
HETATM    6  C   UNK A   0      -9.961  10.360  65.514  1.00  0.00    -0.348 A  
HETATM    7  C   UNK A   0      -9.510   9.412  66.437  1.00  0.00    -0.259 A  
HETATM    8  C   UNK A   0     -10.698  10.559  68.188  1.00  0.00    -0.273 A  
BRANCH   4   9
HETATM    9  C   UNK A   0      -9.558   8.416  68.731  1.00  0.00    -0.149 C  
HETATM   10  O   UNK A   0      -8.626   7.657  68.509  1.00  0.00    -0.128 OA 
ATOM     11  N   GLU A   1     -10.314   8.383  69.897  1.00  0.00    -0.206 N  
ATOM     12  H   GLU A   1     -11.125   8.992  70.002  1.00  0.00     0.000 HD 
BRANCH  11  13
ATOM     13  CA  GLU A   1      -9.930   7.459  70.981  1.00  0.00    -0.183 C  
ATOM     14  OXT GLU A   1     -10.294   5.061  71.311  1.00  0.00    -0.217 OA 
ATOM     15  C   GLU A   1     -10.623   6.102  70.759  1.00  0.00    -0.242 C  
ATOM     16  O   GLU A   1     -11.755   6.200  70.016  1.00  0.00    -0.336 OA 
BRANCH  13  17
ATOM     17  CB  GLU A   1     -10.340   8.039  72.344  1.00  0.00    -0.355 C  
BRANCH  17  18
ATOM     18  CG  GLU A   1     -11.849   7.968  72.597  1.00  0.00    -0.380 C  
ATOM     19  OE2 GLU A   1     -12.064  10.095  71.456  1.00  0.00    -0.377 OA 
ATOM     20  OE1 GLU A   1     -13.921   9.071  72.236  1.00  0.00    -0.448 OA 
ATOM     21  CD  GLU A   1     -12.586   9.157  72.035  1.00  0.00    -0.390 C  
ENDBRANCH  17  18
ENDBRANCH  13  17
ENDBRANCH  11  13
ENDBRANCH   4   9
ENDBRANCH   2   3
BRANCH   2  22
HETATM   22  C   UNK A   0     -12.414  13.217  65.302  1.00  0.00    -0.489 C  
BRANCH  22  23
HETATM   23  C   UNK A   0     -11.844  14.622  65.355  1.00  0.00    -0.304 A  
HETATM   24  N   UNK A   0      -9.974  16.098  68.832  1.00  0.00    -0.221 NA 
HETATM   25  C   UNK A   0     -10.775  17.155  65.441  1.00  0.00    -0.088 A  
HETATM   26  C   UNK A   0     -11.809  15.457  64.253  1.00  0.00    -0.199 A  
HETATM   27  N   UNK A   0     -10.315  18.402  65.473  1.00  0.00    -0.521 NA 
HETATM   28  C   UNK A   0     -10.181  16.869  67.677  1.00  0.00    -0.306 A  
HETATM   29  C   UNK A   0     -10.762  16.302  66.548  1.00  0.00    -0.187 A  
HETATM   30  N   UNK A   0     -11.284  16.710  64.285  1.00  0.00    -1.380 NA 
HETATM   31  C   UNK A   0      -9.833  18.852  66.624  1.00  0.00    -0.358 A  
HETATM   32  H1  UNK A   0     -10.332  15.143  68.791  1.00  0.00     0.000 HD 
HETATM   33  H1  UNK A   0      -9.036  20.507  67.558  1.00  0.00     0.000 HD 
HETATM   34  N   UNK A   0      -9.407  20.162  66.673  1.00  0.00    -0.478 NA 
HETATM   35  N   UNK A   0      -9.710  18.123  67.731  1.00  0.00    -0.284 NA 
HETATM   36  N   UNK A   0     -11.297  15.038  66.521  1.00  0.00    -0.319 NA 
HETATM   37  H2  UNK A   0     -10.354  16.579  69.647  1.00  0.00     0.000 HD 
HETATM   38  H2  UNK A   0      -9.461  20.764  65.851  1.00  0.00     0.000 HD 
ENDBRANCH  22  23
ENDBRANCH   2  22
TORSDOF 7
ENDMDL
MODEL       18
REMARK 921   NORMALIZED FREE ENERGY PREDICTED BY IDOCK:   -7.19 KCAL/MOL
REMARK 922        TOTAL FREE ENERGY PREDICTED BY IDOCK:  -11.89 KCAL/MOL
REMARK 923 INTER-LIGAND FREE ENERGY PREDICTED BY IDOCK:  -11.68 KCAL/MOL
REMARK 924 INTRA-LIGAND FREE ENERGY PREDICTED BY IDOCK:   -0.21 KCAL/MOL
REMARK 927      BINDING AFFINITY PREDICTED BY RF-SCORE:    0.00 PKD
ROOT
HETATM    1  C   UNK A   0     -12.262  13.726  68.056  1.00  0.00    -0.144 C  
HETATM    2  N   UNK A   0     -11.920  14.915  68.831  1.00  0.00    -0.495 NA 
ENDROOT
BRANCH   2   3
HETATM    3  C   UNK A   0     -11.054  15.858  68.290  1.00  0.00    -0.345 A  
HETATM    4  C   UNK A   0      -9.574  18.021  67.215  1.00  0.00    -0.269 A  
HETATM    5  C   UNK A   0     -10.841  15.988  66.906  1.00  0.00    -0.203 A  
HETATM    6  C   UNK A   0     -10.399  16.781  69.120  1.00  0.00    -0.326 A  
HETATM    7  C   UNK A   0      -9.682  17.860  68.596  1.00  0.00    -0.355 A  
HETATM    8  C   UNK A   0     -10.097  17.048  66.368  1.00  0.00    -0.325 A  
BRANCH   4   9
HETATM    9  C   UNK A   0      -8.928  19.226  66.641  1.00  0.00    -0.338 C  
HETATM   10  O   UNK A   0      -9.594  20.181  66.269  1.00  0.00    -0.398 OA 
ATOM     11  N   GLU A   1      -7.539  19.199  66.608  1.00  0.00    -0.233 N  
ATOM     12  H   GLU A   1      -7.034  18.351  66.864  1.00  0.00     0.000 HD 
BRANCH  11  13
ATOM     13  CA  GLU A   1      -6.802  20.411  66.200  1.00  0.00    -0.239 C  
ATOM     14  OXT GLU A   1      -6.008  21.204  64.024  1.00  0.00    -0.278 OA 
ATOM     15  C   GLU A   1      -6.377  20.272  64.726  1.00  0.00    -0.289 C  
ATOM     16  O   GLU A   1      -6.284  18.980  64.320  1.00  0.00    -0.471 OA 
BRANCH  13  17
ATOM     17  CB  GLU A   1      -5.562  20.602  67.086  1.00  0.00    -0.222 C  
BRANCH  17  18
ATOM     18  CG  GLU A   1      -5.896  21.158  68.474  1.00  0.00    -0.303 C  
ATOM     19  OE2 GLU A   1      -5.953  18.875  69.288  1.00  0.00    -0.222 OA 
ATOM     20  OE1 GLU A   1      -6.318  20.571  70.736  1.00  0.00    -0.536 OA 
ATOM     21  CD  GLU A   1      -6.054  20.071  69.507  1.00  0.00    -0.333 C  
ENDBRANCH  17  18
ENDBRANCH  13  17
ENDBRANCH  11  13
ENDBRANCH   4   9
ENDBRANCH   2   3
BRANCH   2  22
HETATM   22  C   UNK A   0     -12.143  14.871  70.287  1.00  0.00    -0.325 C  
BRANCH  22  23
HETATM   23  C   UNK A   0     -12.512  13.500  70.820  1.00  0.00    -0.353 A  
HETATM   24  N   UNK A   0     -10.536  10.025  69.485  1.00  0.00    -0.227 NA 
HETATM   25  C   UNK A   0     -13.154  11.017  71.814  1.00  0.00    -0.449 A  
HETATM   26  C   UNK A   0     -13.432  13.315  71.836  1.00  0.00    -0.438 A  
HETATM   27  N   UNK A   0     -13.521   9.823  72.271  1.00  0.00    -0.586 NA 
HETATM   28  C   UNK A   0     -11.614  10.005  70.385  1.00  0.00    -0.302 A  
HETATM   29  C   UNK A   0     -12.187  11.196  70.820  1.00  0.00    -0.385 A  
HETATM   30  N   UNK A   0     -13.757  12.093  72.333  1.00  0.00    -0.452 NA 
HETATM   31  C   UNK A   0     -12.942   8.754  71.739  1.00  0.00    -0.361 A  
HETATM   32  H1  UNK A   0     -10.267  10.948  69.144  1.00  0.00     0.000 HD 
HETATM   33  H1  UNK A   0     -12.915   6.694  71.763  1.00  0.00     0.000 HD 
HETATM   34  N   UNK A   0     -13.361   7.515  72.172  1.00  0.00    -0.521 NA 
HETATM   35  N   UNK A   0     -11.968   8.792  70.832  1.00  0.00    -0.421 NA 
HETATM   36  N   UNK A   0     -11.861  12.428  70.311  1.00  0.00    -0.534 NA 
HETATM   37  H2  UNK A   0     -10.726   9.404  68.698  1.00  0.00     0.000 HD 
HETATM   38  H2  UNK A   0     -14.092   7.423  72.878  1.00  0.00     0.000 HD 
ENDBRANCH  22  23
ENDBRANCH   2  22
TORSDOF 7
ENDMDL
MODEL       19
REMARK 921   NORMALIZED FREE ENERGY PREDICTED BY IDOCK:   -7.18 KCAL/MOL
REMARK 922        TOTAL FREE ENERGY PREDICTED BY IDOCK:  -11.87 KCAL/MOL
REMARK 923 INTER-LIGAND FREE ENERGY PREDICTED BY IDOCK:  -10.68 KCAL/MOL
REMARK 924 INTRA-LIGAND FREE ENERGY PREDICTED BY IDOCK:   -1.19 KCAL/MOL
REMARK 927      BINDING AFFINITY PREDICTED BY RF-SCORE:    0.00 PKD
ROOT
HETATM    1  C   UNK A   0     -12.658  15.548  70.757  1.00  0.00    -0.452 C  
HETATM    2  N   UNK A   0     -12.434  14.443  69.828  1.00  0.00    -0.505 NA 
ENDROOT
BRANCH   2   3
HETATM    3  C   UNK A   0     -12.362  13.144  70.317  1.00  0.00    -0.249 A  
HETATM    4  C   UNK A   0     -12.462  10.408  71.044  1.00  0.00    -0.488 A  
HETATM    5  C   UNK A   0     -13.121  12.702  71.415  1.00  0.00    -0.308 A  
HETATM    6  C   UNK A   0     -11.564  12.186  69.673  1.00  0.00    -0.361 A  
HETATM    7  C   UNK A   0     -11.621  10.832  70.016  1.00  0.00    -0.417 A  
HETATM    8  C   UNK A   0     -13.164  11.352  71.789  1.00  0.00    -0.472 A  
BRANCH   4   9
HETATM    9  C   UNK A   0     -12.634   8.964  71.336  1.00  0.00    -0.300 C  
HETATM   10  O   UNK A   0     -13.725   8.508  71.641  1.00  0.00    -0.365 OA 
ATOM     11  N   GLU A   1     -11.491   8.187  71.188  1.00  0.00    -0.272 N  
ATOM     12  H   GLU A   1     -10.590   8.627  71.001  1.00  0.00     0.000 HD 
BRANCH  11  13
ATOM     13  CA  GLU A   1     -11.594   6.720  71.304  1.00  0.00    -0.320 C  
ATOM     14  OXT GLU A   1     -11.426   5.201  73.217  1.00  0.00    -0.317 OA 
ATOM     15  C   GLU A   1     -11.182   6.295  72.726  1.00  0.00    -0.237 C  
ATOM     16  O   GLU A   1     -10.362   7.191  73.330  1.00  0.00    -0.274 OA 
BRANCH  13  17
ATOM     17  CB  GLU A   1     -10.686   6.039  70.270  1.00  0.00    -0.367 C  
BRANCH  17  18
ATOM     18  CG  GLU A   1     -11.126   6.293  68.825  1.00  0.00    -0.424 C  
ATOM     19  OE2 GLU A   1      -9.580   8.160  68.763  1.00  0.00    -0.148 OA 
ATOM     20  OE1 GLU A   1     -10.780   7.661  66.914  1.00  0.00    -0.351 OA 
ATOM     21  CD  GLU A   1     -10.408   7.463  68.200  1.00  0.00    -0.192 C  
ENDBRANCH  17  18
ENDBRANCH  13  17
ENDBRANCH  11  13
ENDBRANCH   4   9
ENDBRANCH   2   3
BRANCH   2  22
HETATM   22  C   UNK A   0     -11.870  14.764  68.505  1.00  0.00    -0.306 C  
BRANCH  22  23
HETATM   23  C   UNK A   0     -10.639  15.649  68.550  1.00  0.00    -0.256 A  
HETATM   24  N   UNK A   0     -10.758  19.642  67.206  1.00  0.00    -0.478 NA 
HETATM   25  C   UNK A   0      -8.417  17.267  68.668  1.00  0.00    -0.260 A  
HETATM   26  C   UNK A   0      -9.446  15.243  69.121  1.00  0.00    -0.236 A  
HETATM   27  N   UNK A   0      -7.315  18.010  68.686  1.00  0.00    -0.275 NA 
HETATM   28  C   UNK A   0      -9.588  19.011  67.656  1.00  0.00    -0.309 A  
HETATM   29  C   UNK A   0      -9.632  17.705  68.131  1.00  0.00    -0.297 A  
HETATM   30  N   UNK A   0      -8.343  16.034  69.184  1.00  0.00    -0.242 NA 
HETATM   31  C   UNK A   0      -7.380  19.223  68.153  1.00  0.00    -0.281 A  
HETATM   32  H1  UNK A   0     -11.595  19.058  67.199  1.00  0.00     0.000 HD 
HETATM   33  H1  UNK A   0      -6.276  20.906  67.711  1.00  0.00     0.000 HD 
HETATM   34  N   UNK A   0      -6.225  19.973  68.121  1.00  0.00    -0.241 NA 
HETATM   35  N   UNK A   0      -8.488  19.778  67.665  1.00  0.00    -0.311 NA 
HETATM   36  N   UNK A   0     -10.746  16.906  68.061  1.00  0.00    -0.364 NA 
HETATM   37  H2  UNK A   0     -10.606  20.045  66.282  1.00  0.00     0.000 HD 
HETATM   38  H2  UNK A   0      -5.349  19.608  68.495  1.00  0.00     0.000 HD 
ENDBRANCH  22  23
ENDBRANCH   2  22
TORSDOF 7
ENDMDL
MODEL       20
REMARK 921   NORMALIZED FREE ENERGY PREDICTED BY IDOCK:   -7.16 KCAL/MOL
REMARK 922        TOTAL FREE ENERGY PREDICTED BY IDOCK:  -11.84 KCAL/MOL
REMARK 923 INTER-LIGAND FREE ENERGY PREDICTED BY IDOCK:  -10.20 KCAL/MOL
REMARK 924 INTRA-LIGAND FREE ENERGY PREDICTED BY IDOCK:   -1.64 KCAL/MOL
REMARK 927      BINDING AFFINITY PREDICTED BY RF-SCORE:    0.00 PKD
ROOT
HETATM    1  C   UNK A   0      -6.775   6.633  67.470  1.00  0.00    -0.067 C  
HETATM    2  N   UNK A   0      -7.643   7.650  68.056  1.00  0.00    -0.107 NA 
ENDROOT
BRANCH   2   3
HETATM    3  C   UNK A   0      -8.185   8.637  67.241  1.00  0.00    -0.105 A  
HETATM    4  C   UNK A   0      -9.544  10.698  65.851  1.00  0.00    -0.253 A  
HETATM    5  C   UNK A   0      -9.082   8.353  66.197  1.00  0.00    -0.238 A  
HETATM    6  C   UNK A   0      -7.904   9.991  67.482  1.00  0.00    -0.095 A  
HETATM    7  C   UNK A   0      -8.582  11.013  66.812  1.00  0.00    -0.152 A  
HETATM    8  C   UNK A   0      -9.747   9.368  65.495  1.00  0.00    -0.300 A  
BRANCH   4   9
HETATM    9  C   UNK A   0     -10.364  11.762  65.224  1.00  0.00    -0.274 C  
HETATM   10  O   UNK A   0     -11.079  11.523  64.263  1.00  0.00    -0.342 OA 
ATOM     11  N   GLU A   1     -10.291  13.008  65.835  1.00  0.00    -0.283 N  
ATOM     12  H   GLU A   1      -9.626  13.174  66.591  1.00  0.00     0.000 HD 
BRANCH  11  13
ATOM     13  CA  GLU A   1     -11.187  14.089  65.381  1.00  0.00    -0.319 C  
ATOM     14  OXT GLU A   1     -10.759  16.382  64.639  1.00  0.00    -0.693 OA 
ATOM     15  C   GLU A   1     -10.379  15.395  65.252  1.00  0.00    -0.390 C  
ATOM     16  O   GLU A   1      -9.271  15.411  66.034  1.00  0.00    -0.316 OA 
BRANCH  13  17
ATOM     17  CB  GLU A   1     -12.337  14.282  66.381  1.00  0.00    -0.378 C  
BRANCH  17  18
ATOM     18  CG  GLU A   1     -12.021  13.729  67.774  1.00  0.00    -0.391 C  
ATOM     19  OE2 GLU A   1     -11.488  15.990  68.466  1.00  0.00    -0.370 OA 
ATOM     20  OE1 GLU A   1     -11.349  14.313  69.975  1.00  0.00    -0.241 OA 
ATOM     21  CD  GLU A   1     -11.596  14.806  68.740  1.00  0.00    -0.320 C  
ENDBRANCH  17  18
ENDBRANCH  13  17
ENDBRANCH  11  13
ENDBRANCH   4   9
ENDBRANCH   2   3
BRANCH   2  22
HETATM   22  C   UNK A   0      -7.569   7.857  69.513  1.00  0.00    -0.099 C  
BRANCH  22  23
HETATM   23  C   UNK A   0      -8.916   7.854  70.212  1.00  0.00    -0.151 A  
HETATM   24  N   UNK A   0     -11.410  11.252  70.179  1.00  0.00    -0.480 NA 
HETATM   25  C   UNK A   0     -11.374   7.838  71.445  1.00  0.00    -0.251 A  
HETATM   26  C   UNK A   0      -9.448   6.724  70.806  1.00  0.00    -0.165 A  
HETATM   27  N   UNK A   0     -12.534   7.820  72.095  1.00  0.00    -0.447 NA 
HETATM   28  C   UNK A   0     -11.715  10.074  70.880  1.00  0.00    -0.374 A  
HETATM   29  C   UNK A   0     -10.867   8.974  70.807  1.00  0.00    -0.251 A  
HETATM   30  N   UNK A   0     -10.661   6.705  71.417  1.00  0.00    -0.221 NA 
HETATM   31  C   UNK A   0     -13.231   8.948  72.144  1.00  0.00    -0.429 A  
HETATM   32  H1  UNK A   0     -10.517  11.249  69.685  1.00  0.00     0.000 HD 
HETATM   33  H1  UNK A   0     -14.941   9.814  72.901  1.00  0.00     0.000 HD 
HETATM   34  N   UNK A   0     -14.406   8.946  72.864  1.00  0.00    -1.124 NA 
HETATM   35  N   UNK A   0     -12.888  10.078  71.529  1.00  0.00    -0.396 NA 
HETATM   36  N   UNK A   0      -9.640   8.997  70.193  1.00  0.00    -0.181 NA 
HETATM   37  H2  UNK A   0     -11.460  12.055  70.805  1.00  0.00     0.000 HD 
HETATM   38  H2  UNK A   0     -14.729   8.106  73.343  1.00  0.00     0.000 HD 
ENDBRANCH  22  23
ENDBRANCH   2  22
TORSDOF 7
ENDMDL
MODEL       21
REMARK 921   NORMALIZED FREE ENERGY PREDICTED BY IDOCK:   -7.15 KCAL/MOL
REMARK 922        TOTAL FREE ENERGY PREDICTED BY IDOCK:  -11.83 KCAL/MOL
REMARK 923 INTER-LIGAND FREE ENERGY PREDICTED BY IDOCK:  -10.54 KCAL/MOL
REMARK 924 INTRA-LIGAND FREE ENERGY PREDICTED BY IDOCK:   -1.29 KCAL/MOL
REMARK 927      BINDING AFFINITY PREDICTED BY RF-SCORE:    0.00 PKD
ROOT
HETATM    1  C   UNK A   0     -10.749  11.811  63.744  1.00  0.00    -0.419 C  
HETATM    2  N   UNK A   0     -11.142  12.139  65.112  1.00  0.00    -0.314 NA 
ENDROOT
BRANCH   2   3
HETATM    3  C   UNK A   0     -10.803  11.275  66.146  1.00  0.00    -0.222 A  
HETATM    4  C   UNK A   0     -10.407   9.310  68.147  1.00  0.00    -0.261 A  
HETATM    5  C   UNK A   0     -11.198  11.491  67.478  1.00  0.00    -0.360 A  
HETATM    6  C   UNK A   0     -10.096  10.091  65.880  1.00  0.00    -0.319 A  
HETATM    7  C   UNK A   0      -9.912   9.111  66.859  1.00  0.00    -0.304 A  
HETATM    8  C   UNK A   0     -10.993  10.529  68.476  1.00  0.00    -0.300 A  
BRANCH   4   9
HETATM    9  C   UNK A   0     -10.335   8.229  69.161  1.00  0.00    -0.217 C  
HETATM   10  O   UNK A   0      -9.601   7.266  69.004  1.00  0.00    -0.147 OA 
ATOM     11  N   GLU A   1     -11.114   8.425  70.295  1.00  0.00    -0.313 N  
ATOM     12  H   GLU A   1     -11.763   9.210  70.346  1.00  0.00     0.000 HD 
BRANCH  11  13
ATOM     13  CA  GLU A   1     -10.992   7.485  71.426  1.00  0.00    -0.231 C  
ATOM     14  OXT GLU A   1     -12.575   5.923  72.450  1.00  0.00    -0.091 OA 
ATOM     15  C   GLU A   1     -12.384   6.918  71.765  1.00  0.00    -0.361 C  
ATOM     16  O   GLU A   1     -13.397   7.732  71.374  1.00  0.00    -0.321 OA 
BRANCH  13  17
ATOM     17  CB  GLU A   1     -10.406   8.201  72.652  1.00  0.00    -0.398 C  
BRANCH  17  18
ATOM     18  CG  GLU A   1      -9.003   7.709  73.021  1.00  0.00    -0.228 C  
ATOM     19  OE2 GLU A   1      -8.107   9.329  71.455  1.00  0.00    -0.330 OA 
ATOM     20  OE1 GLU A   1      -6.682   8.029  72.632  1.00  0.00    -0.069 OA 
ATOM     21  CD  GLU A   1      -7.919   8.448  72.278  1.00  0.00    -0.116 C  
ENDBRANCH  17  18
ENDBRANCH  13  17
ENDBRANCH  11  13
ENDBRANCH   4   9
ENDBRANCH   2   3
BRANCH   2  22
HETATM   22  C   UNK A   0     -12.230  13.116  65.297  1.00  0.00    -0.455 C  
BRANCH  22  23
HETATM   23  C   UNK A   0     -11.765  14.557  65.382  1.00  0.00    -0.354 A  
HETATM   24  N   UNK A   0     -10.537  16.252  69.040  1.00  0.00    -0.264 NA 
HETATM   25  C   UNK A   0     -10.885  17.159  65.530  1.00  0.00    -0.055 A  
HETATM   26  C   UNK A   0     -11.619  15.363  64.267  1.00  0.00    -0.191 A  
HETATM   27  N   UNK A   0     -10.516  18.436  65.584  1.00  0.00    -0.619 NA 
HETATM   28  C   UNK A   0     -10.617  16.976  67.840  1.00  0.00    -0.365 A  
HETATM   29  C   UNK A   0     -10.984  16.339  66.659  1.00  0.00    -0.016 A  
HETATM   30  N   UNK A   0     -11.185  16.649  64.329  1.00  0.00    -1.380 NA 
HETATM   31  C   UNK A   0     -10.242  18.949  66.776  1.00  0.00    -0.394 A  
HETATM   32  H1  UNK A   0     -10.823  15.275  68.982  1.00  0.00     0.000 HD 
HETATM   33  H1  UNK A   0      -9.702  20.680  67.756  1.00  0.00     0.000 HD 
HETATM   34  N   UNK A   0      -9.913  20.285  66.839  1.00  0.00    -0.452 NA 
HETATM   35  N   UNK A   0     -10.241  18.261  67.916  1.00  0.00    -0.365 NA 
HETATM   36  N   UNK A   0     -11.427  15.042  66.599  1.00  0.00    -0.302 NA 
HETATM   37  H2  UNK A   0     -11.065  16.728  69.771  1.00  0.00     0.000 HD 
HETATM   38  H2  UNK A   0      -9.881  20.861  65.997  1.00  0.00     0.000 HD 
ENDBRANCH  22  23
ENDBRANCH   2  22
TORSDOF 7
ENDMDL
MODEL       22
REMARK 921   NORMALIZED FREE ENERGY PREDICTED BY IDOCK:   -7.13 KCAL/MOL
REMARK 922        TOTAL FREE ENERGY PREDICTED BY IDOCK:  -11.80 KCAL/MOL
REMARK 923 INTER-LIGAND FREE ENERGY PREDICTED BY IDOCK:  -10.56 KCAL/MOL
REMARK 924 INTRA-LIGAND FREE ENERGY PREDICTED BY IDOCK:   -1.24 KCAL/MOL
REMARK 927      BINDING AFFINITY PREDICTED BY RF-SCORE:    0.00 PKD
ROOT
HETATM    1  C   UNK A   0     -11.964  12.375  65.783  1.00  0.00    -0.372 C  
HETATM    2  N   UNK A   0     -10.817  12.540  66.671  1.00  0.00    -0.240 NA 
ENDROOT
BRANCH   2   3
HETATM    3  C   UNK A   0      -9.967  13.626  66.493  1.00  0.00    -0.288 A  
HETATM    4  C   UNK A   0      -8.381  15.973  66.449  1.00  0.00    -0.344 A  
HETATM    5  C   UNK A   0     -10.289  14.717  65.667  1.00  0.00    -0.370 A  
HETATM    6  C   UNK A   0      -8.759  13.706  67.204  1.00  0.00    -0.224 A  
HETATM    7  C   UNK A   0      -7.980  14.867  67.200  1.00  0.00    -0.227 A  
HETATM    8  C   UNK A   0      -9.502  15.875  65.629  1.00  0.00    -0.217 A  
BRANCH   4   9
HETATM    9  C   UNK A   0      -7.639  17.254  66.534  1.00  0.00    -0.288 C  
HETATM   10  O   UNK A   0      -7.192  17.791  65.531  1.00  0.00    -0.475 OA 
ATOM     11  N   GLU A   1      -7.541  17.802  67.807  1.00  0.00    -0.209 N  
ATOM     12  H   GLU A   1      -7.868  17.280  68.619  1.00  0.00     0.000 HD 
BRANCH  11  13
ATOM     13  CA  GLU A   1      -6.958  19.148  67.971  1.00  0.00    -0.233 C  
ATOM     14  OXT GLU A   1      -5.155  20.003  69.389  1.00  0.00    -0.178 OA 
ATOM     15  C   GLU A   1      -5.993  19.139  69.172  1.00  0.00    -0.236 C  
ATOM     16  O   GLU A   1      -6.276  18.163  70.071  1.00  0.00    -0.179 OA 
BRANCH  13  17
ATOM     17  CB  GLU A   1      -8.069  20.184  68.200  1.00  0.00    -0.164 C  
BRANCH  17  18
ATOM     18  CG  GLU A   1      -8.848  20.521  66.926  1.00  0.00    -0.304 C  
ATOM     19  OE2 GLU A   1     -10.539  18.934  67.631  1.00  0.00    -0.420 OA 
ATOM     20  OE1 GLU A   1     -10.837  20.079  65.706  1.00  0.00    -0.375 OA 
ATOM     21  CD  GLU A   1     -10.141  19.753  66.819  1.00  0.00    -0.444 C  
ENDBRANCH  17  18
ENDBRANCH  13  17
ENDBRANCH  11  13
ENDBRANCH   4   9
ENDBRANCH   2   3
BRANCH   2  22
HETATM   22  C   UNK A   0     -10.355  11.359  67.421  1.00  0.00    -0.202 C  
BRANCH  22  23
HETATM   23  C   UNK A   0     -11.145  11.075  68.684  1.00  0.00    -0.240 A  
HETATM   24  N   UNK A   0     -11.622   7.146  70.135  1.00  0.00    -0.505 NA 
HETATM   25  C   UNK A   0     -12.546  10.562  70.995  1.00  0.00    -0.400 A  
HETATM   26  C   UNK A   0     -11.664  12.078  69.484  1.00  0.00    -0.342 A  
HETATM   27  N   UNK A   0     -13.274  10.337  72.085  1.00  0.00    -0.555 NA 
HETATM   28  C   UNK A   0     -12.226   8.268  70.724  1.00  0.00     0.003 A  
HETATM   29  C   UNK A   0     -11.986   9.542  70.220  1.00  0.00     0.014 A  
HETATM   30  N   UNK A   0     -12.358  11.835  70.626  1.00  0.00    -0.356 NA 
HETATM   31  C   UNK A   0     -13.482   9.075  72.438  1.00  0.00    -0.470 A  
HETATM   32  H1  UNK A   0     -11.067   7.336  69.300  1.00  0.00     0.000 HD 
HETATM   33  H1  UNK A   0     -14.441   7.868  73.805  1.00  0.00     0.000 HD 
HETATM   34  N   UNK A   0     -14.282   8.838  73.534  1.00  0.00    -0.927 NA 
HETATM   35  N   UNK A   0     -12.956   8.018  71.821  1.00  0.00    -0.327 NA 
HETATM   36  N   UNK A   0     -11.290   9.784  69.063  1.00  0.00    -0.464 NA 
HETATM   37  H2  UNK A   0     -12.325   6.436  69.932  1.00  0.00     0.000 HD 
HETATM   38  H2  UNK A   0     -14.700   9.608  74.058  1.00  0.00     0.000 HD 
ENDBRANCH  22  23
ENDBRANCH   2  22
TORSDOF 7
ENDMDL
MODEL       23
REMARK 921   NORMALIZED FREE ENERGY PREDICTED BY IDOCK:   -7.09 KCAL/MOL
REMARK 922        TOTAL FREE ENERGY PREDICTED BY IDOCK:  -11.73 KCAL/MOL
REMARK 923 INTER-LIGAND FREE ENERGY PREDICTED BY IDOCK:  -10.23 KCAL/MOL
REMARK 924 INTRA-LIGAND FREE ENERGY PREDICTED BY IDOCK:   -1.50 KCAL/MOL
REMARK 927      BINDING AFFINITY PREDICTED BY RF-SCORE:    0.00 PKD
ROOT
HETATM    1  C   UNK A   0      -6.024   7.805  66.522  1.00  0.00    -0.041 C  
HETATM    2  N   UNK A   0      -7.305   7.646  65.840  1.00  0.00    -0.072 NA 
ENDROOT
BRANCH   2   3
HETATM    3  C   UNK A   0      -7.972   8.770  65.367  1.00  0.00    -0.112 A  
HETATM    4  C   UNK A   0      -9.632  10.925  64.577  1.00  0.00    -0.312 A  
HETATM    5  C   UNK A   0      -8.520   8.841  64.074  1.00  0.00    -0.121 A  
HETATM    6  C   UNK A   0      -8.187   9.874  66.207  1.00  0.00    -0.114 A  
HETATM    7  C   UNK A   0      -9.019  10.932  65.830  1.00  0.00    -0.208 A  
HETATM    8  C   UNK A   0      -9.331   9.911  63.672  1.00  0.00    -0.242 A  
BRANCH   4   9
HETATM    9  C   UNK A   0     -10.617  11.971  64.210  1.00  0.00    -0.334 C  
HETATM   10  O   UNK A   0     -11.476  11.761  63.367  1.00  0.00    -0.402 OA 
ATOM     11  N   GLU A   1     -10.515  13.161  64.922  1.00  0.00    -0.335 N  
ATOM     12  H   GLU A   1      -9.738  13.312  65.565  1.00  0.00     0.000 HD 
BRANCH  11  13
ATOM     13  CA  GLU A   1     -11.544  14.202  64.739  1.00  0.00    -0.396 C  
ATOM     14  OXT GLU A   1     -11.401  16.628  64.446  1.00  0.00    -1.023 OA 
ATOM     15  C   GLU A   1     -10.881  15.590  64.830  1.00  0.00    -0.427 C  
ATOM     16  O   GLU A   1      -9.725  15.579  65.541  1.00  0.00    -0.325 OA 
BRANCH  13  17
ATOM     17  CB  GLU A   1     -12.632  14.071  65.816  1.00  0.00    -0.512 C  
BRANCH  17  18
ATOM     18  CG  GLU A   1     -12.091  14.239  67.239  1.00  0.00    -0.390 C  
ATOM     19  OE2 GLU A   1     -12.036  11.823  67.422  1.00  0.00    -0.617 OA 
ATOM     20  OE1 GLU A   1     -11.324  13.076  69.163  1.00  0.00    -0.261 OA 
ATOM     21  CD  GLU A   1     -11.831  12.918  67.918  1.00  0.00    -0.339 C  
ENDBRANCH  17  18
ENDBRANCH  13  17
ENDBRANCH  11  13
ENDBRANCH   4   9
ENDBRANCH   2   3
BRANCH   2  22
HETATM   22  C   UNK A   0      -8.044   6.388  66.054  1.00  0.00    -0.120 C  
BRANCH  22  23
HETATM   23  C   UNK A   0      -9.107   6.466  67.132  1.00  0.00    -0.120 A  
HETATM   24  N   UNK A   0      -8.104   7.285  71.144  1.00  0.00    -0.102 NA 
HETATM   25  C   UNK A   0     -11.038   6.645  69.084  1.00  0.00    -0.275 A  
HETATM   26  C   UNK A   0     -10.460   6.378  66.858  1.00  0.00    -0.272 A  
HETATM   27  N   UNK A   0     -11.985   6.673  70.016  1.00  0.00    -0.636 NA 
HETATM   28  C   UNK A   0      -9.410   6.997  70.716  1.00  0.00    -0.161 A  
HETATM   29  C   UNK A   0      -9.676   6.784  69.367  1.00  0.00    -0.152 A  
HETATM   30  N   UNK A   0     -11.421   6.464  67.814  1.00  0.00    -0.632 NA 
HETATM   31  C   UNK A   0     -11.605   6.828  71.278  1.00  0.00    -0.320 A  
HETATM   32  H1  UNK A   0      -7.389   7.260  70.416  1.00  0.00     0.000 HD 
HETATM   33  H1  UNK A   0     -12.288   6.920  73.220  1.00  0.00     0.000 HD 
HETATM   34  N   UNK A   0     -12.581   6.801  72.250  1.00  0.00    -0.541 NA 
HETATM   35  N   UNK A   0     -10.349   7.029  71.671  1.00  0.00    -0.199 NA 
HETATM   36  N   UNK A   0      -8.702   6.691  68.404  1.00  0.00    -0.123 NA 
HETATM   37  H2  UNK A   0      -7.843   6.666  71.911  1.00  0.00     0.000 HD 
HETATM   38  H2  UNK A   0     -13.562   6.666  72.008  1.00  0.00     0.000 HD 
ENDBRANCH  22  23
ENDBRANCH   2  22
TORSDOF 7
ENDMDL
MODEL       24
REMARK 921   NORMALIZED FREE ENERGY PREDICTED BY IDOCK:   -7.08 KCAL/MOL
REMARK 922        TOTAL FREE ENERGY PREDICTED BY IDOCK:  -11.72 KCAL/MOL
REMARK 923 INTER-LIGAND FREE ENERGY PREDICTED BY IDOCK:  -10.67 KCAL/MOL
REMARK 924 INTRA-LIGAND FREE ENERGY PREDICTED BY IDOCK:   -1.05 KCAL/MOL
REMARK 927      BINDING AFFINITY PREDICTED BY RF-SCORE:    0.00 PKD
ROOT
HETATM    1  C   UNK A   0     -12.380  13.623  70.888  1.00  0.00    -0.371 C  
HETATM    2  N   UNK A   0     -11.627  13.060  69.771  1.00  0.00    -0.470 NA 
ENDROOT
BRANCH   2   3
HETATM    3  C   UNK A   0     -10.873  13.902  68.962  1.00  0.00    -0.225 A  
HETATM    4  C   UNK A   0      -9.657  15.798  67.244  1.00  0.00    -0.220 A  
HETATM    5  C   UNK A   0     -10.548  13.587  67.630  1.00  0.00    -0.246 A  
HETATM    6  C   UNK A   0     -10.458  15.158  69.434  1.00  0.00    -0.259 A  
HETATM    7  C   UNK A   0      -9.873  16.104  68.588  1.00  0.00    -0.226 A  
HETATM    8  C   UNK A   0      -9.934  14.516  66.779  1.00  0.00    -0.267 A  
BRANCH   4   9
HETATM    9  C   UNK A   0      -9.159  16.831  66.304  1.00  0.00    -0.285 C  
HETATM   10  O   UNK A   0      -9.825  17.182  65.341  1.00  0.00    -0.490 OA 
ATOM     11  N   GLU A   1      -7.927  17.387  66.628  1.00  0.00    -0.236 N  
ATOM     12  H   GLU A   1      -7.379  17.010  67.402  1.00  0.00     0.000 HD 
BRANCH  11  13
ATOM     13  CA  GLU A   1      -7.420  18.528  65.842  1.00  0.00    -0.175 C  
ATOM     14  OXT GLU A   1      -5.425  18.817  64.453  1.00  0.00    -0.230 OA 
ATOM     15  C   GLU A   1      -5.996  18.209  65.347  1.00  0.00    -0.168 C  
ATOM     16  O   GLU A   1      -5.360  17.291  66.118  1.00  0.00    -0.290 OA 
BRANCH  13  17
ATOM     17  CB  GLU A   1      -7.401  19.800  66.704  1.00  0.00    -0.269 C  
BRANCH  17  18
ATOM     18  CG  GLU A   1      -8.190  19.654  68.008  1.00  0.00    -0.347 C  
ATOM     19  OE2 GLU A   1     -10.132  20.516  66.841  1.00  0.00    -0.427 OA 
ATOM     20  OE1 GLU A   1     -10.326  19.919  69.011  1.00  0.00    -0.390 OA 
ATOM     21  CD  GLU A   1      -9.629  20.080  67.864  1.00  0.00    -0.367 C  
ENDBRANCH  17  18
ENDBRANCH  13  17
ENDBRANCH  11  13
ENDBRANCH   4   9
ENDBRANCH   2   3
BRANCH   2  22
HETATM   22  C   UNK A   0     -12.022  11.728  69.280  1.00  0.00    -0.291 C  
BRANCH  22  23
HETATM   23  C   UNK A   0     -11.944  10.631  70.324  1.00  0.00    -0.339 A  
HETATM   24  N   UNK A   0      -8.237   9.131  71.656  1.00  0.00    -0.322 NA 
HETATM   25  C   UNK A   0     -11.801   8.667  72.245  1.00  0.00    -0.366 A  
HETATM   26  C   UNK A   0     -13.061  10.132  70.970  1.00  0.00    -0.375 A  
HETATM   27  N   UNK A   0     -11.761   7.680  73.136  1.00  0.00    -0.636 NA 
HETATM   28  C   UNK A   0      -9.475   8.621  72.078  1.00  0.00    -0.300 A  
HETATM   29  C   UNK A   0     -10.661   9.197  71.633  1.00  0.00    -0.357 A  
HETATM   30  N   UNK A   0     -13.001   9.163  71.920  1.00  0.00    -0.372 NA 
HETATM   31  C   UNK A   0     -10.574   7.172  73.441  1.00  0.00    -0.382 A  
HETATM   32  H1  UNK A   0      -8.285   9.888  70.973  1.00  0.00     0.000 HD 
HETATM   33  H1  UNK A   0      -9.624   5.723  74.555  1.00  0.00     0.000 HD 
HETATM   34  N   UNK A   0     -10.537   6.113  74.321  1.00  0.00    -0.374 NA 
HETATM   35  N   UNK A   0      -9.412   7.626  72.974  1.00  0.00    -0.201 NA 
HETATM   36  N   UNK A   0     -10.719  10.172  70.669  1.00  0.00    -0.399 NA 
HETATM   37  H2  UNK A   0      -7.650   8.376  71.301  1.00  0.00     0.000 HD 
HETATM   38  H2  UNK A   0     -11.393   5.733  74.725  1.00  0.00     0.000 HD 
ENDBRANCH  22  23
ENDBRANCH   2  22
TORSDOF 7
ENDMDL
MODEL       25
REMARK 921   NORMALIZED FREE ENERGY PREDICTED BY IDOCK:   -7.05 KCAL/MOL
REMARK 922        TOTAL FREE ENERGY PREDICTED BY IDOCK:  -11.68 KCAL/MOL
REMARK 923 INTER-LIGAND FREE ENERGY PREDICTED BY IDOCK:  -10.46 KCAL/MOL
REMARK 924 INTRA-LIGAND FREE ENERGY PREDICTED BY IDOCK:   -1.22 KCAL/MOL
REMARK 927      BINDING AFFINITY PREDICTED BY RF-SCORE:    0.00 PKD
ROOT
HETATM    1  C   UNK A   0      -8.378   6.113  66.301  1.00  0.00    -0.124 C  
HETATM    2  N   UNK A   0      -8.780   6.966  67.415  1.00  0.00    -0.120 NA 
ENDROOT
BRANCH   2   3
HETATM    3  C   UNK A   0      -8.881   8.338  67.223  1.00  0.00    -0.130 A  
HETATM    4  C   UNK A   0      -9.185  11.155  67.192  1.00  0.00    -0.165 A  
HETATM    5  C   UNK A   0     -10.031   8.949  66.691  1.00  0.00    -0.346 A  
HETATM    6  C   UNK A   0      -7.842   9.191  67.627  1.00  0.00    -0.096 A  
HETATM    7  C   UNK A   0      -7.992  10.581  67.630  1.00  0.00    -0.106 A  
HETATM    8  C   UNK A   0     -10.182  10.342  66.659  1.00  0.00    -0.294 A  
BRANCH   4   9
HETATM    9  C   UNK A   0      -9.411  12.616  67.309  1.00  0.00    -0.195 C  
HETATM   10  O   UNK A   0      -8.582  13.416  66.901  1.00  0.00    -0.189 OA 
ATOM     11  N   GLU A   1     -10.631  12.988  67.860  1.00  0.00    -0.225 N  
ATOM     12  H   GLU A   1     -11.257  12.283  68.250  1.00  0.00     0.000 HD 
BRANCH  11  13
ATOM     13  CA  GLU A   1     -11.012  14.413  67.876  1.00  0.00    -0.262 C  
ATOM     14  OXT GLU A   1     -12.040  15.827  69.589  1.00  0.00    -0.355 OA 
ATOM     15  C   GLU A   1     -11.826  14.706  69.150  1.00  0.00    -0.312 C  
ATOM     16  O   GLU A   1     -12.437  13.604  69.654  1.00  0.00    -0.251 OA 
BRANCH  13  17
ATOM     17  CB  GLU A   1     -11.848  14.754  66.632  1.00  0.00    -0.255 C  
BRANCH  17  18
ATOM     18  CG  GLU A   1     -12.230  13.520  65.809  1.00  0.00    -0.505 C  
ATOM     19  OE2 GLU A   1     -12.417  14.965  63.872  1.00  0.00    -0.806 OA 
ATOM     20  OE1 GLU A   1     -12.789  12.749  63.634  1.00  0.00    -0.701 OA 
ATOM     21  CD  GLU A   1     -12.483  13.848  64.359  1.00  0.00    -0.279 C  
ENDBRANCH  17  18
ENDBRANCH  13  17
ENDBRANCH  11  13
ENDBRANCH   4   9
ENDBRANCH   2   3
BRANCH   2  22
HETATM   22  C   UNK A   0      -8.645   6.422  68.778  1.00  0.00    -0.123 C  
BRANCH  22  23
HETATM   23  C   UNK A   0      -9.821   6.721  69.688  1.00  0.00    -0.165 A  
HETATM   24  N   UNK A   0     -11.143  10.671  70.334  1.00  0.00    -0.440 NA 
HETATM   25  C   UNK A   0     -11.978   7.263  71.307  1.00  0.00    -0.324 A  
HETATM   26  C   UNK A   0     -10.587   5.728  70.272  1.00  0.00    -0.299 A  
HETATM   27  N   UNK A   0     -12.989   7.501  72.137  1.00  0.00    -0.505 NA 
HETATM   28  C   UNK A   0     -11.694   9.554  70.982  1.00  0.00    -0.343 A  
HETATM   29  C   UNK A   0     -11.240   8.274  70.684  1.00  0.00    -0.256 A  
HETATM   30  N   UNK A   0     -11.654   5.985  71.073  1.00  0.00    -0.184 NA 
HETATM   31  C   UNK A   0     -13.296   8.767  72.389  1.00  0.00    -0.399 A  
HETATM   32  H1  UNK A   0     -10.368  10.471  69.700  1.00  0.00     0.000 HD 
HETATM   33  H1  UNK A   0     -14.542   9.989  73.484  1.00  0.00     0.000 HD 
HETATM   34  N   UNK A   0     -14.307   9.015  73.291  1.00  0.00    -1.108 NA 
HETATM   35  N   UNK A   0     -12.711   9.817  71.815  1.00  0.00    -0.400 NA 
HETATM   36  N   UNK A   0     -10.159   8.018  69.879  1.00  0.00    -0.194 NA 
HETATM   37  H2  UNK A   0     -10.861  11.370  71.021  1.00  0.00     0.000 HD 
HETATM   38  H2  UNK A   0     -14.803   8.251  73.750  1.00  0.00     0.000 HD 
ENDBRANCH  22  23
ENDBRANCH   2  22
TORSDOF 7
ENDMDL
MODEL       26
REMARK 921   NORMALIZED FREE ENERGY PREDICTED BY IDOCK:   -7.03 KCAL/MOL
REMARK 922        TOTAL FREE ENERGY PREDICTED BY IDOCK:  -11.65 KCAL/MOL
REMARK 923 INTER-LIGAND FREE ENERGY PREDICTED BY IDOCK:  -10.45 KCAL/MOL
REMARK 924 INTRA-LIGAND FREE ENERGY PREDICTED BY IDOCK:   -1.20 KCAL/MOL
REMARK 927      BINDING AFFINITY PREDICTED BY RF-SCORE:    0.00 PKD
ROOT
HETATM    1  C   UNK A   0     -12.820  14.049  65.640  1.00  0.00    -0.406 C  
HETATM    2  N   UNK A   0     -11.573  13.396  66.028  1.00  0.00    -0.332 NA 
ENDROOT
BRANCH   2   3
HETATM    3  C   UNK A   0     -11.515  12.691  67.225  1.00  0.00    -0.342 A  
HETATM    4  C   UNK A   0     -11.743  11.139  69.583  1.00  0.00    -0.410 A  
HETATM    5  C   UNK A   0     -11.801  13.280  68.469  1.00  0.00    -0.384 A  
HETATM    6  C   UNK A   0     -11.230  11.316  67.227  1.00  0.00    -0.364 A  
HETATM    7  C   UNK A   0     -11.357  10.542  68.383  1.00  0.00    -0.328 A  
HETATM    8  C   UNK A   0     -11.902  12.521  69.642  1.00  0.00    -0.382 A  
BRANCH   4   9
HETATM    9  C   UNK A   0     -12.009  10.315  70.788  1.00  0.00    -0.360 C  
HETATM   10  O   UNK A   0     -12.802  10.683  71.641  1.00  0.00    -0.414 OA 
ATOM     11  N   GLU A   1     -11.334   9.101  70.839  1.00  0.00    -0.277 N  
ATOM     12  H   GLU A   1     -10.630   8.873  70.138  1.00  0.00     0.000 HD 
BRANCH  11  13
ATOM     13  CA  GLU A   1     -11.649   8.145  71.918  1.00  0.00    -0.306 C  
ATOM     14  OXT GLU A   1     -10.397   7.412  73.889  1.00  0.00    -0.317 OA 
ATOM     15  C   GLU A   1     -10.390   7.917  72.775  1.00  0.00    -0.333 C  
ATOM     16  O   GLU A   1      -9.239   8.172  72.104  1.00  0.00    -0.153 OA 
BRANCH  13  17
ATOM     17  CB  GLU A   1     -12.126   6.811  71.323  1.00  0.00    -0.421 C  
BRANCH  17  18
ATOM     18  CG  GLU A   1     -11.463   6.480  69.983  1.00  0.00    -0.476 C  
ATOM     19  OE2 GLU A   1     -10.143   4.806  71.136  1.00  0.00    -0.197 OA 
ATOM     20  OE1 GLU A   1      -9.885   5.069  68.907  1.00  0.00    -0.155 OA 
ATOM     21  CD  GLU A   1     -10.443   5.376  70.100  1.00  0.00    -0.290 C  
ENDBRANCH  17  18
ENDBRANCH  13  17
ENDBRANCH  11  13
ENDBRANCH   4   9
ENDBRANCH   2   3
BRANCH   2  22
HETATM   22  C   UNK A   0     -10.330  13.853  65.382  1.00  0.00    -0.348 C  
BRANCH  22  23
HETATM   23  C   UNK A   0      -9.580  14.918  66.159  1.00  0.00    -0.310 A  
HETATM   24  N   UNK A   0     -10.523  19.005  65.745  1.00  0.00    -0.569 NA 
HETATM   25  C   UNK A   0      -8.247  16.848  67.596  1.00  0.00    -0.186 A  
HETATM   26  C   UNK A   0      -8.625  14.616  67.113  1.00  0.00    -0.223 A  
HETATM   27  N   UNK A   0      -7.550  17.765  68.261  1.00  0.00    -0.246 NA 
HETATM   28  C   UNK A   0      -9.467  18.531  66.539  1.00  0.00    -0.320 A  
HETATM   29  C   UNK A   0      -9.243  17.164  66.667  1.00  0.00    -0.260 A  
HETATM   30  N   UNK A   0      -7.961  15.561  67.828  1.00  0.00    -0.136 NA 
HETATM   31  C   UNK A   0      -7.815  19.041  68.014  1.00  0.00    -0.287 A  
HETATM   32  H1  UNK A   0     -11.047  18.290  65.241  1.00  0.00     0.000 HD 
HETATM   33  H1  UNK A   0      -7.261  20.972  68.471  1.00  0.00     0.000 HD 
HETATM   34  N   UNK A   0      -7.056  19.991  68.662  1.00  0.00    -0.293 NA 
HETATM   35  N   UNK A   0      -8.777  19.472  67.201  1.00  0.00    -0.291 NA 
HETATM   36  N   UNK A   0      -9.912  16.212  65.940  1.00  0.00    -0.338 NA 
HETATM   37  H2  UNK A   0     -10.181  19.711  65.093  1.00  0.00     0.000 HD 
HETATM   38  H2  UNK A   0      -6.316  19.722  69.310  1.00  0.00     0.000 HD 
ENDBRANCH  22  23
ENDBRANCH   2  22
TORSDOF 7
ENDMDL
MODEL       27
REMARK 921   NORMALIZED FREE ENERGY PREDICTED BY IDOCK:   -7.02 KCAL/MOL
REMARK 922        TOTAL FREE ENERGY PREDICTED BY IDOCK:  -11.64 KCAL/MOL
REMARK 923 INTER-LIGAND FREE ENERGY PREDICTED BY IDOCK:  -10.37 KCAL/MOL
REMARK 924 INTRA-LIGAND FREE ENERGY PREDICTED BY IDOCK:   -1.26 KCAL/MOL
REMARK 927      BINDING AFFINITY PREDICTED BY RF-SCORE:    0.00 PKD
ROOT
HETATM    1  C   UNK A   0     -12.033  13.775  68.887  1.00  0.00    -0.359 C  
HETATM    2  N   UNK A   0     -11.630  14.257  67.569  1.00  0.00    -0.344 NA 
ENDROOT
BRANCH   2   3
HETATM    3  C   UNK A   0     -10.831  15.391  67.472  1.00  0.00    -0.305 A  
HETATM    4  C   UNK A   0      -9.469  17.838  67.047  1.00  0.00    -0.271 A  
HETATM    5  C   UNK A   0      -9.755  15.487  66.572  1.00  0.00    -0.290 A  
HETATM    6  C   UNK A   0     -11.120  16.532  68.237  1.00  0.00    -0.321 A  
HETATM    7  C   UNK A   0     -10.464  17.746  68.021  1.00  0.00    -0.399 A  
HETATM    8  C   UNK A   0      -9.067  16.691  66.367  1.00  0.00    -0.325 A  
BRANCH   4   9
HETATM    9  C   UNK A   0      -8.852  19.145  66.715  1.00  0.00    -0.311 C  
HETATM   10  O   UNK A   0      -9.468  20.190  66.869  1.00  0.00    -0.368 OA 
ATOM     11  N   GLU A   1      -7.536  19.088  66.274  1.00  0.00    -0.258 N  
ATOM     12  H   GLU A   1      -7.091  18.188  66.095  1.00  0.00     0.000 HD 
BRANCH  11  13
ATOM     13  CA  GLU A   1      -6.788  20.343  66.067  1.00  0.00    -0.239 C  
ATOM     14  OXT GLU A   1      -5.807  21.368  64.072  1.00  0.00    -0.222 OA 
ATOM     15  C   GLU A   1      -6.222  20.365  64.634  1.00  0.00    -0.291 C  
ATOM     16  O   GLU A   1      -6.065  19.124  64.108  1.00  0.00    -0.461 OA 
BRANCH  13  17
ATOM     17  CB  GLU A   1      -5.642  20.453  67.084  1.00  0.00    -0.196 C  
BRANCH  17  18
ATOM     18  CG  GLU A   1      -6.101  20.962  68.453  1.00  0.00    -0.362 C  
ATOM     19  OE2 GLU A   1      -6.274  18.652  69.168  1.00  0.00    -0.237 OA 
ATOM     20  OE1 GLU A   1      -6.752  20.300  70.639  1.00  0.00    -0.341 OA 
ATOM     21  CD  GLU A   1      -6.377  19.841  69.423  1.00  0.00    -0.330 C  
ENDBRANCH  17  18
ENDBRANCH  13  17
ENDBRANCH  11  13
ENDBRANCH   4   9
ENDBRANCH   2   3
BRANCH   2  22
HETATM   22  C   UNK A   0     -12.413  13.807  66.405  1.00  0.00    -0.355 C  
BRANCH  22  23
HETATM   23  C   UNK A   0     -11.713  12.774  65.544  1.00  0.00    -0.395 A  
HETATM   24  N   UNK A   0      -8.958  10.046  67.198  1.00  0.00    -0.135 NA 
HETATM   25  C   UNK A   0     -10.470  10.874  63.991  1.00  0.00    -0.309 A  
HETATM   26  C   UNK A   0     -12.004  12.595  64.204  1.00  0.00    -0.426 A  
HETATM   27  N   UNK A   0      -9.842  10.002  63.207  1.00  0.00    -0.508 NA 
HETATM   28  C   UNK A   0      -9.244  10.121  65.826  1.00  0.00    -0.178 A  
HETATM   29  C   UNK A   0     -10.201  11.014  65.356  1.00  0.00    -0.274 A  
HETATM   30  N   UNK A   0     -11.396  11.661  63.427  1.00  0.00    -0.732 NA 
HETATM   31  C   UNK A   0      -8.908   9.239  63.759  1.00  0.00    -0.118 A  
HETATM   32  H1  UNK A   0      -9.448  10.722  67.785  1.00  0.00     0.000 HD 
HETATM   33  H1  UNK A   0      -7.500   7.787  63.362  1.00  0.00     0.000 HD 
HETATM   34  N   UNK A   0      -8.219   8.374  62.938  1.00  0.00    -0.263 NA 
HETATM   35  N   UNK A   0      -8.601   9.233  65.055  1.00  0.00    -0.166 NA 
HETATM   36  N   UNK A   0     -10.810  11.961  66.140  1.00  0.00    -0.281 NA 
HETATM   37  H2  UNK A   0      -7.952  10.115  67.350  1.00  0.00     0.000 HD 
HETATM   38  H2  UNK A   0      -8.421   8.321  61.939  1.00  0.00     0.000 HD 
ENDBRANCH  22  23
ENDBRANCH   2  22
TORSDOF 7
ENDMDL
MODEL       28
REMARK 921   NORMALIZED FREE ENERGY PREDICTED BY IDOCK:   -7.01 KCAL/MOL
REMARK 922        TOTAL FREE ENERGY PREDICTED BY IDOCK:  -11.63 KCAL/MOL
REMARK 923 INTER-LIGAND FREE ENERGY PREDICTED BY IDOCK:  -10.92 KCAL/MOL
REMARK 924 INTRA-LIGAND FREE ENERGY PREDICTED BY IDOCK:   -0.70 KCAL/MOL
REMARK 927      BINDING AFFINITY PREDICTED BY RF-SCORE:    0.00 PKD
ROOT
HETATM    1  C   UNK A   0      -8.471   7.184  66.234  1.00  0.00    -0.138 C  
HETATM    2  N   UNK A   0      -9.832   7.711  66.271  1.00  0.00    -0.450 NA 
ENDROOT
BRANCH   2   3
HETATM    3  C   UNK A   0     -10.030   9.087  66.296  1.00  0.00    -0.281 A  
HETATM    4  C   UNK A   0     -10.778  11.818  66.210  1.00  0.00    -0.312 A  
HETATM    5  C   UNK A   0      -9.599   9.936  65.261  1.00  0.00    -0.361 A  
HETATM    6  C   UNK A   0     -10.748   9.683  67.345  1.00  0.00    -0.308 A  
HETATM    7  C   UNK A   0     -11.134  11.025  67.301  1.00  0.00    -0.359 A  
HETATM    8  C   UNK A   0      -9.953  11.291  65.219  1.00  0.00    -0.301 A  
BRANCH   4   9
HETATM    9  C   UNK A   0     -11.286  13.205  66.084  1.00  0.00    -0.312 C  
HETATM   10  O   UNK A   0     -12.241  13.464  65.366  1.00  0.00    -0.397 OA 
ATOM     11  N   GLU A   1     -10.636  14.151  66.867  1.00  0.00    -0.279 N  
ATOM     12  H   GLU A   1      -9.800  13.898  67.394  1.00  0.00     0.000 HD 
BRANCH  11  13
ATOM     13  CA  GLU A   1     -11.166  15.527  66.928  1.00  0.00    -0.159 C  
ATOM     14  OXT GLU A   1     -10.734  17.523  65.579  1.00  0.00    -0.551 OA 
ATOM     15  C   GLU A   1     -10.366  16.422  65.963  1.00  0.00    -0.352 C  
ATOM     16  O   GLU A   1      -9.121  15.946  65.709  1.00  0.00    -0.305 OA 
BRANCH  13  17
ATOM     17  CB  GLU A   1     -11.060  16.074  68.359  1.00  0.00    -0.351 C  
BRANCH  17  18
ATOM     18  CG  GLU A   1     -11.004  14.972  69.421  1.00  0.00    -0.275 C  
ATOM     19  OE2 GLU A   1     -13.158  15.744  70.224  1.00  0.00    -0.311 OA 
ATOM     20  OE1 GLU A   1     -12.182  13.967  71.222  1.00  0.00    -0.350 OA 
ATOM     21  CD  GLU A   1     -12.224  14.962  70.307  1.00  0.00    -0.335 C  
ENDBRANCH  17  18
ENDBRANCH  13  17
ENDBRANCH  11  13
ENDBRANCH   4   9
ENDBRANCH   2   3
BRANCH   2  22
HETATM   22  C   UNK A   0     -10.907   6.805  66.712  1.00  0.00    -0.226 C  
BRANCH  22  23
HETATM   23  C   UNK A   0     -10.765   6.319  68.142  1.00  0.00    -0.293 A  
HETATM   24  N   UNK A   0     -13.330   7.695  71.190  1.00  0.00    -0.579 NA 
HETATM   25  C   UNK A   0     -10.533   5.410  70.728  1.00  0.00    -0.247 A  
HETATM   26  C   UNK A   0      -9.867   5.333  68.512  1.00  0.00    -0.152 A  
HETATM   27  N   UNK A   0     -10.364   4.995  71.980  1.00  0.00    -0.210 NA 
HETATM   28  C   UNK A   0     -12.253   6.825  71.419  1.00  0.00    -0.363 A  
HETATM   29  C   UNK A   0     -11.476   6.373  70.357  1.00  0.00    -0.393 A  
HETATM   30  N   UNK A   0      -9.745   4.878  69.786  1.00  0.00    -0.173 NA 
HETATM   31  C   UNK A   0     -11.128   5.540  72.918  1.00  0.00    -0.299 A  
HETATM   32  H1  UNK A   0     -13.446   8.003  70.224  1.00  0.00     0.000 HD 
HETATM   33  H1  UNK A   0     -11.504   5.571  74.944  1.00  0.00     0.000 HD 
HETATM   34  N   UNK A   0     -10.916   5.152  74.223  1.00  0.00    -0.398 NA 
HETATM   35  N   UNK A   0     -12.101   6.420  72.688  1.00  0.00    -0.516 NA 
HETATM   36  N   UNK A   0     -11.598   6.839  69.072  1.00  0.00    -0.587 NA 
HETATM   37  H2  UNK A   0     -13.266   8.503  71.809  1.00  0.00     0.000 HD 
HETATM   38  H2  UNK A   0     -10.197   4.468  74.460  1.00  0.00     0.000 HD 
ENDBRANCH  22  23
ENDBRANCH   2  22
TORSDOF 7
ENDMDL
MODEL       29
REMARK 921   NORMALIZED FREE ENERGY PREDICTED BY IDOCK:   -7.00 KCAL/MOL
REMARK 922        TOTAL FREE ENERGY PREDICTED BY IDOCK:  -11.61 KCAL/MOL
REMARK 923 INTER-LIGAND FREE ENERGY PREDICTED BY IDOCK:  -10.93 KCAL/MOL
REMARK 924 INTRA-LIGAND FREE ENERGY PREDICTED BY IDOCK:   -0.68 KCAL/MOL
REMARK 927      BINDING AFFINITY PREDICTED BY RF-SCORE:    0.00 PKD
ROOT
HETATM    1  C   UNK A   0     -10.468  11.224  64.737  1.00  0.00    -0.323 C  
HETATM    2  N   UNK A   0     -11.191  11.952  65.776  1.00  0.00    -0.325 NA 
ENDROOT
BRANCH   2   3
HETATM    3  C   UNK A   0     -11.159  11.485  67.085  1.00  0.00    -0.297 A  
HETATM    4  C   UNK A   0     -11.366  10.296  69.648  1.00  0.00    -0.315 A  
HETATM    5  C   UNK A   0     -11.853  12.113  68.134  1.00  0.00    -0.362 A  
HETATM    6  C   UNK A   0     -10.474  10.301  67.400  1.00  0.00    -0.303 A  
HETATM    7  C   UNK A   0     -10.585   9.701  68.658  1.00  0.00    -0.246 A  
HETATM    8  C   UNK A   0     -11.948  11.538  69.408  1.00  0.00    -0.392 A  
BRANCH   4   9
HETATM    9  C   UNK A   0     -11.601   9.611  70.942  1.00  0.00    -0.344 C  
HETATM   10  O   UNK A   0     -12.281  10.128  71.815  1.00  0.00    -0.374 OA 
ATOM     11  N   GLU A   1     -11.040   8.345  71.056  1.00  0.00    -0.251 N  
ATOM     12  H   GLU A   1     -10.422   7.988  70.327  1.00  0.00     0.000 HD 
BRANCH  11  13
ATOM     13  CA  GLU A   1     -11.346   7.522  72.241  1.00  0.00    -0.292 C  
ATOM     14  OXT GLU A   1     -10.085   7.034  74.281  1.00  0.00    -0.314 OA 
ATOM     15  C   GLU A   1     -10.084   7.403  73.115  1.00  0.00    -0.291 C  
ATOM     16  O   GLU A   1      -8.935   7.582  72.415  1.00  0.00    -0.127 OA 
BRANCH  13  17
ATOM     17  CB  GLU A   1     -11.819   6.125  71.811  1.00  0.00    -0.279 C  
BRANCH  17  18
ATOM     18  CG  GLU A   1     -10.708   5.285  71.173  1.00  0.00    -0.189 C  
ATOM     19  OE2 GLU A   1     -10.685   3.928  73.181  1.00  0.00    -0.173 OA 
ATOM     20  OE1 GLU A   1      -9.292   3.404  71.481  1.00  0.00    -0.117 OA 
ATOM     21  CD  GLU A   1     -10.251   4.158  72.064  1.00  0.00    -0.129 C  
ENDBRANCH  17  18
ENDBRANCH  13  17
ENDBRANCH  11  13
ENDBRANCH   4   9
ENDBRANCH   2   3
BRANCH   2  22
HETATM   22  C   UNK A   0     -12.256  12.877  65.351  1.00  0.00    -0.478 C  
BRANCH  22  23
HETATM   23  C   UNK A   0     -11.832  14.332  65.294  1.00  0.00    -0.374 A  
HETATM   24  N   UNK A   0     -10.290  16.300  68.687  1.00  0.00    -0.249 NA 
HETATM   25  C   UNK A   0     -11.026  16.960  65.183  1.00  0.00    -0.053 A  
HETATM   26  C   UNK A   0     -11.827  15.064  64.121  1.00  0.00    -0.167 A  
HETATM   27  N   UNK A   0     -10.695  18.246  65.115  1.00  0.00    -0.517 NA 
HETATM   28  C   UNK A   0     -10.516  16.939  67.458  1.00  0.00    -0.328 A  
HETATM   29  C   UNK A   0     -10.982  16.215  66.365  1.00  0.00    -0.036 A  
HETATM   30  N   UNK A   0     -11.431  16.363  64.055  1.00  0.00    -1.573 NA 
HETATM   31  C   UNK A   0     -10.317  18.845  66.236  1.00  0.00    -0.453 A  
HETATM   32  H1  UNK A   0     -10.549  15.314  68.722  1.00  0.00     0.000 HD 
HETATM   33  H1  UNK A   0      -9.736  20.651  67.041  1.00  0.00     0.000 HD 
HETATM   34  N   UNK A   0     -10.026  20.190  66.179  1.00  0.00    -0.575 NA 
HETATM   35  N   UNK A   0     -10.176  18.235  67.412  1.00  0.00    -0.353 NA 
HETATM   36  N   UNK A   0     -11.387  14.906  66.436  1.00  0.00    -0.335 NA 
HETATM   37  H2  UNK A   0     -10.755  16.810  69.438  1.00  0.00     0.000 HD 
HETATM   38  H2  UNK A   0     -10.100  20.708  65.303  1.00  0.00     0.000 HD 
ENDBRANCH  22  23
ENDBRANCH   2  22
TORSDOF 7
ENDMDL
MODEL       30
REMARK 921   NORMALIZED FREE ENERGY PREDICTED BY IDOCK:   -6.97 KCAL/MOL
REMARK 922        TOTAL FREE ENERGY PREDICTED BY IDOCK:  -11.57 KCAL/MOL
REMARK 923 INTER-LIGAND FREE ENERGY PREDICTED BY IDOCK:   -9.86 KCAL/MOL
REMARK 924 INTRA-LIGAND FREE ENERGY PREDICTED BY IDOCK:   -1.71 KCAL/MOL
REMARK 927      BINDING AFFINITY PREDICTED BY RF-SCORE:    0.00 PKD
ROOT
HETATM    1  C   UNK A   0      -9.647   9.063  70.380  1.00  0.00    -0.208 C  
HETATM    2  N   UNK A   0     -10.098   9.974  69.332  1.00  0.00    -0.205 NA 
ENDROOT
BRANCH   2   3
HETATM    3  C   UNK A   0      -9.200  10.882  68.782  1.00  0.00    -0.183 A  
HETATM    4  C   UNK A   0      -7.468  12.961  67.944  1.00  0.00    -0.131 A  
HETATM    5  C   UNK A   0      -9.540  11.740  67.721  1.00  0.00    -0.184 A  
HETATM    6  C   UNK A   0      -7.914  11.027  69.326  1.00  0.00    -0.034 A  
HETATM    7  C   UNK A   0      -7.061  12.061  68.928  1.00  0.00    -0.104 A  
HETATM    8  C   UNK A   0      -8.682  12.761  67.292  1.00  0.00    -0.200 A  
BRANCH   4   9
HETATM    9  C   UNK A   0      -6.633  14.137  67.601  1.00  0.00    -0.155 C  
HETATM   10  O   UNK A   0      -5.456  14.008  67.300  1.00  0.00    -0.300 OA 
ATOM     11  N   GLU A   1      -7.296  15.359  67.602  1.00  0.00    -0.161 N  
ATOM     12  H   GLU A   1      -8.260  15.422  67.929  1.00  0.00     0.000 HD 
BRANCH  11  13
ATOM     13  CA  GLU A   1      -6.590  16.564  67.126  1.00  0.00    -0.194 C  
ATOM     14  OXT GLU A   1      -5.228  18.241  68.276  1.00  0.00    -0.163 OA 
ATOM     15  C   GLU A   1      -6.077  17.363  68.338  1.00  0.00    -0.160 C  
ATOM     16  O   GLU A   1      -6.786  17.122  69.470  1.00  0.00    -0.215 OA 
BRANCH  13  17
ATOM     17  CB  GLU A   1      -7.536  17.436  66.286  1.00  0.00    -0.348 C  
BRANCH  17  18
ATOM     18  CG  GLU A   1      -9.015  17.100  66.504  1.00  0.00    -0.300 C  
ATOM     19  OE2 GLU A   1      -9.161  19.037  67.955  1.00  0.00    -0.287 OA 
ATOM     20  OE1 GLU A   1     -11.013  17.798  67.581  1.00  0.00    -0.301 OA 
ATOM     21  CD  GLU A   1      -9.701  18.083  67.418  1.00  0.00    -0.296 C  
ENDBRANCH  17  18
ENDBRANCH  13  17
ENDBRANCH  11  13
ENDBRANCH   4   9
ENDBRANCH   2   3
BRANCH   2  22
HETATM   22  C   UNK A   0     -11.548  10.201  69.199  1.00  0.00    -0.030 C  
BRANCH  22  23
HETATM   23  C   UNK A   0     -12.109  11.225  70.166  1.00  0.00    -0.366 A  
HETATM   24  N   UNK A   0     -12.015  15.348  69.293  1.00  0.00    -0.470 NA 
HETATM   25  C   UNK A   0     -13.162  13.081  71.902  1.00  0.00    -0.430 A  
HETATM   26  C   UNK A   0     -12.770  10.873  71.329  1.00  0.00    -0.437 A  
HETATM   27  N   UNK A   0     -13.628  13.961  72.784  1.00  0.00    -0.699 NA 
HETATM   28  C   UNK A   0     -12.492  14.824  70.505  1.00  0.00    -0.352 A  
HETATM   29  C   UNK A   0     -12.538  13.448  70.706  1.00  0.00    -0.294 A  
HETATM   30  N   UNK A   0     -13.293  11.781  72.194  1.00  0.00    -0.551 NA 
HETATM   31  C   UNK A   0     -13.478  15.250  72.508  1.00  0.00    -0.485 A  
HETATM   32  H1  UNK A   0     -11.661  14.660  68.628  1.00  0.00     0.000 HD 
HETATM   33  H1  UNK A   0     -13.794  17.153  73.233  1.00  0.00     0.000 HD 
HETATM   34  N   UNK A   0     -13.911  16.162  73.445  1.00  0.00    -0.788 NA 
HETATM   35  N   UNK A   0     -12.957  15.728  71.380  1.00  0.00    -0.488 NA 
HETATM   36  N   UNK A   0     -12.004  12.533  69.834  1.00  0.00    -0.340 NA 
HETATM   37  H2  UNK A   0     -11.305  16.057  69.474  1.00  0.00     0.000 HD 
HETATM   38  H2  UNK A   0     -14.333  15.856  74.322  1.00  0.00     0.000 HD 
ENDBRANCH  22  23
ENDBRANCH   2  22
TORSDOF 7
ENDMDL
MODEL       31
REMARK 921   NORMALIZED FREE ENERGY PREDICTED BY IDOCK:   -6.97 KCAL/MOL
REMARK 922        TOTAL FREE ENERGY PREDICTED BY IDOCK:  -11.57 KCAL/MOL
REMARK 923 INTER-LIGAND FREE ENERGY PREDICTED BY IDOCK:  -10.36 KCAL/MOL
REMARK 924 INTRA-LIGAND FREE ENERGY PREDICTED BY IDOCK:   -1.21 KCAL/MOL
REMARK 927      BINDING AFFINITY PREDICTED BY RF-SCORE:    0.00 PKD
ROOT
HETATM    1  C   UNK A   0      -8.631   6.609  65.598  1.00  0.00    -0.123 C  
HETATM    2  N   UNK A   0      -9.770   7.265  66.234  1.00  0.00    -0.413 NA 
ENDROOT
BRANCH   2   3
HETATM    3  C   UNK A   0      -9.639   8.571  66.689  1.00  0.00    -0.227 A  
HETATM    4  C   UNK A   0      -9.322  11.328  67.259  1.00  0.00    -0.173 A  
HETATM    5  C   UNK A   0      -8.427   9.086  67.184  1.00  0.00    -0.113 A  
HETATM    6  C   UNK A   0     -10.718   9.465  66.605  1.00  0.00    -0.076 A  
HETATM    7  C   UNK A   0     -10.565  10.829  66.869  1.00  0.00    -0.312 A  
HETATM    8  C   UNK A   0      -8.267  10.447  67.481  1.00  0.00    -0.114 A  
BRANCH   4   9
HETATM    9  C   UNK A   0      -9.108  12.787  67.417  1.00  0.00    -0.192 C  
HETATM   10  O   UNK A   0      -8.005  13.285  67.243  1.00  0.00    -0.171 OA 
ATOM     11  N   GLU A   1     -10.245  13.526  67.722  1.00  0.00    -0.238 N  
ATOM     12  H   GLU A   1     -11.126  13.056  67.926  1.00  0.00     0.000 HD 
BRANCH  11  13
ATOM     13  CA  GLU A   1     -10.164  14.999  67.746  1.00  0.00    -0.236 C  
ATOM     14  OXT GLU A   1     -10.668  16.650  69.482  1.00  0.00    -0.316 OA 
ATOM     15  C   GLU A   1     -10.822  15.521  69.038  1.00  0.00    -0.249 C  
ATOM     16  O   GLU A   1     -11.735  14.660  69.552  1.00  0.00    -0.287 OA 
BRANCH  13  17
ATOM     17  CB  GLU A   1     -10.875  15.591  66.520  1.00  0.00    -0.284 C  
BRANCH  17  18
ATOM     18  CG  GLU A   1     -11.645  14.545  65.709  1.00  0.00    -0.347 C  
ATOM     19  OE2 GLU A   1     -11.880  16.194  63.948  1.00  0.00    -0.921 OA 
ATOM     20  OE1 GLU A   1     -12.736  14.125  63.642  1.00  0.00    -0.790 OA 
ATOM     21  CD  GLU A   1     -12.084  15.065  64.364  1.00  0.00    -0.359 C  
ENDBRANCH  17  18
ENDBRANCH  13  17
ENDBRANCH  11  13
ENDBRANCH   4   9
ENDBRANCH   2   3
BRANCH   2  22
HETATM   22  C   UNK A   0     -10.850   6.409  66.755  1.00  0.00    -0.291 C  
BRANCH  22  23
HETATM   23  C   UNK A   0     -10.706   6.047  68.221  1.00  0.00    -0.279 A  
HETATM   24  N   UNK A   0     -13.368   7.552  71.122  1.00  0.00    -0.591 NA 
HETATM   25  C   UNK A   0     -10.469   5.362  70.875  1.00  0.00    -0.237 A  
HETATM   26  C   UNK A   0      -9.772   5.135  68.678  1.00  0.00    -0.151 A  
HETATM   27  N   UNK A   0     -10.298   5.058  72.158  1.00  0.00    -0.210 NA 
HETATM   28  C   UNK A   0     -12.257   6.751  71.432  1.00  0.00    -0.363 A  
HETATM   29  C   UNK A   0     -11.448   6.250  70.417  1.00  0.00    -0.344 A  
HETATM   30  N   UNK A   0      -9.646   4.790  69.987  1.00  0.00    -0.170 NA 
HETATM   31  C   UNK A   0     -11.097   5.643  73.041  1.00  0.00    -0.282 A  
HETATM   32  H1  UNK A   0     -13.484   7.775  70.133  1.00  0.00     0.000 HD 
HETATM   33  H1  UNK A   0     -11.500   5.821  75.054  1.00  0.00     0.000 HD 
HETATM   34  N   UNK A   0     -10.886   5.372  74.375  1.00  0.00    -0.404 NA 
HETATM   35  N   UNK A   0     -12.104   6.458  72.731  1.00  0.00    -0.467 NA 
HETATM   36  N   UNK A   0     -11.573   6.604  69.098  1.00  0.00    -0.628 NA 
HETATM   37  H2  UNK A   0     -13.346   8.409  71.674  1.00  0.00     0.000 HD 
HETATM   38  H2  UNK A   0     -10.141   4.742  74.674  1.00  0.00     0.000 HD 
ENDBRANCH  22  23
ENDBRANCH   2  22
TORSDOF 7
ENDMDL
MODEL       32
REMARK 921   NORMALIZED FREE ENERGY PREDICTED BY IDOCK:   -6.96 KCAL/MOL
REMARK 922        TOTAL FREE ENERGY PREDICTED BY IDOCK:  -11.56 KCAL/MOL
REMARK 923 INTER-LIGAND FREE ENERGY PREDICTED BY IDOCK:   -9.65 KCAL/MOL
REMARK 924 INTRA-LIGAND FREE ENERGY PREDICTED BY IDOCK:   -1.91 KCAL/MOL
REMARK 927      BINDING AFFINITY PREDICTED BY RF-SCORE:    0.00 PKD
ROOT
HETATM    1  C   UNK A   0      -8.367   7.947  65.502  1.00  0.00    -0.147 C  
HETATM    2  N   UNK A   0      -8.827   8.814  66.583  1.00  0.00    -0.127 NA 
ENDROOT
BRANCH   2   3
HETATM    3  C   UNK A   0      -9.212  10.118  66.295  1.00  0.00    -0.157 A  
HETATM    4  C   UNK A   0     -10.202  12.758  66.021  1.00  0.00    -0.290 A  
HETATM    5  C   UNK A   0     -10.259  10.423  65.407  1.00  0.00    -0.329 A  
HETATM    6  C   UNK A   0      -8.602  11.200  66.950  1.00  0.00    -0.148 A  
HETATM    7  C   UNK A   0      -9.096  12.502  66.832  1.00  0.00    -0.213 A  
HETATM    8  C   UNK A   0     -10.744  11.730  65.255  1.00  0.00    -0.338 A  
BRANCH   4   9
HETATM    9  C   UNK A   0     -10.819  14.107  65.985  1.00  0.00    -0.297 C  
HETATM   10  O   UNK A   0     -11.883  14.298  65.416  1.00  0.00    -0.343 OA 
ATOM     11  N   GLU A   1     -10.128  15.096  66.675  1.00  0.00    -0.257 N  
ATOM     12  H   GLU A   1      -9.209  14.901  67.073  1.00  0.00     0.000 HD 
BRANCH  11  13
ATOM     13  CA  GLU A   1     -10.738  16.431  66.827  1.00  0.00    -0.180 C  
ATOM     14  OXT GLU A   1     -10.373  18.553  65.664  1.00  0.00    -0.594 OA 
ATOM     15  C   GLU A   1      -9.957  17.445  65.971  1.00  0.00    -0.215 C  
ATOM     16  O   GLU A   1      -8.678  17.060  65.730  1.00  0.00    -0.522 OA 
BRANCH  13  17
ATOM     17  CB  GLU A   1     -10.714  16.861  68.302  1.00  0.00    -0.377 C  
BRANCH  17  18
ATOM     18  CG  GLU A   1     -11.936  16.379  69.089  1.00  0.00     0.219 C  
ATOM     19  OE2 GLU A   1     -10.758  14.300  69.495  1.00  0.00    -0.183 OA 
ATOM     20  OE1 GLU A   1     -12.822  14.586  70.369  1.00  0.00    -0.349 OA 
ATOM     21  CD  GLU A   1     -11.751  14.992  69.650  1.00  0.00    -0.321 C  
ENDBRANCH  17  18
ENDBRANCH  13  17
ENDBRANCH  11  13
ENDBRANCH   4   9
ENDBRANCH   2   3
BRANCH   2  22
HETATM   22  C   UNK A   0      -8.466   8.441  67.962  1.00  0.00    -0.132 C  
BRANCH  22  23
HETATM   23  C   UNK A   0      -9.653   8.268  68.891  1.00  0.00    -0.153 A  
HETATM   24  N   UNK A   0     -11.633  11.593  70.561  1.00  0.00    -0.454 NA 
HETATM   25  C   UNK A   0     -11.828   7.957  70.546  1.00  0.00    -0.023 A  
HETATM   26  C   UNK A   0     -10.216   7.034  69.164  1.00  0.00    -0.187 A  
HETATM   27  N   UNK A   0     -12.843   7.777  71.386  1.00  0.00    -0.434 NA 
HETATM   28  C   UNK A   0     -11.961  10.263  70.867  1.00  0.00    -0.375 A  
HETATM   29  C   UNK A   0     -11.297   9.214  70.240  1.00  0.00    -0.188 A  
HETATM   30  N   UNK A   0     -11.290   6.870  69.980  1.00  0.00    -0.422 NA 
HETATM   31  C   UNK A   0     -13.362   8.851  71.966  1.00  0.00    -0.421 A  
HETATM   32  H1  UNK A   0     -10.852  11.714  69.916  1.00  0.00     0.000 HD 
HETATM   33  H1  UNK A   0     -14.775   9.487  73.324  1.00  0.00     0.000 HD 
HETATM   34  N   UNK A   0     -14.377   8.661  72.878  1.00  0.00    -1.063 NA 
HETATM   35  N   UNK A   0     -12.987  10.104  71.715  1.00  0.00    -0.434 NA 
HETATM   36  N   UNK A   0     -10.209   9.382  69.421  1.00  0.00    -0.198 NA 
HETATM   37  H2  UNK A   0     -11.461  12.117  71.420  1.00  0.00     0.000 HD 
HETATM   38  H2  UNK A   0     -14.718   7.725  73.099  1.00  0.00     0.000 HD 
ENDBRANCH  22  23
ENDBRANCH   2  22
TORSDOF 7
ENDMDL
MODEL       33
REMARK 921   NORMALIZED FREE ENERGY PREDICTED BY IDOCK:   -6.93 KCAL/MOL
REMARK 922        TOTAL FREE ENERGY PREDICTED BY IDOCK:  -11.52 KCAL/MOL
REMARK 923 INTER-LIGAND FREE ENERGY PREDICTED BY IDOCK:  -10.60 KCAL/MOL
REMARK 924 INTRA-LIGAND FREE ENERGY PREDICTED BY IDOCK:   -0.92 KCAL/MOL
REMARK 927      BINDING AFFINITY PREDICTED BY RF-SCORE:    0.00 PKD
ROOT
HETATM    1  C   UNK A   0     -13.059  14.059  70.945  1.00  0.00    -0.228 C  
HETATM    2  N   UNK A   0     -12.107  13.773  69.875  1.00  0.00    -0.337 NA 
ENDROOT
BRANCH   2   3
HETATM    3  C   UNK A   0     -11.408  14.820  69.285  1.00  0.00    -0.294 A  
HETATM    4  C   UNK A   0     -10.314  17.131  68.067  1.00  0.00    -0.353 A  
HETATM    5  C   UNK A   0     -11.117  14.859  67.910  1.00  0.00    -0.304 A  
HETATM    6  C   UNK A   0     -11.021  15.934  70.046  1.00  0.00    -0.361 A  
HETATM    7  C   UNK A   0     -10.496  17.084  69.449  1.00  0.00    -0.250 A  
HETATM    8  C   UNK A   0     -10.563  15.994  67.303  1.00  0.00    -0.313 A  
BRANCH   4   9
HETATM    9  C   UNK A   0      -9.881  18.385  67.403  1.00  0.00    -0.313 C  
HETATM   10  O   UNK A   0     -10.692  19.127  66.869  1.00  0.00    -0.436 OA 
ATOM     11  N   GLU A   1      -8.522  18.661  67.480  1.00  0.00    -0.264 N  
ATOM     12  H   GLU A   1      -7.878  17.975  67.875  1.00  0.00     0.000 HD 
BRANCH  11  13
ATOM     13  CA  GLU A   1      -8.018  19.957  66.986  1.00  0.00    -0.301 C  
ATOM     14  OXT GLU A   1      -7.117  20.659  64.822  1.00  0.00    -0.135 OA 
ATOM     15  C   GLU A   1      -7.368  19.754  65.604  1.00  0.00    -0.275 C  
ATOM     16  O   GLU A   1      -6.937  18.484  65.403  1.00  0.00    -0.514 OA 
BRANCH  13  17
ATOM     17  CB  GLU A   1      -6.989  20.537  67.969  1.00  0.00    -0.303 C  
BRANCH  17  18
ATOM     18  CG  GLU A   1      -6.109  19.465  68.619  1.00  0.00    -0.261 C  
ATOM     19  OE2 GLU A   1      -6.627  20.455  70.770  1.00  0.00    -0.451 OA 
ATOM     20  OE1 GLU A   1      -5.304  18.624  70.689  1.00  0.00    -0.230 OA 
ATOM     21  CD  GLU A   1      -6.058  19.593  70.120  1.00  0.00    -0.281 C  
ENDBRANCH  17  18
ENDBRANCH  13  17
ENDBRANCH  11  13
ENDBRANCH   4   9
ENDBRANCH   2   3
BRANCH   2  22
HETATM   22  C   UNK A   0     -12.231  12.483  69.173  1.00  0.00    -0.004 C  
BRANCH  22  23
HETATM   23  C   UNK A   0     -11.622  11.309  69.915  1.00  0.00    -0.334 A  
HETATM   24  N   UNK A   0     -13.846   9.107  72.739  1.00  0.00    -0.905 NA 
HETATM   25  C   UNK A   0     -10.530   9.156  71.234  1.00  0.00    -0.328 A  
HETATM   26  C   UNK A   0     -10.353  10.829  69.643  1.00  0.00    -0.101 A  
HETATM   27  N   UNK A   0      -9.961   8.153  71.896  1.00  0.00    -0.194 NA 
HETATM   28  C   UNK A   0     -12.490   8.867  72.464  1.00  0.00    -0.274 A  
HETATM   29  C   UNK A   0     -11.831   9.602  71.484  1.00  0.00    -0.407 A  
HETATM   30  N   UNK A   0      -9.805   9.767  70.289  1.00  0.00    -0.299 NA 
HETATM   31  C   UNK A   0     -10.670   7.562  72.849  1.00  0.00    -0.358 A  
HETATM   32  H1  UNK A   0     -14.267   9.879  72.222  1.00  0.00     0.000 HD 
HETATM   33  H1  UNK A   0     -10.608   6.107  74.307  1.00  0.00     0.000 HD 
HETATM   34  N   UNK A   0     -10.062   6.560  73.574  1.00  0.00    -0.214 NA 
HETATM   35  N   UNK A   0     -11.936   7.853  73.143  1.00  0.00    -0.609 NA 
HETATM   36  N   UNK A   0     -12.385  10.679  70.837  1.00  0.00    -0.364 NA 
HETATM   37  H2  UNK A   0     -13.981   9.242  73.740  1.00  0.00     0.000 HD 
HETATM   38  H2  UNK A   0      -9.099   6.282  73.383  1.00  0.00     0.000 HD 
ENDBRANCH  22  23
ENDBRANCH   2  22
TORSDOF 7
ENDMDL
MODEL       34
REMARK 921   NORMALIZED FREE ENERGY PREDICTED BY IDOCK:   -6.93 KCAL/MOL
REMARK 922        TOTAL FREE ENERGY PREDICTED BY IDOCK:  -11.51 KCAL/MOL
REMARK 923 INTER-LIGAND FREE ENERGY PREDICTED BY IDOCK:   -9.81 KCAL/MOL
REMARK 924 INTRA-LIGAND FREE ENERGY PREDICTED BY IDOCK:   -1.70 KCAL/MOL
REMARK 927      BINDING AFFINITY PREDICTED BY RF-SCORE:    0.00 PKD
ROOT
HETATM    1  C   UNK A   0      -7.425  10.541  62.464  1.00  0.00    -0.128 C  
HETATM    2  N   UNK A   0      -8.389  10.819  63.525  1.00  0.00    -0.358 NA 
ENDROOT
BRANCH   2   3
HETATM    3  C   UNK A   0      -8.291  10.138  64.733  1.00  0.00    -0.165 A  
HETATM    4  C   UNK A   0      -8.382   8.957  67.306  1.00  0.00    -0.104 A  
HETATM    5  C   UNK A   0      -7.396  10.517  65.749  1.00  0.00    -0.137 A  
HETATM    6  C   UNK A   0      -9.151   9.066  65.016  1.00  0.00    -0.171 A  
HETATM    7  C   UNK A   0      -9.213   8.490  66.288  1.00  0.00    -0.262 A  
HETATM    8  C   UNK A   0      -7.426   9.927  67.020  1.00  0.00    -0.091 A  
BRANCH   4   9
HETATM    9  C   UNK A   0      -8.524   8.449  68.692  1.00  0.00    -0.128 C  
HETATM   10  O   UNK A   0      -7.545   8.282  69.405  1.00  0.00    -0.091 OA 
ATOM     11  N   GLU A   1      -9.829   8.232  69.117  1.00  0.00    -0.175 N  
ATOM     12  H   GLU A   1     -10.605   8.318  68.461  1.00  0.00     0.000 HD 
BRANCH  11  13
ATOM     13  CA  GLU A   1     -10.080   7.875  70.526  1.00  0.00    -0.192 C  
ATOM     14  OXT GLU A   1     -11.054   5.890  71.577  1.00  0.00    -0.270 OA 
ATOM     15  C   GLU A   1     -10.922   6.586  70.580  1.00  0.00    -0.294 C  
ATOM     16  O   GLU A   1     -11.652   6.383  69.454  1.00  0.00    -0.382 OA 
BRANCH  13  17
ATOM     17  CB  GLU A   1     -10.824   9.015  71.239  1.00  0.00    -0.385 C  
BRANCH  17  18
ATOM     18  CG  GLU A   1     -10.918  10.290  70.395  1.00  0.00    -0.365 C  
ATOM     19  OE2 GLU A   1     -13.256  10.437  71.018  1.00  0.00    -0.373 OA 
ATOM     20  OE1 GLU A   1     -12.365  12.039  69.697  1.00  0.00    -0.159 OA 
ATOM     21  CD  GLU A   1     -12.298  10.897  70.419  1.00  0.00    -0.351 C  
ENDBRANCH  17  18
ENDBRANCH  13  17
ENDBRANCH  11  13
ENDBRANCH   4   9
ENDBRANCH   2   3
BRANCH   2  22
HETATM   22  C   UNK A   0      -9.658  11.466  63.146  1.00  0.00    -0.380 C  
BRANCH  22  23
HETATM   23  C   UNK A   0     -10.362  12.173  64.289  1.00  0.00    -0.334 A  
HETATM   24  N   UNK A   0      -8.600  15.461  66.251  1.00  0.00    -0.426 NA 
HETATM   25  C   UNK A   0     -11.655  13.480  66.335  1.00  0.00    -0.350 A  
HETATM   26  C   UNK A   0     -11.649  11.856  64.685  1.00  0.00    -0.250 A  
HETATM   27  N   UNK A   0     -12.278  14.059  67.358  1.00  0.00    -0.537 NA 
HETATM   28  C   UNK A   0      -9.826  14.895  66.637  1.00  0.00    -0.260 A  
HETATM   29  C   UNK A   0     -10.372  13.840  65.912  1.00  0.00    -0.309 A  
HETATM   30  N   UNK A   0     -12.296  12.494  65.695  1.00  0.00    -0.638 NA 
HETATM   31  C   UNK A   0     -11.634  15.019  68.008  1.00  0.00    -0.338 A  
HETATM   32  H1  UNK A   0      -8.136  15.005  65.466  1.00  0.00     0.000 HD 
HETATM   33  H1  UNK A   0     -11.760  16.319  69.602  1.00  0.00     0.000 HD 
HETATM   34  N   UNK A   0     -12.255  15.582  69.101  1.00  0.00    -0.598 NA 
HETATM   35  N   UNK A   0     -10.437  15.494  67.669  1.00  0.00    -0.273 NA 
HETATM   36  N   UNK A   0      -9.714  13.193  64.897  1.00  0.00    -0.541 NA 
HETATM   37  H2  UNK A   0      -7.970  15.507  67.051  1.00  0.00     0.000 HD 
HETATM   38  H2  UNK A   0     -13.180  15.270  69.400  1.00  0.00     0.000 HD 
ENDBRANCH  22  23
ENDBRANCH   2  22
TORSDOF 7
ENDMDL
MODEL       35
REMARK 921   NORMALIZED FREE ENERGY PREDICTED BY IDOCK:   -6.92 KCAL/MOL
REMARK 922        TOTAL FREE ENERGY PREDICTED BY IDOCK:  -11.51 KCAL/MOL
REMARK 923 INTER-LIGAND FREE ENERGY PREDICTED BY IDOCK:  -10.80 KCAL/MOL
REMARK 924 INTRA-LIGAND FREE ENERGY PREDICTED BY IDOCK:   -0.71 KCAL/MOL
REMARK 927      BINDING AFFINITY PREDICTED BY RF-SCORE:    0.00 PKD
ROOT
HETATM    1  C   UNK A   0     -13.019  15.387  70.521  1.00  0.00    -0.332 C  
HETATM    2  N   UNK A   0     -12.275  14.337  69.832  1.00  0.00    -0.341 NA 
ENDROOT
BRANCH   2   3
HETATM    3  C   UNK A   0     -12.246  13.055  70.370  1.00  0.00    -0.310 A  
HETATM    4  C   UNK A   0     -12.427  10.351  71.193  1.00  0.00    -0.509 A  
HETATM    5  C   UNK A   0     -13.050  12.669  71.457  1.00  0.00    -0.373 A  
HETATM    6  C   UNK A   0     -11.447  12.058  69.789  1.00  0.00    -0.284 A  
HETATM    7  C   UNK A   0     -11.543  10.720  70.179  1.00  0.00    -0.424 A  
HETATM    8  C   UNK A   0     -13.133  11.335  71.879  1.00  0.00    -0.510 A  
BRANCH   4   9
HETATM    9  C   UNK A   0     -12.637   8.922  71.531  1.00  0.00    -0.331 C  
HETATM   10  O   UNK A   0     -13.732   8.514  71.889  1.00  0.00    -0.375 OA 
ATOM     11  N   GLU A   1     -11.529   8.101  71.364  1.00  0.00    -0.256 N  
ATOM     12  H   GLU A   1     -10.621   8.502  71.131  1.00  0.00     0.000 HD 
BRANCH  11  13
ATOM     13  CA  GLU A   1     -11.679   6.642  71.525  1.00  0.00    -0.321 C  
ATOM     14  OXT GLU A   1     -11.380   5.156  73.447  1.00  0.00    -0.313 OA 
ATOM     15  C   GLU A   1     -11.143   6.228  72.908  1.00  0.00    -0.236 C  
ATOM     16  O   GLU A   1     -10.230   7.100  73.406  1.00  0.00    -0.252 OA 
BRANCH  13  17
ATOM     17  CB  GLU A   1     -10.908   5.903  70.421  1.00  0.00    -0.378 C  
BRANCH  17  18
ATOM     18  CG  GLU A   1     -11.358   6.292  69.010  1.00  0.00    -0.319 C  
ATOM     19  OE2 GLU A   1      -9.532   7.885  68.950  1.00  0.00    -0.150 OA 
ATOM     20  OE1 GLU A   1     -10.870   7.674  67.142  1.00  0.00    -0.317 OA 
ATOM     21  CD  GLU A   1     -10.485   7.359  68.399  1.00  0.00    -0.185 C  
ENDBRANCH  17  18
ENDBRANCH  13  17
ENDBRANCH  11  13
ENDBRANCH   4   9
ENDBRANCH   2   3
BRANCH   2  22
HETATM   22  C   UNK A   0     -11.248  14.749  68.859  1.00  0.00    -0.266 C  
BRANCH  22  23
HETATM   23  C   UNK A   0     -11.265  13.962  67.563  1.00  0.00    -0.303 A  
HETATM   24  N   UNK A   0      -7.919  11.727  66.310  1.00  0.00    -0.383 NA 
HETATM   25  C   UNK A   0     -11.309  12.504  65.231  1.00  0.00    -0.324 A  
HETATM   26  C   UNK A   0     -12.395  13.846  66.774  1.00  0.00    -0.330 A  
HETATM   27  N   UNK A   0     -11.338  11.851  64.073  1.00  0.00    -0.376 NA 
HETATM   28  C   UNK A   0      -9.090  11.861  65.547  1.00  0.00     0.080 A  
HETATM   29  C   UNK A   0     -10.175  12.576  66.045  1.00  0.00    -0.251 A  
HETATM   30  N   UNK A   0     -12.428  13.128  65.621  1.00  0.00    -0.456 NA 
HETATM   31  C   UNK A   0     -10.224  11.252  63.674  1.00  0.00    -0.392 A  
HETATM   32  H1  UNK A   0      -7.913  12.233  67.196  1.00  0.00     0.000 HD 
HETATM   33  H1  UNK A   0      -9.379  10.163  62.142  1.00  0.00     0.000 HD 
HETATM   34  N   UNK A   0     -10.237  10.623  62.449  1.00  0.00    -0.678 NA 
HETATM   35  N   UNK A   0      -9.098  11.196  64.383  1.00  0.00    -0.371 NA 
HETATM   36  N   UNK A   0     -10.138  13.304  67.208  1.00  0.00    -0.232 NA 
HETATM   37  H2  UNK A   0      -7.106  11.988  65.752  1.00  0.00     0.000 HD 
HETATM   38  H2  UNK A   0     -11.075  10.618  61.868  1.00  0.00     0.000 HD 
ENDBRANCH  22  23
ENDBRANCH   2  22
TORSDOF 7
ENDMDL
MODEL       36
REMARK 921   NORMALIZED FREE ENERGY PREDICTED BY IDOCK:   -6.84 KCAL/MOL
REMARK 922        TOTAL FREE ENERGY PREDICTED BY IDOCK:  -11.39 KCAL/MOL
REMARK 923 INTER-LIGAND FREE ENERGY PREDICTED BY IDOCK:  -10.05 KCAL/MOL
REMARK 924 INTRA-LIGAND FREE ENERGY PREDICTED BY IDOCK:   -1.34 KCAL/MOL
REMARK 927      BINDING AFFINITY PREDICTED BY RF-SCORE:    0.00 PKD
ROOT
HETATM    1  C   UNK A   0      -9.997   6.564  71.883  1.00  0.00    -0.177 C  
HETATM    2  N   UNK A   0     -10.873   6.598  70.715  1.00  0.00    -0.240 NA 
ENDROOT
BRANCH   2   3
HETATM    3  C   UNK A   0     -10.318   6.741  69.449  1.00  0.00    -0.199 A  
HETATM    4  C   UNK A   0      -9.329   7.377  66.872  1.00  0.00    -0.195 A  
HETATM    5  C   UNK A   0     -10.963   6.294  68.282  1.00  0.00    -0.408 A  
HETATM    6  C   UNK A   0      -9.098   7.413  69.279  1.00  0.00    -0.135 A  
HETATM    7  C   UNK A   0      -8.612   7.745  68.011  1.00  0.00    -0.123 A  
HETATM    8  C   UNK A   0     -10.471   6.593  67.004  1.00  0.00    -0.369 A  
BRANCH   4   9
HETATM    9  C   UNK A   0      -8.898   7.831  65.527  1.00  0.00    -0.010 C  
HETATM   10  O   UNK A   0      -8.375   7.058  64.739  1.00  0.00    -0.089 OA 
ATOM     11  N   GLU A   1      -9.176   9.160  65.230  1.00  0.00    -0.358 N  
ATOM     12  H   GLU A   1      -9.549   9.782  65.948  1.00  0.00     0.000 HD 
BRANCH  11  13
ATOM     13  CA  GLU A   1      -8.927   9.663  63.865  1.00  0.00    -0.218 C  
ATOM     14  OXT GLU A   1      -6.872  10.259  62.677  1.00  0.00    -0.130 OA 
ATOM     15  C   GLU A   1      -7.448  10.075  63.740  1.00  0.00    -0.141 C  
ATOM     16  O   GLU A   1      -6.882  10.388  64.933  1.00  0.00    -0.114 OA 
BRANCH  13  17
ATOM     17  CB  GLU A   1      -9.833  10.867  63.569  1.00  0.00    -0.407 C  
BRANCH  17  18
ATOM     18  CG  GLU A   1     -10.475  11.460  64.827  1.00  0.00    -0.366 C  
ATOM     19  OE2 GLU A   1     -12.424  11.994  63.487  1.00  0.00    -0.558 OA 
ATOM     20  OE1 GLU A   1     -12.432  12.492  65.692  1.00  0.00    -0.648 OA 
ATOM     21  CD  GLU A   1     -11.860  11.998  64.569  1.00  0.00    -0.285 C  
ENDBRANCH  17  18
ENDBRANCH  13  17
ENDBRANCH  11  13
ENDBRANCH   4   9
ENDBRANCH   2   3
BRANCH   2  22
HETATM   22  C   UNK A   0     -12.296   6.914  70.934  1.00  0.00    -0.313 C  
BRANCH  22  23
HETATM   23  C   UNK A   0     -12.571   8.375  71.235  1.00  0.00    -0.217 A  
HETATM   24  N   UNK A   0     -11.252  11.432  68.651  1.00  0.00    -0.219 NA 
HETATM   25  C   UNK A   0     -13.101  11.023  71.761  1.00  0.00    -0.449 A  
HETATM   26  C   UNK A   0     -13.347   8.785  72.304  1.00  0.00    -0.419 A  
HETATM   27  N   UNK A   0     -13.324  12.297  72.066  1.00  0.00    -0.477 NA 
HETATM   28  C   UNK A   0     -11.904  11.677  69.870  1.00  0.00    -0.358 A  
HETATM   29  C   UNK A   0     -12.355  10.617  70.650  1.00  0.00    -0.369 A  
HETATM   30  N   UNK A   0     -13.615  10.090  72.573  1.00  0.00    -0.595 NA 
HETATM   31  C   UNK A   0     -12.796  13.223  71.276  1.00  0.00    -0.312 A  
HETATM   32  H1  UNK A   0     -11.089  10.449  68.431  1.00  0.00     0.000 HD 
HETATM   33  H1  UNK A   0     -12.573  15.254  71.014  1.00  0.00     0.000 HD 
HETATM   34  N   UNK A   0     -12.979  14.543  71.622  1.00  0.00    -0.319 NA 
HETATM   35  N   UNK A   0     -12.118  12.968  70.158  1.00  0.00    -0.363 NA 
HETATM   36  N   UNK A   0     -12.078   9.300  70.380  1.00  0.00    -0.468 NA 
HETATM   37  H2  UNK A   0     -10.373  11.948  68.614  1.00  0.00     0.000 HD 
HETATM   38  H2  UNK A   0     -13.504  14.801  72.458  1.00  0.00     0.000 HD 
ENDBRANCH  22  23
ENDBRANCH   2  22
TORSDOF 7
ENDMDL
MODEL       37
REMARK 921   NORMALIZED FREE ENERGY PREDICTED BY IDOCK:   -6.82 KCAL/MOL
REMARK 922        TOTAL FREE ENERGY PREDICTED BY IDOCK:  -11.36 KCAL/MOL
REMARK 923 INTER-LIGAND FREE ENERGY PREDICTED BY IDOCK:  -10.23 KCAL/MOL
REMARK 924 INTRA-LIGAND FREE ENERGY PREDICTED BY IDOCK:   -1.13 KCAL/MOL
REMARK 927      BINDING AFFINITY PREDICTED BY RF-SCORE:    0.00 PKD
ROOT
HETATM    1  C   UNK A   0     -11.455  13.670  66.310  1.00  0.00    -0.333 C  
HETATM    2  N   UNK A   0     -10.249  13.509  67.117  1.00  0.00    -0.245 NA 
ENDROOT
BRANCH   2   3
HETATM    3  C   UNK A   0      -9.237  14.458  67.029  1.00  0.00    -0.234 A  
HETATM    4  C   UNK A   0      -7.281  16.501  67.193  1.00  0.00    -0.223 A  
HETATM    5  C   UNK A   0      -9.410  15.697  66.386  1.00  0.00    -0.332 A  
HETATM    6  C   UNK A   0      -8.000  14.238  67.654  1.00  0.00    -0.191 A  
HETATM    7  C   UNK A   0      -7.037  15.247  67.753  1.00  0.00    -0.180 A  
HETATM    8  C   UNK A   0      -8.440  16.707  66.451  1.00  0.00    -0.348 A  
BRANCH   4   9
HETATM    9  C   UNK A   0      -6.329  17.620  67.399  1.00  0.00    -0.147 C  
HETATM   10  O   UNK A   0      -5.185  17.560  66.974  1.00  0.00    -0.119 OA 
ATOM     11  N   GLU A   1      -6.849  18.731  68.052  1.00  0.00    -0.226 N  
ATOM     12  H   GLU A   1      -7.788  18.702  68.449  1.00  0.00     0.000 HD 
BRANCH  11  13
ATOM     13  CA  GLU A   1      -6.029  19.951  68.166  1.00  0.00    -0.233 C  
ATOM     14  OXT GLU A   1      -5.160  21.180  70.097  1.00  0.00    -0.485 OA 
ATOM     15  C   GLU A   1      -5.973  20.388  69.643  1.00  0.00    -0.349 C  
ATOM     16  O   GLU A   1      -7.030  19.941  70.367  1.00  0.00    -0.091 OA 
BRANCH  13  17
ATOM     17  CB  GLU A   1      -6.628  21.077  67.310  1.00  0.00    -0.431 C  
BRANCH  17  18
ATOM     18  CG  GLU A   1      -5.873  21.298  65.996  1.00  0.00    -0.281 C  
ATOM     19  OE2 GLU A   1      -7.362  19.691  64.959  1.00  0.00    -0.295 OA 
ATOM     20  OE1 GLU A   1      -5.777  20.696  63.700  1.00  0.00    -0.232 OA 
ATOM     21  CD  GLU A   1      -6.429  20.472  64.864  1.00  0.00    -0.294 C  
ENDBRANCH  17  18
ENDBRANCH  13  17
ENDBRANCH  11  13
ENDBRANCH   4   9
ENDBRANCH   2   3
BRANCH   2  22
HETATM   22  C   UNK A   0      -9.954  12.167  67.650  1.00  0.00    -0.197 C  
BRANCH  22  23
HETATM   23  C   UNK A   0     -10.831  11.755  68.817  1.00  0.00    -0.227 A  
HETATM   24  N   UNK A   0     -10.800   7.807  70.293  1.00  0.00    -0.247 NA 
HETATM   25  C   UNK A   0     -12.392  11.014  70.957  1.00  0.00    -0.385 A  
HETATM   26  C   UNK A   0     -11.606  12.655  69.525  1.00  0.00    -0.281 A  
HETATM   27  N   UNK A   0     -13.196  10.670  71.959  1.00  0.00    -0.532 NA 
HETATM   28  C   UNK A   0     -11.654   8.809  70.781  1.00  0.00    -0.251 A  
HETATM   29  C   UNK A   0     -11.575  10.104  70.278  1.00  0.00    -0.302 A  
HETATM   30  N   UNK A   0     -12.380  12.300  70.584  1.00  0.00    -0.337 NA 
HETATM   31  C   UNK A   0     -13.226   9.392  72.314  1.00  0.00    -0.446 A  
HETATM   32  H1  UNK A   0     -10.189   8.087  69.526  1.00  0.00     0.000 HD 
HETATM   33  H1  UNK A   0     -14.123   8.042  73.587  1.00  0.00     0.000 HD 
HETATM   34  N   UNK A   0     -14.100   9.024  73.314  1.00  0.00    -1.211 NA 
HETATM   35  N   UNK A   0     -12.457   8.440  71.789  1.00  0.00    -0.319 NA 
HETATM   36  N   UNK A   0     -10.797  10.459  69.206  1.00  0.00    -0.225 NA 
HETATM   37  H2  UNK A   0     -11.342   6.985  70.026  1.00  0.00     0.000 HD 
HETATM   38  H2  UNK A   0     -14.703   9.712  73.766  1.00  0.00     0.000 HD 
ENDBRANCH  22  23
ENDBRANCH   2  22
TORSDOF 7
ENDMDL
MODEL       38
REMARK 921   NORMALIZED FREE ENERGY PREDICTED BY IDOCK:   -6.81 KCAL/MOL
REMARK 922        TOTAL FREE ENERGY PREDICTED BY IDOCK:  -11.35 KCAL/MOL
REMARK 923 INTER-LIGAND FREE ENERGY PREDICTED BY IDOCK:  -10.06 KCAL/MOL
REMARK 924 INTRA-LIGAND FREE ENERGY PREDICTED BY IDOCK:   -1.29 KCAL/MOL
REMARK 927      BINDING AFFINITY PREDICTED BY RF-SCORE:    0.00 PKD
ROOT
HETATM    1  C   UNK A   0      -8.039  10.338  66.818  1.00  0.00    -0.121 C  
HETATM    2  N   UNK A   0      -7.888  11.049  68.084  1.00  0.00    -0.110 NA 
ENDROOT
BRANCH   2   3
HETATM    3  C   UNK A   0      -7.712  12.428  68.076  1.00  0.00    -0.135 A  
HETATM    4  C   UNK A   0      -7.391  15.216  67.688  1.00  0.00    -0.205 A  
HETATM    5  C   UNK A   0      -6.443  13.033  68.097  1.00  0.00    -0.100 A  
HETATM    6  C   UNK A   0      -8.819  13.285  67.974  1.00  0.00    -0.190 A  
HETATM    7  C   UNK A   0      -8.668  14.659  67.766  1.00  0.00    -0.172 A  
HETATM    8  C   UNK A   0      -6.278  14.414  67.919  1.00  0.00    -0.167 A  
BRANCH   4   9
HETATM    9  C   UNK A   0      -7.209  16.646  67.339  1.00  0.00    -0.155 C  
HETATM   10  O   UNK A   0      -6.973  16.989  66.190  1.00  0.00    -0.220 OA 
ATOM     11  N   GLU A   1      -7.375  17.541  68.389  1.00  0.00    -0.220 N  
ATOM     12  H   GLU A   1      -7.502  17.199  69.342  1.00  0.00     0.000 HD 
BRANCH  11  13
ATOM     13  CA  GLU A   1      -7.367  18.990  68.112  1.00  0.00    -0.268 C  
ATOM     14  OXT GLU A   1      -5.998  20.827  68.974  1.00  0.00    -0.354 OA 
ATOM     15  C   GLU A   1      -6.433  19.692  69.115  1.00  0.00    -0.326 C  
ATOM     16  O   GLU A   1      -6.271  18.994  70.267  1.00  0.00    -0.178 OA 
BRANCH  13  17
ATOM     17  CB  GLU A   1      -8.788  19.562  68.232  1.00  0.00    -0.383 C  
BRANCH  17  18
ATOM     18  CG  GLU A   1      -9.458  19.795  66.874  1.00  0.00    -0.481 C  
ATOM     19  OE2 GLU A   1     -10.429  17.582  67.059  1.00  0.00    -0.328 OA 
ATOM     20  OE1 GLU A   1     -10.909  18.848  65.250  1.00  0.00    -0.559 OA 
ATOM     21  CD  GLU A   1     -10.296  18.622  66.434  1.00  0.00    -0.432 C  
ENDBRANCH  17  18
ENDBRANCH  13  17
ENDBRANCH  11  13
ENDBRANCH   4   9
ENDBRANCH   2   3
BRANCH   2  22
HETATM   22  C   UNK A   0      -7.496  10.265  69.269  1.00  0.00    -0.112 C  
BRANCH  22  23
HETATM   23  C   UNK A   0      -8.659   9.829  70.139  1.00  0.00    -0.181 A  
HETATM   24  N   UNK A   0     -12.630  10.850  69.165  1.00  0.00    -0.625 NA 
HETATM   25  C   UNK A   0     -10.772   9.005  71.696  1.00  0.00    -0.371 A  
HETATM   26  C   UNK A   0      -8.504   8.995  71.232  1.00  0.00    -0.133 A  
HETATM   27  N   UNK A   0     -11.770   8.640  72.495  1.00  0.00    -0.329 NA 
HETATM   28  C   UNK A   0     -12.274  10.155  70.332  1.00  0.00    -0.218 A  
HETATM   29  C   UNK A   0     -10.946   9.809  70.565  1.00  0.00    -0.321 A  
HETATM   30  N   UNK A   0      -9.540   8.583  72.008  1.00  0.00    -0.275 NA 
HETATM   31  C   UNK A   0     -12.987   9.078  72.201  1.00  0.00    -0.424 A  
HETATM   32  H1  UNK A   0     -11.853  11.122  68.563  1.00  0.00     0.000 HD 
HETATM   33  H1  UNK A   0     -14.949   9.083  72.832  1.00  0.00     0.000 HD 
HETATM   34  N   UNK A   0     -14.013   8.746  73.059  1.00  0.00    -1.092 NA 
HETATM   35  N   UNK A   0     -13.295   9.797  71.124  1.00  0.00    -0.494 NA 
HETATM   36  N   UNK A   0      -9.901  10.232  69.784  1.00  0.00    -0.377 NA 
HETATM   37  H2  UNK A   0     -13.192  11.667  69.402  1.00  0.00     0.000 HD 
HETATM   38  H2  UNK A   0     -13.842   8.183  73.892  1.00  0.00     0.000 HD 
ENDBRANCH  22  23
ENDBRANCH   2  22
TORSDOF 7
ENDMDL
MODEL       39
REMARK 921   NORMALIZED FREE ENERGY PREDICTED BY IDOCK:   -6.81 KCAL/MOL
REMARK 922        TOTAL FREE ENERGY PREDICTED BY IDOCK:  -11.34 KCAL/MOL
REMARK 923 INTER-LIGAND FREE ENERGY PREDICTED BY IDOCK:   -9.67 KCAL/MOL
REMARK 924 INTRA-LIGAND FREE ENERGY PREDICTED BY IDOCK:   -1.68 KCAL/MOL
REMARK 927      BINDING AFFINITY PREDICTED BY RF-SCORE:    0.00 PKD
ROOT
HETATM    1  C   UNK A   0     -12.096  13.891  66.330  1.00  0.00    -0.451 C  
HETATM    2  N   UNK A   0     -10.912  13.516  67.097  1.00  0.00    -0.287 NA 
ENDROOT
BRANCH   2   3
HETATM    3  C   UNK A   0     -10.156  12.421  66.695  1.00  0.00    -0.221 A  
HETATM    4  C   UNK A   0      -8.753  10.015  66.178  1.00  0.00    -0.153 A  
HETATM    5  C   UNK A   0      -8.791  12.283  67.006  1.00  0.00    -0.205 A  
HETATM    6  C   UNK A   0     -10.759  11.354  66.009  1.00  0.00    -0.318 A  
HETATM    7  C   UNK A   0     -10.077  10.159  65.766  1.00  0.00    -0.324 A  
HETATM    8  C   UNK A   0      -8.087  11.101  66.740  1.00  0.00    -0.155 A  
BRANCH   4   9
HETATM    9  C   UNK A   0      -8.055   8.712  66.046  1.00  0.00    -0.109 C  
HETATM   10  O   UNK A   0      -6.927   8.554  66.486  1.00  0.00    -0.073 OA 
ATOM     11  N   GLU A   1      -8.793   7.701  65.440  1.00  0.00    -0.370 N  
ATOM     12  H   GLU A   1      -9.703   7.904  65.027  1.00  0.00     0.000 HD 
BRANCH  11  13
ATOM     13  CA  GLU A   1      -8.245   6.332  65.402  1.00  0.00    -0.142 C  
ATOM     14  OXT GLU A   1      -6.885   5.145  63.748  1.00  0.00    -0.044 OA 
ATOM     15  C   GLU A   1      -7.651   6.063  64.006  1.00  0.00    -0.087 C  
ATOM     16  O   GLU A   1      -8.196   6.843  63.039  1.00  0.00    -0.066 OA 
BRANCH  13  17
ATOM     17  CB  GLU A   1      -9.350   5.309  65.707  1.00  0.00    -0.151 C  
BRANCH  17  18
ATOM     18  CG  GLU A   1      -9.600   5.123  67.206  1.00  0.00    -0.155 C  
ATOM     19  OE2 GLU A   1     -11.383   6.756  67.033  1.00  0.00    -0.337 OA 
ATOM     20  OE1 GLU A   1     -10.967   5.787  69.031  1.00  0.00    -0.304 OA 
ATOM     21  CD  GLU A   1     -10.733   5.979  67.713  1.00  0.00    -0.289 C  
ENDBRANCH  17  18
ENDBRANCH  13  17
ENDBRANCH  11  13
ENDBRANCH   4   9
ENDBRANCH   2   3
BRANCH   2  22
HETATM   22  C   UNK A   0     -10.802  14.018  68.478  1.00  0.00    -0.254 C  
BRANCH  22  23
HETATM   23  C   UNK A   0     -11.540  13.182  69.506  1.00  0.00    -0.283 A  
HETATM   24  N   UNK A   0     -11.190   8.982  69.575  1.00  0.00    -0.440 NA 
HETATM   25  C   UNK A   0     -12.848  11.667  71.392  1.00  0.00    -0.356 A  
HETATM   26  C   UNK A   0     -12.281  13.740  70.532  1.00  0.00    -0.369 A  
HETATM   27  N   UNK A   0     -13.534  10.954  72.282  1.00  0.00    -0.528 NA 
HETATM   28  C   UNK A   0     -12.035   9.703  70.434  1.00  0.00    -0.106 A  
HETATM   29  C   UNK A   0     -12.064  11.093  70.387  1.00  0.00    -0.385 A  
HETATM   30  N   UNK A   0     -12.931  13.001  71.469  1.00  0.00    -0.352 NA 
HETATM   31  C   UNK A   0     -13.473   9.632  72.192  1.00  0.00    -0.429 A  
HETATM   32  H1  UNK A   0     -10.671   9.543  68.899  1.00  0.00     0.000 HD 
HETATM   33  H1  UNK A   0     -14.179   7.877  73.008  1.00  0.00     0.000 HD 
HETATM   34  N   UNK A   0     -14.227   8.894  73.078  1.00  0.00    -1.158 NA 
HETATM   35  N   UNK A   0     -12.718   8.965  71.321  1.00  0.00    -0.449 NA 
HETATM   36  N   UNK A   0     -11.411  11.837  69.437  1.00  0.00    -0.316 NA 
HETATM   37  H2  UNK A   0     -11.719   8.256  69.093  1.00  0.00     0.000 HD 
HETATM   38  H2  UNK A   0     -14.812   9.348  73.778  1.00  0.00     0.000 HD 
ENDBRANCH  22  23
ENDBRANCH   2  22
TORSDOF 7
ENDMDL
MODEL       40
REMARK 921   NORMALIZED FREE ENERGY PREDICTED BY IDOCK:   -6.78 KCAL/MOL
REMARK 922        TOTAL FREE ENERGY PREDICTED BY IDOCK:  -11.30 KCAL/MOL
REMARK 923 INTER-LIGAND FREE ENERGY PREDICTED BY IDOCK:  -10.62 KCAL/MOL
REMARK 924 INTRA-LIGAND FREE ENERGY PREDICTED BY IDOCK:   -0.67 KCAL/MOL
REMARK 927      BINDING AFFINITY PREDICTED BY RF-SCORE:    0.00 PKD
ROOT
HETATM    1  C   UNK A   0     -13.297   9.174  71.313  1.00  0.00    -0.227 C  
HETATM    2  N   UNK A   0     -12.099   9.999  71.186  1.00  0.00    -0.350 NA 
ENDROOT
BRANCH   2   3
HETATM    3  C   UNK A   0     -12.153  11.171  70.441  1.00  0.00    -0.385 A  
HETATM    4  C   UNK A   0     -11.887  13.558  68.938  1.00  0.00    -0.384 A  
HETATM    5  C   UNK A   0     -12.353  12.435  71.025  1.00  0.00    -0.309 A  
HETATM    6  C   UNK A   0     -11.934  11.143  69.054  1.00  0.00    -0.389 A  
HETATM    7  C   UNK A   0     -11.786  12.316  68.310  1.00  0.00    -0.392 A  
HETATM    8  C   UNK A   0     -12.237  13.619  70.284  1.00  0.00    -0.423 A  
BRANCH   4   9
HETATM    9  C   UNK A   0     -11.605  14.809  68.192  1.00  0.00    -0.332 C  
HETATM   10  O   UNK A   0     -11.677  15.899  68.740  1.00  0.00    -0.387 OA 
ATOM     11  N   GLU A   1     -11.215  14.638  66.869  1.00  0.00    -0.334 N  
ATOM     12  H   GLU A   1     -11.239  13.714  66.440  1.00  0.00     0.000 HD 
BRANCH  11  13
ATOM     13  CA  GLU A   1     -10.765  15.809  66.093  1.00  0.00    -0.290 C  
ATOM     14  OXT GLU A   1     -11.561  16.809  64.005  1.00  0.00    -1.195 OA 
ATOM     15  C   GLU A   1     -11.502  15.833  64.740  1.00  0.00    -0.255 C  
ATOM     16  O   GLU A   1     -11.939  14.608  64.353  1.00  0.00    -0.457 OA 
BRANCH  13  17
ATOM     17  CB  GLU A   1      -9.247  15.741  65.861  1.00  0.00    -0.337 C  
BRANCH  17  18
ATOM     18  CG  GLU A   1      -8.433  16.181  67.081  1.00  0.00    -0.218 C  
ATOM     19  OE2 GLU A   1      -7.928  18.240  65.905  1.00  0.00    -0.499 OA 
ATOM     20  OE1 GLU A   1      -7.129  17.941  67.998  1.00  0.00    -0.205 OA 
ATOM     21  CD  GLU A   1      -7.820  17.547  66.904  1.00  0.00    -0.228 C  
ENDBRANCH  17  18
ENDBRANCH  13  17
ENDBRANCH  11  13
ENDBRANCH   4   9
ENDBRANCH   2   3
BRANCH   2  22
HETATM   22  C   UNK A   0     -10.798   9.368  71.471  1.00  0.00    -0.328 C  
BRANCH  22  23
HETATM   23  C   UNK A   0      -9.958   9.089  70.240  1.00  0.00    -0.195 A  
HETATM   24  N   UNK A   0     -11.375   6.620  67.132  1.00  0.00    -0.779 NA 
HETATM   25  C   UNK A   0      -8.451   8.613  67.989  1.00  0.00    -0.127 A  
HETATM   26  C   UNK A   0      -8.737   9.698  70.014  1.00  0.00    -0.231 A  
HETATM   27  N   UNK A   0      -7.679   8.356  66.936  1.00  0.00    -0.091 NA 
HETATM   28  C   UNK A   0     -10.089   7.182  67.148  1.00  0.00    -0.225 A  
HETATM   29  C   UNK A   0      -9.705   8.028  68.184  1.00  0.00    -0.160 A  
HETATM   30  N   UNK A   0      -7.984   9.470  68.906  1.00  0.00    -0.089 NA 
HETATM   31  C   UNK A   0      -8.129   7.488  66.039  1.00  0.00    -0.123 A  
HETATM   32  H1  UNK A   0     -11.954   6.827  67.946  1.00  0.00     0.000 HD 
HETATM   33  H1  UNK A   0      -7.655   6.512  64.288  1.00  0.00     0.000 HD 
HETATM   34  N   UNK A   0      -7.308   7.179  64.977  1.00  0.00    -0.078 NA 
HETATM   35  N   UNK A   0      -9.328   6.910  66.079  1.00  0.00    -0.382 NA 
HETATM   36  N   UNK A   0     -10.465   8.252  69.305  1.00  0.00    -0.219 NA 
HETATM   37  H2  UNK A   0     -11.315   5.612  66.994  1.00  0.00     0.000 HD 
HETATM   38  H2  UNK A   0      -6.385   7.603  64.884  1.00  0.00     0.000 HD 
ENDBRANCH  22  23
ENDBRANCH   2  22
TORSDOF 7
ENDMDL
MODEL       41
REMARK 921   NORMALIZED FREE ENERGY PREDICTED BY IDOCK:   -6.75 KCAL/MOL
REMARK 922        TOTAL FREE ENERGY PREDICTED BY IDOCK:  -11.26 KCAL/MOL
REMARK 923 INTER-LIGAND FREE ENERGY PREDICTED BY IDOCK:   -9.99 KCAL/MOL
REMARK 924 INTRA-LIGAND FREE ENERGY PREDICTED BY IDOCK:   -1.26 KCAL/MOL
REMARK 927      BINDING AFFINITY PREDICTED BY RF-SCORE:    0.00 PKD
ROOT
HETATM    1  C   UNK A   0      -9.987  13.332  66.000  1.00  0.00    -0.292 C  
HETATM    2  N   UNK A   0     -10.747  13.892  67.114  1.00  0.00    -0.281 NA 
ENDROOT
BRANCH   2   3
HETATM    3  C   UNK A   0     -11.283  13.040  68.072  1.00  0.00    -0.278 A  
HETATM    4  C   UNK A   0     -12.035  11.307  70.183  1.00  0.00    -0.452 A  
HETATM    5  C   UNK A   0     -11.377  11.649  67.885  1.00  0.00    -0.369 A  
HETATM    6  C   UNK A   0     -11.693  13.539  69.318  1.00  0.00    -0.382 A  
HETATM    7  C   UNK A   0     -12.050  12.689  70.369  1.00  0.00    -0.381 A  
HETATM    8  C   UNK A   0     -11.763  10.787  68.921  1.00  0.00    -0.338 A  
BRANCH   4   9
HETATM    9  C   UNK A   0     -12.284  10.387  71.320  1.00  0.00    -0.389 C  
HETATM   10  O   UNK A   0     -13.115  10.653  72.175  1.00  0.00    -0.460 OA 
ATOM     11  N   GLU A   1     -11.548   9.209  71.304  1.00  0.00    -0.304 N  
ATOM     12  H   GLU A   1     -10.817   9.067  70.608  1.00  0.00     0.000 HD 
BRANCH  11  13
ATOM     13  CA  GLU A   1     -11.836   8.164  72.305  1.00  0.00    -0.382 C  
ATOM     14  OXT GLU A   1     -10.514   7.229  74.141  1.00  0.00    -0.255 OA 
ATOM     15  C   GLU A   1     -10.546   7.833  73.079  1.00  0.00    -0.379 C  
ATOM     16  O   GLU A   1      -9.420   8.127  72.380  1.00  0.00    -0.198 OA 
BRANCH  13  17
ATOM     17  CB  GLU A   1     -12.371   6.899  71.615  1.00  0.00    -0.413 C  
BRANCH  17  18
ATOM     18  CG  GLU A   1     -11.865   6.740  70.178  1.00  0.00    -0.321 C  
ATOM     19  OE2 GLU A   1     -10.404   4.975  70.970  1.00  0.00    -0.223 OA 
ATOM     20  OE1 GLU A   1     -10.409   5.499  68.772  1.00  0.00    -0.195 OA 
ATOM     21  CD  GLU A   1     -10.828   5.654  70.049  1.00  0.00    -0.296 C  
ENDBRANCH  17  18
ENDBRANCH  13  17
ENDBRANCH  11  13
ENDBRANCH   4   9
ENDBRANCH   2   3
BRANCH   2  22
HETATM   22  C   UNK A   0     -11.283  15.257  66.961  1.00  0.00    -0.275 C  
BRANCH  22  23
HETATM   23  C   UNK A   0     -10.324  16.353  67.383  1.00  0.00    -0.295 A  
HETATM   24  N   UNK A   0      -6.814  15.483  69.548  1.00  0.00    -0.175 NA 
HETATM   25  C   UNK A   0      -8.564  18.337  68.115  1.00  0.00    -0.278 A  
HETATM   26  C   UNK A   0     -10.483  17.673  67.002  1.00  0.00    -0.305 A  
HETATM   27  N   UNK A   0      -7.759  19.321  68.503  1.00  0.00    -0.332 NA 
HETATM   28  C   UNK A   0      -7.221  16.787  69.226  1.00  0.00    -0.181 A  
HETATM   29  C   UNK A   0      -8.368  16.998  68.466  1.00  0.00    -0.260 A  
HETATM   30  N   UNK A   0      -9.620  18.661  67.358  1.00  0.00    -0.292 NA 
HETATM   31  C   UNK A   0      -6.726  19.005  69.273  1.00  0.00    -0.296 A  
HETATM   32  H1  UNK A   0      -7.443  14.740  69.242  1.00  0.00     0.000 HD 
HETATM   33  H1  UNK A   0      -5.128  19.786  70.313  1.00  0.00     0.000 HD 
HETATM   34  N   UNK A   0      -5.922  20.030  69.721  1.00  0.00    -0.311 NA 
HETATM   35  N   UNK A   0      -6.395  17.764  69.627  1.00  0.00    -0.218 NA 
HETATM   36  N   UNK A   0      -9.241  16.000  68.112  1.00  0.00    -0.194 NA 
HETATM   37  H2  UNK A   0      -6.644  15.407  70.550  1.00  0.00     0.000 HD 
HETATM   38  H2  UNK A   0      -6.115  20.999  69.469  1.00  0.00     0.000 HD 
ENDBRANCH  22  23
ENDBRANCH   2  22
TORSDOF 7
ENDMDL
MODEL       42
REMARK 921   NORMALIZED FREE ENERGY PREDICTED BY IDOCK:   -6.69 KCAL/MOL
REMARK 922        TOTAL FREE ENERGY PREDICTED BY IDOCK:  -11.18 KCAL/MOL
REMARK 923 INTER-LIGAND FREE ENERGY PREDICTED BY IDOCK:  -10.10 KCAL/MOL
REMARK 924 INTRA-LIGAND FREE ENERGY PREDICTED BY IDOCK:   -1.08 KCAL/MOL
REMARK 927      BINDING AFFINITY PREDICTED BY RF-SCORE:    0.00 PKD
ROOT
HETATM    1  C   UNK A   0     -10.157  13.725  65.798  1.00  0.00    -0.307 C  
HETATM    2  N   UNK A   0     -10.820  13.204  66.990  1.00  0.00    -0.262 NA 
ENDROOT
BRANCH   2   3
HETATM    3  C   UNK A   0     -10.493  11.936  67.455  1.00  0.00    -0.209 A  
HETATM    4  C   UNK A   0     -10.191   9.310  68.474  1.00  0.00    -0.225 A  
HETATM    5  C   UNK A   0     -10.026  11.702  68.761  1.00  0.00    -0.147 A  
HETATM    6  C   UNK A   0     -10.687  10.808  66.642  1.00  0.00    -0.268 A  
HETATM    7  C   UNK A   0     -10.556   9.510  67.143  1.00  0.00    -0.295 A  
HETATM    8  C   UNK A   0      -9.860  10.405  69.267  1.00  0.00    -0.243 A  
BRANCH   4   9
HETATM    9  C   UNK A   0     -10.173   7.946  69.057  1.00  0.00    -0.209 C  
HETATM   10  O   UNK A   0      -9.871   6.975  68.380  1.00  0.00    -0.141 OA 
ATOM     11  N   GLU A   1     -10.470   7.875  70.413  1.00  0.00    -0.214 N  
ATOM     12  H   GLU A   1     -10.784   8.705  70.916  1.00  0.00     0.000 HD 
BRANCH  11  13
ATOM     13  CA  GLU A   1     -10.327   6.586  71.117  1.00  0.00    -0.205 C  
ATOM     14  OXT GLU A   1     -11.647   5.513  72.877  1.00  0.00    -0.297 OA 
ATOM     15  C   GLU A   1     -11.326   6.535  72.288  1.00  0.00    -0.282 C  
ATOM     16  O   GLU A   1     -11.691   7.767  72.727  1.00  0.00    -0.337 OA 
BRANCH  13  17
ATOM     17  CB  GLU A   1      -8.893   6.425  71.645  1.00  0.00    -0.136 C  
BRANCH  17  18
ATOM     18  CG  GLU A   1      -8.449   4.962  71.739  1.00  0.00    -0.124 C  
ATOM     19  OE2 GLU A   1      -8.619   5.146  74.150  1.00  0.00    -0.114 OA 
ATOM     20  OE1 GLU A   1      -8.013   3.170  73.235  1.00  0.00    -0.066 OA 
ATOM     21  CD  GLU A   1      -8.376   4.471  73.162  1.00  0.00    -0.099 C  
ENDBRANCH  17  18
ENDBRANCH  13  17
ENDBRANCH  11  13
ENDBRANCH   4   9
ENDBRANCH   2   3
BRANCH   2  22
HETATM   22  C   UNK A   0     -12.090  13.832  67.397  1.00  0.00    -0.343 C  
BRANCH  22  23
HETATM   23  C   UNK A   0     -12.030  14.548  68.733  1.00  0.00    -0.280 A  
HETATM   24  N   UNK A   0     -13.613  12.803  72.228  1.00  0.00    -0.542 NA 
HETATM   25  C   UNK A   0     -11.889  15.828  71.163  1.00  0.00    -0.425 A  
HETATM   26  C   UNK A   0     -11.373  15.752  68.908  1.00  0.00    -0.356 A  
HETATM   27  N   UNK A   0     -11.856  16.493  72.315  1.00  0.00    -0.613 NA 
HETATM   28  C   UNK A   0     -13.064  14.094  72.188  1.00  0.00    -0.401 A  
HETATM   29  C   UNK A   0     -12.516  14.588  71.009  1.00  0.00    -0.341 A  
HETATM   30  N   UNK A   0     -11.298  16.393  70.103  1.00  0.00    -0.444 NA 
HETATM   31  C   UNK A   0     -12.463  15.946  73.360  1.00  0.00    -0.541 A  
HETATM   32  H1  UNK A   0     -13.631  12.306  71.337  1.00  0.00     0.000 HD 
HETATM   33  H1  UNK A   0     -12.943  16.237  75.343  1.00  0.00     0.000 HD 
HETATM   34  N   UNK A   0     -12.477  16.658  74.539  1.00  0.00    -0.735 NA 
HETATM   35  N   UNK A   0     -13.041  14.746  73.359  1.00  0.00    -0.565 NA 
HETATM   36  N   UNK A   0     -12.598  13.941  69.801  1.00  0.00    -0.335 NA 
HETATM   37  H2  UNK A   0     -14.550  12.833  72.630  1.00  0.00     0.000 HD 
HETATM   38  H2  UNK A   0     -12.035  17.576  74.606  1.00  0.00     0.000 HD 
ENDBRANCH  22  23
ENDBRANCH   2  22
TORSDOF 7
ENDMDL
MODEL       43
REMARK 921   NORMALIZED FREE ENERGY PREDICTED BY IDOCK:   -6.69 KCAL/MOL
REMARK 922        TOTAL FREE ENERGY PREDICTED BY IDOCK:  -11.17 KCAL/MOL
REMARK 923 INTER-LIGAND FREE ENERGY PREDICTED BY IDOCK:  -10.08 KCAL/MOL
REMARK 924 INTRA-LIGAND FREE ENERGY PREDICTED BY IDOCK:   -1.09 KCAL/MOL
REMARK 927      BINDING AFFINITY PREDICTED BY RF-SCORE:    0.00 PKD
ROOT
HETATM    1  C   UNK A   0     -10.523  12.173  63.434  1.00  0.00    -0.412 C  
HETATM    2  N   UNK A   0     -11.004  12.223  64.812  1.00  0.00    -0.293 NA 
ENDROOT
BRANCH   2   3
HETATM    3  C   UNK A   0     -10.771  11.143  65.655  1.00  0.00    -0.185 A  
HETATM    4  C   UNK A   0     -10.010   9.142  67.511  1.00  0.00    -0.258 A  
HETATM    5  C   UNK A   0     -10.034  10.013  65.259  1.00  0.00    -0.368 A  
HETATM    6  C   UNK A   0     -11.214  11.173  66.987  1.00  0.00    -0.291 A  
HETATM    7  C   UNK A   0     -10.828  10.198  67.912  1.00  0.00    -0.336 A  
HETATM    8  C   UNK A   0      -9.666   9.012  66.168  1.00  0.00    -0.354 A  
BRANCH   4   9
HETATM    9  C   UNK A   0      -9.486   8.172  68.503  1.00  0.00    -0.143 C  
HETATM   10  O   UNK A   0      -8.369   8.302  68.982  1.00  0.00    -0.118 OA 
ATOM     11  N   GLU A   1     -10.365   7.160  68.868  1.00  0.00    -0.191 N  
ATOM     12  H   GLU A   1     -11.259   7.055  68.388  1.00  0.00     0.000 HD 
BRANCH  11  13
ATOM     13  CA  GLU A   1      -9.994   6.240  69.960  1.00  0.00    -0.171 C  
ATOM     14  OXT GLU A   1      -8.980   4.012  69.965  1.00  0.00    -0.081 OA 
ATOM     15  C   GLU A   1      -9.596   4.878  69.360  1.00  0.00    -0.169 C  
ATOM     16  O   GLU A   1     -10.148   4.654  68.141  1.00  0.00    -0.101 OA 
BRANCH  13  17
ATOM     17  CB  GLU A   1     -11.173   6.061  70.929  1.00  0.00    -0.335 C  
BRANCH  17  18
ATOM     18  CG  GLU A   1     -12.105   7.275  70.971  1.00  0.00    -0.361 C  
ATOM     19  OE2 GLU A   1     -11.121   7.860  73.107  1.00  0.00    -0.382 OA 
ATOM     20  OE1 GLU A   1     -12.715   9.197  72.226  1.00  0.00    -0.383 OA 
ATOM     21  CD  GLU A   1     -11.911   8.110  72.211  1.00  0.00    -0.382 C  
ENDBRANCH  17  18
ENDBRANCH  13  17
ENDBRANCH  11  13
ENDBRANCH   4   9
ENDBRANCH   2   3
BRANCH   2  22
HETATM   22  C   UNK A   0     -12.068  13.191  65.132  1.00  0.00    -0.421 C  
BRANCH  22  23
HETATM   23  C   UNK A   0     -11.562  14.530  65.633  1.00  0.00    -0.344 A  
HETATM   24  N   UNK A   0     -11.190  15.331  69.754  1.00  0.00    -0.266 NA 
HETATM   25  C   UNK A   0     -10.607  16.944  66.542  1.00  0.00    -0.185 A  
HETATM   26  C   UNK A   0     -11.100  15.520  64.785  1.00  0.00    -0.407 A  
HETATM   27  N   UNK A   0     -10.194  18.139  66.955  1.00  0.00    -0.354 NA 
HETATM   28  C   UNK A   0     -10.930  16.282  68.754  1.00  0.00    -0.343 A  
HETATM   29  C   UNK A   0     -11.027  15.933  67.411  1.00  0.00    -0.257 A  
HETATM   30  N   UNK A   0     -10.627  16.716  65.223  1.00  0.00    -0.633 NA 
HETATM   31  C   UNK A   0     -10.197  18.375  68.260  1.00  0.00    -0.384 A  
HETATM   32  H1  UNK A   0     -11.505  14.420  69.421  1.00  0.00     0.000 HD 
HETATM   33  H1  UNK A   0      -9.825  19.812  69.690  1.00  0.00     0.000 HD 
HETATM   34  N   UNK A   0      -9.823  19.631  68.686  1.00  0.00    -0.420 NA 
HETATM   35  N   UNK A   0     -10.516  17.479  69.192  1.00  0.00    -0.392 NA 
HETATM   36  N   UNK A   0     -11.511  14.726  66.971  1.00  0.00    -0.359 NA 
HETATM   37  H2  UNK A   0     -11.856  15.706  70.429  1.00  0.00     0.000 HD 
HETATM   38  H2  UNK A   0      -9.552  20.354  68.019  1.00  0.00     0.000 HD 
ENDBRANCH  22  23
ENDBRANCH   2  22
TORSDOF 7
ENDMDL
MODEL       44
REMARK 921   NORMALIZED FREE ENERGY PREDICTED BY IDOCK:   -6.64 KCAL/MOL
REMARK 922        TOTAL FREE ENERGY PREDICTED BY IDOCK:  -11.11 KCAL/MOL
REMARK 923 INTER-LIGAND FREE ENERGY PREDICTED BY IDOCK:  -10.28 KCAL/MOL
REMARK 924 INTRA-LIGAND FREE ENERGY PREDICTED BY IDOCK:   -0.83 KCAL/MOL
REMARK 927      BINDING AFFINITY PREDICTED BY RF-SCORE:    0.00 PKD
ROOT
HETATM    1  C   UNK A   0      -8.643  10.957  66.228  1.00  0.00    -0.164 C  
HETATM    2  N   UNK A   0      -8.760  11.284  67.647  1.00  0.00    -0.129 NA 
ENDROOT
BRANCH   2   3
HETATM    3  C   UNK A   0      -8.848  12.615  68.036  1.00  0.00    -0.195 A  
HETATM    4  C   UNK A   0      -8.977  15.412  68.467  1.00  0.00    -0.192 A  
HETATM    5  C   UNK A   0      -7.749  13.334  68.538  1.00  0.00    -0.120 A  
HETATM    6  C   UNK A   0     -10.047  13.326  67.872  1.00  0.00    -0.235 A  
HETATM    7  C   UNK A   0     -10.114  14.709  68.067  1.00  0.00    -0.227 A  
HETATM    8  C   UNK A   0      -7.810  14.716  68.767  1.00  0.00    -0.146 A  
BRANCH   4   9
HETATM    9  C   UNK A   0      -8.995  16.893  68.553  1.00  0.00    -0.254 C  
HETATM   10  O   UNK A   0      -9.930  17.482  69.074  1.00  0.00    -0.307 OA 
ATOM     11  N   GLU A   1      -7.867  17.531  68.051  1.00  0.00    -0.218 N  
ATOM     12  H   GLU A   1      -7.147  16.999  67.564  1.00  0.00     0.000 HD 
BRANCH  11  13
ATOM     13  CA  GLU A   1      -7.722  18.989  68.232  1.00  0.00    -0.311 C  
ATOM     14  OXT GLU A   1      -8.455  20.898  66.888  1.00  0.00    -0.102 OA 
ATOM     15  C   GLU A   1      -8.189  19.707  66.952  1.00  0.00    -0.294 C  
ATOM     16  O   GLU A   1      -8.110  18.923  65.847  1.00  0.00    -0.468 OA 
BRANCH  13  17
ATOM     17  CB  GLU A   1      -6.257  19.344  68.528  1.00  0.00    -0.270 C  
BRANCH  17  18
ATOM     18  CG  GLU A   1      -5.677  18.564  69.711  1.00  0.00    -0.250 C  
ATOM     19  OE2 GLU A   1      -6.200  20.465  71.122  1.00  0.00    -0.579 OA 
ATOM     20  OE1 GLU A   1      -5.265  18.628  72.049  1.00  0.00    -0.746 OA 
ATOM     21  CD  GLU A   1      -5.751  19.336  71.004  1.00  0.00    -0.129 C  
ENDBRANCH  17  18
ENDBRANCH  13  17
ENDBRANCH  11  13
ENDBRANCH   4   9
ENDBRANCH   2   3
BRANCH   2  22
HETATM   22  C   UNK A   0      -8.353  10.257  68.623  1.00  0.00    -0.122 C  
BRANCH  22  23
HETATM   23  C   UNK A   0      -9.478   9.760  69.510  1.00  0.00    -0.212 A  
HETATM   24  N   UNK A   0     -12.525  12.348  70.845  1.00  0.00    -0.342 NA 
HETATM   25  C   UNK A   0     -11.540   8.850  71.087  1.00  0.00    -0.300 A  
HETATM   26  C   UNK A   0      -9.631   8.427  69.847  1.00  0.00    -0.171 A  
HETATM   27  N   UNK A   0     -12.495   8.397  71.893  1.00  0.00    -0.327 NA 
HETATM   28  C   UNK A   0     -12.428  11.002  71.232  1.00  0.00    -0.370 A  
HETATM   29  C   UNK A   0     -11.422  10.193  70.713  1.00  0.00    -0.357 A  
HETATM   30  N   UNK A   0     -10.646   7.968  70.625  1.00  0.00    -0.215 NA 
HETATM   31  C   UNK A   0     -13.368   9.274  72.371  1.00  0.00    -0.449 A  
HETATM   32  H1  UNK A   0     -11.785  12.680  70.226  1.00  0.00     0.000 HD 
HETATM   33  H1  UNK A   0     -14.995   9.491  73.616  1.00  0.00     0.000 HD 
HETATM   34  N   UNK A   0     -14.324   8.815  73.249  1.00  0.00    -1.130 NA 
HETATM   35  N   UNK A   0     -13.400  10.565  72.045  1.00  0.00    -0.504 NA 
HETATM   36  N   UNK A   0     -10.395  10.660  69.932  1.00  0.00    -0.444 NA 
HETATM   37  H2  UNK A   0     -12.586  12.945  71.669  1.00  0.00     0.000 HD 
HETATM   38  H2  UNK A   0     -14.360   7.833  73.523  1.00  0.00     0.000 HD 
ENDBRANCH  22  23
ENDBRANCH   2  22
TORSDOF 7
ENDMDL
MODEL       45
REMARK 921   NORMALIZED FREE ENERGY PREDICTED BY IDOCK:   -6.62 KCAL/MOL
REMARK 922        TOTAL FREE ENERGY PREDICTED BY IDOCK:  -11.08 KCAL/MOL
REMARK 923 INTER-LIGAND FREE ENERGY PREDICTED BY IDOCK:   -9.91 KCAL/MOL
REMARK 924 INTRA-LIGAND FREE ENERGY PREDICTED BY IDOCK:   -1.17 KCAL/MOL
REMARK 927      BINDING AFFINITY PREDICTED BY RF-SCORE:    0.00 PKD
ROOT
HETATM    1  C   UNK A   0      -9.436  10.124  63.901  1.00  0.00    -0.275 C  
HETATM    2  N   UNK A   0      -9.485  10.081  65.360  1.00  0.00    -0.229 NA 
ENDROOT
BRANCH   2   3
HETATM    3  C   UNK A   0      -9.772  11.241  66.068  1.00  0.00    -0.220 A  
HETATM    4  C   UNK A   0     -10.320  13.786  67.186  1.00  0.00    -0.261 A  
HETATM    5  C   UNK A   0      -8.795  11.957  66.783  1.00  0.00    -0.193 A  
HETATM    6  C   UNK A   0     -11.063  11.791  66.038  1.00  0.00    -0.363 A  
HETATM    7  C   UNK A   0     -11.337  13.053  66.573  1.00  0.00    -0.359 A  
HETATM    8  C   UNK A   0      -9.063  13.210  67.351  1.00  0.00    -0.208 A  
BRANCH   4   9
HETATM    9  C   UNK A   0     -10.559  15.176  67.643  1.00  0.00    -0.263 C  
HETATM   10  O   UNK A   0     -11.481  15.441  68.401  1.00  0.00    -0.326 OA 
ATOM     11  N   GLU A   1      -9.643  16.118  67.189  1.00  0.00    -0.227 N  
ATOM     12  H   GLU A   1      -8.935  15.859  66.503  1.00  0.00     0.000 HD 
BRANCH  11  13
ATOM     13  CA  GLU A   1      -9.705  17.496  67.712  1.00  0.00    -0.274 C  
ATOM     14  OXT GLU A   1     -10.969  19.471  67.009  1.00  0.00    -0.477 OA 
ATOM     15  C   GLU A   1     -10.506  18.374  66.732  1.00  0.00    -0.385 C  
ATOM     16  O   GLU A   1     -10.504  17.889  65.464  1.00  0.00    -0.650 OA 
BRANCH  13  17
ATOM     17  CB  GLU A   1      -8.288  18.064  67.884  1.00  0.00    -0.249 C  
BRANCH  17  18
ATOM     18  CG  GLU A   1      -7.369  17.754  66.699  1.00  0.00    -0.262 C  
ATOM     19  OE2 GLU A   1      -7.461  20.105  66.113  1.00  0.00    -0.292 OA 
ATOM     20  OE1 GLU A   1      -6.204  18.705  64.860  1.00  0.00    -0.391 OA 
ATOM     21  CD  GLU A   1      -7.041  18.981  65.887  1.00  0.00    -0.263 C  
ENDBRANCH  17  18
ENDBRANCH  13  17
ENDBRANCH  11  13
ENDBRANCH   4   9
ENDBRANCH   2   3
BRANCH   2  22
HETATM   22  C   UNK A   0      -8.818   8.952  66.035  1.00  0.00    -0.172 C  
BRANCH  22  23
HETATM   23  C   UNK A   0      -9.653   8.291  67.114  1.00  0.00    -0.180 A  
HETATM   24  N   UNK A   0      -9.535   9.634  71.108  1.00  0.00    -0.327 NA 
HETATM   25  C   UNK A   0     -11.196   7.118  69.066  1.00  0.00     0.070 A  
HETATM   26  C   UNK A   0     -10.569   7.290  66.844  1.00  0.00    -0.305 A  
HETATM   27  N   UNK A   0     -11.912   6.498  70.000  1.00  0.00    -0.567 NA 
HETATM   28  C   UNK A   0     -10.277   8.519  70.688  1.00  0.00    -0.197 A  
HETATM   29  C   UNK A   0     -10.308   8.162  69.344  1.00  0.00    -0.218 A  
HETATM   30  N   UNK A   0     -11.336   6.704  67.800  1.00  0.00    -0.663 NA 
HETATM   31  C   UNK A   0     -11.757   6.891  71.258  1.00  0.00    -0.328 A  
HETATM   32  H1  UNK A   0      -8.992  10.098  70.379  1.00  0.00     0.000 HD 
HETATM   33  H1  UNK A   0     -12.335   6.515  73.199  1.00  0.00     0.000 HD 
HETATM   34  N   UNK A   0     -12.455   6.213  72.233  1.00  0.00    -0.479 NA 
HETATM   35  N   UNK A   0     -10.990   7.909  71.645  1.00  0.00    -0.233 NA 
HETATM   36  N   UNK A   0      -9.529   8.752  68.381  1.00  0.00    -0.140 NA 
HETATM   37  H2  UNK A   0      -8.927   9.377  71.886  1.00  0.00     0.000 HD 
HETATM   38  H2  UNK A   0     -13.071   5.435  71.995  1.00  0.00     0.000 HD 
ENDBRANCH  22  23
ENDBRANCH   2  22
TORSDOF 7
ENDMDL
MODEL       46
REMARK 921   NORMALIZED FREE ENERGY PREDICTED BY IDOCK:   -6.62 KCAL/MOL
REMARK 922        TOTAL FREE ENERGY PREDICTED BY IDOCK:  -11.07 KCAL/MOL
REMARK 923 INTER-LIGAND FREE ENERGY PREDICTED BY IDOCK:  -10.10 KCAL/MOL
REMARK 924 INTRA-LIGAND FREE ENERGY PREDICTED BY IDOCK:   -0.97 KCAL/MOL
REMARK 927      BINDING AFFINITY PREDICTED BY RF-SCORE:    0.00 PKD
ROOT
HETATM    1  C   UNK A   0     -10.122  13.273  65.741  1.00  0.00    -0.286 C  
HETATM    2  N   UNK A   0     -10.758  13.088  67.042  1.00  0.00    -0.257 NA 
ENDROOT
BRANCH   2   3
HETATM    3  C   UNK A   0     -10.455  11.960  67.796  1.00  0.00    -0.202 A  
HETATM    4  C   UNK A   0      -9.962   9.856  69.628  1.00  0.00    -0.255 A  
HETATM    5  C   UNK A   0      -9.163  11.699  68.288  1.00  0.00    -0.187 A  
HETATM    6  C   UNK A   0     -11.465  11.057  68.162  1.00  0.00    -0.374 A  
HETATM    7  C   UNK A   0     -11.233  10.027  69.078  1.00  0.00    -0.180 A  
HETATM    8  C   UNK A   0      -8.910  10.651  69.183  1.00  0.00    -0.133 A  
BRANCH   4   9
HETATM    9  C   UNK A   0      -9.728   8.853  70.696  1.00  0.00    -0.212 C  
HETATM   10  O   UNK A   0     -10.177   9.014  71.821  1.00  0.00    -0.328 OA 
ATOM     11  N   GLU A   1      -9.018   7.724  70.307  1.00  0.00    -0.147 N  
ATOM     12  H   GLU A   1      -8.604   7.671  69.376  1.00  0.00     0.000 HD 
BRANCH  11  13
ATOM     13  CA  GLU A   1      -8.868   6.603  71.254  1.00  0.00    -0.133 C  
ATOM     14  OXT GLU A   1      -6.926   5.681  72.424  1.00  0.00    -0.078 OA 
ATOM     15  C   GLU A   1      -7.369   6.340  71.495  1.00  0.00    -0.088 C  
ATOM     16  O   GLU A   1      -6.586   6.769  70.473  1.00  0.00    -0.049 OA 
BRANCH  13  17
ATOM     17  CB  GLU A   1      -9.537   5.339  70.692  1.00  0.00    -0.235 C  
BRANCH  17  18
ATOM     18  CG  GLU A   1     -10.637   5.646  69.671  1.00  0.00    -0.401 C  
ATOM     19  OE2 GLU A   1      -8.922   5.720  67.960  1.00  0.00    -0.113 OA 
ATOM     20  OE1 GLU A   1     -11.080   6.042  67.372  1.00  0.00    -0.302 OA 
ATOM     21  CD  GLU A   1     -10.099   5.803  68.272  1.00  0.00    -0.166 C  
ENDBRANCH  17  18
ENDBRANCH  13  17
ENDBRANCH  11  13
ENDBRANCH   4   9
ENDBRANCH   2   3
BRANCH   2  22
HETATM   22  C   UNK A   0     -11.991  13.846  67.317  1.00  0.00    -0.411 C  
BRANCH  22  23
HETATM   23  C   UNK A   0     -11.997  14.563  68.654  1.00  0.00    -0.285 A  
HETATM   24  N   UNK A   0     -13.639  12.767  72.095  1.00  0.00    -0.514 NA 
HETATM   25  C   UNK A   0     -11.974  15.845  71.088  1.00  0.00    -0.427 A  
HETATM   26  C   UNK A   0     -11.383  15.786  68.850  1.00  0.00    -0.356 A  
HETATM   27  N   UNK A   0     -11.998  16.508  72.240  1.00  0.00    -0.620 NA 
HETATM   28  C   UNK A   0     -13.128  14.074  72.073  1.00  0.00    -0.401 A  
HETATM   29  C   UNK A   0     -12.557  14.586  70.912  1.00  0.00    -0.344 A  
HETATM   30  N   UNK A   0     -11.366  16.428  70.047  1.00  0.00    -0.409 NA 
HETATM   31  C   UNK A   0     -12.622  15.942  73.265  1.00  0.00    -0.527 A  
HETATM   32  H1  UNK A   0     -13.612  12.271  71.204  1.00  0.00     0.000 HD 
HETATM   33  H1  UNK A   0     -13.175  16.217  75.230  1.00  0.00     0.000 HD 
HETATM   34  N   UNK A   0     -12.696  16.653  74.443  1.00  0.00    -0.769 NA 
HETATM   35  N   UNK A   0     -13.163  14.726  73.245  1.00  0.00    -0.566 NA 
HETATM   36  N   UNK A   0     -12.580  13.938  69.703  1.00  0.00    -0.344 NA 
HETATM   37  H2  UNK A   0     -14.588  12.768  72.466  1.00  0.00     0.000 HD 
HETATM   38  H2  UNK A   0     -12.285  17.583  74.524  1.00  0.00     0.000 HD 
ENDBRANCH  22  23
ENDBRANCH   2  22
TORSDOF 7
ENDMDL
MODEL       47
REMARK 921   NORMALIZED FREE ENERGY PREDICTED BY IDOCK:   -6.61 KCAL/MOL
REMARK 922        TOTAL FREE ENERGY PREDICTED BY IDOCK:  -11.07 KCAL/MOL
REMARK 923 INTER-LIGAND FREE ENERGY PREDICTED BY IDOCK:  -10.25 KCAL/MOL
REMARK 924 INTRA-LIGAND FREE ENERGY PREDICTED BY IDOCK:   -0.81 KCAL/MOL
REMARK 927      BINDING AFFINITY PREDICTED BY RF-SCORE:    0.00 PKD
ROOT
HETATM    1  C   UNK A   0     -12.380  12.329  64.468  1.00  0.00    -0.384 C  
HETATM    2  N   UNK A   0     -11.397  12.584  65.518  1.00  0.00    -0.317 NA 
ENDROOT
BRANCH   2   3
HETATM    3  C   UNK A   0     -10.774  13.824  65.583  1.00  0.00    -0.288 A  
HETATM    4  C   UNK A   0      -9.649  16.380  66.061  1.00  0.00    -0.352 A  
HETATM    5  C   UNK A   0     -11.347  14.992  65.049  1.00  0.00    -0.395 A  
HETATM    6  C   UNK A   0      -9.554  13.972  66.262  1.00  0.00    -0.284 A  
HETATM    7  C   UNK A   0      -9.003  15.231  66.516  1.00  0.00    -0.340 A  
HETATM    8  C   UNK A   0     -10.788  16.259  65.269  1.00  0.00    -0.310 A  
BRANCH   4   9
HETATM    9  C   UNK A   0      -9.149  17.727  66.430  1.00  0.00    -0.234 C  
HETATM   10  O   UNK A   0      -9.895  18.565  66.915  1.00  0.00    -0.304 OA 
ATOM     11  N   GLU A   1      -7.790  17.933  66.229  1.00  0.00    -0.270 N  
ATOM     12  H   GLU A   1      -7.226  17.227  65.756  1.00  0.00     0.000 HD 
BRANCH  11  13
ATOM     13  CA  GLU A   1      -7.170  19.183  66.709  1.00  0.00    -0.211 C  
ATOM     14  OXT GLU A   1      -6.298  21.147  65.536  1.00  0.00    -0.215 OA 
ATOM     15  C   GLU A   1      -6.611  19.965  65.505  1.00  0.00    -0.271 C  
ATOM     16  O   GLU A   1      -6.332  19.171  64.441  1.00  0.00    -0.460 OA 
BRANCH  13  17
ATOM     17  CB  GLU A   1      -6.039  18.870  67.700  1.00  0.00    -0.200 C  
BRANCH  17  18
ATOM     18  CG  GLU A   1      -6.477  18.979  69.164  1.00  0.00    -0.315 C  
ATOM     19  OE2 GLU A   1      -5.309  21.101  69.274  1.00  0.00    -0.361 OA 
ATOM     20  OE1 GLU A   1      -6.408  20.352  71.101  1.00  0.00    -0.566 OA 
ATOM     21  CD  GLU A   1      -5.991  20.248  69.818  1.00  0.00    -0.359 C  
ENDBRANCH  17  18
ENDBRANCH  13  17
ENDBRANCH  11  13
ENDBRANCH   4   9
ENDBRANCH   2   3
BRANCH   2  22
HETATM   22  C   UNK A   0     -10.789  11.419  66.185  1.00  0.00    -0.255 C  
BRANCH  22  23
HETATM   23  C   UNK A   0     -11.306  11.165  67.588  1.00  0.00    -0.284 A  
HETATM   24  N   UNK A   0     -11.005   7.362  69.380  1.00  0.00    -0.412 NA 
HETATM   25  C   UNK A   0     -12.209  10.712  70.147  1.00  0.00    -0.320 A  
HETATM   26  C   UNK A   0     -11.807  12.171  68.395  1.00  0.00    -0.303 A  
HETATM   27  N   UNK A   0     -12.702  10.507  71.365  1.00  0.00    -0.405 NA 
HETATM   28  C   UNK A   0     -11.641   8.456  69.988  1.00  0.00     0.196 A  
HETATM   29  C   UNK A   0     -11.660   9.696  69.358  1.00  0.00     0.199 A  
HETATM   30  N   UNK A   0     -12.256  11.958  69.659  1.00  0.00    -0.203 NA 
HETATM   31  C   UNK A   0     -12.678   9.268  71.840  1.00  0.00    -0.394 A  
HETATM   32  H1  UNK A   0     -10.631   7.536  68.447  1.00  0.00     0.000 HD 
HETATM   33  H1  UNK A   0     -13.220   8.092  73.443  1.00  0.00     0.000 HD 
HETATM   34  N   UNK A   0     -13.239   9.045  73.078  1.00  0.00    -0.828 NA 
HETATM   35  N   UNK A   0     -12.131   8.227  71.215  1.00  0.00    -0.288 NA 
HETATM   36  N   UNK A   0     -11.212   9.907  68.079  1.00  0.00    -0.521 NA 
HETATM   37  H2  UNK A   0     -11.632   6.558  69.362  1.00  0.00     0.000 HD 
HETATM   38  H2  UNK A   0     -13.658   9.807  73.612  1.00  0.00     0.000 HD 
ENDBRANCH  22  23
ENDBRANCH   2  22
TORSDOF 7
ENDMDL
MODEL       48
REMARK 921   NORMALIZED FREE ENERGY PREDICTED BY IDOCK:   -6.61 KCAL/MOL
REMARK 922        TOTAL FREE ENERGY PREDICTED BY IDOCK:  -11.06 KCAL/MOL
REMARK 923 INTER-LIGAND FREE ENERGY PREDICTED BY IDOCK:  -10.11 KCAL/MOL
REMARK 924 INTRA-LIGAND FREE ENERGY PREDICTED BY IDOCK:   -0.95 KCAL/MOL
REMARK 927      BINDING AFFINITY PREDICTED BY RF-SCORE:    0.00 PKD
ROOT
HETATM    1  C   UNK A   0     -12.719  13.660  65.060  1.00  0.00    -0.336 C  
HETATM    2  N   UNK A   0     -11.349  13.188  65.233  1.00  0.00    -0.292 NA 
ENDROOT
BRANCH   2   3
HETATM    3  C   UNK A   0     -11.119  11.980  65.881  1.00  0.00    -0.324 A  
HETATM    4  C   UNK A   0     -10.380   9.698  67.388  1.00  0.00    -0.306 A  
HETATM    5  C   UNK A   0     -10.319  10.963  65.331  1.00  0.00    -0.326 A  
HETATM    6  C   UNK A   0     -11.633  11.755  67.168  1.00  0.00    -0.342 A  
HETATM    7  C   UNK A   0     -11.259  10.639  67.923  1.00  0.00    -0.376 A  
HETATM    8  C   UNK A   0      -9.961   9.824  66.066  1.00  0.00    -0.342 A  
BRANCH   4   9
HETATM    9  C   UNK A   0      -9.872   8.579  68.218  1.00  0.00    -0.169 C  
HETATM   10  O   UNK A   0      -8.688   8.495  68.507  1.00  0.00    -0.137 OA 
ATOM     11  N   GLU A   1     -10.837   7.686  68.669  1.00  0.00    -0.414 N  
ATOM     12  H   GLU A   1     -11.800   7.760  68.342  1.00  0.00     0.000 HD 
BRANCH  11  13
ATOM     13  CA  GLU A   1     -10.454   6.631  69.626  1.00  0.00    -0.213 C  
ATOM     14  OXT GLU A   1      -9.480   4.405  69.325  1.00  0.00    -0.148 OA 
ATOM     15  C   GLU A   1     -10.096   5.349  68.851  1.00  0.00    -0.195 C  
ATOM     16  O   GLU A   1     -10.684   5.288  67.629  1.00  0.00    -0.121 OA 
BRANCH  13  17
ATOM     17  CB  GLU A   1     -11.610   6.349  70.598  1.00  0.00    -0.412 C  
BRANCH  17  18
ATOM     18  CG  GLU A   1     -12.442   7.594  70.919  1.00  0.00    -0.121 C  
ATOM     19  OE2 GLU A   1     -11.280   7.729  73.042  1.00  0.00    -0.405 OA 
ATOM     20  OE1 GLU A   1     -12.821   9.300  72.527  1.00  0.00    -0.370 OA 
ATOM     21  CD  GLU A   1     -12.104   8.183  72.265  1.00  0.00    -0.364 C  
ENDBRANCH  17  18
ENDBRANCH  13  17
ENDBRANCH  11  13
ENDBRANCH   4   9
ENDBRANCH   2   3
BRANCH   2  22
HETATM   22  C   UNK A   0     -10.262  14.177  65.114  1.00  0.00    -0.384 C  
BRANCH  22  23
HETATM   23  C   UNK A   0     -10.272  15.245  66.191  1.00  0.00    -0.304 A  
HETATM   24  N   UNK A   0     -10.800  19.316  65.236  1.00  0.00    -0.414 NA 
HETATM   25  C   UNK A   0     -10.327  17.179  68.146  1.00  0.00    -0.350 A  
HETATM   26  C   UNK A   0     -10.212  14.947  67.540  1.00  0.00    -0.233 A  
HETATM   27  N   UNK A   0     -10.295  18.099  69.106  1.00  0.00    -0.417 NA 
HETATM   28  C   UNK A   0     -10.552  18.852  66.538  1.00  0.00    -0.389 A  
HETATM   29  C   UNK A   0     -10.436  17.488  66.787  1.00  0.00    -0.270 A  
HETATM   30  N   UNK A   0     -10.238  15.894  68.514  1.00  0.00    -0.221 NA 
HETATM   31  C   UNK A   0     -10.359  19.373  68.742  1.00  0.00    -0.198 A  
HETATM   32  H1  UNK A   0     -10.821  18.598  64.512  1.00  0.00     0.000 HD 
HETATM   33  H1  UNK A   0     -10.319  21.308  69.449  1.00  0.00     0.000 HD 
HETATM   34  N   UNK A   0     -10.271  20.328  69.730  1.00  0.00    -0.346 NA 
HETATM   35  N   UNK A   0     -10.523  19.796  67.490  1.00  0.00    -0.435 NA 
HETATM   36  N   UNK A   0     -10.404  16.534  65.802  1.00  0.00    -0.438 NA 
HETATM   37  H2  UNK A   0     -10.127  20.041  64.989  1.00  0.00     0.000 HD 
HETATM   38  H2  UNK A   0     -10.160  20.064  70.709  1.00  0.00     0.000 HD 
ENDBRANCH  22  23
ENDBRANCH   2  22
TORSDOF 7
ENDMDL
MODEL       49
REMARK 921   NORMALIZED FREE ENERGY PREDICTED BY IDOCK:   -6.61 KCAL/MOL
REMARK 922        TOTAL FREE ENERGY PREDICTED BY IDOCK:  -11.06 KCAL/MOL
REMARK 923 INTER-LIGAND FREE ENERGY PREDICTED BY IDOCK:  -10.50 KCAL/MOL
REMARK 924 INTRA-LIGAND FREE ENERGY PREDICTED BY IDOCK:   -0.56 KCAL/MOL
REMARK 927      BINDING AFFINITY PREDICTED BY RF-SCORE:    0.00 PKD
ROOT
HETATM    1  C   UNK A   0     -13.852   8.475  71.741  1.00  0.00    -0.413 C  
HETATM    2  N   UNK A   0     -12.538   9.089  71.913  1.00  0.00    -0.354 NA 
ENDROOT
BRANCH   2   3
HETATM    3  C   UNK A   0     -12.202  10.205  71.157  1.00  0.00    -0.389 A  
HETATM    4  C   UNK A   0     -11.816  12.399  69.407  1.00  0.00    -0.365 A  
HETATM    5  C   UNK A   0     -11.243  10.167  70.130  1.00  0.00    -0.377 A  
HETATM    6  C   UNK A   0     -12.874  11.423  71.350  1.00  0.00    -0.502 A  
HETATM    7  C   UNK A   0     -12.700  12.503  70.480  1.00  0.00    -0.059 A  
HETATM    8  C   UNK A   0     -11.036  11.254  69.269  1.00  0.00    -0.314 A  
BRANCH   4   9
HETATM    9  C   UNK A   0     -11.715  13.484  68.401  1.00  0.00    -0.358 C  
HETATM   10  O   UNK A   0     -11.700  14.658  68.740  1.00  0.00    -0.299 OA 
ATOM     11  N   GLU A   1     -11.592  13.064  67.082  1.00  0.00    -0.337 N  
ATOM     12  H   GLU A   1     -11.681  12.076  66.845  1.00  0.00     0.000 HD 
BRANCH  11  13
ATOM     13  CA  GLU A   1     -11.330  14.062  66.027  1.00  0.00    -0.328 C  
ATOM     14  OXT GLU A   1     -12.733  14.987  64.247  1.00  0.00    -0.643 OA 
ATOM     15  C   GLU A   1     -12.519  14.089  65.049  1.00  0.00    -0.425 C  
ATOM     16  O   GLU A   1     -13.222  12.928  65.037  1.00  0.00    -0.765 OA 
BRANCH  13  17
ATOM     17  CB  GLU A   1     -10.039  13.711  65.272  1.00  0.00    -0.297 C  
BRANCH  17  18
ATOM     18  CG  GLU A   1     -10.071  12.315  64.644  1.00  0.00    -0.275 C  
ATOM     19  OE2 GLU A   1      -8.850  11.503  66.574  1.00  0.00    -0.181 OA 
ATOM     20  OE1 GLU A   1      -9.451  10.044  64.957  1.00  0.00    -0.235 OA 
ATOM     21  CD  GLU A   1      -9.391  11.279  65.503  1.00  0.00    -0.221 C  
ENDBRANCH  17  18
ENDBRANCH  13  17
ENDBRANCH  11  13
ENDBRANCH   4   9
ENDBRANCH   2   3
BRANCH   2  22
HETATM   22  C   UNK A   0     -11.478   8.277  72.538  1.00  0.00    -0.384 C  
BRANCH  22  23
HETATM   23  C   UNK A   0     -11.019   7.100  71.698  1.00  0.00    -0.228 A  
HETATM   24  N   UNK A   0     -11.055   7.264  67.487  1.00  0.00    -0.562 NA 
HETATM   25  C   UNK A   0     -10.151   4.980  70.175  1.00  0.00    -0.268 A  
HETATM   26  C   UNK A   0     -10.472   5.956  72.250  1.00  0.00    -0.205 A  
HETATM   27  N   UNK A   0      -9.777   3.922  69.463  1.00  0.00    -0.179 NA 
HETATM   28  C   UNK A   0     -10.694   6.119  68.214  1.00  0.00    -0.290 A  
HETATM   29  C   UNK A   0     -10.659   6.151  69.604  1.00  0.00    -0.284 A  
HETATM   30  N   UNK A   0     -10.040   4.903  71.507  1.00  0.00    -0.192 NA 
HETATM   31  C   UNK A   0      -9.908   3.987  68.145  1.00  0.00     0.008 A  
HETATM   32  H1  UNK A   0     -11.339   8.067  68.048  1.00  0.00     0.000 HD 
HETATM   33  H1  UNK A   0      -9.675   2.922  66.396  1.00  0.00     0.000 HD 
HETATM   34  N   UNK A   0      -9.573   2.871  67.410  1.00  0.00    -0.379 NA 
HETATM   35  N   UNK A   0     -10.321   5.063  67.476  1.00  0.00    -0.132 NA 
HETATM   36  N   UNK A   0     -11.101   7.213  70.352  1.00  0.00    -0.271 NA 
HETATM   37  H2  UNK A   0     -11.784   7.034  66.811  1.00  0.00     0.000 HD 
HETATM   38  H2  UNK A   0      -9.235   2.023  67.864  1.00  0.00     0.000 HD 
ENDBRANCH  22  23
ENDBRANCH   2  22
TORSDOF 7
ENDMDL
MODEL       50
REMARK 921   NORMALIZED FREE ENERGY PREDICTED BY IDOCK:   -6.60 KCAL/MOL
REMARK 922        TOTAL FREE ENERGY PREDICTED BY IDOCK:  -11.05 KCAL/MOL
REMARK 923 INTER-LIGAND FREE ENERGY PREDICTED BY IDOCK:  -10.14 KCAL/MOL
REMARK 924 INTRA-LIGAND FREE ENERGY PREDICTED BY IDOCK:   -0.91 KCAL/MOL
REMARK 927      BINDING AFFINITY PREDICTED BY RF-SCORE:    0.00 PKD
ROOT
HETATM    1  C   UNK A   0     -12.485  13.531  64.794  1.00  0.00    -0.355 C  
HETATM    2  N   UNK A   0     -11.179  13.059  65.246  1.00  0.00    -0.285 NA 
ENDROOT
BRANCH   2   3
HETATM    3  C   UNK A   0     -11.106  11.956  66.090  1.00  0.00    -0.326 A  
HETATM    4  C   UNK A   0     -10.686   9.896  67.988  1.00  0.00    -0.296 A  
HETATM    5  C   UNK A   0     -10.362  10.806  65.774  1.00  0.00    -0.295 A  
HETATM    6  C   UNK A   0     -11.731  11.981  67.347  1.00  0.00    -0.352 A  
HETATM    7  C   UNK A   0     -11.514  10.976  68.294  1.00  0.00    -0.374 A  
HETATM    8  C   UNK A   0     -10.162   9.776  66.704  1.00  0.00    -0.296 A  
BRANCH   4   9
HETATM    9  C   UNK A   0     -10.342   8.889  69.021  1.00  0.00    -0.212 C  
HETATM   10  O   UNK A   0      -9.227   8.391  69.069  1.00  0.00    -0.147 OA 
ATOM     11  N   GLU A   1     -11.350   8.605  69.935  1.00  0.00    -0.452 N  
ATOM     12  H   GLU A   1     -12.284   8.994  69.809  1.00  0.00     0.000 HD 
BRANCH  11  13
ATOM     13  CA  GLU A   1     -11.054   7.735  71.089  1.00  0.00    -0.248 C  
ATOM     14  OXT GLU A   1     -12.344   5.978  72.204  1.00  0.00    -0.254 OA 
ATOM     15  C   GLU A   1     -12.329   6.967  71.485  1.00  0.00    -0.379 C  
ATOM     16  O   GLU A   1     -13.468   7.597  71.098  1.00  0.00    -0.239 OA 
BRANCH  13  17
ATOM     17  CB  GLU A   1     -10.561   8.576  72.277  1.00  0.00    -0.408 C  
BRANCH  17  18
ATOM     18  CG  GLU A   1      -9.139   8.216  72.718  1.00  0.00    -0.328 C  
ATOM     19  OE2 GLU A   1     -10.111   6.756  74.391  1.00  0.00    -0.344 OA 
ATOM     20  OE1 GLU A   1      -7.862   6.887  74.215  1.00  0.00    -0.106 OA 
ATOM     21  CD  GLU A   1      -9.121   7.223  73.852  1.00  0.00    -0.233 C  
ENDBRANCH  17  18
ENDBRANCH  13  17
ENDBRANCH  11  13
ENDBRANCH   4   9
ENDBRANCH   2   3
BRANCH   2  22
HETATM   22  C   UNK A   0     -10.044  13.994  65.158  1.00  0.00    -0.314 C  
BRANCH  22  23
HETATM   23  C   UNK A   0     -10.058  15.091  66.205  1.00  0.00    -0.294 A  
HETATM   24  N   UNK A   0     -10.934  19.085  65.182  1.00  0.00    -0.318 NA 
HETATM   25  C   UNK A   0     -10.122  17.076  68.108  1.00  0.00    -0.308 A  
HETATM   26  C   UNK A   0      -9.889  14.840  67.555  1.00  0.00    -0.218 A  
HETATM   27  N   UNK A   0     -10.093  18.025  69.039  1.00  0.00    -0.356 NA 
HETATM   28  C   UNK A   0     -10.569  18.680  66.475  1.00  0.00    -0.358 A  
HETATM   29  C   UNK A   0     -10.341  17.336  66.752  1.00  0.00    -0.308 A  
HETATM   30  N   UNK A   0      -9.919  15.813  68.503  1.00  0.00    -0.205 NA 
HETATM   31  C   UNK A   0     -10.270  19.280  68.647  1.00  0.00    -0.355 A  
HETATM   32  H1  UNK A   0     -10.952  18.345  64.480  1.00  0.00     0.000 HD 
HETATM   33  H1  UNK A   0     -10.321  21.234  69.299  1.00  0.00     0.000 HD 
HETATM   34  N   UNK A   0     -10.185  20.269  69.601  1.00  0.00    -0.308 NA 
HETATM   35  N   UNK A   0     -10.546  19.652  67.398  1.00  0.00    -0.463 NA 
HETATM   36  N   UNK A   0     -10.306  16.356  65.792  1.00  0.00    -0.408 NA 
HETATM   37  H2  UNK A   0     -10.332  19.847  64.871  1.00  0.00     0.000 HD 
HETATM   38  H2  UNK A   0      -9.992  20.044  70.578  1.00  0.00     0.000 HD 
ENDBRANCH  22  23
ENDBRANCH   2  22
TORSDOF 7
ENDMDL
MODEL       51
REMARK 921   NORMALIZED FREE ENERGY PREDICTED BY IDOCK:   -6.60 KCAL/MOL
REMARK 922        TOTAL FREE ENERGY PREDICTED BY IDOCK:  -11.05 KCAL/MOL
REMARK 923 INTER-LIGAND FREE ENERGY PREDICTED BY IDOCK:   -8.93 KCAL/MOL
REMARK 924 INTRA-LIGAND FREE ENERGY PREDICTED BY IDOCK:   -2.12 KCAL/MOL
REMARK 927      BINDING AFFINITY PREDICTED BY RF-SCORE:    0.00 PKD
ROOT
HETATM    1  C   UNK A   0      -9.544  16.307  67.585  1.00  0.00    -0.227 C  
HETATM    2  N   UNK A   0     -10.209  15.042  67.887  1.00  0.00    -0.227 NA 
ENDROOT
BRANCH   2   3
HETATM    3  C   UNK A   0      -9.636  13.850  67.461  1.00  0.00    -0.229 A  
HETATM    4  C   UNK A   0      -8.769  11.252  66.737  1.00  0.00    -0.166 A  
HETATM    5  C   UNK A   0      -8.665  13.163  68.211  1.00  0.00    -0.165 A  
HETATM    6  C   UNK A   0     -10.066  13.240  66.272  1.00  0.00    -0.294 A  
HETATM    7  C   UNK A   0      -9.654  11.951  65.918  1.00  0.00    -0.248 A  
HETATM    8  C   UNK A   0      -8.221  11.883  67.851  1.00  0.00    -0.150 A  
BRANCH   4   9
HETATM    9  C   UNK A   0      -8.422   9.840  66.447  1.00  0.00    -0.124 C  
HETATM   10  O   UNK A   0      -7.651   9.553  65.544  1.00  0.00    -0.100 OA 
ATOM     11  N   GLU A   1      -8.995   8.900  67.296  1.00  0.00    -0.127 N  
ATOM     12  H   GLU A   1      -9.687   9.185  67.988  1.00  0.00     0.000 HD 
BRANCH  11  13
ATOM     13  CA  GLU A   1      -8.590   7.485  67.185  1.00  0.00    -0.121 C  
ATOM     14  OXT GLU A   1      -9.664   5.538  66.163  1.00  0.00    -0.158 OA 
ATOM     15  C   GLU A   1      -9.768   6.663  66.629  1.00  0.00    -0.159 C  
ATOM     16  O   GLU A   1     -10.974   7.241  66.863  1.00  0.00    -0.343 OA 
BRANCH  13  17
ATOM     17  CB  GLU A   1      -8.176   6.941  68.561  1.00  0.00    -0.121 C  
BRANCH  17  18
ATOM     18  CG  GLU A   1      -8.213   8.005  69.663  1.00  0.00    -0.121 C  
ATOM     19  OE2 GLU A   1     -10.459   7.264  70.197  1.00  0.00    -0.208 OA 
ATOM     20  OE1 GLU A   1      -9.527   8.924  71.414  1.00  0.00    -0.235 OA 
ATOM     21  CD  GLU A   1      -9.515   8.003  70.423  1.00  0.00    -0.166 C  
ENDBRANCH  17  18
ENDBRANCH  13  17
ENDBRANCH  11  13
ENDBRANCH   4   9
ENDBRANCH   2   3
BRANCH   2  22
HETATM   22  C   UNK A   0     -11.641  15.087  68.235  1.00  0.00    -0.334 C  
BRANCH  22  23
HETATM   23  C   UNK A   0     -12.057  14.079  69.288  1.00  0.00    -0.338 A  
HETATM   24  N   UNK A   0     -11.498   9.942  68.705  1.00  0.00    -0.491 NA 
HETATM   25  C   UNK A   0     -12.777  12.251  71.214  1.00  0.00    -0.251 A  
HETATM   26  C   UNK A   0     -12.544  14.450  70.529  1.00  0.00    -0.353 A  
HETATM   27  N   UNK A   0     -13.184  11.386  72.138  1.00  0.00    -0.556 NA 
HETATM   28  C   UNK A   0     -12.135  10.486  69.832  1.00  0.00    -0.245 A  
HETATM   29  C   UNK A   0     -12.242  11.865  69.981  1.00  0.00    -0.217 A  
HETATM   30  N   UNK A   0     -12.903  13.556  71.486  1.00  0.00    -0.361 NA 
HETATM   31  C   UNK A   0     -13.083  10.093  71.860  1.00  0.00    -0.466 A  
HETATM   32  H1  UNK A   0     -11.191  10.619  68.006  1.00  0.00     0.000 HD 
HETATM   33  H1  UNK A   0     -13.477   8.202  72.579  1.00  0.00     0.000 HD 
HETATM   34  N   UNK A   0     -13.555   9.196  72.793  1.00  0.00    -0.823 NA 
HETATM   35  N   UNK A   0     -12.538   9.596  70.751  1.00  0.00    -0.495 NA 
HETATM   36  N   UNK A   0     -11.884  12.766  69.010  1.00  0.00    -0.305 NA 
HETATM   37  H2  UNK A   0     -12.094   9.237  68.272  1.00  0.00     0.000 HD 
HETATM   38  H2  UNK A   0     -13.968   9.516  73.669  1.00  0.00     0.000 HD 
ENDBRANCH  22  23
ENDBRANCH   2  22
TORSDOF 7
ENDMDL
MODEL       52
REMARK 921   NORMALIZED FREE ENERGY PREDICTED BY IDOCK:   -6.60 KCAL/MOL
REMARK 922        TOTAL FREE ENERGY PREDICTED BY IDOCK:  -11.04 KCAL/MOL
REMARK 923 INTER-LIGAND FREE ENERGY PREDICTED BY IDOCK:   -9.64 KCAL/MOL
REMARK 924 INTRA-LIGAND FREE ENERGY PREDICTED BY IDOCK:   -1.41 KCAL/MOL
REMARK 927      BINDING AFFINITY PREDICTED BY RF-SCORE:    0.00 PKD
ROOT
HETATM    1  C   UNK A   0     -12.434  11.606  63.042  1.00  0.00     0.172 C  
HETATM    2  N   UNK A   0     -11.412  11.770  64.071  1.00  0.00    -0.370 NA 
ENDROOT
BRANCH   2   3
HETATM    3  C   UNK A   0     -11.428  12.903  64.876  1.00  0.00    -0.315 A  
HETATM    4  C   UNK A   0     -11.156  15.070  66.680  1.00  0.00    -0.326 A  
HETATM    5  C   UNK A   0     -12.226  13.005  66.029  1.00  0.00    -0.463 A  
HETATM    6  C   UNK A   0     -10.576  13.984  64.599  1.00  0.00    -0.416 A  
HETATM    7  C   UNK A   0     -10.425  15.048  65.493  1.00  0.00    -0.385 A  
HETATM    8  C   UNK A   0     -12.107  14.081  66.919  1.00  0.00    -0.465 A  
BRANCH   4   9
HETATM    9  C   UNK A   0     -10.915  16.121  67.699  1.00  0.00    -0.268 C  
HETATM   10  O   UNK A   0     -11.479  16.089  68.782  1.00  0.00    -0.360 OA 
ATOM     11  N   GLU A   1      -9.983  17.089  67.346  1.00  0.00    -0.270 N  
ATOM     12  H   GLU A   1      -9.594  17.110  66.403  1.00  0.00     0.000 HD 
BRANCH  11  13
ATOM     13  CA  GLU A   1      -9.561  18.085  68.349  1.00  0.00    -0.334 C  
ATOM     14  OXT GLU A   1     -10.435  20.291  68.951  1.00  0.00    -0.284 OA 
ATOM     15  C   GLU A   1     -10.349  19.391  68.128  1.00  0.00    -0.415 C  
ATOM     16  O   GLU A   1     -10.802  19.527  66.857  1.00  0.00    -0.476 OA 
BRANCH  13  17
ATOM     17  CB  GLU A   1      -8.054  18.357  68.227  1.00  0.00    -0.315 C  
BRANCH  17  18
ATOM     18  CG  GLU A   1      -7.491  18.009  66.846  1.00  0.00    -0.235 C  
ATOM     19  OE2 GLU A   1      -7.391  20.385  66.373  1.00  0.00    -0.264 OA 
ATOM     20  OE1 GLU A   1      -6.669  18.919  64.812  1.00  0.00    -0.461 OA 
ATOM     21  CD  GLU A   1      -7.195  19.234  66.018  1.00  0.00    -0.275 C  
ENDBRANCH  17  18
ENDBRANCH  13  17
ENDBRANCH  11  13
ENDBRANCH   4   9
ENDBRANCH   2   3
BRANCH   2  22
HETATM   22  C   UNK A   0     -10.176  10.977  63.942  1.00  0.00    -0.364 C  
BRANCH  22  23
HETATM   23  C   UNK A   0      -9.681  10.378  65.245  1.00  0.00    -0.278 A  
HETATM   24  N   UNK A   0     -11.308   6.802  66.771  1.00  0.00    -0.739 NA 
HETATM   25  C   UNK A   0      -8.759   9.271  67.588  1.00  0.00    -0.116 A  
HETATM   26  C   UNK A   0      -8.613  10.901  65.951  1.00  0.00    -0.176 A  
HETATM   27  N   UNK A   0      -8.332   8.786  68.750  1.00  0.00    -0.123 NA 
HETATM   28  C   UNK A   0     -10.337   7.560  67.444  1.00  0.00    -0.276 A  
HETATM   29  C   UNK A   0      -9.809   8.706  66.858  1.00  0.00    -0.238 A  
HETATM   30  N   UNK A   0      -8.150  10.363  67.109  1.00  0.00    -0.114 NA 
HETATM   31  C   UNK A   0      -8.950   7.719  69.238  1.00  0.00    -0.139 A  
HETATM   32  H1  UNK A   0     -11.624   7.187  65.881  1.00  0.00     0.000 HD 
HETATM   33  H1  UNK A   0      -9.021   6.428  70.842  1.00  0.00     0.000 HD 
HETATM   34  N   UNK A   0      -8.546   7.249  70.468  1.00  0.00    -0.142 NA 
HETATM   35  N   UNK A   0      -9.921   7.054  68.614  1.00  0.00    -0.152 NA 
HETATM   36  N   UNK A   0     -10.282   9.251  65.691  1.00  0.00    -0.255 NA 
HETATM   37  H2  UNK A   0     -12.106   6.634  67.383  1.00  0.00     0.000 HD 
HETATM   38  H2  UNK A   0      -7.795   7.706  70.986  1.00  0.00     0.000 HD 
ENDBRANCH  22  23
ENDBRANCH   2  22
TORSDOF 7
ENDMDL
MODEL       53
REMARK 921   NORMALIZED FREE ENERGY PREDICTED BY IDOCK:   -6.58 KCAL/MOL
REMARK 922        TOTAL FREE ENERGY PREDICTED BY IDOCK:  -11.03 KCAL/MOL
REMARK 923 INTER-LIGAND FREE ENERGY PREDICTED BY IDOCK:  -10.02 KCAL/MOL
REMARK 924 INTRA-LIGAND FREE ENERGY PREDICTED BY IDOCK:   -1.01 KCAL/MOL
REMARK 927      BINDING AFFINITY PREDICTED BY RF-SCORE:    0.00 PKD
ROOT
HETATM    1  C   UNK A   0     -12.504  12.875  70.676  1.00  0.00    -0.252 C  
HETATM    2  N   UNK A   0     -11.561  12.610  69.593  1.00  0.00    -0.432 NA 
ENDROOT
BRANCH   2   3
HETATM    3  C   UNK A   0     -10.939  13.675  68.952  1.00  0.00    -0.249 A  
HETATM    4  C   UNK A   0      -9.821  15.710  67.330  1.00  0.00    -0.225 A  
HETATM    5  C   UNK A   0      -9.593  13.637  68.547  1.00  0.00    -0.165 A  
HETATM    6  C   UNK A   0     -11.668  14.826  68.616  1.00  0.00    -0.356 A  
HETATM    7  C   UNK A   0     -11.128  15.826  67.803  1.00  0.00    -0.313 A  
HETATM    8  C   UNK A   0      -9.029  14.647  67.756  1.00  0.00    -0.181 A  
BRANCH   4   9
HETATM    9  C   UNK A   0      -9.275  16.694  66.364  1.00  0.00    -0.287 C  
HETATM   10  O   UNK A   0      -9.897  17.001  65.358  1.00  0.00    -0.531 OA 
ATOM     11  N   GLU A   1      -8.054  17.258  66.713  1.00  0.00    -0.227 N  
ATOM     12  H   GLU A   1      -7.542  16.915  67.526  1.00  0.00     0.000 HD 
BRANCH  11  13
ATOM     13  CA  GLU A   1      -7.505  18.357  65.896  1.00  0.00    -0.173 C  
ATOM     14  OXT GLU A   1      -5.282  18.763  64.956  1.00  0.00    -0.152 OA 
ATOM     15  C   GLU A   1      -5.978  18.190  65.783  1.00  0.00    -0.228 C  
ATOM     16  O   GLU A   1      -5.446  17.475  66.806  1.00  0.00    -0.134 OA 
BRANCH  13  17
ATOM     17  CB  GLU A   1      -7.837  19.713  66.537  1.00  0.00    -0.311 C  
BRANCH  17  18
ATOM     18  CG  GLU A   1      -8.267  19.595  68.003  1.00  0.00    -0.347 C  
ATOM     19  OE2 GLU A   1     -10.553  19.957  67.282  1.00  0.00    -0.430 OA 
ATOM     20  OE1 GLU A   1     -10.131  19.609  69.474  1.00  0.00    -0.326 OA 
ATOM     21  CD  GLU A   1      -9.757  19.745  68.182  1.00  0.00    -0.398 C  
ENDBRANCH  17  18
ENDBRANCH  13  17
ENDBRANCH  11  13
ENDBRANCH   4   9
ENDBRANCH   2   3
BRANCH   2  22
HETATM   22  C   UNK A   0     -11.626  11.292  68.935  1.00  0.00    -0.319 C  
BRANCH  22  23
HETATM   23  C   UNK A   0     -11.325  10.123  69.853  1.00  0.00    -0.275 A  
HETATM   24  N   UNK A   0     -14.378   7.540  71.186  1.00  0.00    -0.647 NA 
HETATM   25  C   UNK A   0     -10.775   7.979  71.487  1.00  0.00    -0.227 A  
HETATM   26  C   UNK A   0     -10.038   9.773  70.223  1.00  0.00    -0.266 A  
HETATM   27  N   UNK A   0     -10.490   6.982  72.320  1.00  0.00    -0.204 NA 
HETATM   28  C   UNK A   0     -13.040   7.437  71.601  1.00  0.00    -0.364 A  
HETATM   29  C   UNK A   0     -12.076   8.295  71.082  1.00  0.00    -0.252 A  
HETATM   30  N   UNK A   0      -9.756   8.717  71.029  1.00  0.00    -0.192 NA 
HETATM   31  C   UNK A   0     -11.501   6.266  72.794  1.00  0.00    -0.164 A  
HETATM   32  H1  UNK A   0     -14.580   8.309  70.547  1.00  0.00     0.000 HD 
HETATM   33  H1  UNK A   0     -11.990   4.718  74.064  1.00  0.00     0.000 HD 
HETATM   34  N   UNK A   0     -11.212   5.269  73.700  1.00  0.00    -0.449 NA 
HETATM   35  N   UNK A   0     -12.775   6.426  72.441  1.00  0.00    -0.533 NA 
HETATM   36  N   UNK A   0     -12.364   9.364  70.272  1.00  0.00    -0.412 NA 
HETATM   37  H2  UNK A   0     -14.993   7.589  71.998  1.00  0.00     0.000 HD 
HETATM   38  H2  UNK A   0     -10.253   5.088  73.996  1.00  0.00     0.000 HD 
ENDBRANCH  22  23
ENDBRANCH   2  22
TORSDOF 7
ENDMDL
MODEL       54
REMARK 921   NORMALIZED FREE ENERGY PREDICTED BY IDOCK:   -6.58 KCAL/MOL
REMARK 922        TOTAL FREE ENERGY PREDICTED BY IDOCK:  -11.02 KCAL/MOL
REMARK 923 INTER-LIGAND FREE ENERGY PREDICTED BY IDOCK:  -10.34 KCAL/MOL
REMARK 924 INTRA-LIGAND FREE ENERGY PREDICTED BY IDOCK:   -0.68 KCAL/MOL
REMARK 927      BINDING AFFINITY PREDICTED BY RF-SCORE:    0.00 PKD
ROOT
HETATM    1  C   UNK A   0     -12.401  11.529  70.109  1.00  0.00    -0.245 C  
HETATM    2  N   UNK A   0     -11.692  10.302  69.760  1.00  0.00    -0.401 NA 
ENDROOT
BRANCH   2   3
HETATM    3  C   UNK A   0     -11.340   9.407  70.764  1.00  0.00    -0.300 A  
HETATM    4  C   UNK A   0     -10.512   7.356  72.534  1.00  0.00    -0.280 A  
HETATM    5  C   UNK A   0     -12.265   8.531  71.360  1.00  0.00    -0.343 A  
HETATM    6  C   UNK A   0     -10.004   9.295  71.180  1.00  0.00    -0.356 A  
HETATM    7  C   UNK A   0      -9.587   8.275  72.040  1.00  0.00    -0.316 A  
HETATM    8  C   UNK A   0     -11.864   7.523  72.247  1.00  0.00    -0.331 A  
BRANCH   4   9
HETATM    9  C   UNK A   0     -10.069   6.194  73.342  1.00  0.00    -0.198 C  
HETATM   10  O   UNK A   0     -10.469   6.031  74.485  1.00  0.00    -0.258 OA 
ATOM     11  N   GLU A   1      -9.223   5.305  72.691  1.00  0.00    -0.135 N  
ATOM     12  H   GLU A   1      -8.862   5.523  71.762  1.00  0.00     0.000 HD 
BRANCH  11  13
ATOM     13  CA  GLU A   1      -8.852   4.041  73.356  1.00  0.00    -0.097 C  
ATOM     14  OXT GLU A   1      -6.719   3.183  74.196  1.00  0.00    -0.032 OA 
ATOM     15  C   GLU A   1      -7.317   3.955  73.460  1.00  0.00    -0.069 C  
ATOM     16  O   GLU A   1      -6.680   4.700  72.522  1.00  0.00    -0.047 OA 
BRANCH  13  17
ATOM     17  CB  GLU A   1      -9.391   2.843  72.560  1.00  0.00    -0.152 C  
BRANCH  17  18
ATOM     18  CG  GLU A   1      -9.761   3.199  71.117  1.00  0.00    -0.198 C  
ATOM     19  OE2 GLU A   1      -7.693   2.149  70.409  1.00  0.00    -0.042 OA 
ATOM     20  OE1 GLU A   1      -9.077   3.021  68.850  1.00  0.00    -0.120 OA 
ATOM     21  CD  GLU A   1      -8.728   2.731  70.124  1.00  0.00    -0.068 C  
ENDBRANCH  17  18
ENDBRANCH  13  17
ENDBRANCH  11  13
ENDBRANCH   4   9
ENDBRANCH   2   3
BRANCH   2  22
HETATM   22  C   UNK A   0     -11.003  10.254  68.458  1.00  0.00    -0.247 C  
BRANCH  22  23
HETATM   23  C   UNK A   0     -11.000  11.572  67.707  1.00  0.00    -0.236 A  
HETATM   24  N   UNK A   0     -13.323  12.118  64.232  1.00  0.00    -0.647 NA 
HETATM   25  C   UNK A   0     -11.026  13.972  66.364  1.00  0.00    -0.308 A  
HETATM   26  C   UNK A   0     -10.328  12.692  68.162  1.00  0.00    -0.234 A  
HETATM   27  N   UNK A   0     -10.978  15.126  65.704  1.00  0.00    -0.345 NA 
HETATM   28  C   UNK A   0     -12.448  13.091  64.739  1.00  0.00    -0.427 A  
HETATM   29  C   UNK A   0     -11.748  12.861  65.919  1.00  0.00    -0.399 A  
HETATM   30  N   UNK A   0     -10.334  13.882  67.507  1.00  0.00    -0.244 NA 
HETATM   31  C   UNK A   0     -11.643  15.209  64.559  1.00  0.00    -0.329 A  
HETATM   32  H1  UNK A   0     -13.348  11.239  64.751  1.00  0.00     0.000 HD 
HETATM   33  H1  UNK A   0     -12.062  16.448  62.966  1.00  0.00     0.000 HD 
HETATM   34  N   UNK A   0     -11.550  16.384  63.847  1.00  0.00    -1.602 NA 
HETATM   35  N   UNK A   0     -12.414  14.246  64.058  1.00  0.00    -0.863 NA 
HETATM   36  N   UNK A   0     -11.739  11.656  66.576  1.00  0.00    -0.471 NA 
HETATM   37  H2  UNK A   0     -13.116  11.938  63.250  1.00  0.00     0.000 HD 
HETATM   38  H2  UNK A   0     -10.988  17.164  64.188  1.00  0.00     0.000 HD 
ENDBRANCH  22  23
ENDBRANCH   2  22
TORSDOF 7
ENDMDL
MODEL       55
REMARK 921   NORMALIZED FREE ENERGY PREDICTED BY IDOCK:   -6.54 KCAL/MOL
REMARK 922        TOTAL FREE ENERGY PREDICTED BY IDOCK:  -10.97 KCAL/MOL
REMARK 923 INTER-LIGAND FREE ENERGY PREDICTED BY IDOCK:   -9.81 KCAL/MOL
REMARK 924 INTRA-LIGAND FREE ENERGY PREDICTED BY IDOCK:   -1.16 KCAL/MOL
REMARK 927      BINDING AFFINITY PREDICTED BY RF-SCORE:    0.00 PKD
ROOT
HETATM    1  C   UNK A   0     -10.625  11.369  64.041  1.00  0.00    -0.383 C  
HETATM    2  N   UNK A   0     -11.151  11.845  65.317  1.00  0.00    -0.306 NA 
ENDROOT
BRANCH   2   3
HETATM    3  C   UNK A   0     -10.870  11.136  66.479  1.00  0.00    -0.245 A  
HETATM    4  C   UNK A   0     -10.580   9.468  68.750  1.00  0.00    -0.240 A  
HETATM    5  C   UNK A   0     -11.361  11.517  67.741  1.00  0.00    -0.364 A  
HETATM    6  C   UNK A   0     -10.125   9.947  66.424  1.00  0.00    -0.308 A  
HETATM    7  C   UNK A   0      -9.992   9.112  67.537  1.00  0.00    -0.258 A  
HETATM    8  C   UNK A   0     -11.209  10.704  68.872  1.00  0.00    -0.333 A  
BRANCH   4   9
HETATM    9  C   UNK A   0     -10.560   8.535  69.904  1.00  0.00    -0.228 C  
HETATM   10  O   UNK A   0     -11.470   8.521  70.719  1.00  0.00    -0.269 OA 
ATOM     11  N   GLU A   1      -9.474   7.669  69.951  1.00  0.00    -0.161 N  
ATOM     12  H   GLU A   1      -8.706   7.769  69.287  1.00  0.00     0.000 HD 
BRANCH  11  13
ATOM     13  CA  GLU A   1      -9.443   6.603  70.970  1.00  0.00    -0.164 C  
ATOM     14  OXT GLU A   1      -7.603   5.503  72.151  1.00  0.00    -0.096 OA 
ATOM     15  C   GLU A   1      -7.986   6.154  71.190  1.00  0.00    -0.116 C  
ATOM     16  O   GLU A   1      -7.189   6.402  70.120  1.00  0.00    -0.078 OA 
BRANCH  13  17
ATOM     17  CB  GLU A   1     -10.296   5.409  70.516  1.00  0.00    -0.344 C  
BRANCH  17  18
ATOM     18  CG  GLU A   1     -10.328   5.238  68.994  1.00  0.00    -0.246 C  
ATOM     19  OE2 GLU A   1      -8.819   3.358  69.251  1.00  0.00    -0.082 OA 
ATOM     20  OE1 GLU A   1      -9.540   3.918  67.184  1.00  0.00    -0.196 OA 
ATOM     21  CD  GLU A   1      -9.482   4.081  68.526  1.00  0.00    -0.151 C  
ENDBRANCH  17  18
ENDBRANCH  13  17
ENDBRANCH  11  13
ENDBRANCH   4   9
ENDBRANCH   2   3
BRANCH   2  22
HETATM   22  C   UNK A   0     -12.291  12.779  65.283  1.00  0.00    -0.488 C  
BRANCH  22  23
HETATM   23  C   UNK A   0     -11.896  14.240  65.202  1.00  0.00    -0.384 A  
HETATM   24  N   UNK A   0     -10.144  16.224  68.483  1.00  0.00    -0.230 NA 
HETATM   25  C   UNK A   0     -11.144  16.882  65.044  1.00  0.00     0.009 A  
HETATM   26  C   UNK A   0     -11.989  14.977  64.035  1.00  0.00    -0.058 A  
HETATM   27  N   UNK A   0     -10.840  18.174  64.958  1.00  0.00    -0.529 NA 
HETATM   28  C   UNK A   0     -10.469  16.863  67.276  1.00  0.00    -0.301 A  
HETATM   29  C   UNK A   0     -11.002  16.134  66.217  1.00  0.00    -0.031 A  
HETATM   30  N   UNK A   0     -11.620  16.281  63.946  1.00  0.00    -1.573 NA 
HETATM   31  C   UNK A   0     -10.391  18.775  66.051  1.00  0.00    -0.422 A  
HETATM   32  H1  UNK A   0     -10.383  15.233  68.532  1.00  0.00     0.000 HD 
HETATM   33  H1  UNK A   0      -9.783  20.588  66.819  1.00  0.00     0.000 HD 
HETATM   34  N   UNK A   0     -10.128  20.126  65.978  1.00  0.00    -0.560 NA 
HETATM   35  N   UNK A   0     -10.155  18.164  67.210  1.00  0.00    -0.330 NA 
HETATM   36  N   UNK A   0     -11.378  14.818  66.311  1.00  0.00    -0.345 NA 
HETATM   37  H2  UNK A   0     -10.561  16.724  69.267  1.00  0.00     0.000 HD 
HETATM   38  H2  UNK A   0     -10.274  20.645  65.112  1.00  0.00     0.000 HD 
ENDBRANCH  22  23
ENDBRANCH   2  22
TORSDOF 7
ENDMDL
MODEL       56
REMARK 921   NORMALIZED FREE ENERGY PREDICTED BY IDOCK:   -6.52 KCAL/MOL
REMARK 922        TOTAL FREE ENERGY PREDICTED BY IDOCK:  -10.93 KCAL/MOL
REMARK 923 INTER-LIGAND FREE ENERGY PREDICTED BY IDOCK:   -9.83 KCAL/MOL
REMARK 924 INTRA-LIGAND FREE ENERGY PREDICTED BY IDOCK:   -1.10 KCAL/MOL
REMARK 927      BINDING AFFINITY PREDICTED BY RF-SCORE:    0.00 PKD
ROOT
HETATM    1  C   UNK A   0     -12.998  13.783  65.414  1.00  0.00    -0.312 C  
HETATM    2  N   UNK A   0     -11.736  13.116  65.111  1.00  0.00    -0.322 NA 
ENDROOT
BRANCH   2   3
HETATM    3  C   UNK A   0     -11.370  11.986  65.833  1.00  0.00    -0.337 A  
HETATM    4  C   UNK A   0     -10.359   9.897  67.457  1.00  0.00    -0.289 A  
HETATM    5  C   UNK A   0     -10.525  10.991  65.311  1.00  0.00    -0.316 A  
HETATM    6  C   UNK A   0     -11.785  11.828  67.165  1.00  0.00    -0.267 A  
HETATM    7  C   UNK A   0     -11.277  10.810  67.976  1.00  0.00    -0.372 A  
HETATM    8  C   UNK A   0     -10.032   9.946  66.105  1.00  0.00    -0.331 A  
BRANCH   4   9
HETATM    9  C   UNK A   0      -9.712   8.891  68.335  1.00  0.00    -0.161 C  
HETATM   10  O   UNK A   0      -8.558   8.539  68.145  1.00  0.00    -0.136 OA 
ATOM     11  N   GLU A   1     -10.491   8.434  69.391  1.00  0.00    -0.220 N  
ATOM     12  H   GLU A   1     -11.471   8.706  69.463  1.00  0.00     0.000 HD 
BRANCH  11  13
ATOM     13  CA  GLU A   1      -9.885   7.551  70.406  1.00  0.00    -0.183 C  
ATOM     14  OXT GLU A   1      -9.742   5.115  70.600  1.00  0.00    -0.167 OA 
ATOM     15  C   GLU A   1     -10.297   6.094  70.121  1.00  0.00    -0.212 C  
ATOM     16  O   GLU A   1     -11.453   5.999  69.417  1.00  0.00    -0.372 OA 
BRANCH  13  17
ATOM     17  CB  GLU A   1     -10.350   7.961  71.812  1.00  0.00    -0.260 C  
BRANCH  17  18
ATOM     18  CG  GLU A   1     -11.190   9.241  71.817  1.00  0.00    -0.413 C  
ATOM     19  OE2 GLU A   1     -13.174   7.849  71.868  1.00  0.00    -0.320 OA 
ATOM     20  OE1 GLU A   1     -13.404  10.096  71.895  1.00  0.00    -0.416 OA 
ATOM     21  CD  GLU A   1     -12.671   8.960  71.859  1.00  0.00    -0.376 C  
ENDBRANCH  17  18
ENDBRANCH  13  17
ENDBRANCH  11  13
ENDBRANCH   4   9
ENDBRANCH   2   3
BRANCH   2  22
HETATM   22  C   UNK A   0     -10.713  13.884  64.379  1.00  0.00    -0.268 C  
BRANCH  22  23
HETATM   23  C   UNK A   0     -10.213  15.113  65.112  1.00  0.00    -0.351 A  
HETATM   24  N   UNK A   0      -6.660  15.020  67.378  1.00  0.00    -0.296 NA 
HETATM   25  C   UNK A   0      -9.284  17.353  66.412  1.00  0.00    -0.249 A  
HETATM   26  C   UNK A   0     -10.823  16.350  65.003  1.00  0.00    -0.273 A  
HETATM   27  N   UNK A   0      -8.887  18.435  67.075  1.00  0.00    -0.264 NA 
HETATM   28  C   UNK A   0      -7.498  16.144  67.299  1.00  0.00    -0.185 A  
HETATM   29  C   UNK A   0      -8.631  16.119  66.492  1.00  0.00    -0.306 A  
HETATM   30  N   UNK A   0     -10.373  17.462  65.641  1.00  0.00    -0.624 NA 
HETATM   31  C   UNK A   0      -7.822  18.322  67.858  1.00  0.00    -0.249 A  
HETATM   32  H1  UNK A   0      -6.979  14.199  66.864  1.00  0.00     0.000 HD 
HETATM   33  H1  UNK A   0      -6.624  19.340  69.190  1.00  0.00     0.000 HD 
HETATM   34  N   UNK A   0      -7.442  19.427  68.588  1.00  0.00    -0.338 NA 
HETATM   35  N   UNK A   0      -7.079  17.223  67.975  1.00  0.00    -0.177 NA 
HETATM   36  N   UNK A   0      -9.087  14.993  65.853  1.00  0.00    -0.468 NA 
HETATM   37  H2  UNK A   0      -6.492  14.778  68.354  1.00  0.00     0.000 HD 
HETATM   38  H2  UNK A   0      -7.963  20.303  68.527  1.00  0.00     0.000 HD 
ENDBRANCH  22  23
ENDBRANCH   2  22
TORSDOF 7
ENDMDL
MODEL       57
REMARK 921   NORMALIZED FREE ENERGY PREDICTED BY IDOCK:   -6.49 KCAL/MOL
REMARK 922        TOTAL FREE ENERGY PREDICTED BY IDOCK:  -10.90 KCAL/MOL
REMARK 923 INTER-LIGAND FREE ENERGY PREDICTED BY IDOCK:   -9.46 KCAL/MOL
REMARK 924 INTRA-LIGAND FREE ENERGY PREDICTED BY IDOCK:   -1.43 KCAL/MOL
REMARK 927      BINDING AFFINITY PREDICTED BY RF-SCORE:    0.00 PKD
ROOT
HETATM    1  C   UNK A   0      -7.908   6.966  63.454  1.00  0.00    -0.101 C  
HETATM    2  N   UNK A   0      -8.261   7.333  64.822  1.00  0.00    -0.280 NA 
ENDROOT
BRANCH   2   3
HETATM    3  C   UNK A   0      -8.301   8.676  65.180  1.00  0.00    -0.168 A  
HETATM    4  C   UNK A   0      -8.540  11.297  66.229  1.00  0.00    -0.172 A  
HETATM    5  C   UNK A   0      -9.332   9.541  64.772  1.00  0.00    -0.235 A  
HETATM    6  C   UNK A   0      -7.329   9.212  66.039  1.00  0.00    -0.094 A  
HETATM    7  C   UNK A   0      -7.449  10.498  66.573  1.00  0.00    -0.128 A  
HETATM    8  C   UNK A   0      -9.448  10.844  65.275  1.00  0.00    -0.257 A  
BRANCH   4   9
HETATM    9  C   UNK A   0      -8.752  12.610  66.883  1.00  0.00    -0.175 C  
HETATM   10  O   UNK A   0      -7.821  13.225  67.380  1.00  0.00    -0.164 OA 
ATOM     11  N   GLU A   1     -10.055  13.093  66.841  1.00  0.00    -0.241 N  
ATOM     12  H   GLU A   1     -10.809  12.510  66.477  1.00  0.00     0.000 HD 
BRANCH  11  13
ATOM     13  CA  GLU A   1     -10.336  14.457  67.326  1.00  0.00    -0.260 C  
ATOM     14  OXT GLU A   1     -11.590  15.296  69.254  1.00  0.00    -0.292 OA 
ATOM     15  C   GLU A   1     -11.367  14.386  68.469  1.00  0.00    -0.282 C  
ATOM     16  O   GLU A   1     -12.138  13.270  68.418  1.00  0.00    -0.333 OA 
BRANCH  13  17
ATOM     17  CB  GLU A   1     -10.882  15.326  66.183  1.00  0.00    -0.320 C  
BRANCH  17  18
ATOM     18  CG  GLU A   1     -10.941  14.588  64.842  1.00  0.00    -0.421 C  
ATOM     19  OE2 GLU A   1     -13.294  14.179  65.259  1.00  0.00    -0.715 OA 
ATOM     20  OE1 GLU A   1     -12.370  13.438  63.334  1.00  0.00    -0.728 OA 
ATOM     21  CD  GLU A   1     -12.320  14.062  64.533  1.00  0.00    -0.378 C  
ENDBRANCH  17  18
ENDBRANCH  13  17
ENDBRANCH  11  13
ENDBRANCH   4   9
ENDBRANCH   2   3
BRANCH   2  22
HETATM   22  C   UNK A   0      -8.140   6.298  65.864  1.00  0.00    -0.123 C  
BRANCH  22  23
HETATM   23  C   UNK A   0      -9.186   6.389  66.958  1.00  0.00    -0.129 A  
HETATM   24  N   UNK A   0      -8.138   7.377  70.919  1.00  0.00    -0.104 NA 
HETATM   25  C   UNK A   0     -11.088   6.591  68.935  1.00  0.00    -0.301 A  
HETATM   26  C   UNK A   0     -10.541   6.257  66.710  1.00  0.00    -0.265 A  
HETATM   27  N   UNK A   0     -12.021   6.629  69.882  1.00  0.00    -0.639 NA 
HETATM   28  C   UNK A   0      -9.443   7.042  70.524  1.00  0.00    -0.166 A  
HETATM   29  C   UNK A   0      -9.726   6.773  69.189  1.00  0.00    -0.146 A  
HETATM   30  N   UNK A   0     -11.488   6.355  67.679  1.00  0.00    -0.654 NA 
HETATM   31  C   UNK A   0     -11.624   6.839  71.130  1.00  0.00    -0.329 A  
HETATM   32  H1  UNK A   0      -7.435   7.344  70.180  1.00  0.00     0.000 HD 
HETATM   33  H1  UNK A   0     -12.276   6.986  73.079  1.00  0.00     0.000 HD 
HETATM   34  N   UNK A   0     -12.582   6.824  72.120  1.00  0.00    -0.542 NA 
HETATM   35  N   UNK A   0     -10.367   7.086  71.494  1.00  0.00    -0.203 NA 
HETATM   36  N   UNK A   0      -8.766   6.669  68.213  1.00  0.00    -0.119 NA 
HETATM   37  H2  UNK A   0      -7.849   6.793  71.703  1.00  0.00     0.000 HD 
HETATM   38  H2  UNK A   0     -13.564   6.657  71.900  1.00  0.00     0.000 HD 
ENDBRANCH  22  23
ENDBRANCH   2  22
TORSDOF 7
ENDMDL
MODEL       58
REMARK 921   NORMALIZED FREE ENERGY PREDICTED BY IDOCK:   -6.49 KCAL/MOL
REMARK 922        TOTAL FREE ENERGY PREDICTED BY IDOCK:  -10.89 KCAL/MOL
REMARK 923 INTER-LIGAND FREE ENERGY PREDICTED BY IDOCK:   -9.86 KCAL/MOL
REMARK 924 INTRA-LIGAND FREE ENERGY PREDICTED BY IDOCK:   -1.03 KCAL/MOL
REMARK 927      BINDING AFFINITY PREDICTED BY RF-SCORE:    0.00 PKD
ROOT
HETATM    1  C   UNK A   0     -11.816  15.585  69.813  1.00  0.00    -0.359 C  
HETATM    2  N   UNK A   0     -12.043  14.349  69.071  1.00  0.00    -0.488 NA 
ENDROOT
BRANCH   2   3
HETATM    3  C   UNK A   0     -12.001  13.132  69.742  1.00  0.00    -0.314 A  
HETATM    4  C   UNK A   0     -12.183  10.541  70.872  1.00  0.00    -0.490 A  
HETATM    5  C   UNK A   0     -12.707  12.897  70.936  1.00  0.00    -0.291 A  
HETATM    6  C   UNK A   0     -11.293  12.047  69.202  1.00  0.00    -0.338 A  
HETATM    7  C   UNK A   0     -11.392  10.763  69.745  1.00  0.00    -0.372 A  
HETATM    8  C   UNK A   0     -12.789  11.621  71.508  1.00  0.00    -0.469 A  
BRANCH   4   9
HETATM    9  C   UNK A   0     -12.403   9.166  71.384  1.00  0.00    -0.333 C  
HETATM   10  O   UNK A   0     -13.497   8.817  71.801  1.00  0.00    -0.354 OA 
ATOM     11  N   GLU A   1     -11.304   8.319  71.305  1.00  0.00    -0.259 N  
ATOM     12  H   GLU A   1     -10.395   8.679  71.015  1.00  0.00     0.000 HD 
BRANCH  11  13
ATOM     13  CA  GLU A   1     -11.467   6.892  71.645  1.00  0.00    -0.275 C  
ATOM     14  OXT GLU A   1     -11.082   5.634  73.709  1.00  0.00    -0.167 OA 
ATOM     15  C   GLU A   1     -10.860   6.630  73.036  1.00  0.00    -0.267 C  
ATOM     16  O   GLU A   1      -9.909   7.536  73.378  1.00  0.00    -0.259 OA 
BRANCH  13  17
ATOM     17  CB  GLU A   1     -10.769   6.013  70.595  1.00  0.00    -0.341 C  
BRANCH  17  18
ATOM     18  CG  GLU A   1     -11.309   6.227  69.178  1.00  0.00    -0.358 C  
ATOM     19  OE2 GLU A   1      -9.015   6.271  68.394  1.00  0.00    -0.118 OA 
ATOM     20  OE1 GLU A   1     -10.696   6.486  66.898  1.00  0.00    -0.297 OA 
ATOM     21  CD  GLU A   1     -10.210   6.329  68.151  1.00  0.00    -0.169 C  
ENDBRANCH  17  18
ENDBRANCH  13  17
ENDBRANCH  11  13
ENDBRANCH   4   9
ENDBRANCH   2   3
BRANCH   2  22
HETATM   22  C   UNK A   0     -11.879  14.388  67.607  1.00  0.00    -0.378 C  
BRANCH  22  23
HETATM   23  C   UNK A   0     -10.727  15.252  67.132  1.00  0.00    -0.316 A  
HETATM   24  N   UNK A   0      -6.724  14.199  67.926  1.00  0.00    -0.151 NA 
HETATM   25  C   UNK A   0      -8.635  16.799  66.239  1.00  0.00    -0.305 A  
HETATM   26  C   UNK A   0     -10.908  16.367  66.334  1.00  0.00    -0.065 A  
HETATM   27  N   UNK A   0      -7.645  17.593  65.842  1.00  0.00    -0.527 NA 
HETATM   28  C   UNK A   0      -7.098  15.387  67.278  1.00  0.00    -0.171 A  
HETATM   29  C   UNK A   0      -8.437  15.647  67.006  1.00  0.00    -0.226 A  
HETATM   30  N   UNK A   0      -9.882  17.138  65.888  1.00  0.00    -0.532 NA 
HETATM   31  C   UNK A   0      -6.411  17.272  66.210  1.00  0.00    -0.197 A  
HETATM   32  H1  UNK A   0      -7.495  13.601  68.223  1.00  0.00     0.000 HD 
HETATM   33  H1  UNK A   0      -4.443  17.875  66.130  1.00  0.00     0.000 HD 
HETATM   34  N   UNK A   0      -5.391  18.123  65.847  1.00  0.00    -0.172 NA 
HETATM   35  N   UNK A   0      -6.084  16.173  66.887  1.00  0.00    -0.306 NA 
HETATM   36  N   UNK A   0      -9.471  14.870  67.463  1.00  0.00    -0.198 NA 
HETATM   37  H2  UNK A   0      -6.118  14.408  68.719  1.00  0.00     0.000 HD 
HETATM   38  H2  UNK A   0      -5.578  18.972  65.313  1.00  0.00     0.000 HD 
ENDBRANCH  22  23
ENDBRANCH   2  22
TORSDOF 7
ENDMDL
MODEL       59
REMARK 921   NORMALIZED FREE ENERGY PREDICTED BY IDOCK:   -6.48 KCAL/MOL
REMARK 922        TOTAL FREE ENERGY PREDICTED BY IDOCK:  -10.88 KCAL/MOL
REMARK 923 INTER-LIGAND FREE ENERGY PREDICTED BY IDOCK:   -9.85 KCAL/MOL
REMARK 924 INTRA-LIGAND FREE ENERGY PREDICTED BY IDOCK:   -1.03 KCAL/MOL
REMARK 927      BINDING AFFINITY PREDICTED BY RF-SCORE:    0.00 PKD
ROOT
HETATM    1  C   UNK A   0     -14.031   9.036  71.453  1.00  0.00    -0.212 C  
HETATM    2  N   UNK A   0     -12.780   9.775  71.592  1.00  0.00    -0.388 NA 
ENDROOT
BRANCH   2   3
HETATM    3  C   UNK A   0     -12.706  11.085  71.132  1.00  0.00    -0.419 A  
HETATM    4  C   UNK A   0     -12.203  13.752  70.321  1.00  0.00    -0.429 A  
HETATM    5  C   UNK A   0     -13.167  12.181  71.882  1.00  0.00    -0.474 A  
HETATM    6  C   UNK A   0     -12.091  11.373  69.904  1.00  0.00    -0.404 A  
HETATM    7  C   UNK A   0     -11.825  12.686  69.506  1.00  0.00    -0.376 A  
HETATM    8  C   UNK A   0     -12.935  13.504  71.480  1.00  0.00    -0.440 A  
BRANCH   4   9
HETATM    9  C   UNK A   0     -11.816  15.142  69.979  1.00  0.00    -0.325 C  
HETATM   10  O   UNK A   0     -11.967  16.054  70.779  1.00  0.00    -0.385 OA 
ATOM     11  N   GLU A   1     -11.236  15.308  68.727  1.00  0.00    -0.269 N  
ATOM     12  H   GLU A   1     -11.197  14.528  68.070  1.00  0.00     0.000 HD 
BRANCH  11  13
ATOM     13  CA  GLU A   1     -10.677  16.622  68.357  1.00  0.00    -0.353 C  
ATOM     14  OXT GLU A   1     -10.519  17.805  66.220  1.00  0.00    -0.360 OA 
ATOM     15  C   GLU A   1     -10.656  16.750  66.822  1.00  0.00    -0.203 C  
ATOM     16  O   GLU A   1     -10.628  15.548  66.191  1.00  0.00    -0.298 OA 
BRANCH  13  17
ATOM     17  CB  GLU A   1      -9.253  16.770  68.915  1.00  0.00    -0.234 C  
BRANCH  17  18
ATOM     18  CG  GLU A   1      -8.447  15.469  68.856  1.00  0.00    -0.207 C  
ATOM     19  OE2 GLU A   1      -7.182  16.427  67.023  1.00  0.00    -0.179 OA 
ATOM     20  OE1 GLU A   1      -6.658  14.356  67.760  1.00  0.00    -0.153 OA 
ATOM     21  CD  GLU A   1      -7.386  15.496  67.785  1.00  0.00    -0.156 C  
ENDBRANCH  17  18
ENDBRANCH  13  17
ENDBRANCH  11  13
ENDBRANCH   4   9
ENDBRANCH   2   3
BRANCH   2  22
HETATM   22  C   UNK A   0     -11.545   9.000  71.806  1.00  0.00    -0.374 C  
BRANCH  22  23
HETATM   23  C   UNK A   0     -11.276   7.953  70.742  1.00  0.00    -0.266 A  
HETATM   24  N   UNK A   0     -10.143   9.041  66.831  1.00  0.00    -0.244 NA 
HETATM   25  C   UNK A   0     -10.749   6.053  68.823  1.00  0.00    -0.308 A  
HETATM   26  C   UNK A   0     -11.283   6.595  71.010  1.00  0.00    -0.300 A  
HETATM   27  N   UNK A   0     -10.554   5.116  67.900  1.00  0.00    -0.032 NA 
HETATM   28  C   UNK A   0     -10.367   7.714  67.231  1.00  0.00    -0.297 A  
HETATM   29  C   UNK A   0     -10.692   7.424  68.552  1.00  0.00    -0.098 A  
HETATM   30  N   UNK A   0     -11.025   5.649  70.069  1.00  0.00    -0.305 NA 
HETATM   31  C   UNK A   0     -10.304   5.515  66.660  1.00  0.00    -0.269 A  
HETATM   32  H1  UNK A   0     -10.297   9.747  67.551  1.00  0.00     0.000 HD 
HETATM   33  H1  UNK A   0      -9.965   4.854  64.738  1.00  0.00     0.000 HD 
HETATM   34  N   UNK A   0     -10.156   4.546  65.691  1.00  0.00    -0.232 NA 
HETATM   35  N   UNK A   0     -10.165   6.786  66.285  1.00  0.00    -0.437 NA 
HETATM   36  N   UNK A   0     -10.958   8.381  69.499  1.00  0.00    -0.420 NA 
HETATM   37  H2  UNK A   0     -10.701   9.256  66.005  1.00  0.00     0.000 HD 
HETATM   38  H2  UNK A   0     -10.235   3.556  65.921  1.00  0.00     0.000 HD 
ENDBRANCH  22  23
ENDBRANCH   2  22
TORSDOF 7
ENDMDL
MODEL       60
REMARK 921   NORMALIZED FREE ENERGY PREDICTED BY IDOCK:   -6.47 KCAL/MOL
REMARK 922        TOTAL FREE ENERGY PREDICTED BY IDOCK:  -10.87 KCAL/MOL
REMARK 923 INTER-LIGAND FREE ENERGY PREDICTED BY IDOCK:  -10.16 KCAL/MOL
REMARK 924 INTRA-LIGAND FREE ENERGY PREDICTED BY IDOCK:   -0.71 KCAL/MOL
REMARK 927      BINDING AFFINITY PREDICTED BY RF-SCORE:    0.00 PKD
ROOT
HETATM    1  C   UNK A   0     -11.250  10.295  69.455  1.00  0.00    -0.239 C  
HETATM    2  N   UNK A   0     -12.101  11.305  70.078  1.00  0.00    -0.333 NA 
ENDROOT
BRANCH   2   3
HETATM    3  C   UNK A   0     -11.945  12.641  69.726  1.00  0.00    -0.295 A  
HETATM    4  C   UNK A   0     -11.292  15.341  69.173  1.00  0.00    -0.307 A  
HETATM    5  C   UNK A   0     -12.456  13.696  70.503  1.00  0.00    -0.394 A  
HETATM    6  C   UNK A   0     -11.195  12.995  68.594  1.00  0.00    -0.316 A  
HETATM    7  C   UNK A   0     -10.855  14.324  68.324  1.00  0.00    -0.256 A  
HETATM    8  C   UNK A   0     -12.148  15.035  70.227  1.00  0.00    -0.378 A  
BRANCH   4   9
HETATM    9  C   UNK A   0     -10.835  16.739  68.977  1.00  0.00    -0.291 C  
HETATM   10  O   UNK A   0     -10.583  17.459  69.931  1.00  0.00     0.009 OA 
ATOM     11  N   GLU A   1     -10.674  17.133  67.654  1.00  0.00    -0.336 N  
ATOM     12  H   GLU A   1     -10.966  16.518  66.894  1.00  0.00     0.000 HD 
BRANCH  11  13
ATOM     13  CA  GLU A   1     -10.078  18.449  67.360  1.00  0.00    -0.353 C  
ATOM     14  OXT GLU A   1     -10.481  20.083  65.582  1.00  0.00    -0.458 OA 
ATOM     15  C   GLU A   1     -10.566  18.930  65.980  1.00  0.00    -0.403 C  
ATOM     16  O   GLU A   1     -10.947  17.911  65.169  1.00  0.00    -0.642 OA 
BRANCH  13  17
ATOM     17  CB  GLU A   1      -8.544  18.352  67.367  1.00  0.00    -0.261 C  
BRANCH  17  18
ATOM     18  CG  GLU A   1      -8.022  17.058  66.737  1.00  0.00    -0.274 C  
ATOM     19  OE2 GLU A   1      -7.406  16.314  68.960  1.00  0.00    -0.189 OA 
ATOM     20  OE1 GLU A   1      -7.034  14.948  67.199  1.00  0.00    -0.233 OA 
ATOM     21  CD  GLU A   1      -7.465  16.101  67.760  1.00  0.00    -0.133 C  
ENDBRANCH  17  18
ENDBRANCH  13  17
ENDBRANCH  11  13
ENDBRANCH   4   9
ENDBRANCH   2   3
BRANCH   2  22
HETATM   22  C   UNK A   0     -12.774  10.950  71.340  1.00  0.00    -0.434 C  
BRANCH  22  23
HETATM   23  C   UNK A   0     -12.663   9.485  71.715  1.00  0.00    -0.404 A  
HETATM   24  N   UNK A   0      -9.119   7.905  73.361  1.00  0.00    -0.266 NA 
HETATM   25  C   UNK A   0     -12.473   6.835  72.430  1.00  0.00     0.075 A  
HETATM   26  C   UNK A   0     -13.732   8.610  71.638  1.00  0.00    -0.384 A  
HETATM   27  N   UNK A   0     -12.391   5.539  72.716  1.00  0.00    -0.423 NA 
HETATM   28  C   UNK A   0     -10.245   7.124  73.054  1.00  0.00    -0.251 A  
HETATM   29  C   UNK A   0     -11.399   7.721  72.556  1.00  0.00    -0.374 A  
HETATM   30  N   UNK A   0     -13.649   7.300  71.988  1.00  0.00    -0.548 NA 
HETATM   31  C   UNK A   0     -11.220   5.073  73.131  1.00  0.00    -0.335 A  
HETATM   32  H1  UNK A   0      -9.199   8.897  73.136  1.00  0.00     0.000 HD 
HETATM   33  H1  UNK A   0     -10.218   3.363  73.694  1.00  0.00     0.000 HD 
HETATM   34  N   UNK A   0     -11.118   3.721  73.375  1.00  0.00    -0.224 NA 
HETATM   35  N   UNK A   0     -10.140   5.821  73.350  1.00  0.00    -0.184 NA 
HETATM   36  N   UNK A   0     -11.479   9.044  72.198  1.00  0.00    -0.325 NA 
HETATM   37  H2  UNK A   0      -8.289   7.511  72.918  1.00  0.00     0.000 HD 
HETATM   38  H2  UNK A   0     -11.916   3.100  73.242  1.00  0.00     0.000 HD 
ENDBRANCH  22  23
ENDBRANCH   2  22
TORSDOF 7
ENDMDL
MODEL       61
REMARK 921   NORMALIZED FREE ENERGY PREDICTED BY IDOCK:   -6.46 KCAL/MOL
REMARK 922        TOTAL FREE ENERGY PREDICTED BY IDOCK:  -10.86 KCAL/MOL
REMARK 923 INTER-LIGAND FREE ENERGY PREDICTED BY IDOCK:  -10.06 KCAL/MOL
REMARK 924 INTRA-LIGAND FREE ENERGY PREDICTED BY IDOCK:   -0.80 KCAL/MOL
REMARK 927      BINDING AFFINITY PREDICTED BY RF-SCORE:    0.00 PKD
ROOT
HETATM    1  C   UNK A   0     -13.189   7.270  71.355  1.00  0.00    -0.346 C  
HETATM    2  N   UNK A   0     -11.941   8.003  71.544  1.00  0.00    -0.288 NA 
ENDROOT
BRANCH   2   3
HETATM    3  C   UNK A   0     -11.793   9.260  70.970  1.00  0.00    -0.307 A  
HETATM    4  C   UNK A   0     -11.782  11.729  69.581  1.00  0.00    -0.413 A  
HETATM    5  C   UNK A   0     -10.869   9.522  69.942  1.00  0.00    -0.272 A  
HETATM    6  C   UNK A   0     -12.629  10.320  71.355  1.00  0.00    -0.539 A  
HETATM    7  C   UNK A   0     -12.640  11.535  70.663  1.00  0.00    -0.337 A  
HETATM    8  C   UNK A   0     -10.849  10.747  69.260  1.00  0.00    -0.287 A  
BRANCH   4   9
HETATM    9  C   UNK A   0     -11.870  12.958  68.756  1.00  0.00    -0.315 C  
HETATM   10  O   UNK A   0     -12.100  14.044  69.266  1.00  0.00    -0.333 OA 
ATOM     11  N   GLU A   1     -11.625  12.784  67.399  1.00  0.00    -0.336 N  
ATOM     12  H   GLU A   1     -11.508  11.847  67.013  1.00  0.00     0.000 HD 
BRANCH  11  13
ATOM     13  CA  GLU A   1     -11.537  13.968  66.523  1.00  0.00    -0.374 C  
ATOM     14  OXT GLU A   1     -12.795  14.647  64.536  1.00  0.00    -0.579 OA 
ATOM     15  C   GLU A   1     -12.436  13.754  65.290  1.00  0.00    -0.480 C  
ATOM     16  O   GLU A   1     -12.655  12.443  65.016  1.00  0.00    -0.601 OA 
BRANCH  13  17
ATOM     17  CB  GLU A   1     -10.084  14.192  66.078  1.00  0.00    -0.330 C  
BRANCH  17  18
ATOM     18  CG  GLU A   1      -9.399  15.344  66.821  1.00  0.00    -0.267 C  
ATOM     19  OE2 GLU A   1      -8.672  13.736  68.483  1.00  0.00    -0.173 OA 
ATOM     20  OE1 GLU A   1      -8.067  15.902  68.706  1.00  0.00    -0.164 OA 
ATOM     21  CD  GLU A   1      -8.695  14.885  68.073  1.00  0.00    -0.165 C  
ENDBRANCH  17  18
ENDBRANCH  13  17
ENDBRANCH  11  13
ENDBRANCH   4   9
ENDBRANCH   2   3
BRANCH   2  22
HETATM   22  C   UNK A   0     -10.750   7.236  71.951  1.00  0.00    -0.215 C  
BRANCH  22  23
HETATM   23  C   UNK A   0     -10.314   6.183  70.950  1.00  0.00    -0.215 A  
HETATM   24  N   UNK A   0     -11.311   6.497  66.867  1.00  0.00    -0.817 NA 
HETATM   25  C   UNK A   0      -9.493   4.295  69.126  1.00  0.00    -0.175 A  
HETATM   26  C   UNK A   0      -9.490   5.125  71.288  1.00  0.00    -0.153 A  
HETATM   27  N   UNK A   0      -9.129   3.340  68.275  1.00  0.00    -0.143 NA 
HETATM   28  C   UNK A   0     -10.626   5.401  67.414  1.00  0.00    -0.153 A  
HETATM   29  C   UNK A   0     -10.288   5.386  68.764  1.00  0.00    -0.170 A  
HETATM   30  N   UNK A   0      -9.078   4.187  70.395  1.00  0.00    -0.099 NA 
HETATM   31  C   UNK A   0      -9.559   3.433  67.024  1.00  0.00    -0.079 A  
HETATM   32  H1  UNK A   0     -11.582   7.221  67.533  1.00  0.00     0.000 HD 
HETATM   33  H1  UNK A   0      -9.560   2.487  65.193  1.00  0.00     0.000 HD 
HETATM   34  N   UNK A   0      -9.229   2.416  66.155  1.00  0.00    -0.323 NA 
HETATM   35  N   UNK A   0     -10.270   4.449  66.539  1.00  0.00    -0.336 NA 
HETATM   36  N   UNK A   0     -10.709   6.332  69.664  1.00  0.00    -0.270 NA 
HETATM   37  H2  UNK A   0     -12.127   6.176  66.347  1.00  0.00     0.000 HD 
HETATM   38  H2  UNK A   0      -8.673   1.618  66.464  1.00  0.00     0.000 HD 
ENDBRANCH  22  23
ENDBRANCH   2  22
TORSDOF 7
ENDMDL
MODEL       62
REMARK 921   NORMALIZED FREE ENERGY PREDICTED BY IDOCK:   -6.46 KCAL/MOL
REMARK 922        TOTAL FREE ENERGY PREDICTED BY IDOCK:  -10.85 KCAL/MOL
REMARK 923 INTER-LIGAND FREE ENERGY PREDICTED BY IDOCK:  -10.11 KCAL/MOL
REMARK 924 INTRA-LIGAND FREE ENERGY PREDICTED BY IDOCK:   -0.74 KCAL/MOL
REMARK 927      BINDING AFFINITY PREDICTED BY RF-SCORE:    0.00 PKD
ROOT
HETATM    1  C   UNK A   0      -9.346  12.518  68.344  1.00  0.00    -0.149 C  
HETATM    2  N   UNK A   0     -10.728  12.280  68.749  1.00  0.00    -0.278 NA 
ENDROOT
BRANCH   2   3
HETATM    3  C   UNK A   0     -11.081  11.045  69.280  1.00  0.00    -0.254 A  
HETATM    4  C   UNK A   0     -11.562   8.609  70.643  1.00  0.00    -0.225 A  
HETATM    5  C   UNK A   0     -10.481   9.841  68.870  1.00  0.00    -0.233 A  
HETATM    6  C   UNK A   0     -12.020  10.961  70.320  1.00  0.00    -0.448 A  
HETATM    7  C   UNK A   0     -12.250   9.766  71.007  1.00  0.00    -0.436 A  
HETATM    8  C   UNK A   0     -10.726   8.629  69.530  1.00  0.00    -0.189 A  
BRANCH   4   9
HETATM    9  C   UNK A   0     -11.696   7.365  71.441  1.00  0.00    -0.288 C  
HETATM   10  O   UNK A   0     -12.774   7.027  71.905  1.00  0.00    -0.329 OA 
ATOM     11  N   GLU A   1     -10.535   6.613  71.570  1.00  0.00    -0.214 N  
ATOM     12  H   GLU A   1      -9.646   6.974  71.225  1.00  0.00     0.000 HD 
BRANCH  11  13
ATOM     13  CA  GLU A   1     -10.601   5.286  72.212  1.00  0.00    -0.222 C  
ATOM     14  OXT GLU A   1     -10.719   4.593  74.557  1.00  0.00    -0.333 OA 
ATOM     15  C   GLU A   1     -10.433   5.452  73.735  1.00  0.00    -0.271 C  
ATOM     16  O   GLU A   1      -9.770   6.586  74.074  1.00  0.00    -0.194 OA 
BRANCH  13  17
ATOM     17  CB  GLU A   1      -9.496   4.373  71.660  1.00  0.00    -0.214 C  
BRANCH  17  18
ATOM     18  CG  GLU A   1      -9.417   4.384  70.130  1.00  0.00    -0.245 C  
ATOM     19  OE2 GLU A   1      -9.449   1.960  70.188  1.00  0.00    -0.111 OA 
ATOM     20  OE1 GLU A   1      -9.374   3.014  68.191  1.00  0.00    -0.188 OA 
ATOM     21  CD  GLU A   1      -9.413   2.995  69.543  1.00  0.00    -0.103 C  
ENDBRANCH  17  18
ENDBRANCH  13  17
ENDBRANCH  11  13
ENDBRANCH   4   9
ENDBRANCH   2   3
BRANCH   2  22
HETATM   22  C   UNK A   0     -11.767  13.166  68.194  1.00  0.00    -0.355 C  
BRANCH  22  23
HETATM   23  C   UNK A   0     -11.355  14.622  68.092  1.00  0.00    -0.302 A  
HETATM   24  N   UNK A   0     -11.012  16.547  64.358  1.00  0.00    -1.130 NA 
HETATM   25  C   UNK A   0     -10.645  17.273  67.907  1.00  0.00    -0.384 A  
HETATM   26  C   UNK A   0     -11.169  15.426  69.202  1.00  0.00    -0.287 A  
HETATM   27  N   UNK A   0     -10.247  18.540  67.844  1.00  0.00    -0.366 NA 
HETATM   28  C   UNK A   0     -10.693  17.163  65.579  1.00  0.00    -0.117 A  
HETATM   29  C   UNK A   0     -10.877  16.482  66.778  1.00  0.00    -0.070 A  
HETATM   30  N   UNK A   0     -10.817  16.736  69.122  1.00  0.00    -0.316 NA 
HETATM   31  C   UNK A   0     -10.052  19.066  66.642  1.00  0.00    -0.392 A  
HETATM   32  H1  UNK A   0     -11.316  15.575  64.424  1.00  0.00     0.000 HD 
HETATM   33  H1  UNK A   0      -9.437  20.765  65.651  1.00  0.00     0.000 HD 
HETATM   34  N   UNK A   0      -9.587  20.361  66.575  1.00  0.00    -0.630 NA 
HETATM   35  N   UNK A   0     -10.294  18.439  65.492  1.00  0.00    -0.521 NA 
HETATM   36  N   UNK A   0     -11.226  15.157  66.856  1.00  0.00    -0.321 NA 
HETATM   37  H2  UNK A   0     -10.228  16.624  63.711  1.00  0.00     0.000 HD 
HETATM   38  H2  UNK A   0      -9.399  20.897  67.423  1.00  0.00     0.000 HD 
ENDBRANCH  22  23
ENDBRANCH   2  22
TORSDOF 7
ENDMDL
MODEL       63
REMARK 921   NORMALIZED FREE ENERGY PREDICTED BY IDOCK:   -6.46 KCAL/MOL
REMARK 922        TOTAL FREE ENERGY PREDICTED BY IDOCK:  -10.85 KCAL/MOL
REMARK 923 INTER-LIGAND FREE ENERGY PREDICTED BY IDOCK:   -9.59 KCAL/MOL
REMARK 924 INTRA-LIGAND FREE ENERGY PREDICTED BY IDOCK:   -1.27 KCAL/MOL
REMARK 927      BINDING AFFINITY PREDICTED BY RF-SCORE:    0.00 PKD
ROOT
HETATM    1  C   UNK A   0     -10.790   7.156  72.283  1.00  0.00    -0.232 C  
HETATM    2  N   UNK A   0     -10.983   7.477  70.872  1.00  0.00    -0.249 NA 
ENDROOT
BRANCH   2   3
HETATM    3  C   UNK A   0     -11.084   8.807  70.482  1.00  0.00    -0.246 A  
HETATM    4  C   UNK A   0     -11.568  11.405  69.462  1.00  0.00    -0.399 A  
HETATM    5  C   UNK A   0     -10.263   9.374  69.491  1.00  0.00    -0.219 A  
HETATM    6  C   UNK A   0     -12.080   9.634  71.026  1.00  0.00    -0.421 A  
HETATM    7  C   UNK A   0     -12.335  10.910  70.517  1.00  0.00    -0.463 A  
HETATM    8  C   UNK A   0     -10.488  10.664  68.992  1.00  0.00    -0.237 A  
BRANCH   4   9
HETATM    9  C   UNK A   0     -11.906  12.701  68.824  1.00  0.00    -0.300 C  
HETATM   10  O   UNK A   0     -12.269  13.657  69.492  1.00  0.00    -0.319 OA 
ATOM     11  N   GLU A   1     -11.731  12.749  67.446  1.00  0.00    -0.358 N  
ATOM     12  H   GLU A   1     -11.493  11.904  66.927  1.00  0.00     0.000 HD 
BRANCH  11  13
ATOM     13  CA  GLU A   1     -11.891  14.036  66.742  1.00  0.00    -0.424 C  
ATOM     14  OXT GLU A   1     -13.266  14.711  64.833  1.00  0.00    -0.332 OA 
ATOM     15  C   GLU A   1     -12.728  13.815  65.468  1.00  0.00    -0.488 C  
ATOM     16  O   GLU A   1     -12.671  12.539  65.011  1.00  0.00    -0.649 OA 
BRANCH  13  17
ATOM     17  CB  GLU A   1     -10.517  14.614  66.372  1.00  0.00    -0.296 C  
BRANCH  17  18
ATOM     18  CG  GLU A   1     -10.109  15.802  67.249  1.00  0.00    -0.247 C  
ATOM     19  OE2 GLU A   1      -8.878  14.249  68.645  1.00  0.00    -0.183 OA 
ATOM     20  OE1 GLU A   1      -8.846  16.451  69.153  1.00  0.00    -0.244 OA 
ATOM     21  CD  GLU A   1      -9.227  15.392  68.402  1.00  0.00    -0.192 C  
ENDBRANCH  17  18
ENDBRANCH  13  17
ENDBRANCH  11  13
ENDBRANCH   4   9
ENDBRANCH   2   3
BRANCH   2  22
HETATM   22  C   UNK A   0     -11.490   6.411  69.989  1.00  0.00    -0.428 C  
BRANCH  22  23
HETATM   23  C   UNK A   0     -10.466   5.876  69.007  1.00  0.00    -0.265 A  
HETATM   24  N   UNK A   0     -11.568   4.703  65.111  1.00  0.00    -1.055 NA 
HETATM   25  C   UNK A   0      -8.603   4.942  67.212  1.00  0.00    -0.104 A  
HETATM   26  C   UNK A   0      -9.111   5.836  69.286  1.00  0.00    -0.118 A  
HETATM   27  N   UNK A   0      -7.691   4.443  66.382  1.00  0.00    -0.093 NA 
HETATM   28  C   UNK A   0     -10.267   4.568  65.622  1.00  0.00    -0.253 A  
HETATM   29  C   UNK A   0      -9.964   5.022  66.901  1.00  0.00    -0.212 A  
HETATM   30  N   UNK A   0      -8.183   5.377  68.406  1.00  0.00    -0.094 NA 
HETATM   31  C   UNK A   0      -8.109   3.990  65.207  1.00  0.00    -0.101 A  
HETATM   32  H1  UNK A   0     -12.255   5.088  65.760  1.00  0.00     0.000 HD 
HETATM   33  H1  UNK A   0      -7.496   3.073  63.466  1.00  0.00     0.000 HD 
HETATM   34  N   UNK A   0      -7.174   3.422  64.369  1.00  0.00    -0.057 NA 
HETATM   35  N   UNK A   0      -9.364   4.063  64.769  1.00  0.00    -0.152 NA 
HETATM   36  N   UNK A   0     -10.904   5.480  67.789  1.00  0.00    -0.154 NA 
HETATM   37  H2  UNK A   0     -11.895   3.809  64.746  1.00  0.00     0.000 HD 
HETATM   38  H2  UNK A   0      -6.194   3.353  64.643  1.00  0.00     0.000 HD 
ENDBRANCH  22  23
ENDBRANCH   2  22
TORSDOF 7
ENDMDL
MODEL       64
REMARK 921   NORMALIZED FREE ENERGY PREDICTED BY IDOCK:   -6.43 KCAL/MOL
REMARK 922        TOTAL FREE ENERGY PREDICTED BY IDOCK:  -10.81 KCAL/MOL
REMARK 923 INTER-LIGAND FREE ENERGY PREDICTED BY IDOCK:   -9.96 KCAL/MOL
REMARK 924 INTRA-LIGAND FREE ENERGY PREDICTED BY IDOCK:   -0.86 KCAL/MOL
REMARK 927      BINDING AFFINITY PREDICTED BY RF-SCORE:    0.00 PKD
ROOT
HETATM    1  C   UNK A   0      -7.527  10.962  67.833  1.00  0.00    -0.090 C  
HETATM    2  N   UNK A   0      -8.451  11.913  67.224  1.00  0.00    -0.164 NA 
ENDROOT
BRANCH   2   3
HETATM    3  C   UNK A   0      -8.150  13.270  67.250  1.00  0.00    -0.142 A  
HETATM    4  C   UNK A   0      -7.442  15.996  66.943  1.00  0.00    -0.253 A  
HETATM    5  C   UNK A   0      -6.918  13.767  67.710  1.00  0.00    -0.178 A  
HETATM    6  C   UNK A   0      -9.060  14.210  66.741  1.00  0.00    -0.266 A  
HETATM    7  C   UNK A   0      -8.711  15.553  66.571  1.00  0.00    -0.340 A  
HETATM    8  C   UNK A   0      -6.566  15.117  67.574  1.00  0.00    -0.167 A  
BRANCH   4   9
HETATM    9  C   UNK A   0      -7.009  17.384  66.652  1.00  0.00    -0.233 C  
HETATM   10  O   UNK A   0      -6.924  17.790  65.503  1.00  0.00    -0.415 OA 
ATOM     11  N   GLU A   1      -6.764  18.177  67.767  1.00  0.00    -0.201 N  
ATOM     12  H   GLU A   1      -6.781  17.771  68.702  1.00  0.00     0.000 HD 
BRANCH  11  13
ATOM     13  CA  GLU A   1      -6.480  19.614  67.583  1.00  0.00    -0.213 C  
ATOM     14  OXT GLU A   1      -5.306  21.253  68.971  1.00  0.00    -0.313 OA 
ATOM     15  C   GLU A   1      -5.896  20.185  68.889  1.00  0.00    -0.284 C  
ATOM     16  O   GLU A   1      -6.250  19.469  69.986  1.00  0.00    -0.281 OA 
BRANCH  13  17
ATOM     17  CB  GLU A   1      -7.767  20.367  67.212  1.00  0.00    -0.372 C  
BRANCH  17  18
ATOM     18  CG  GLU A   1      -9.021  19.764  67.851  1.00  0.00    -0.390 C  
ATOM     19  OE2 GLU A   1     -10.164  20.100  65.739  1.00  0.00    -0.448 OA 
ATOM     20  OE1 GLU A   1     -11.279  19.141  67.455  1.00  0.00    -0.313 OA 
ATOM     21  CD  GLU A   1     -10.184  19.703  66.893  1.00  0.00    -0.442 C  
ENDBRANCH  17  18
ENDBRANCH  13  17
ENDBRANCH  11  13
ENDBRANCH   4   9
ENDBRANCH   2   3
BRANCH   2  22
HETATM   22  C   UNK A   0      -9.839  11.472  66.997  1.00  0.00    -0.192 C  
BRANCH  22  23
HETATM   23  C   UNK A   0     -10.623  11.202  68.267  1.00  0.00    -0.190 A  
HETATM   24  N   UNK A   0     -11.359   7.270  69.595  1.00  0.00    -0.480 NA 
HETATM   25  C   UNK A   0     -12.011  10.712  70.591  1.00  0.00    -0.367 A  
HETATM   26  C   UNK A   0     -11.050  12.211  69.111  1.00  0.00    -0.205 A  
HETATM   27  N   UNK A   0     -12.731  10.502  71.689  1.00  0.00    -0.436 NA 
HETATM   28  C   UNK A   0     -11.866   8.412  70.236  1.00  0.00     0.198 A  
HETATM   29  C   UNK A   0     -11.543   9.682  69.769  1.00  0.00     0.025 A  
HETATM   30  N   UNK A   0     -11.736  11.980  70.261  1.00  0.00    -0.530 NA 
HETATM   31  C   UNK A   0     -13.024   9.247  72.004  1.00  0.00    -0.425 A  
HETATM   32  H1  UNK A   0     -10.808   7.448  68.755  1.00  0.00     0.000 HD 
HETATM   33  H1  UNK A   0     -14.042   8.067  73.351  1.00  0.00     0.000 HD 
HETATM   34  N   UNK A   0     -13.817   9.032  73.110  1.00  0.00    -1.177 NA 
HETATM   35  N   UNK A   0     -12.590   8.178  71.340  1.00  0.00    -0.379 NA 
HETATM   36  N   UNK A   0     -10.854   9.913  68.605  1.00  0.00    -0.297 NA 
HETATM   37  H2  UNK A   0     -12.116   6.621  69.385  1.00  0.00     0.000 HD 
HETATM   38  H2  UNK A   0     -14.166   9.811  73.668  1.00  0.00     0.000 HD 
ENDBRANCH  22  23
ENDBRANCH   2  22
TORSDOF 7
ENDMDL
MODEL       65
REMARK 921   NORMALIZED FREE ENERGY PREDICTED BY IDOCK:   -6.36 KCAL/MOL
REMARK 922        TOTAL FREE ENERGY PREDICTED BY IDOCK:  -10.71 KCAL/MOL
REMARK 923 INTER-LIGAND FREE ENERGY PREDICTED BY IDOCK:   -9.63 KCAL/MOL
REMARK 924 INTRA-LIGAND FREE ENERGY PREDICTED BY IDOCK:   -1.09 KCAL/MOL
REMARK 927      BINDING AFFINITY PREDICTED BY RF-SCORE:    0.00 PKD
ROOT
HETATM    1  C   UNK A   0      -7.662   9.642  64.375  1.00  0.00    -0.128 C  
HETATM    2  N   UNK A   0      -8.404   9.391  65.607  1.00  0.00    -0.120 NA 
ENDROOT
BRANCH   2   3
HETATM    3  C   UNK A   0      -9.082  10.437  66.222  1.00  0.00    -0.158 A  
HETATM    4  C   UNK A   0     -10.409  12.759  67.155  1.00  0.00    -0.237 A  
HETATM    5  C   UNK A   0      -8.450  11.349  67.086  1.00  0.00    -0.153 A  
HETATM    6  C   UNK A   0     -10.437  10.669  65.939  1.00  0.00    -0.243 A  
HETATM    7  C   UNK A   0     -11.094  11.820  66.383  1.00  0.00    -0.360 A  
HETATM    8  C   UNK A   0      -9.105  12.492  67.564  1.00  0.00    -0.187 A  
BRANCH   4   9
HETATM    9  C   UNK A   0     -11.048  14.045  67.526  1.00  0.00    -0.298 C  
HETATM   10  O   UNK A   0     -12.071  14.423  66.974  1.00  0.00    -0.418 OA 
ATOM     11  N   GLU A   1     -10.431  14.741  68.558  1.00  0.00    -0.243 N  
ATOM     12  H   GLU A   1      -9.541  14.419  68.937  1.00  0.00     0.000 HD 
BRANCH  11  13
ATOM     13  CA  GLU A   1     -11.078  15.951  69.102  1.00  0.00    -0.302 C  
ATOM     14  OXT GLU A   1     -10.531  18.331  68.932  1.00  0.00    -0.258 OA 
ATOM     15  C   GLU A   1     -10.164  17.167  68.857  1.00  0.00    -0.332 C  
ATOM     16  O   GLU A   1      -8.857  16.827  68.718  1.00  0.00    -0.252 OA 
BRANCH  13  17
ATOM     17  CB  GLU A   1     -11.337  15.785  70.607  1.00  0.00    -0.412 C  
BRANCH  17  18
ATOM     18  CG  GLU A   1     -12.466  14.798  70.917  1.00  0.00    -0.396 C  
ATOM     19  OE2 GLU A   1     -12.144  15.287  73.269  1.00  0.00    -0.406 OA 
ATOM     20  OE1 GLU A   1     -13.765  13.836  72.657  1.00  0.00    -0.647 OA 
ATOM     21  CD  GLU A   1     -12.746  14.686  72.394  1.00  0.00    -0.347 C  
ENDBRANCH  17  18
ENDBRANCH  13  17
ENDBRANCH  11  13
ENDBRANCH   4   9
ENDBRANCH   2   3
BRANCH   2  22
HETATM   22  C   UNK A   0      -8.063   8.182  66.378  1.00  0.00    -0.106 C  
BRANCH  22  23
HETATM   23  C   UNK A   0      -9.124   7.760  67.376  1.00  0.00    -0.126 A  
HETATM   24  N   UNK A   0      -9.044   9.114  71.366  1.00  0.00    -0.311 NA 
HETATM   25  C   UNK A   0     -11.069   7.025  69.177  1.00  0.00    -0.101 A  
HETATM   26  C   UNK A   0     -10.224   7.000  67.021  1.00  0.00    -0.260 A  
HETATM   27  N   UNK A   0     -11.991   6.611  70.041  1.00  0.00    -0.636 NA 
HETATM   28  C   UNK A   0      -9.990   8.200  70.878  1.00  0.00    -0.187 A  
HETATM   29  C   UNK A   0      -9.986   7.833  69.536  1.00  0.00    -0.187 A  
HETATM   30  N   UNK A   0     -11.190   6.631  67.903  1.00  0.00    -0.563 NA 
HETATM   31  C   UNK A   0     -11.860   6.981  71.308  1.00  0.00    -0.330 A  
HETATM   32  H1  UNK A   0      -8.344   9.422  70.691  1.00  0.00     0.000 HD 
HETATM   33  H1  UNK A   0     -12.681   6.792  73.188  1.00  0.00     0.000 HD 
HETATM   34  N   UNK A   0     -12.783   6.507  72.214  1.00  0.00    -0.553 NA 
HETATM   35  N   UNK A   0     -10.910   7.795  71.765  1.00  0.00    -0.231 NA 
HETATM   36  N   UNK A   0      -9.006   8.202  68.649  1.00  0.00    -0.137 NA 
HETATM   37  H2  UNK A   0      -8.587   8.736  72.196  1.00  0.00     0.000 HD 
HETATM   38  H2  UNK A   0     -13.543   5.893  71.920  1.00  0.00     0.000 HD 
ENDBRANCH  22  23
ENDBRANCH   2  22
TORSDOF 7
ENDMDL
MODEL       66
REMARK 921   NORMALIZED FREE ENERGY PREDICTED BY IDOCK:   -6.36 KCAL/MOL
REMARK 922        TOTAL FREE ENERGY PREDICTED BY IDOCK:  -10.71 KCAL/MOL
REMARK 923 INTER-LIGAND FREE ENERGY PREDICTED BY IDOCK:   -9.66 KCAL/MOL
REMARK 924 INTRA-LIGAND FREE ENERGY PREDICTED BY IDOCK:   -1.05 KCAL/MOL
REMARK 927      BINDING AFFINITY PREDICTED BY RF-SCORE:    0.00 PKD
ROOT
HETATM    1  C   UNK A   0     -12.348  15.662  70.123  1.00  0.00    -0.336 C  
HETATM    2  N   UNK A   0     -12.058  14.878  68.926  1.00  0.00    -0.547 NA 
ENDROOT
BRANCH   2   3
HETATM    3  C   UNK A   0     -11.779  13.522  69.048  1.00  0.00    -0.327 A  
HETATM    4  C   UNK A   0     -10.945  10.860  69.539  1.00  0.00    -0.306 A  
HETATM    5  C   UNK A   0     -10.951  12.831  68.145  1.00  0.00    -0.273 A  
HETATM    6  C   UNK A   0     -12.269  12.791  70.142  1.00  0.00    -0.320 A  
HETATM    7  C   UNK A   0     -11.849  11.483  70.399  1.00  0.00    -0.413 A  
HETATM    8  C   UNK A   0     -10.546  11.509  68.374  1.00  0.00    -0.227 A  
BRANCH   4   9
HETATM    9  C   UNK A   0     -10.389   9.523  69.864  1.00  0.00    -0.236 C  
HETATM   10  O   UNK A   0      -9.389   9.409  70.556  1.00  0.00    -0.237 OA 
ATOM     11  N   GLU A   1     -11.110   8.443  69.371  1.00  0.00    -0.438 N  
ATOM     12  H   GLU A   1     -11.897   8.593  68.739  1.00  0.00     0.000 HD 
BRANCH  11  13
ATOM     13  CA  GLU A   1     -10.725   7.075  69.770  1.00  0.00    -0.241 C  
ATOM     14  OXT GLU A   1     -10.031   5.114  68.479  1.00  0.00    -0.155 OA 
ATOM     15  C   GLU A   1     -10.598   6.197  68.510  1.00  0.00    -0.271 C  
ATOM     16  O   GLU A   1     -11.332   6.659  67.466  1.00  0.00    -0.271 OA 
BRANCH  13  17
ATOM     17  CB  GLU A   1     -11.778   6.482  70.718  1.00  0.00    -0.427 C  
BRANCH  17  18
ATOM     18  CG  GLU A   1     -13.021   7.366  70.864  1.00  0.00    -0.103 C  
ATOM     19  OE2 GLU A   1     -11.938   8.442  72.747  1.00  0.00    -0.367 OA 
ATOM     20  OE1 GLU A   1     -13.985   9.148  72.102  1.00  0.00    -0.424 OA 
ATOM     21  CD  GLU A   1     -12.898   8.350  71.999  1.00  0.00    -0.354 C  
ENDBRANCH  17  18
ENDBRANCH  13  17
ENDBRANCH  11  13
ENDBRANCH   4   9
ENDBRANCH   2   3
BRANCH   2  22
HETATM   22  C   UNK A   0     -11.647  15.607  67.713  1.00  0.00    -0.136 C  
BRANCH  22  23
HETATM   23  C   UNK A   0     -10.595  16.673  67.952  1.00  0.00    -0.342 A  
HETATM   24  N   UNK A   0      -6.739  15.677  69.332  1.00  0.00    -0.167 NA 
HETATM   25  C   UNK A   0      -8.674  18.601  68.350  1.00  0.00    -0.333 A  
HETATM   26  C   UNK A   0     -10.796  18.006  67.640  1.00  0.00    -0.239 A  
HETATM   27  N   UNK A   0      -7.782  19.559  68.586  1.00  0.00    -0.355 NA 
HETATM   28  C   UNK A   0      -7.171  16.997  69.128  1.00  0.00    -0.209 A  
HETATM   29  C   UNK A   0      -8.443  17.250  68.625  1.00  0.00    -0.260 A  
HETATM   30  N   UNK A   0      -9.854  18.966  67.833  1.00  0.00    -0.329 NA 
HETATM   31  C   UNK A   0      -6.621  19.202  69.121  1.00  0.00    -0.302 A  
HETATM   32  H1  UNK A   0      -7.435  14.954  69.146  1.00  0.00     0.000 HD 
HETATM   33  H1  UNK A   0      -4.825  19.924  69.828  1.00  0.00     0.000 HD 
HETATM   34  N   UNK A   0      -5.718  20.198  69.417  1.00  0.00    -0.269 NA 
HETATM   35  N   UNK A   0      -6.257  17.946  69.372  1.00  0.00    -0.243 NA 
HETATM   36  N   UNK A   0      -9.395  16.279  68.436  1.00  0.00    -0.204 NA 
HETATM   37  H2  UNK A   0      -6.370  15.571  70.276  1.00  0.00     0.000 HD 
HETATM   38  H2  UNK A   0      -5.934  21.178  69.231  1.00  0.00     0.000 HD 
ENDBRANCH  22  23
ENDBRANCH   2  22
TORSDOF 7
ENDMDL
MODEL       67
REMARK 921   NORMALIZED FREE ENERGY PREDICTED BY IDOCK:   -6.33 KCAL/MOL
REMARK 922        TOTAL FREE ENERGY PREDICTED BY IDOCK:  -10.67 KCAL/MOL
REMARK 923 INTER-LIGAND FREE ENERGY PREDICTED BY IDOCK:   -9.77 KCAL/MOL
REMARK 924 INTRA-LIGAND FREE ENERGY PREDICTED BY IDOCK:   -0.90 KCAL/MOL
REMARK 927      BINDING AFFINITY PREDICTED BY RF-SCORE:    0.00 PKD
ROOT
HETATM    1  C   UNK A   0     -12.487  12.301  63.420  1.00  0.00    -0.481 C  
HETATM    2  N   UNK A   0     -11.852  12.484  64.722  1.00  0.00    -0.364 NA 
ENDROOT
BRANCH   2   3
HETATM    3  C   UNK A   0     -10.954  11.530  65.185  1.00  0.00    -0.234 A  
HETATM    4  C   UNK A   0      -9.396   9.335  66.068  1.00  0.00    -0.283 A  
HETATM    5  C   UNK A   0     -10.760  11.268  66.553  1.00  0.00    -0.323 A  
HETATM    6  C   UNK A   0     -10.243  10.725  64.280  1.00  0.00    -0.422 A  
HETATM    7  C   UNK A   0      -9.486   9.631  64.708  1.00  0.00    -0.256 A  
HETATM    8  C   UNK A   0      -9.979  10.192  66.997  1.00  0.00    -0.249 A  
BRANCH   4   9
HETATM    9  C   UNK A   0      -8.707   8.106  66.531  1.00  0.00    -0.143 C  
HETATM   10  O   UNK A   0      -7.816   8.159  67.366  1.00  0.00    -0.103 OA 
ATOM     11  N   GLU A   1      -9.180   6.917  65.989  1.00  0.00    -0.347 N  
ATOM     12  H   GLU A   1      -9.876   6.932  65.244  1.00  0.00     0.000 HD 
BRANCH  11  13
ATOM     13  CA  GLU A   1      -8.665   5.633  66.501  1.00  0.00    -0.121 C  
ATOM     14  OXT GLU A   1      -7.410   3.818  65.442  1.00  0.00    -0.070 OA 
ATOM     15  C   GLU A   1      -8.143   4.790  65.323  1.00  0.00    -0.105 C  
ATOM     16  O   GLU A   1      -8.715   5.123  64.138  1.00  0.00    -0.134 OA 
BRANCH  13  17
ATOM     17  CB  GLU A   1      -9.776   4.871  67.239  1.00  0.00    -0.194 C  
BRANCH  17  18
ATOM     18  CG  GLU A   1     -10.812   5.795  67.885  1.00  0.00    -0.257 C  
ATOM     19  OE2 GLU A   1      -9.953   5.117  70.048  1.00  0.00    -0.210 OA 
ATOM     20  OE1 GLU A   1     -11.628   6.631  69.953  1.00  0.00    -0.371 OA 
ATOM     21  CD  GLU A   1     -10.732   5.788  69.391  1.00  0.00    -0.326 C  
ENDBRANCH  17  18
ENDBRANCH  13  17
ENDBRANCH  11  13
ENDBRANCH   4   9
ENDBRANCH   2   3
BRANCH   2  22
HETATM   22  C   UNK A   0     -12.489  13.416  65.671  1.00  0.00    -0.464 C  
BRANCH  22  23
HETATM   23  C   UNK A   0     -11.874  14.802  65.691  1.00  0.00    -0.212 A  
HETATM   24  N   UNK A   0     -10.756  16.652  69.309  1.00  0.00    -0.336 NA 
HETATM   25  C   UNK A   0     -10.723  17.300  65.726  1.00  0.00    -0.131 A  
HETATM   26  C   UNK A   0     -11.550  15.494  64.537  1.00  0.00    -0.283 A  
HETATM   27  N   UNK A   0     -10.218  18.530  65.718  1.00  0.00    -0.573 NA 
HETATM   28  C   UNK A   0     -10.660  17.279  68.057  1.00  0.00    -0.394 A  
HETATM   29  C   UNK A   0     -11.002  16.590  66.898  1.00  0.00     0.023 A  
HETATM   30  N   UNK A   0     -10.982  16.728  64.544  1.00  0.00    -1.079 NA 
HETATM   31  C   UNK A   0      -9.984  19.108  66.889  1.00  0.00    -0.345 A  
HETATM   32  H1  UNK A   0     -11.145  15.708  69.298  1.00  0.00     0.000 HD 
HETATM   33  H1  UNK A   0      -9.333  20.846  67.784  1.00  0.00     0.000 HD 
HETATM   34  N   UNK A   0      -9.513  20.403  66.883  1.00  0.00    -0.548 NA 
HETATM   35  N   UNK A   0     -10.149  18.519  68.072  1.00  0.00    -0.353 NA 
HETATM   36  N   UNK A   0     -11.581  15.346  66.894  1.00  0.00    -0.081 NA 
HETATM   37  H2  UNK A   0     -11.284  17.239  69.955  1.00  0.00     0.000 HD 
HETATM   38  H2  UNK A   0      -9.351  20.900  66.008  1.00  0.00     0.000 HD 
ENDBRANCH  22  23
ENDBRANCH   2  22
TORSDOF 7
ENDMDL
MODEL       68
REMARK 921   NORMALIZED FREE ENERGY PREDICTED BY IDOCK:   -6.32 KCAL/MOL
REMARK 922        TOTAL FREE ENERGY PREDICTED BY IDOCK:  -10.66 KCAL/MOL
REMARK 923 INTER-LIGAND FREE ENERGY PREDICTED BY IDOCK:   -9.67 KCAL/MOL
REMARK 924 INTRA-LIGAND FREE ENERGY PREDICTED BY IDOCK:   -0.99 KCAL/MOL
REMARK 927      BINDING AFFINITY PREDICTED BY RF-SCORE:    0.00 PKD
ROOT
HETATM    1  C   UNK A   0     -11.817  15.169  67.371  1.00  0.00    -0.069 C  
HETATM    2  N   UNK A   0     -10.960  14.387  66.484  1.00  0.00    -0.310 NA 
ENDROOT
BRANCH   2   3
HETATM    3  C   UNK A   0     -10.627  13.084  66.832  1.00  0.00    -0.254 A  
HETATM    4  C   UNK A   0      -9.933  10.550  67.893  1.00  0.00    -0.193 A  
HETATM    5  C   UNK A   0      -9.312  12.590  66.759  1.00  0.00    -0.230 A  
HETATM    6  C   UNK A   0     -11.601  12.214  67.346  1.00  0.00    -0.410 A  
HETATM    7  C   UNK A   0     -11.263  10.970  67.887  1.00  0.00    -0.375 A  
HETATM    8  C   UNK A   0      -8.964  11.332  67.269  1.00  0.00    -0.149 A  
BRANCH   4   9
HETATM    9  C   UNK A   0      -9.538   9.294  68.576  1.00  0.00    -0.147 C  
HETATM   10  O   UNK A   0      -8.362   9.022  68.765  1.00  0.00    -0.119 OA 
ATOM     11  N   GLU A   1     -10.590   8.500  69.016  1.00  0.00    -0.337 N  
ATOM     12  H   GLU A   1     -11.552   8.736  68.771  1.00  0.00     0.000 HD 
BRANCH  11  13
ATOM     13  CA  GLU A   1     -10.302   7.311  69.841  1.00  0.00    -0.219 C  
ATOM     14  OXT GLU A   1     -10.207   4.922  69.314  1.00  0.00    -0.207 OA 
ATOM     15  C   GLU A   1     -10.603   6.041  69.021  1.00  0.00    -0.291 C  
ATOM     16  O   GLU A   1     -11.503   6.253  68.028  1.00  0.00    -0.138 OA 
BRANCH  13  17
ATOM     17  CB  GLU A   1     -11.160   7.327  71.115  1.00  0.00    -0.275 C  
BRANCH  17  18
ATOM     18  CG  GLU A   1     -11.658   8.727  71.485  1.00  0.00    -0.374 C  
ATOM     19  OE2 GLU A   1     -13.889   7.798  71.677  1.00  0.00    -0.368 OA 
ATOM     20  OE1 GLU A   1     -13.568   9.992  72.112  1.00  0.00    -0.395 OA 
ATOM     21  CD  GLU A   1     -13.141   8.759  71.756  1.00  0.00    -0.363 C  
ENDBRANCH  17  18
ENDBRANCH  13  17
ENDBRANCH  11  13
ENDBRANCH   4   9
ENDBRANCH   2   3
BRANCH   2  22
HETATM   22  C   UNK A   0     -10.141  15.119  65.502  1.00  0.00    -0.370 C  
BRANCH  22  23
HETATM   23  C   UNK A   0      -9.233  16.172  66.108  1.00  0.00    -0.347 A  
HETATM   24  N   UNK A   0     -10.136  20.278  65.814  1.00  0.00    -0.555 NA 
HETATM   25  C   UNK A   0      -7.607  18.080  67.241  1.00  0.00    -0.200 A  
HETATM   26  C   UNK A   0      -8.125  15.854  66.872  1.00  0.00    -0.250 A  
HETATM   27  N   UNK A   0      -6.776  18.984  67.751  1.00  0.00    -0.205 NA 
HETATM   28  C   UNK A   0      -8.962  19.784  66.405  1.00  0.00    -0.379 A  
HETATM   29  C   UNK A   0      -8.752  18.413  66.510  1.00  0.00    -0.278 A  
HETATM   30  N   UNK A   0      -7.315  16.788  67.436  1.00  0.00    -0.151 NA 
HETATM   31  C   UNK A   0      -7.051  20.264  67.538  1.00  0.00    -0.289 A  
HETATM   32  H1  UNK A   0     -10.763  19.572  65.428  1.00  0.00     0.000 HD 
HETATM   33  H1  UNK A   0      -6.374  22.185  67.854  1.00  0.00     0.000 HD 
HETATM   34  N   UNK A   0      -6.162  21.201  68.018  1.00  0.00    -0.337 NA 
HETATM   35  N   UNK A   0      -8.138  20.712  66.911  1.00  0.00    -0.553 NA 
HETATM   36  N   UNK A   0      -9.568  17.471  65.935  1.00  0.00    -0.532 NA 
HETATM   37  H2  UNK A   0      -9.904  20.968  65.100  1.00  0.00     0.000 HD 
HETATM   38  H2  UNK A   0      -5.320  20.919  68.520  1.00  0.00     0.000 HD 
ENDBRANCH  22  23
ENDBRANCH   2  22
TORSDOF 7
ENDMDL
MODEL       69
REMARK 921   NORMALIZED FREE ENERGY PREDICTED BY IDOCK:   -6.26 KCAL/MOL
REMARK 922        TOTAL FREE ENERGY PREDICTED BY IDOCK:  -10.57 KCAL/MOL
REMARK 923 INTER-LIGAND FREE ENERGY PREDICTED BY IDOCK:   -9.68 KCAL/MOL
REMARK 924 INTRA-LIGAND FREE ENERGY PREDICTED BY IDOCK:   -0.89 KCAL/MOL
REMARK 927      BINDING AFFINITY PREDICTED BY RF-SCORE:    0.00 PKD
ROOT
HETATM    1  C   UNK A   0     -13.174   8.875  71.792  1.00  0.00    -0.378 C  
HETATM    2  N   UNK A   0     -12.011   9.718  71.532  1.00  0.00    -0.395 NA 
ENDROOT
BRANCH   2   3
HETATM    3  C   UNK A   0     -12.142  10.826  70.704  1.00  0.00    -0.370 A  
HETATM    4  C   UNK A   0     -12.034  13.093  69.007  1.00  0.00    -0.329 A  
HETATM    5  C   UNK A   0     -12.342  12.127  71.199  1.00  0.00    -0.265 A  
HETATM    6  C   UNK A   0     -12.005  10.694  69.313  1.00  0.00    -0.269 A  
HETATM    7  C   UNK A   0     -11.935  11.809  68.472  1.00  0.00    -0.279 A  
HETATM    8  C   UNK A   0     -12.305  13.252  70.364  1.00  0.00    -0.365 A  
BRANCH   4   9
HETATM    9  C   UNK A   0     -11.833  14.287  68.152  1.00  0.00    -0.339 C  
HETATM   10  O   UNK A   0     -11.845  15.413  68.628  1.00  0.00    -0.346 OA 
ATOM     11  N   GLU A   1     -11.586  14.024  66.810  1.00  0.00    -0.366 N  
ATOM     12  H   GLU A   1     -11.657  13.072  66.450  1.00  0.00     0.000 HD 
BRANCH  11  13
ATOM     13  CA  GLU A   1     -11.221  15.135  65.910  1.00  0.00    -0.280 C  
ATOM     14  OXT GLU A   1     -12.219  15.978  63.840  1.00  0.00    -0.883 OA 
ATOM     15  C   GLU A   1     -12.083  15.059  64.636  1.00  0.00    -0.323 C  
ATOM     16  O   GLU A   1     -12.545  13.809  64.382  1.00  0.00    -0.638 OA 
BRANCH  13  17
ATOM     17  CB  GLU A   1      -9.732  15.052  65.541  1.00  0.00    -0.294 C  
BRANCH  17  18
ATOM     18  CG  GLU A   1      -8.808  15.559  66.653  1.00  0.00    -0.325 C  
ATOM     19  OE2 GLU A   1      -8.940  17.763  65.652  1.00  0.00    -0.365 OA 
ATOM     20  OE1 GLU A   1      -7.727  17.480  67.537  1.00  0.00    -0.193 OA 
ATOM     21  CD  GLU A   1      -8.518  17.034  66.534  1.00  0.00    -0.271 C  
ENDBRANCH  17  18
ENDBRANCH  13  17
ENDBRANCH  11  13
ENDBRANCH   4   9
ENDBRANCH   2   3
BRANCH   2  22
HETATM   22  C   UNK A   0     -10.677   9.145  71.789  1.00  0.00    -0.335 C  
BRANCH  22  23
HETATM   23  C   UNK A   0     -10.436   7.805  71.121  1.00  0.00    -0.208 A  
HETATM   24  N   UNK A   0     -10.262   4.239  73.361  1.00  0.00    -0.148 NA 
HETATM   25  C   UNK A   0     -10.038   5.369  69.907  1.00  0.00    -0.252 A  
HETATM   26  C   UNK A   0     -10.363   7.656  69.747  1.00  0.00    -0.223 A  
HETATM   27  N   UNK A   0      -9.790   4.211  69.300  1.00  0.00    -0.142 NA 
HETATM   28  C   UNK A   0     -10.036   4.295  71.976  1.00  0.00    -0.174 A  
HETATM   29  C   UNK A   0     -10.158   5.501  71.293  1.00  0.00    -0.207 A  
HETATM   30  N   UNK A   0     -10.166   6.458  69.138  1.00  0.00    -0.171 NA 
HETATM   31  C   UNK A   0      -9.639   3.136  70.062  1.00  0.00    -0.092 A  
HETATM   32  H1  UNK A   0     -10.451   5.135  73.811  1.00  0.00     0.000 HD 
HETATM   33  H1  UNK A   0      -9.211   1.121  70.027  1.00  0.00     0.000 HD 
HETATM   34  N   UNK A   0      -9.328   1.947  69.440  1.00  0.00    -0.112 NA 
HETATM   35  N   UNK A   0      -9.788   3.118  71.386  1.00  0.00    -0.150 NA 
HETATM   36  N   UNK A   0     -10.351   6.710  71.912  1.00  0.00    -0.198 NA 
HETATM   37  H2  UNK A   0      -9.482   3.773  73.824  1.00  0.00     0.000 HD 
HETATM   38  H2  UNK A   0      -9.217   1.896  68.427  1.00  0.00     0.000 HD 
ENDBRANCH  22  23
ENDBRANCH   2  22
TORSDOF 7
ENDMDL
MODEL       70
REMARK 921   NORMALIZED FREE ENERGY PREDICTED BY IDOCK:   -6.25 KCAL/MOL
REMARK 922        TOTAL FREE ENERGY PREDICTED BY IDOCK:  -10.56 KCAL/MOL
REMARK 923 INTER-LIGAND FREE ENERGY PREDICTED BY IDOCK:   -9.90 KCAL/MOL
REMARK 924 INTRA-LIGAND FREE ENERGY PREDICTED BY IDOCK:   -0.66 KCAL/MOL
REMARK 927      BINDING AFFINITY PREDICTED BY RF-SCORE:    0.00 PKD
ROOT
HETATM    1  C   UNK A   0      -5.570   8.269  69.196  1.00  0.00    -0.031 C  
HETATM    2  N   UNK A   0      -6.825   7.903  68.545  1.00  0.00    -0.065 NA 
ENDROOT
BRANCH   2   3
HETATM    3  C   UNK A   0      -7.601   8.893  67.954  1.00  0.00    -0.093 A  
HETATM    4  C   UNK A   0      -9.457  10.800  66.982  1.00  0.00    -0.186 A  
HETATM    5  C   UNK A   0      -8.294   8.697  66.746  1.00  0.00    -0.108 A  
HETATM    6  C   UNK A   0      -7.783  10.130  68.593  1.00  0.00    -0.092 A  
HETATM    7  C   UNK A   0      -8.709  11.068  68.128  1.00  0.00    -0.141 A  
HETATM    8  C   UNK A   0      -9.203   9.642  66.252  1.00  0.00    -0.213 A  
BRANCH   4   9
HETATM    9  C   UNK A   0     -10.534  11.723  66.547  1.00  0.00    -0.230 C  
HETATM   10  O   UNK A   0     -11.699  11.522  66.856  1.00  0.00    -0.533 OA 
ATOM     11  N   GLU A   1     -10.112  12.830  65.822  1.00  0.00    -0.285 N  
ATOM     12  H   GLU A   1      -9.138  12.915  65.530  1.00  0.00     0.000 HD 
BRANCH  11  13
ATOM     13  CA  GLU A   1     -11.086  13.884  65.479  1.00  0.00    -0.304 C  
ATOM     14  OXT GLU A   1     -12.764  14.064  63.707  1.00  0.00    -0.734 OA 
ATOM     15  C   GLU A   1     -11.736  13.551  64.123  1.00  0.00    -0.411 C  
ATOM     16  O   GLU A   1     -10.961  12.752  63.346  1.00  0.00    -0.380 OA 
BRANCH  13  17
ATOM     17  CB  GLU A   1     -10.388  15.250  65.404  1.00  0.00    -0.421 C  
BRANCH  17  18
ATOM     18  CG  GLU A   1     -10.484  16.046  66.709  1.00  0.00    -0.308 C  
ATOM     19  OE2 GLU A   1     -10.648  18.064  65.375  1.00  0.00    -0.648 OA 
ATOM     20  OE1 GLU A   1     -10.742  18.221  67.627  1.00  0.00    -0.419 OA 
ATOM     21  CD  GLU A   1     -10.627  17.528  66.471  1.00  0.00    -0.191 C  
ENDBRANCH  17  18
ENDBRANCH  13  17
ENDBRANCH  11  13
ENDBRANCH   4   9
ENDBRANCH   2   3
BRANCH   2  22
HETATM   22  C   UNK A   0      -7.431   6.608  68.902  1.00  0.00    -0.096 C  
BRANCH  22  23
HETATM   23  C   UNK A   0      -8.875   6.700  69.357  1.00  0.00    -0.134 A  
HETATM   24  N   UNK A   0      -9.890   8.309  73.118  1.00  0.00    -0.202 NA 
HETATM   25  C   UNK A   0     -11.495   6.903  70.168  1.00  0.00    -0.303 A  
HETATM   26  C   UNK A   0      -9.939   6.364  68.540  1.00  0.00    -0.142 A  
HETATM   27  N   UNK A   0     -12.767   6.940  70.557  1.00  0.00    -0.508 NA 
HETATM   28  C   UNK A   0     -10.830   7.761  72.232  1.00  0.00    -0.283 A  
HETATM   29  C   UNK A   0     -10.429   7.291  70.985  1.00  0.00    -0.215 A  
HETATM   30  N   UNK A   0     -11.237   6.460  68.931  1.00  0.00    -0.531 NA 
HETATM   31  C   UNK A   0     -13.022   7.356  71.790  1.00  0.00    -0.325 A  
HETATM   32  H1  UNK A   0      -8.919   8.273  72.805  1.00  0.00     0.000 HD 
HETATM   33  H1  UNK A   0     -14.529   7.661  73.162  1.00  0.00     0.000 HD 
HETATM   34  N   UNK A   0     -14.333   7.342  72.214  1.00  0.00    -0.629 NA 
HETATM   35  N   UNK A   0     -12.105   7.807  72.644  1.00  0.00    -0.588 NA 
HETATM   36  N   UNK A   0      -9.117   7.189  70.595  1.00  0.00    -0.157 NA 
HETATM   37  H2  UNK A   0      -9.977   7.871  74.035  1.00  0.00     0.000 HD 
HETATM   38  H2  UNK A   0     -15.082   7.022  71.599  1.00  0.00     0.000 HD 
ENDBRANCH  22  23
ENDBRANCH   2  22
TORSDOF 7
ENDMDL
MODEL       71
REMARK 921   NORMALIZED FREE ENERGY PREDICTED BY IDOCK:   -6.21 KCAL/MOL
REMARK 922        TOTAL FREE ENERGY PREDICTED BY IDOCK:  -10.49 KCAL/MOL
REMARK 923 INTER-LIGAND FREE ENERGY PREDICTED BY IDOCK:   -9.43 KCAL/MOL
REMARK 924 INTRA-LIGAND FREE ENERGY PREDICTED BY IDOCK:   -1.07 KCAL/MOL
REMARK 927      BINDING AFFINITY PREDICTED BY RF-SCORE:    0.00 PKD
ROOT
HETATM    1  C   UNK A   0      -9.789  10.767  65.092  1.00  0.00    -0.277 C  
HETATM    2  N   UNK A   0     -10.380  11.116  66.381  1.00  0.00    -0.244 NA 
ENDROOT
BRANCH   2   3
HETATM    3  C   UNK A   0     -10.140  10.305  67.484  1.00  0.00    -0.198 A  
HETATM    4  C   UNK A   0      -9.511   8.960  69.897  1.00  0.00    -0.177 A  
HETATM    5  C   UNK A   0      -8.992   9.501  67.601  1.00  0.00    -0.124 A  
HETATM    6  C   UNK A   0     -11.020  10.314  68.578  1.00  0.00    -0.294 A  
HETATM    7  C   UNK A   0     -10.708   9.666  69.777  1.00  0.00    -0.269 A  
HETATM    8  C   UNK A   0      -8.682   8.821  68.787  1.00  0.00    -0.137 A  
BRANCH   4   9
HETATM    9  C   UNK A   0      -9.104   8.376  71.198  1.00  0.00    -0.174 C  
HETATM   10  O   UNK A   0      -8.362   8.983  71.956  1.00  0.00    -0.366 OA 
ATOM     11  N   GLU A   1      -9.661   7.138  71.496  1.00  0.00    -0.158 N  
ATOM     12  H   GLU A   1     -10.218   6.643  70.800  1.00  0.00     0.000 HD 
BRANCH  11  13
ATOM     13  CA  GLU A   1      -9.440   6.549  72.830  1.00  0.00    -0.141 C  
ATOM     14  OXT GLU A   1      -7.992   4.737  73.613  1.00  0.00    -0.103 OA 
ATOM     15  C   GLU A   1      -8.576   5.282  72.687  1.00  0.00    -0.117 C  
ATOM     16  O   GLU A   1      -8.662   4.718  71.456  1.00  0.00    -0.118 OA 
BRANCH  13  17
ATOM     17  CB  GLU A   1     -10.784   6.195  73.485  1.00  0.00    -0.263 C  
BRANCH  17  18
ATOM     18  CG  GLU A   1     -11.927   6.060  72.474  1.00  0.00    -0.176 C  
ATOM     19  OE2 GLU A   1     -12.293   8.447  72.685  1.00  0.00    -0.365 OA 
ATOM     20  OE1 GLU A   1     -13.582   7.256  71.261  1.00  0.00    -0.365 OA 
ATOM     21  CD  GLU A   1     -12.594   7.379  72.178  1.00  0.00    -0.145 C  
ENDBRANCH  17  18
ENDBRANCH  13  17
ENDBRANCH  11  13
ENDBRANCH   4   9
ENDBRANCH   2   3
BRANCH   2  22
HETATM   22  C   UNK A   0     -11.531  12.036  66.381  1.00  0.00    -0.353 C  
BRANCH  22  23
HETATM   23  C   UNK A   0     -11.174  13.481  66.672  1.00  0.00    -0.312 A  
HETATM   24  N   UNK A   0     -11.553  16.469  63.724  1.00  0.00    -1.433 NA 
HETATM   25  C   UNK A   0     -10.563  16.108  67.209  1.00  0.00    -0.305 A  
HETATM   26  C   UNK A   0     -10.806  13.922  67.930  1.00  0.00    -0.244 A  
HETATM   27  N   UNK A   0     -10.209  17.362  67.480  1.00  0.00    -0.320 NA 
HETATM   28  C   UNK A   0     -11.030  16.707  65.005  1.00  0.00    -0.162 A  
HETATM   29  C   UNK A   0     -10.980  15.683  65.944  1.00  0.00    -0.231 A  
HETATM   30  N   UNK A   0     -10.502  15.217  68.206  1.00  0.00    -0.237 NA 
HETATM   31  C   UNK A   0     -10.246  18.241  66.487  1.00  0.00    -0.394 A  
HETATM   32  H1  UNK A   0     -11.820  15.503  63.532  1.00  0.00     0.000 HD 
HETATM   33  H1  UNK A   0      -9.856  20.202  65.989  1.00  0.00     0.000 HD 
HETATM   34  N   UNK A   0      -9.827  19.526  66.753  1.00  0.00    -0.353 NA 
HETATM   35  N   UNK A   0     -10.679  17.977  65.256  1.00  0.00    -0.557 NA 
HETATM   36  N   UNK A   0     -11.282  14.374  65.662  1.00  0.00    -0.316 NA 
HETATM   37  H2  UNK A   0     -10.900  16.798  63.013  1.00  0.00     0.000 HD 
HETATM   38  H2  UNK A   0      -9.500  19.793  67.682  1.00  0.00     0.000 HD 
ENDBRANCH  22  23
ENDBRANCH   2  22
TORSDOF 7
ENDMDL
MODEL       72
REMARK 921   NORMALIZED FREE ENERGY PREDICTED BY IDOCK:   -6.20 KCAL/MOL
REMARK 922        TOTAL FREE ENERGY PREDICTED BY IDOCK:  -10.49 KCAL/MOL
REMARK 923 INTER-LIGAND FREE ENERGY PREDICTED BY IDOCK:   -9.79 KCAL/MOL
REMARK 924 INTRA-LIGAND FREE ENERGY PREDICTED BY IDOCK:   -0.70 KCAL/MOL
REMARK 927      BINDING AFFINITY PREDICTED BY RF-SCORE:    0.00 PKD
ROOT
HETATM    1  C   UNK A   0     -10.682   9.408  69.506  1.00  0.00    -0.222 C  
HETATM    2  N   UNK A   0     -11.646  10.333  70.095  1.00  0.00    -0.280 NA 
ENDROOT
BRANCH   2   3
HETATM    3  C   UNK A   0     -11.608  11.677  69.742  1.00  0.00    -0.315 A  
HETATM    4  C   UNK A   0     -11.208  14.430  69.211  1.00  0.00    -0.308 A  
HETATM    5  C   UNK A   0     -12.292  12.672  70.462  1.00  0.00    -0.350 A  
HETATM    6  C   UNK A   0     -10.810  12.107  68.669  1.00  0.00    -0.268 A  
HETATM    7  C   UNK A   0     -10.596  13.464  68.413  1.00  0.00    -0.259 A  
HETATM    8  C   UNK A   0     -12.110  14.036  70.195  1.00  0.00    -0.419 A  
BRANCH   4   9
HETATM    9  C   UNK A   0     -10.891  15.869  69.036  1.00  0.00    -0.266 C  
HETATM   10  O   UNK A   0     -11.105  16.674  69.929  1.00  0.00    -0.305 OA 
ATOM     11  N   GLU A   1     -10.300  16.205  67.824  1.00  0.00    -0.275 N  
ATOM     12  H   GLU A   1     -10.207  15.508  67.085  1.00  0.00     0.000 HD 
BRANCH  11  13
ATOM     13  CA  GLU A   1      -9.807  17.580  67.617  1.00  0.00    -0.291 C  
ATOM     14  OXT GLU A   1     -10.440  19.339  66.036  1.00  0.00    -0.465 OA 
ATOM     15  C   GLU A   1     -10.425  18.151  66.326  1.00  0.00    -0.361 C  
ATOM     16  O   GLU A   1     -10.803  17.187  65.449  1.00  0.00    -0.477 OA 
BRANCH  13  17
ATOM     17  CB  GLU A   1      -8.275  17.586  67.511  1.00  0.00    -0.213 C  
BRANCH  17  18
ATOM     18  CG  GLU A   1      -7.586  18.084  68.785  1.00  0.00    -0.277 C  
ATOM     19  OE2 GLU A   1      -7.460  20.280  67.767  1.00  0.00    -0.290 OA 
ATOM     20  OE1 GLU A   1      -6.664  19.989  69.861  1.00  0.00    -0.336 OA 
ATOM     21  CD  GLU A   1      -7.243  19.550  68.721  1.00  0.00    -0.356 C  
ENDBRANCH  17  18
ENDBRANCH  13  17
ENDBRANCH  11  13
ENDBRANCH   4   9
ENDBRANCH   2   3
BRANCH   2  22
HETATM   22  C   UNK A   0     -12.324   9.918  71.337  1.00  0.00    -0.404 C  
BRANCH  22  23
HETATM   23  C   UNK A   0     -11.870   8.575  71.875  1.00  0.00    -0.341 A  
HETATM   24  N   UNK A   0      -8.286   8.184  74.059  1.00  0.00    -0.260 NA 
HETATM   25  C   UNK A   0     -11.066   6.145  72.884  1.00  0.00    -0.247 A  
HETATM   26  C   UNK A   0     -12.641   7.430  71.775  1.00  0.00    -0.335 A  
HETATM   27  N   UNK A   0     -10.673   4.950  73.314  1.00  0.00    -0.228 NA 
HETATM   28  C   UNK A   0      -9.106   7.097  73.714  1.00  0.00    -0.200 A  
HETATM   29  C   UNK A   0     -10.300   7.306  73.033  1.00  0.00    -0.288 A  
HETATM   30  N   UNK A   0     -12.253   6.226  72.270  1.00  0.00    -0.518 NA 
HETATM   31  C   UNK A   0      -9.487   4.865  73.902  1.00  0.00    -0.128 A  
HETATM   32  H1  UNK A   0      -8.602   9.094  73.722  1.00  0.00     0.000 HD 
HETATM   33  H1  UNK A   0      -8.143   3.553  74.750  1.00  0.00     0.000 HD 
HETATM   34  N   UNK A   0      -9.055   3.618  74.299  1.00  0.00    -0.086 NA 
HETATM   35  N   UNK A   0      -8.691   5.901  74.157  1.00  0.00    -0.122 NA 
HETATM   36  N   UNK A   0     -10.687   8.522  72.529  1.00  0.00    -0.300 NA 
HETATM   37  H2  UNK A   0      -7.329   8.011  73.754  1.00  0.00     0.000 HD 
HETATM   38  H2  UNK A   0      -9.629   2.788  74.145  1.00  0.00     0.000 HD 
ENDBRANCH  22  23
ENDBRANCH   2  22
TORSDOF 7
ENDMDL
MODEL       73
REMARK 921   NORMALIZED FREE ENERGY PREDICTED BY IDOCK:   -6.19 KCAL/MOL
REMARK 922        TOTAL FREE ENERGY PREDICTED BY IDOCK:  -10.48 KCAL/MOL
REMARK 923 INTER-LIGAND FREE ENERGY PREDICTED BY IDOCK:   -9.24 KCAL/MOL
REMARK 924 INTRA-LIGAND FREE ENERGY PREDICTED BY IDOCK:   -1.24 KCAL/MOL
REMARK 927      BINDING AFFINITY PREDICTED BY RF-SCORE:    0.00 PKD
ROOT
HETATM    1  C   UNK A   0      -8.080   7.491  66.075  1.00  0.00    -0.123 C  
HETATM    2  N   UNK A   0      -9.353   8.202  66.148  1.00  0.00    -0.320 NA 
ENDROOT
BRANCH   2   3
HETATM    3  C   UNK A   0      -9.367   9.589  66.063  1.00  0.00    -0.216 A  
HETATM    4  C   UNK A   0      -9.649  12.406  66.165  1.00  0.00    -0.238 A  
HETATM    5  C   UNK A   0     -10.146  10.285  65.122  1.00  0.00    -0.355 A  
HETATM    6  C   UNK A   0      -8.640  10.364  66.980  1.00  0.00    -0.130 A  
HETATM    7  C   UNK A   0      -8.787  11.753  67.046  1.00  0.00    -0.182 A  
HETATM    8  C   UNK A   0     -10.279  11.680  65.158  1.00  0.00    -0.319 A  
BRANCH   4   9
HETATM    9  C   UNK A   0      -9.916  13.858  66.303  1.00  0.00    -0.306 C  
HETATM   10  O   UNK A   0     -10.176  14.547  65.328  1.00  0.00    -0.367 OA 
ATOM     11  N   GLU A   1      -9.896  14.346  67.605  1.00  0.00    -0.222 N  
ATOM     12  H   GLU A   1      -9.604  13.745  68.376  1.00  0.00     0.000 HD 
BRANCH  11  13
ATOM     13  CA  GLU A   1     -10.301  15.741  67.860  1.00  0.00    -0.261 C  
ATOM     14  OXT GLU A   1      -9.101  17.664  68.785  1.00  0.00    -0.271 OA 
ATOM     15  C   GLU A   1      -9.195  16.451  68.663  1.00  0.00    -0.231 C  
ATOM     16  O   GLU A   1      -8.423  15.591  69.376  1.00  0.00    -0.247 OA 
BRANCH  13  17
ATOM     17  CB  GLU A   1     -11.622  15.776  68.644  1.00  0.00    -0.392 C  
BRANCH  17  18
ATOM     18  CG  GLU A   1     -12.096  14.388  69.083  1.00  0.00    -0.316 C  
ATOM     19  OE2 GLU A   1     -11.617  15.032  71.370  1.00  0.00    -0.334 OA 
ATOM     20  OE1 GLU A   1     -12.473  12.981  70.959  1.00  0.00    -0.368 OA 
ATOM     21  CD  GLU A   1     -12.023  14.198  70.577  1.00  0.00    -0.323 C  
ENDBRANCH  17  18
ENDBRANCH  13  17
ENDBRANCH  11  13
ENDBRANCH   4   9
ENDBRANCH   2   3
BRANCH   2  22
HETATM   22  C   UNK A   0     -10.504   7.489  66.733  1.00  0.00    -0.249 C  
BRANCH  22  23
HETATM   23  C   UNK A   0     -10.398   7.254  68.227  1.00  0.00    -0.193 A  
HETATM   24  N   UNK A   0     -12.908   9.270  70.947  1.00  0.00    -0.524 NA 
HETATM   25  C   UNK A   0     -10.232   6.801  70.935  1.00  0.00    -0.195 A  
HETATM   26  C   UNK A   0      -9.556   6.304  68.777  1.00  0.00    -0.121 A  
HETATM   27  N   UNK A   0     -10.094   6.603  72.243  1.00  0.00    -0.174 NA 
HETATM   28  C   UNK A   0     -11.880   8.400  71.342  1.00  0.00    -0.296 A  
HETATM   29  C   UNK A   0     -11.121   7.731  70.387  1.00  0.00    -0.251 A  
HETATM   30  N   UNK A   0      -9.466   6.073  70.113  1.00  0.00    -0.156 NA 
HETATM   31  C   UNK A   0     -10.834   7.341  73.060  1.00  0.00    -0.355 A  
HETATM   32  H1  UNK A   0     -13.001   9.410  69.941  1.00  0.00     0.000 HD 
HETATM   33  H1  UNK A   0     -11.222   7.744  75.043  1.00  0.00     0.000 HD 
HETATM   34  N   UNK A   0     -10.653   7.177  74.415  1.00  0.00    -0.401 NA 
HETATM   35  N   UNK A   0     -11.758   8.215  72.664  1.00  0.00    -0.483 NA 
HETATM   36  N   UNK A   0     -11.209   7.971  69.039  1.00  0.00    -0.317 NA 
HETATM   37  H2  UNK A   0     -12.806  10.169  71.417  1.00  0.00     0.000 HD 
HETATM   38  H2  UNK A   0      -9.972   6.510  74.779  1.00  0.00     0.000 HD 
ENDBRANCH  22  23
ENDBRANCH   2  22
TORSDOF 7
ENDMDL
MODEL       74
REMARK 921   NORMALIZED FREE ENERGY PREDICTED BY IDOCK:   -6.19 KCAL/MOL
REMARK 922        TOTAL FREE ENERGY PREDICTED BY IDOCK:  -10.47 KCAL/MOL
REMARK 923 INTER-LIGAND FREE ENERGY PREDICTED BY IDOCK:   -9.79 KCAL/MOL
REMARK 924 INTRA-LIGAND FREE ENERGY PREDICTED BY IDOCK:   -0.68 KCAL/MOL
REMARK 927      BINDING AFFINITY PREDICTED BY RF-SCORE:    0.00 PKD
ROOT
HETATM    1  C   UNK A   0     -12.724  14.396  70.711  1.00  0.00    -0.360 C  
HETATM    2  N   UNK A   0     -11.851  13.397  70.100  1.00  0.00    -0.472 NA 
ENDROOT
BRANCH   2   3
HETATM    3  C   UNK A   0     -12.094  12.048  70.328  1.00  0.00    -0.312 A  
HETATM    4  C   UNK A   0     -12.358   9.331  71.085  1.00  0.00    -0.363 A  
HETATM    5  C   UNK A   0     -11.393  11.026  69.662  1.00  0.00    -0.363 A  
HETATM    6  C   UNK A   0     -13.019  11.646  71.304  1.00  0.00    -0.368 A  
HETATM    7  C   UNK A   0     -13.142  10.310  71.694  1.00  0.00    -0.553 A  
HETATM    8  C   UNK A   0     -11.529   9.679  70.021  1.00  0.00    -0.191 A  
BRANCH   4   9
HETATM    9  C   UNK A   0     -12.380   7.930  71.573  1.00  0.00    -0.315 C  
HETATM   10  O   UNK A   0     -13.437   7.342  71.752  1.00  0.00    -0.353 OA 
ATOM     11  N   GLU A   1     -11.134   7.343  71.757  1.00  0.00    -0.234 N  
ATOM     12  H   GLU A   1     -10.284   7.899  71.662  1.00  0.00     0.000 HD 
BRANCH  11  13
ATOM     13  CA  GLU A   1     -11.053   5.908  72.090  1.00  0.00    -0.281 C  
ATOM     14  OXT GLU A   1     -10.937   4.715  74.225  1.00  0.00    -0.314 OA 
ATOM     15  C   GLU A   1     -10.780   5.754  73.598  1.00  0.00    -0.251 C  
ATOM     16  O   GLU A   1     -10.176   6.841  74.141  1.00  0.00    -0.344 OA 
BRANCH  13  17
ATOM     17  CB  GLU A   1      -9.931   5.237  71.283  1.00  0.00    -0.256 C  
BRANCH  17  18
ATOM     18  CG  GLU A   1      -9.060   6.239  70.519  1.00  0.00    -0.157 C  
ATOM     19  OE2 GLU A   1     -10.040   5.405  68.464  1.00  0.00    -0.163 OA 
ATOM     20  OE1 GLU A   1      -8.528   7.081  68.363  1.00  0.00    -0.123 OA 
ATOM     21  CD  GLU A   1      -9.278   6.173  69.028  1.00  0.00    -0.126 C  
ENDBRANCH  17  18
ENDBRANCH  13  17
ENDBRANCH  11  13
ENDBRANCH   4   9
ENDBRANCH   2   3
BRANCH   2  22
HETATM   22  C   UNK A   0     -10.523  13.838  69.638  1.00  0.00     0.416 C  
BRANCH  22  23
HETATM   23  C   UNK A   0     -10.505  15.228  69.031  1.00  0.00    -0.248 A  
HETATM   24  N   UNK A   0     -10.885  15.809  64.873  1.00  0.00    -0.564 NA 
HETATM   25  C   UNK A   0     -10.510  17.750  67.932  1.00  0.00    -0.397 A  
HETATM   26  C   UNK A   0     -10.466  16.379  69.797  1.00  0.00    -0.246 A  
HETATM   27  N   UNK A   0     -10.455  18.976  67.422  1.00  0.00    -0.430 NA 
HETATM   28  C   UNK A   0     -10.664  16.854  65.784  1.00  0.00    -0.160 A  
HETATM   29  C   UNK A   0     -10.597  16.594  67.149  1.00  0.00    -0.264 A  
HETATM   30  N   UNK A   0     -10.468  17.629  69.264  1.00  0.00    -0.379 NA 
HETATM   31  C   UNK A   0     -10.471  19.096  66.101  1.00  0.00    -0.477 A  
HETATM   32  H1  UNK A   0     -10.925  14.874  65.281  1.00  0.00     0.000 HD 
HETATM   33  H1  UNK A   0     -10.371  20.454  64.554  1.00  0.00     0.000 HD 
HETATM   34  N   UNK A   0     -10.359  20.363  65.570  1.00  0.00    -0.365 NA 
HETATM   35  N   UNK A   0     -10.611  18.082  65.249  1.00  0.00    -0.513 NA 
HETATM   36  N   UNK A   0     -10.589  15.331  67.684  1.00  0.00    -0.264 NA 
HETATM   37  H2  UNK A   0     -10.186  15.837  64.132  1.00  0.00     0.000 HD 
HETATM   38  H2  UNK A   0     -10.266  21.181  66.173  1.00  0.00     0.000 HD 
ENDBRANCH  22  23
ENDBRANCH   2  22
TORSDOF 7
ENDMDL
MODEL       75
REMARK 921   NORMALIZED FREE ENERGY PREDICTED BY IDOCK:   -6.17 KCAL/MOL
REMARK 922        TOTAL FREE ENERGY PREDICTED BY IDOCK:  -10.45 KCAL/MOL
REMARK 923 INTER-LIGAND FREE ENERGY PREDICTED BY IDOCK:   -9.30 KCAL/MOL
REMARK 924 INTRA-LIGAND FREE ENERGY PREDICTED BY IDOCK:   -1.15 KCAL/MOL
REMARK 927      BINDING AFFINITY PREDICTED BY RF-SCORE:    0.00 PKD
ROOT
HETATM    1  C   UNK A   0     -13.128  13.955  65.313  1.00  0.00    -0.158 C  
HETATM    2  N   UNK A   0     -12.011  13.406  66.077  1.00  0.00    -0.392 NA 
ENDROOT
BRANCH   2   3
HETATM    3  C   UNK A   0     -11.084  14.269  66.649  1.00  0.00    -0.321 A  
HETATM    4  C   UNK A   0      -8.998  15.722  67.898  1.00  0.00    -0.180 A  
HETATM    5  C   UNK A   0     -11.213  14.762  67.959  1.00  0.00    -0.311 A  
HETATM    6  C   UNK A   0      -9.924  14.632  65.947  1.00  0.00    -0.352 A  
HETATM    7  C   UNK A   0      -8.884  15.335  66.563  1.00  0.00    -0.335 A  
HETATM    8  C   UNK A   0     -10.191  15.494  68.579  1.00  0.00    -0.215 A  
BRANCH   4   9
HETATM    9  C   UNK A   0      -7.856  16.352  68.604  1.00  0.00    -0.211 C  
HETATM   10  O   UNK A   0      -7.281  15.774  69.515  1.00  0.00    -0.203 OA 
ATOM     11  N   GLU A   1      -7.473  17.598  68.123  1.00  0.00    -0.222 N  
ATOM     12  H   GLU A   1      -8.028  18.068  67.408  1.00  0.00     0.000 HD 
BRANCH  11  13
ATOM     13  CA  GLU A   1      -6.253  18.235  68.656  1.00  0.00    -0.208 C  
ATOM     14  OXT GLU A   1      -5.906  20.167  70.118  1.00  0.00    -0.286 OA 
ATOM     15  C   GLU A   1      -6.634  19.558  69.347  1.00  0.00    -0.338 C  
ATOM     16  O   GLU A   1      -7.796  20.083  68.882  1.00  0.00    -0.159 OA 
BRANCH  13  17
ATOM     17  CB  GLU A   1      -5.255  18.506  67.520  1.00  0.00    -0.148 C  
BRANCH  17  18
ATOM     18  CG  GLU A   1      -5.555  19.796  66.751  1.00  0.00    -0.169 C  
ATOM     19  OE2 GLU A   1      -6.758  18.456  65.127  1.00  0.00    -0.504 OA 
ATOM     20  OE1 GLU A   1      -6.664  20.697  64.854  1.00  0.00    -0.279 OA 
ATOM     21  CD  GLU A   1      -6.377  19.550  65.511  1.00  0.00    -0.236 C  
ENDBRANCH  17  18
ENDBRANCH  13  17
ENDBRANCH  11  13
ENDBRANCH   4   9
ENDBRANCH   2   3
BRANCH   2  22
HETATM   22  C   UNK A   0     -11.660  11.991  65.857  1.00  0.00    -0.300 C  
BRANCH  22  23
HETATM   23  C   UNK A   0     -11.000  11.321  67.046  1.00  0.00    -0.294 A  
HETATM   24  N   UNK A   0     -13.260   9.976  70.339  1.00  0.00    -0.577 NA 
HETATM   25  C   UNK A   0      -9.807  10.071  69.187  1.00  0.00    -0.205 A  
HETATM   26  C   UNK A   0      -9.650  11.020  67.081  1.00  0.00    -0.169 A  
HETATM   27  N   UNK A   0      -9.199   9.519  70.232  1.00  0.00    -0.246 NA 
HETATM   28  C   UNK A   0     -11.859   9.908  70.283  1.00  0.00    -0.184 A  
HETATM   29  C   UNK A   0     -11.181  10.327  69.143  1.00  0.00    -0.215 A  
HETATM   30  N   UNK A   0      -9.051  10.404  68.133  1.00  0.00    -0.139 NA 
HETATM   31  C   UNK A   0      -9.943   9.211  71.287  1.00  0.00    -0.303 A  
HETATM   32  H1  UNK A   0     -13.711  10.401  69.529  1.00  0.00     0.000 HD 
HETATM   33  H1  UNK A   0      -9.879   8.454  73.202  1.00  0.00     0.000 HD 
HETATM   34  N   UNK A   0      -9.306   8.690  72.392  1.00  0.00    -0.326 NA 
HETATM   35  N   UNK A   0     -11.266   9.349  71.347  1.00  0.00    -0.358 NA 
HETATM   36  N   UNK A   0     -11.787  10.955  68.084  1.00  0.00    -0.753 NA 
HETATM   37  H2  UNK A   0     -13.553  10.451  71.193  1.00  0.00     0.000 HD 
HETATM   38  H2  UNK A   0      -8.296   8.546  72.398  1.00  0.00     0.000 HD 
ENDBRANCH  22  23
ENDBRANCH   2  22
TORSDOF 7
ENDMDL
MODEL       76
REMARK 921   NORMALIZED FREE ENERGY PREDICTED BY IDOCK:   -6.16 KCAL/MOL
REMARK 922        TOTAL FREE ENERGY PREDICTED BY IDOCK:  -10.43 KCAL/MOL
REMARK 923 INTER-LIGAND FREE ENERGY PREDICTED BY IDOCK:   -9.41 KCAL/MOL
REMARK 924 INTRA-LIGAND FREE ENERGY PREDICTED BY IDOCK:   -1.02 KCAL/MOL
REMARK 927      BINDING AFFINITY PREDICTED BY RF-SCORE:    0.00 PKD
ROOT
HETATM    1  C   UNK A   0      -5.813  10.564  71.195  1.00  0.00     0.057 C  
HETATM    2  N   UNK A   0      -6.467  10.529  69.891  1.00  0.00    -0.099 NA 
ENDROOT
BRANCH   2   3
HETATM    3  C   UNK A   0      -6.633  11.710  69.177  1.00  0.00    -0.101 A  
HETATM    4  C   UNK A   0      -7.316  14.126  67.865  1.00  0.00    -0.163 A  
HETATM    5  C   UNK A   0      -6.990  11.733  67.817  1.00  0.00    -0.094 A  
HETATM    6  C   UNK A   0      -6.514  12.952  69.821  1.00  0.00    -0.003 A  
HETATM    7  C   UNK A   0      -6.866  14.145  69.185  1.00  0.00    -0.113 A  
HETATM    8  C   UNK A   0      -7.316  12.926  67.158  1.00  0.00     0.002 A  
BRANCH   4   9
HETATM    9  C   UNK A   0      -7.816  15.363  67.216  1.00  0.00    -0.206 C  
HETATM   10  O   UNK A   0      -7.042  16.215  66.805  1.00  0.00    -0.205 OA 
ATOM     11  N   GLU A   1      -9.196  15.445  67.075  1.00  0.00    -0.214 N  
ATOM     12  H   GLU A   1      -9.800  14.741  67.497  1.00  0.00     0.000 HD 
BRANCH  11  13
ATOM     13  CA  GLU A   1      -9.777  16.562  66.305  1.00  0.00    -0.305 C  
ATOM     14  OXT GLU A   1     -10.523  18.801  66.956  1.00  0.00    -0.379 OA 
ATOM     15  C   GLU A   1     -10.260  17.652  67.281  1.00  0.00    -0.343 C  
ATOM     16  O   GLU A   1     -10.536  17.169  68.519  1.00  0.00    -0.345 OA 
BRANCH  13  17
ATOM     17  CB  GLU A   1     -10.954  16.064  65.453  1.00  0.00    -0.261 C  
BRANCH  17  18
ATOM     18  CG  GLU A   1     -10.735  14.656  64.891  1.00  0.00    -0.447 C  
ATOM     19  OE2 GLU A   1     -13.112  14.262  65.161  1.00  0.00    -0.704 OA 
ATOM     20  OE1 GLU A   1     -11.818  12.631  64.284  1.00  0.00    -0.344 OA 
ATOM     21  CD  GLU A   1     -12.014  13.862  64.809  1.00  0.00    -0.406 C  
ENDBRANCH  17  18
ENDBRANCH  13  17
ENDBRANCH  11  13
ENDBRANCH   4   9
ENDBRANCH   2   3
BRANCH   2  22
HETATM   22  C   UNK A   0      -7.300   9.355  69.573  1.00  0.00    -0.073 C  
BRANCH  22  23
HETATM   23  C   UNK A   0      -8.724   9.443  70.087  1.00  0.00    -0.221 A  
HETATM   24  N   UNK A   0      -9.974   7.255  73.466  1.00  0.00    -0.288 NA 
HETATM   25  C   UNK A   0     -11.296   9.632  71.045  1.00  0.00    -0.374 A  
HETATM   26  C   UNK A   0      -9.660  10.311  69.554  1.00  0.00    -0.202 A  
HETATM   27  N   UNK A   0     -12.559   9.700  71.454  1.00  0.00    -0.346 NA 
HETATM   28  C   UNK A   0     -10.837   8.052  72.698  1.00  0.00    -0.368 A  
HETATM   29  C   UNK A   0     -10.344   8.786  71.623  1.00  0.00    -0.321 A  
HETATM   30  N   UNK A   0     -10.932  10.411  70.019  1.00  0.00    -0.295 NA 
HETATM   31  C   UNK A   0     -12.927   8.911  72.455  1.00  0.00    -0.404 A  
HETATM   32  H1  UNK A   0      -9.008   7.214  73.139  1.00  0.00     0.000 HD 
HETATM   33  H1  UNK A   0     -14.530   8.333  73.613  1.00  0.00     0.000 HD 
HETATM   34  N   UNK A   0     -14.248   8.940  72.843  1.00  0.00    -1.123 NA 
HETATM   35  N   UNK A   0     -12.105   8.106  73.127  1.00  0.00    -0.530 NA 
HETATM   36  N   UNK A   0      -9.060   8.678  71.152  1.00  0.00    -0.188 NA 
HETATM   37  H2  UNK A   0     -10.353   6.313  73.554  1.00  0.00     0.000 HD 
HETATM   38  H2  UNK A   0     -14.921   9.548  72.376  1.00  0.00     0.000 HD 
ENDBRANCH  22  23
ENDBRANCH   2  22
TORSDOF 7
ENDMDL
MODEL       77
REMARK 921   NORMALIZED FREE ENERGY PREDICTED BY IDOCK:   -6.15 KCAL/MOL
REMARK 922        TOTAL FREE ENERGY PREDICTED BY IDOCK:  -10.42 KCAL/MOL
REMARK 923 INTER-LIGAND FREE ENERGY PREDICTED BY IDOCK:   -9.38 KCAL/MOL
REMARK 924 INTRA-LIGAND FREE ENERGY PREDICTED BY IDOCK:   -1.03 KCAL/MOL
REMARK 927      BINDING AFFINITY PREDICTED BY RF-SCORE:    0.00 PKD
ROOT
HETATM    1  C   UNK A   0     -12.782  11.991  63.469  1.00  0.00    -0.443 C  
HETATM    2  N   UNK A   0     -11.460  11.990  64.088  1.00  0.00    -0.365 NA 
ENDROOT
BRANCH   2   3
HETATM    3  C   UNK A   0     -11.178  12.903  65.097  1.00  0.00    -0.288 A  
HETATM    4  C   UNK A   0     -10.894  14.961  67.023  1.00  0.00    -0.315 A  
HETATM    5  C   UNK A   0     -10.204  13.908  64.962  1.00  0.00    -0.383 A  
HETATM    6  C   UNK A   0     -11.921  12.899  66.288  1.00  0.00    -0.472 A  
HETATM    7  C   UNK A   0     -11.798  13.920  67.235  1.00  0.00    -0.442 A  
HETATM    8  C   UNK A   0     -10.048  14.922  65.918  1.00  0.00    -0.348 A  
BRANCH   4   9
HETATM    9  C   UNK A   0     -10.841  16.118  67.950  1.00  0.00    -0.332 C  
HETATM   10  O   UNK A   0     -11.498  16.131  68.980  1.00  0.00    -0.347 OA 
ATOM     11  N   GLU A   1      -9.969  17.136  67.583  1.00  0.00    -0.274 N  
ATOM     12  H   GLU A   1      -9.497  17.109  66.679  1.00  0.00     0.000 HD 
BRANCH  11  13
ATOM     13  CA  GLU A   1      -9.731  18.255  68.515  1.00  0.00    -0.362 C  
ATOM     14  OXT GLU A   1     -10.627  20.530  68.623  1.00  0.00    -0.087 OA 
ATOM     15  C   GLU A   1     -10.403  19.526  67.962  1.00  0.00    -0.445 C  
ATOM     16  O   GLU A   1     -10.571  19.494  66.616  1.00  0.00    -0.440 OA 
BRANCH  13  17
ATOM     17  CB  GLU A   1      -8.223  18.493  68.686  1.00  0.00    -0.335 C  
BRANCH  17  18
ATOM     18  CG  GLU A   1      -7.377  17.769  67.633  1.00  0.00    -0.207 C  
ATOM     19  OE2 GLU A   1      -7.225  15.891  69.159  1.00  0.00    -0.170 OA 
ATOM     20  OE1 GLU A   1      -6.236  15.747  67.133  1.00  0.00    -0.309 OA 
ATOM     21  CD  GLU A   1      -6.955  16.392  68.080  1.00  0.00    -0.140 C  
ENDBRANCH  17  18
ENDBRANCH  13  17
ENDBRANCH  11  13
ENDBRANCH   4   9
ENDBRANCH   2   3
BRANCH   2  22
HETATM   22  C   UNK A   0     -10.359  11.343  63.353  1.00  0.00    -0.402 C  
BRANCH  22  23
HETATM   23  C   UNK A   0      -9.665  10.233  64.120  1.00  0.00    -0.291 A  
HETATM   24  N   UNK A   0     -11.084   8.945  67.875  1.00  0.00    -0.464 NA 
HETATM   25  C   UNK A   0      -8.431   8.196  65.496  1.00  0.00    -0.159 A  
HETATM   26  C   UNK A   0      -8.603   9.515  63.601  1.00  0.00    -0.212 A  
HETATM   27  N   UNK A   0      -7.783   7.246  66.163  1.00  0.00    -0.097 NA 
HETATM   28  C   UNK A   0      -9.917   8.446  67.275  1.00  0.00    -0.227 A  
HETATM   29  C   UNK A   0      -9.534   8.883  66.011  1.00  0.00    -0.252 A  
HETATM   30  N   UNK A   0      -7.986   8.508  64.272  1.00  0.00    -0.142 NA 
HETATM   31  C   UNK A   0      -8.208   6.952  67.386  1.00  0.00    -0.119 A  
HETATM   32  H1  UNK A   0     -11.569   9.673  67.349  1.00  0.00     0.000 HD 
HETATM   33  H1  UNK A   0      -7.830   5.783  69.040  1.00  0.00     0.000 HD 
HETATM   34  N   UNK A   0      -7.504   6.008  68.100  1.00  0.00    -0.087 NA 
HETATM   35  N   UNK A   0      -9.279   7.490  67.966  1.00  0.00    -0.137 NA 
HETATM   36  N   UNK A   0     -10.155   9.905  65.338  1.00  0.00    -0.288 NA 
HETATM   37  H2  UNK A   0     -10.880   9.273  68.819  1.00  0.00     0.000 HD 
HETATM   38  H2  UNK A   0      -6.684   5.549  67.702  1.00  0.00     0.000 HD 
ENDBRANCH  22  23
ENDBRANCH   2  22
TORSDOF 7
ENDMDL
MODEL       78
REMARK 921   NORMALIZED FREE ENERGY PREDICTED BY IDOCK:   -6.15 KCAL/MOL
REMARK 922        TOTAL FREE ENERGY PREDICTED BY IDOCK:  -10.41 KCAL/MOL
REMARK 923 INTER-LIGAND FREE ENERGY PREDICTED BY IDOCK:   -9.65 KCAL/MOL
REMARK 924 INTRA-LIGAND FREE ENERGY PREDICTED BY IDOCK:   -0.77 KCAL/MOL
REMARK 927      BINDING AFFINITY PREDICTED BY RF-SCORE:    0.00 PKD
ROOT
HETATM    1  C   UNK A   0     -12.470   8.374  71.261  1.00  0.00    -0.244 C  
HETATM    2  N   UNK A   0     -11.363   9.302  71.046  1.00  0.00    -0.293 NA 
ENDROOT
BRANCH   2   3
HETATM    3  C   UNK A   0     -11.581  10.469  70.323  1.00  0.00    -0.332 A  
HETATM    4  C   UNK A   0     -11.670  12.935  68.931  1.00  0.00    -0.370 A  
HETATM    5  C   UNK A   0     -12.181  11.610  70.885  1.00  0.00    -0.401 A  
HETATM    6  C   UNK A   0     -11.137  10.577  68.996  1.00  0.00    -0.300 A  
HETATM    7  C   UNK A   0     -11.163  11.794  68.309  1.00  0.00    -0.313 A  
HETATM    8  C   UNK A   0     -12.241  12.830  70.196  1.00  0.00    -0.320 A  
BRANCH   4   9
HETATM    9  C   UNK A   0     -11.588  14.259  68.268  1.00  0.00    -0.324 C  
HETATM   10  O   UNK A   0     -12.030  15.262  68.807  1.00  0.00    -0.321 OA 
ATOM     11  N   GLU A   1     -10.939  14.270  67.039  1.00  0.00    -0.298 N  
ATOM     12  H   GLU A   1     -10.651  13.395  66.601  1.00  0.00     0.000 HD 
BRANCH  11  13
ATOM     13  CA  GLU A   1     -10.670  15.560  66.376  1.00  0.00    -0.303 C  
ATOM     14  OXT GLU A   1     -11.397  16.497  64.234  1.00  0.00    -1.020 OA 
ATOM     15  C   GLU A   1     -11.213  15.512  64.935  1.00  0.00    -0.389 C  
ATOM     16  O   GLU A   1     -11.307  14.249  64.447  1.00  0.00    -0.347 OA 
BRANCH  13  17
ATOM     17  CB  GLU A   1      -9.160  15.844  66.356  1.00  0.00    -0.355 C  
BRANCH  17  18
ATOM     18  CG  GLU A   1      -8.392  15.084  67.443  1.00  0.00    -0.210 C  
ATOM     19  OE2 GLU A   1      -8.987  16.852  68.991  1.00  0.00    -0.252 OA 
ATOM     20  OE1 GLU A   1      -7.778  15.095  69.737  1.00  0.00    -0.202 OA 
ATOM     21  CD  GLU A   1      -8.432  15.787  68.776  1.00  0.00    -0.198 C  
ENDBRANCH  17  18
ENDBRANCH  13  17
ENDBRANCH  11  13
ENDBRANCH   4   9
ENDBRANCH   2   3
BRANCH   2  22
HETATM   22  C   UNK A   0      -9.993   8.786  71.213  1.00  0.00    -0.263 C  
BRANCH  22  23
HETATM   23  C   UNK A   0      -9.749   7.442  70.555  1.00  0.00    -0.175 A  
HETATM   24  N   UNK A   0     -11.062   6.652  66.629  1.00  0.00    -0.622 NA 
HETATM   25  C   UNK A   0      -9.273   5.017  69.347  1.00  0.00    -0.108 A  
HETATM   26  C   UNK A   0      -9.003   6.441  71.152  1.00  0.00    -0.146 A  
HETATM   27  N   UNK A   0      -9.078   3.817  68.806  1.00  0.00    -0.129 NA 
HETATM   28  C   UNK A   0     -10.440   5.693  67.445  1.00  0.00    -0.241 A  
HETATM   29  C   UNK A   0      -9.989   6.038  68.715  1.00  0.00    -0.150 A  
HETATM   30  N   UNK A   0      -8.762   5.240  70.564  1.00  0.00    -0.119 NA 
HETATM   31  C   UNK A   0      -9.604   3.587  67.611  1.00  0.00    -0.127 A  
HETATM   32  H1  UNK A   0     -11.204   7.566  67.058  1.00  0.00     0.000 HD 
HETATM   33  H1  UNK A   0      -9.855   2.150  66.154  1.00  0.00     0.000 HD 
HETATM   34  N   UNK A   0      -9.450   2.327  67.074  1.00  0.00    -0.393 NA 
HETATM   35  N   UNK A   0     -10.254   4.491  66.881  1.00  0.00    -0.196 NA 
HETATM   36  N   UNK A   0     -10.238   7.250  69.308  1.00  0.00    -0.187 NA 
HETATM   37  H2  UNK A   0     -11.947   6.290  66.276  1.00  0.00     0.000 HD 
HETATM   38  H2  UNK A   0      -8.948   1.597  67.579  1.00  0.00     0.000 HD 
ENDBRANCH  22  23
ENDBRANCH   2  22
TORSDOF 7
ENDMDL
MODEL       79
REMARK 921   NORMALIZED FREE ENERGY PREDICTED BY IDOCK:   -6.14 KCAL/MOL
REMARK 922        TOTAL FREE ENERGY PREDICTED BY IDOCK:  -10.39 KCAL/MOL
REMARK 923 INTER-LIGAND FREE ENERGY PREDICTED BY IDOCK:   -9.46 KCAL/MOL
REMARK 924 INTRA-LIGAND FREE ENERGY PREDICTED BY IDOCK:   -0.94 KCAL/MOL
REMARK 927      BINDING AFFINITY PREDICTED BY RF-SCORE:    0.00 PKD
ROOT
HETATM    1  C   UNK A   0     -10.731  13.271  64.770  1.00  0.00    -0.378 C  
HETATM    2  N   UNK A   0      -9.679  12.885  65.706  1.00  0.00    -0.423 NA 
ENDROOT
BRANCH   2   3
HETATM    3  C   UNK A   0      -9.510  11.543  66.028  1.00  0.00    -0.229 A  
HETATM    4  C   UNK A   0      -9.075   8.929  67.029  1.00  0.00    -0.161 A  
HETATM    5  C   UNK A   0      -8.323  10.840  65.757  1.00  0.00    -0.158 A  
HETATM    6  C   UNK A   0     -10.516  10.846  66.716  1.00  0.00    -0.302 A  
HETATM    7  C   UNK A   0     -10.301   9.562  67.227  1.00  0.00    -0.319 A  
HETATM    8  C   UNK A   0      -8.107   9.541  66.237  1.00  0.00    -0.111 A  
BRANCH   4   9
HETATM    9  C   UNK A   0      -8.784   7.625  67.672  1.00  0.00    -0.122 C  
HETATM   10  O   UNK A   0      -7.840   7.496  68.437  1.00  0.00    -0.117 OA 
ATOM     11  N   GLU A   1      -9.679   6.603  67.378  1.00  0.00    -0.124 N  
ATOM     12  H   GLU A   1     -10.408   6.743  66.679  1.00  0.00     0.000 HD 
BRANCH  11  13
ATOM     13  CA  GLU A   1      -9.564   5.315  68.089  1.00  0.00    -0.129 C  
ATOM     14  OXT GLU A   1      -9.476   2.999  67.301  1.00  0.00    -0.189 OA 
ATOM     15  C   GLU A   1      -9.782   4.164  67.088  1.00  0.00    -0.186 C  
ATOM     16  O   GLU A   1     -10.511   4.535  66.005  1.00  0.00    -0.277 OA 
BRANCH  13  17
ATOM     17  CB  GLU A   1     -10.606   5.234  69.215  1.00  0.00    -0.188 C  
BRANCH  17  18
ATOM     18  CG  GLU A   1     -11.301   6.572  69.487  1.00  0.00    -0.419 C  
ATOM     19  OE2 GLU A   1     -11.492   5.912  71.812  1.00  0.00    -0.269 OA 
ATOM     20  OE1 GLU A   1     -12.269   7.935  71.173  1.00  0.00    -0.304 OA 
ATOM     21  CD  GLU A   1     -11.684   6.739  70.936  1.00  0.00    -0.372 C  
ENDBRANCH  17  18
ENDBRANCH  13  17
ENDBRANCH  11  13
ENDBRANCH   4   9
ENDBRANCH   2   3
BRANCH   2  22
HETATM   22  C   UNK A   0      -9.130  13.929  66.590  1.00  0.00    -0.190 C  
BRANCH  22  23
HETATM   23  C   UNK A   0     -10.128  14.488  67.586  1.00  0.00    -0.228 A  
HETATM   24  N   UNK A   0     -11.907  12.039  70.518  1.00  0.00    -0.510 NA 
HETATM   25  C   UNK A   0     -11.908  15.510  69.417  1.00  0.00    -0.374 A  
HETATM   26  C   UNK A   0     -10.434  15.835  67.661  1.00  0.00    -0.282 A  
HETATM   27  N   UNK A   0     -12.806  16.018  70.256  1.00  0.00    -0.616 NA 
HETATM   28  C   UNK A   0     -12.233  13.393  70.339  1.00  0.00    -0.345 A  
HETATM   29  C   UNK A   0     -11.570  14.154  69.381  1.00  0.00    -0.304 A  
HETATM   30  N   UNK A   0     -11.312  16.350  68.562  1.00  0.00    -0.348 NA 
HETATM   31  C   UNK A   0     -13.415  15.183  71.088  1.00  0.00    -0.465 A  
HETATM   32  H1  UNK A   0     -11.217  11.665  69.867  1.00  0.00     0.000 HD 
HETATM   33  H1  UNK A   0     -14.853  15.057  72.558  1.00  0.00     0.000 HD 
HETATM   34  N   UNK A   0     -14.385  15.699  71.919  1.00  0.00    -0.460 NA 
HETATM   35  N   UNK A   0     -13.141  13.884  71.194  1.00  0.00    -0.309 NA 
HETATM   36  N   UNK A   0     -10.688  13.630  68.470  1.00  0.00    -0.250 NA 
HETATM   37  H2  UNK A   0     -12.753  11.470  70.495  1.00  0.00     0.000 HD 
HETATM   38  H2  UNK A   0     -14.627  16.690  71.895  1.00  0.00     0.000 HD 
ENDBRANCH  22  23
ENDBRANCH   2  22
TORSDOF 7
ENDMDL
MODEL       80
REMARK 921   NORMALIZED FREE ENERGY PREDICTED BY IDOCK:   -6.10 KCAL/MOL
REMARK 922        TOTAL FREE ENERGY PREDICTED BY IDOCK:  -10.35 KCAL/MOL
REMARK 923 INTER-LIGAND FREE ENERGY PREDICTED BY IDOCK:   -9.18 KCAL/MOL
REMARK 924 INTRA-LIGAND FREE ENERGY PREDICTED BY IDOCK:   -1.17 KCAL/MOL
REMARK 927      BINDING AFFINITY PREDICTED BY RF-SCORE:    0.00 PKD
ROOT
HETATM    1  C   UNK A   0      -9.833   9.820  69.635  1.00  0.00    -0.221 C  
HETATM    2  N   UNK A   0     -10.287  10.959  68.842  1.00  0.00    -0.196 NA 
ENDROOT
BRANCH   2   3
HETATM    3  C   UNK A   0      -9.360  11.897  68.403  1.00  0.00    -0.184 A  
HETATM    4  C   UNK A   0      -7.553  14.000  67.821  1.00  0.00    -0.177 A  
HETATM    5  C   UNK A   0      -9.684  12.915  67.488  1.00  0.00    -0.205 A  
HETATM    6  C   UNK A   0      -8.056  11.907  68.923  1.00  0.00     0.066 A  
HETATM    7  C   UNK A   0      -7.166  12.949  68.653  1.00  0.00    -0.098 A  
HETATM    8  C   UNK A   0      -8.790  13.950  67.184  1.00  0.00    -0.236 A  
BRANCH   4   9
HETATM    9  C   UNK A   0      -6.671  15.177  67.627  1.00  0.00    -0.176 C  
HETATM   10  O   UNK A   0      -5.457  15.053  67.577  1.00  0.00    -0.328 OA 
ATOM     11  N   GLU A   1      -7.327  16.391  67.463  1.00  0.00    -0.134 N  
ATOM     12  H   GLU A   1      -8.337  16.451  67.584  1.00  0.00     0.000 HD 
BRANCH  11  13
ATOM     13  CA  GLU A   1      -6.545  17.592  67.110  1.00  0.00    -0.165 C  
ATOM     14  OXT GLU A   1      -5.646  19.428  68.456  1.00  0.00    -0.199 OA 
ATOM     15  C   GLU A   1      -6.448  18.512  68.341  1.00  0.00    -0.219 C  
ATOM     16  O   GLU A   1      -7.460  18.322  69.226  1.00  0.00    -0.150 OA 
BRANCH  13  17
ATOM     17  CB  GLU A   1      -7.216  18.340  65.948  1.00  0.00    -0.270 C  
BRANCH  17  18
ATOM     18  CG  GLU A   1      -6.213  18.884  64.926  1.00  0.00    -0.261 C  
ATOM     19  OE2 GLU A   1      -6.636  21.103  65.807  1.00  0.00    -0.147 OA 
ATOM     20  OE1 GLU A   1      -5.133  20.847  64.140  1.00  0.00    -0.180 OA 
ATOM     21  CD  GLU A   1      -6.042  20.379  65.025  1.00  0.00    -0.257 C  
ENDBRANCH  17  18
ENDBRANCH  13  17
ENDBRANCH  11  13
ENDBRANCH   4   9
ENDBRANCH   2   3
BRANCH   2  22
HETATM   22  C   UNK A   0     -11.717  11.308  68.899  1.00  0.00    -0.341 C  
BRANCH  22  23
HETATM   23  C   UNK A   0     -12.101  12.171  70.086  1.00  0.00    -0.290 A  
HETATM   24  N   UNK A   0     -11.611  16.357  70.002  1.00  0.00    -0.358 NA 
HETATM   25  C   UNK A   0     -12.831  13.742  72.223  1.00  0.00    -0.261 A  
HETATM   26  C   UNK A   0     -12.721  11.661  71.213  1.00  0.00    -0.340 A  
HETATM   27  N   UNK A   0     -13.142  14.471  73.290  1.00  0.00    -0.589 NA 
HETATM   28  C   UNK A   0     -12.065  15.653  71.129  1.00  0.00    -0.404 A  
HETATM   29  C   UNK A   0     -12.248  14.275  71.069  1.00  0.00    -0.356 A  
HETATM   30  N   UNK A   0     -13.085  12.428  72.273  1.00  0.00    -0.325 NA 
HETATM   31  C   UNK A   0     -12.869  15.769  73.251  1.00  0.00    -0.542 A  
HETATM   32  H1  UNK A   0     -11.378  15.782  69.192  1.00  0.00     0.000 HD 
HETATM   33  H1  UNK A   0     -12.930  17.514  74.346  1.00  0.00     0.000 HD 
HETATM   34  N   UNK A   0     -13.140  16.516  74.376  1.00  0.00    -0.691 NA 
HETATM   35  N   UNK A   0     -12.372  16.407  72.193  1.00  0.00    -0.531 NA 
HETATM   36  N   UNK A   0     -11.874  13.502  69.999  1.00  0.00    -0.412 NA 
HETATM   37  H2  UNK A   0     -10.818  16.946  70.253  1.00  0.00     0.000 HD 
HETATM   38  H2  UNK A   0     -13.537  16.086  75.212  1.00  0.00     0.000 HD 
ENDBRANCH  22  23
ENDBRANCH   2  22
TORSDOF 7
ENDMDL
MODEL       81
REMARK 921   NORMALIZED FREE ENERGY PREDICTED BY IDOCK:   -6.06 KCAL/MOL
REMARK 922        TOTAL FREE ENERGY PREDICTED BY IDOCK:  -10.29 KCAL/MOL
REMARK 923 INTER-LIGAND FREE ENERGY PREDICTED BY IDOCK:   -9.66 KCAL/MOL
REMARK 924 INTRA-LIGAND FREE ENERGY PREDICTED BY IDOCK:   -0.63 KCAL/MOL
REMARK 927      BINDING AFFINITY PREDICTED BY RF-SCORE:    0.00 PKD
ROOT
HETATM    1  C   UNK A   0     -11.475  11.628  63.525  1.00  0.00    -0.329 C  
HETATM    2  N   UNK A   0     -10.764  11.504  64.794  1.00  0.00    -0.301 NA 
ENDROOT
BRANCH   2   3
HETATM    3  C   UNK A   0     -10.651  12.613  65.625  1.00  0.00    -0.273 A  
HETATM    4  C   UNK A   0     -10.531  15.075  67.021  1.00  0.00    -0.278 A  
HETATM    5  C   UNK A   0      -9.430  13.272  65.851  1.00  0.00    -0.045 A  
HETATM    6  C   UNK A   0     -11.791  13.170  66.226  1.00  0.00    -0.455 A  
HETATM    7  C   UNK A   0     -11.742  14.393  66.901  1.00  0.00    -0.422 A  
HETATM    8  C   UNK A   0      -9.361  14.483  66.553  1.00  0.00    -0.307 A  
BRANCH   4   9
HETATM    9  C   UNK A   0     -10.482  16.431  67.620  1.00  0.00    -0.302 C  
HETATM   10  O   UNK A   0     -11.223  16.740  68.541  1.00  0.00    -0.319 OA 
ATOM     11  N   GLU A   1      -9.516  17.280  67.093  1.00  0.00    -0.250 N  
ATOM     12  H   GLU A   1      -8.971  16.998  66.279  1.00  0.00     0.000 HD 
BRANCH  11  13
ATOM     13  CA  GLU A   1      -9.286  18.593  67.726  1.00  0.00    -0.285 C  
ATOM     14  OXT GLU A   1     -10.280  20.799  67.356  1.00  0.00    -0.262 OA 
ATOM     15  C   GLU A   1     -10.042  19.676  66.934  1.00  0.00    -0.417 C  
ATOM     16  O   GLU A   1     -10.273  19.325  65.643  1.00  0.00    -0.473 OA 
BRANCH  13  17
ATOM     17  CB  GLU A   1      -7.784  18.915  67.750  1.00  0.00    -0.265 C  
BRANCH  17  18
ATOM     18  CG  GLU A   1      -7.213  19.011  69.168  1.00  0.00    -0.305 C  
ATOM     19  OE2 GLU A   1      -5.612  17.297  68.557  1.00  0.00    -0.141 OA 
ATOM     20  OE1 GLU A   1      -5.537  18.185  70.633  1.00  0.00    -0.230 OA 
ATOM     21  CD  GLU A   1      -6.055  18.072  69.389  1.00  0.00    -0.245 C  
ENDBRANCH  17  18
ENDBRANCH  13  17
ENDBRANCH  11  13
ENDBRANCH   4   9
ENDBRANCH   2   3
BRANCH   2  22
HETATM   22  C   UNK A   0      -9.839  10.368  64.954  1.00  0.00    -0.334 C  
BRANCH  22  23
HETATM   23  C   UNK A   0      -9.970   9.640  66.278  1.00  0.00    -0.264 A  
HETATM   24  N   UNK A   0     -11.115   5.586  66.445  1.00  0.00    -0.726 NA 
HETATM   25  C   UNK A   0     -10.172   8.306  68.676  1.00  0.00    -0.204 A  
HETATM   26  C   UNK A   0      -9.629  10.218  67.488  1.00  0.00    -0.156 A  
HETATM   27  N   UNK A   0     -10.314   7.701  69.851  1.00  0.00    -0.219 NA 
HETATM   28  C   UNK A   0     -10.898   6.377  67.585  1.00  0.00    -0.339 A  
HETATM   29  C   UNK A   0     -10.474   7.696  67.454  1.00  0.00    -0.297 A  
HETATM   30  N   UNK A   0      -9.726   9.568  68.677  1.00  0.00    -0.152 NA 
HETATM   31  C   UNK A   0     -10.780   6.459  69.853  1.00  0.00    -0.274 A  
HETATM   32  H1  UNK A   0     -11.001   6.066  65.552  1.00  0.00     0.000 HD 
HETATM   33  H1  UNK A   0     -11.338   4.895  71.073  1.00  0.00     0.000 HD 
HETATM   34  N   UNK A   0     -10.980   5.850  71.072  1.00  0.00    -0.280 NA 
HETATM   35  N   UNK A   0     -11.047   5.748  68.759  1.00  0.00    -0.162 NA 
HETATM   36  N   UNK A   0     -10.384   8.351  66.252  1.00  0.00    -0.351 NA 
HETATM   37  H2  UNK A   0     -12.035   5.149  66.493  1.00  0.00     0.000 HD 
HETATM   38  H2  UNK A   0     -10.777   6.338  71.945  1.00  0.00     0.000 HD 
ENDBRANCH  22  23
ENDBRANCH   2  22
TORSDOF 7
ENDMDL
MODEL       82
REMARK 921   NORMALIZED FREE ENERGY PREDICTED BY IDOCK:   -6.05 KCAL/MOL
REMARK 922        TOTAL FREE ENERGY PREDICTED BY IDOCK:  -10.28 KCAL/MOL
REMARK 923 INTER-LIGAND FREE ENERGY PREDICTED BY IDOCK:   -9.04 KCAL/MOL
REMARK 924 INTRA-LIGAND FREE ENERGY PREDICTED BY IDOCK:   -1.24 KCAL/MOL
REMARK 927      BINDING AFFINITY PREDICTED BY RF-SCORE:    0.00 PKD
ROOT
HETATM    1  C   UNK A   0     -13.008  14.042  65.689  1.00  0.00    -0.297 C  
HETATM    2  N   UNK A   0     -11.695  13.404  65.723  1.00  0.00    -0.334 NA 
ENDROOT
BRANCH   2   3
HETATM    3  C   UNK A   0     -11.391  12.519  66.751  1.00  0.00    -0.334 A  
HETATM    4  C   UNK A   0     -11.064  10.514  68.725  1.00  0.00    -0.315 A  
HETATM    5  C   UNK A   0     -11.841  12.705  68.070  1.00  0.00    -0.376 A  
HETATM    6  C   UNK A   0     -10.667  11.346  66.489  1.00  0.00    -0.325 A  
HETATM    7  C   UNK A   0     -10.516  10.345  67.453  1.00  0.00    -0.299 A  
HETATM    8  C   UNK A   0     -11.669  11.723  69.056  1.00  0.00    -0.390 A  
BRANCH   4   9
HETATM    9  C   UNK A   0     -11.026   9.413  69.718  1.00  0.00    -0.215 C  
HETATM   10  O   UNK A   0     -11.766   9.415  70.689  1.00  0.00    -0.268 OA 
ATOM     11  N   GLU A   1     -10.138   8.383  69.431  1.00  0.00    -0.193 N  
ATOM     12  H   GLU A   1      -9.492   8.463  68.646  1.00  0.00     0.000 HD 
BRANCH  11  13
ATOM     13  CA  GLU A   1     -10.139   7.172  70.275  1.00  0.00    -0.188 C  
ATOM     14  OXT GLU A   1      -8.331   5.826  71.230  1.00  0.00    -0.123 OA 
ATOM     15  C   GLU A   1      -8.700   6.633  70.389  1.00  0.00    -0.151 C  
ATOM     16  O   GLU A   1      -7.910   7.009  69.351  1.00  0.00    -0.109 OA 
BRANCH  13  17
ATOM     17  CB  GLU A   1     -11.053   6.099  69.663  1.00  0.00    -0.489 C  
BRANCH  17  18
ATOM     18  CG  GLU A   1     -11.152   6.193  68.138  1.00  0.00    -0.328 C  
ATOM     19  OE2 GLU A   1      -9.695   4.261  68.000  1.00  0.00    -0.157 OA 
ATOM     20  OE1 GLU A   1     -10.481   5.186  66.095  1.00  0.00    -0.260 OA 
ATOM     21  CD  GLU A   1     -10.363   5.115  67.440  1.00  0.00    -0.149 C  
ENDBRANCH  17  18
ENDBRANCH  13  17
ENDBRANCH  11  13
ENDBRANCH   4   9
ENDBRANCH   2   3
BRANCH   2  22
HETATM   22  C   UNK A   0     -10.609  14.028  64.945  1.00  0.00    -0.424 C  
BRANCH  22  23
HETATM   23  C   UNK A   0      -9.874  15.133  65.677  1.00  0.00    -0.343 A  
HETATM   24  N   UNK A   0     -11.057  19.163  65.324  1.00  0.00    -0.242 NA 
HETATM   25  C   UNK A   0      -8.564  17.135  67.036  1.00  0.00    -0.218 A  
HETATM   26  C   UNK A   0      -8.850  14.884  66.574  1.00  0.00    -0.221 A  
HETATM   27  N   UNK A   0      -7.880  18.089  67.661  1.00  0.00    -0.218 NA 
HETATM   28  C   UNK A   0      -9.932  18.748  66.054  1.00  0.00    -0.255 A  
HETATM   29  C   UNK A   0      -9.629  17.395  66.168  1.00  0.00    -0.193 A  
HETATM   30  N   UNK A   0      -8.197  15.865  67.250  1.00  0.00    -0.170 NA 
HETATM   31  C   UNK A   0      -8.227  19.348  67.431  1.00  0.00    -0.287 A  
HETATM   32  H1  UNK A   0     -11.571  18.419  64.851  1.00  0.00     0.000 HD 
HETATM   33  H1  UNK A   0      -7.751  21.307  67.857  1.00  0.00     0.000 HD 
HETATM   34  N   UNK A   0      -7.484  20.339  68.034  1.00  0.00    -0.267 NA 
HETATM   35  N   UNK A   0      -9.257  19.725  66.675  1.00  0.00    -0.359 NA 
HETATM   36  N   UNK A   0     -10.287  16.406  65.480  1.00  0.00    -0.544 NA 
HETATM   37  H2  UNK A   0     -10.792  19.885  64.654  1.00  0.00     0.000 HD 
HETATM   38  H2  UNK A   0      -6.693  20.111  68.637  1.00  0.00     0.000 HD 
ENDBRANCH  22  23
ENDBRANCH   2  22
TORSDOF 7
ENDMDL
MODEL       83
REMARK 921   NORMALIZED FREE ENERGY PREDICTED BY IDOCK:   -6.05 KCAL/MOL
REMARK 922        TOTAL FREE ENERGY PREDICTED BY IDOCK:  -10.28 KCAL/MOL
REMARK 923 INTER-LIGAND FREE ENERGY PREDICTED BY IDOCK:   -8.84 KCAL/MOL
REMARK 924 INTRA-LIGAND FREE ENERGY PREDICTED BY IDOCK:   -1.43 KCAL/MOL
REMARK 927      BINDING AFFINITY PREDICTED BY RF-SCORE:    0.00 PKD
ROOT
HETATM    1  C   UNK A   0      -8.961  18.314  68.419  1.00  0.00    -0.309 C  
HETATM    2  N   UNK A   0      -9.037  17.161  67.526  1.00  0.00    -0.224 NA 
ENDROOT
BRANCH   2   3
HETATM    3  C   UNK A   0      -8.593  15.922  67.972  1.00  0.00    -0.164 A  
HETATM    4  C   UNK A   0      -7.799  13.264  68.547  1.00  0.00    -0.110 A  
HETATM    5  C   UNK A   0      -9.377  15.077  68.778  1.00  0.00    -0.200 A  
HETATM    6  C   UNK A   0      -7.344  15.426  67.565  1.00  0.00    -0.222 A  
HETATM    7  C   UNK A   0      -6.953  14.111  67.831  1.00  0.00    -0.173 A  
HETATM    8  C   UNK A   0      -8.984  13.766  69.079  1.00  0.00     0.275 A  
BRANCH   4   9
HETATM    9  C   UNK A   0      -7.460  11.831  68.728  1.00  0.00    -0.109 C  
HETATM   10  O   UNK A   0      -6.655  11.476  69.576  1.00  0.00    -0.108 OA 
ATOM     11  N   GLU A   1      -8.152  10.948  67.908  1.00  0.00    -0.111 N  
ATOM     12  H   GLU A   1      -8.760  11.300  67.169  1.00  0.00     0.000 HD 
BRANCH  11  13
ATOM     13  CA  GLU A   1      -7.999   9.495  68.119  1.00  0.00    -0.094 C  
ATOM     14  OXT GLU A   1      -7.203   7.693  66.667  1.00  0.00    -0.082 OA 
ATOM     15  C   GLU A   1      -7.661   8.822  66.775  1.00  0.00    -0.090 C  
ATOM     16  O   GLU A   1      -8.083   9.538  65.703  1.00  0.00    -0.108 OA 
BRANCH  13  17
ATOM     17  CB  GLU A   1      -9.295   8.902  68.690  1.00  0.00    -0.140 C  
BRANCH  17  18
ATOM     18  CG  GLU A   1     -10.556   9.451  68.016  1.00  0.00    -0.278 C  
ATOM     19  OE2 GLU A   1     -10.774  11.005  69.864  1.00  0.00    -0.164 OA 
ATOM     20  OE1 GLU A   1     -12.282  11.074  68.182  1.00  0.00    -0.578 OA 
ATOM     21  CD  GLU A   1     -11.187  10.574  68.799  1.00  0.00    -0.262 C  
ENDBRANCH  17  18
ENDBRANCH  13  17
ENDBRANCH  11  13
ENDBRANCH   4   9
ENDBRANCH   2   3
BRANCH   2  22
HETATM   22  C   UNK A   0      -9.168  17.420  66.081  1.00  0.00    -0.142 C  
BRANCH  22  23
HETATM   23  C   UNK A   0     -10.054  16.431  65.348  1.00  0.00    -0.100 A  
HETATM   24  N   UNK A   0      -9.533  12.272  65.794  1.00  0.00    -0.409 NA 
HETATM   25  C   UNK A   0     -11.685  14.636  64.050  1.00  0.00    -0.037 A  
HETATM   26  C   UNK A   0     -11.137  16.822  64.582  1.00  0.00     0.076 A  
HETATM   27  N   UNK A   0     -12.453  13.791  63.369  1.00  0.00    -1.072 NA 
HETATM   28  C   UNK A   0     -10.471  12.846  64.921  1.00  0.00    -0.331 A  
HETATM   29  C   UNK A   0     -10.622  14.227  64.861  1.00  0.00    -0.431 A  
HETATM   30  N   UNK A   0     -11.948  15.944  63.936  1.00  0.00    -1.249 NA 
HETATM   31  C   UNK A   0     -12.178  12.496  63.462  1.00  0.00    -0.558 A  
HETATM   32  H1  UNK A   0      -8.952  12.934  66.309  1.00  0.00     0.000 HD 
HETATM   33  H1  UNK A   0     -12.725  10.629  62.785  1.00  0.00     0.000 HD 
HETATM   34  N   UNK A   0     -12.937  11.624  62.713  1.00  0.00    -0.665 NA 
HETATM   35  N   UNK A   0     -11.234  11.976  64.243  1.00  0.00    -0.336 NA 
HETATM   36  N   UNK A   0      -9.797  15.112  65.509  1.00  0.00    -0.340 NA 
HETATM   37  H2  UNK A   0      -8.944  11.610  65.288  1.00  0.00     0.000 HD 
HETATM   38  H2  UNK A   0     -13.685  11.962  62.108  1.00  0.00     0.000 HD 
ENDBRANCH  22  23
ENDBRANCH   2  22
TORSDOF 7
ENDMDL
MODEL       84
REMARK 921   NORMALIZED FREE ENERGY PREDICTED BY IDOCK:   -6.05 KCAL/MOL
REMARK 922        TOTAL FREE ENERGY PREDICTED BY IDOCK:  -10.27 KCAL/MOL
REMARK 923 INTER-LIGAND FREE ENERGY PREDICTED BY IDOCK:   -9.31 KCAL/MOL
REMARK 924 INTRA-LIGAND FREE ENERGY PREDICTED BY IDOCK:   -0.96 KCAL/MOL
REMARK 927      BINDING AFFINITY PREDICTED BY RF-SCORE:    0.00 PKD
ROOT
HETATM    1  C   UNK A   0     -12.038  14.948  70.291  1.00  0.00    -0.325 C  
HETATM    2  N   UNK A   0     -12.322  13.719  69.555  1.00  0.00    -0.318 NA 
ENDROOT
BRANCH   2   3
HETATM    3  C   UNK A   0     -12.241  12.496  70.211  1.00  0.00    -0.267 A  
HETATM    4  C   UNK A   0     -12.331   9.884  71.302  1.00  0.00    -0.478 A  
HETATM    5  C   UNK A   0     -12.960  12.214  71.385  1.00  0.00    -0.357 A  
HETATM    6  C   UNK A   0     -11.473  11.451  69.672  1.00  0.00    -0.380 A  
HETATM    7  C   UNK A   0     -11.527  10.156  70.196  1.00  0.00    -0.368 A  
HETATM    8  C   UNK A   0     -12.998  10.927  71.939  1.00  0.00    -0.502 A  
BRANCH   4   9
HETATM    9  C   UNK A   0     -12.501   8.494  71.791  1.00  0.00    -0.342 C  
HETATM   10  O   UNK A   0     -13.612   7.999  71.912  1.00  0.00    -0.338 OA 
ATOM     11  N   GLU A   1     -11.322   7.803  72.044  1.00  0.00    -0.268 N  
ATOM     12  H   GLU A   1     -10.423   8.283  71.995  1.00  0.00     0.000 HD 
BRANCH  11  13
ATOM     13  CA  GLU A   1     -11.383   6.369  72.384  1.00  0.00    -0.287 C  
ATOM     14  OXT GLU A   1     -10.798   5.128  74.412  1.00  0.00    -0.323 OA 
ATOM     15  C   GLU A   1     -10.674   6.138  73.732  1.00  0.00    -0.167 C  
ATOM     16  O   GLU A   1      -9.754   7.094  74.018  1.00  0.00    -0.267 OA 
BRANCH  13  17
ATOM     17  CB  GLU A   1     -10.707   5.533  71.287  1.00  0.00    -0.288 C  
BRANCH  17  18
ATOM     18  CG  GLU A   1      -9.859   6.374  70.328  1.00  0.00    -0.192 C  
ATOM     19  OE2 GLU A   1      -7.893   5.625  71.532  1.00  0.00    -0.107 OA 
ATOM     20  OE1 GLU A   1      -7.641   6.997  69.754  1.00  0.00    -0.098 OA 
ATOM     21  CD  GLU A   1      -8.384   6.277  70.624  1.00  0.00    -0.133 C  
ENDBRANCH  17  18
ENDBRANCH  13  17
ENDBRANCH  11  13
ENDBRANCH   4   9
ENDBRANCH   2   3
BRANCH   2  22
HETATM   22  C   UNK A   0     -12.257  13.771  68.084  1.00  0.00    -0.143 C  
BRANCH  22  23
HETATM   23  C   UNK A   0     -11.026  14.468  67.539  1.00  0.00    -0.293 A  
HETATM   24  N   UNK A   0     -10.773  18.673  67.385  1.00  0.00    -0.435 NA 
HETATM   25  C   UNK A   0      -8.777  15.734  66.586  1.00  0.00    -0.288 A  
HETATM   26  C   UNK A   0      -9.885  13.784  67.159  1.00  0.00    -0.242 A  
HETATM   27  N   UNK A   0      -7.700  16.320  66.070  1.00  0.00     0.097 NA 
HETATM   28  C   UNK A   0      -9.779  17.819  66.883  1.00  0.00    -0.300 A  
HETATM   29  C   UNK A   0      -9.907  16.439  67.011  1.00  0.00    -0.251 A  
HETATM   30  N   UNK A   0      -8.769  14.399  66.687  1.00  0.00    -0.439 NA 
HETATM   31  C   UNK A   0      -7.716  17.640  65.946  1.00  0.00    -0.101 A  
HETATM   32  H1  UNK A   0     -11.592  18.208  67.778  1.00  0.00     0.000 HD 
HETATM   33  H1  UNK A   0      -6.637  19.259  65.267  1.00  0.00     0.000 HD 
HETATM   34  N   UNK A   0      -6.624  18.243  65.362  1.00  0.00    -0.434 NA 
HETATM   35  N   UNK A   0      -8.703  18.429  66.367  1.00  0.00    -0.381 NA 
HETATM   36  N   UNK A   0     -11.037  15.820  67.483  1.00  0.00    -0.296 NA 
HETATM   37  H2  UNK A   0     -11.060  19.337  66.667  1.00  0.00     0.000 HD 
HETATM   38  H2  UNK A   0      -5.830  17.692  65.035  1.00  0.00     0.000 HD 
ENDBRANCH  22  23
ENDBRANCH   2  22
TORSDOF 7
ENDMDL
MODEL       85
REMARK 921   NORMALIZED FREE ENERGY PREDICTED BY IDOCK:   -6.04 KCAL/MOL
REMARK 922        TOTAL FREE ENERGY PREDICTED BY IDOCK:  -10.25 KCAL/MOL
REMARK 923 INTER-LIGAND FREE ENERGY PREDICTED BY IDOCK:   -9.25 KCAL/MOL
REMARK 924 INTRA-LIGAND FREE ENERGY PREDICTED BY IDOCK:   -1.00 KCAL/MOL
REMARK 927      BINDING AFFINITY PREDICTED BY RF-SCORE:    0.00 PKD
ROOT
HETATM    1  C   UNK A   0     -10.004  10.462  64.627  1.00  0.00    -0.338 C  
HETATM    2  N   UNK A   0      -9.644  11.132  65.873  1.00  0.00    -0.209 NA 
ENDROOT
BRANCH   2   3
HETATM    3  C   UNK A   0      -9.791  12.510  65.975  1.00  0.00    -0.257 A  
HETATM    4  C   UNK A   0      -9.845  15.342  65.898  1.00  0.00    -0.385 A  
HETATM    5  C   UNK A   0      -9.068  13.286  66.899  1.00  0.00    -0.235 A  
HETATM    6  C   UNK A   0     -10.633  13.203  65.090  1.00  0.00    -0.332 A  
HETATM    7  C   UNK A   0     -10.651  14.599  65.036  1.00  0.00    -0.461 A  
HETATM    8  C   UNK A   0      -9.101  14.687  66.876  1.00  0.00    -0.272 A  
BRANCH   4   9
HETATM    9  C   UNK A   0      -9.754  16.816  65.768  1.00  0.00    -0.128 C  
HETATM   10  O   UNK A   0     -10.641  17.457  65.223  1.00  0.00    -0.667 OA 
ATOM     11  N   GLU A   1      -8.631  17.397  66.346  1.00  0.00    -0.255 N  
ATOM     12  H   GLU A   1      -7.887  16.813  66.726  1.00  0.00     0.000 HD 
BRANCH  11  13
ATOM     13  CA  GLU A   1      -8.528  18.868  66.405  1.00  0.00    -0.293 C  
ATOM     14  OXT GLU A   1      -7.031  20.461  65.305  1.00  0.00    -0.289 OA 
ATOM     15  C   GLU A   1      -7.250  19.315  65.671  1.00  0.00    -0.209 C  
ATOM     16  O   GLU A   1      -6.301  18.346  65.620  1.00  0.00    -0.226 OA 
BRANCH  13  17
ATOM     17  CB  GLU A   1      -8.485  19.339  67.866  1.00  0.00    -0.343 C  
BRANCH  17  18
ATOM     18  CG  GLU A   1      -7.071  19.344  68.455  1.00  0.00    -0.339 C  
ATOM     19  OE2 GLU A   1      -7.432  17.048  69.142  1.00  0.00    -0.235 OA 
ATOM     20  OE1 GLU A   1      -5.440  18.025  69.569  1.00  0.00    -0.189 OA 
ATOM     21  CD  GLU A   1      -6.701  18.023  69.079  1.00  0.00    -0.251 C  
ENDBRANCH  17  18
ENDBRANCH  13  17
ENDBRANCH  11  13
ENDBRANCH   4   9
ENDBRANCH   2   3
BRANCH   2  22
HETATM   22  C   UNK A   0      -8.753  10.417  66.804  1.00  0.00    -0.127 C  
BRANCH  22  23
HETATM   23  C   UNK A   0      -9.461   9.804  67.997  1.00  0.00    -0.131 A  
HETATM   24  N   UNK A   0     -10.540   5.729  68.051  1.00  0.00    -0.233 NA 
HETATM   25  C   UNK A   0     -10.710   8.681  70.176  1.00  0.00    -0.234 A  
HETATM   26  C   UNK A   0      -9.701  10.504  69.166  1.00  0.00    -0.211 A  
HETATM   27  N   UNK A   0     -11.361   8.177  71.220  1.00  0.00    -0.259 NA 
HETATM   28  C   UNK A   0     -10.860   6.629  69.080  1.00  0.00    -0.277 A  
HETATM   29  C   UNK A   0     -10.430   7.950  69.018  1.00  0.00    -0.198 A  
HETATM   30  N   UNK A   0     -10.317   9.959  70.247  1.00  0.00    -0.280 NA 
HETATM   31  C   UNK A   0     -11.772   6.918  71.141  1.00  0.00    -0.336 A  
HETATM   32  H1  UNK A   0     -10.039   6.132  67.257  1.00  0.00     0.000 HD 
HETATM   33  H1  UNK A   0     -12.811   5.444  72.138  1.00  0.00     0.000 HD 
HETATM   34  N   UNK A   0     -12.495   6.412  72.199  1.00  0.00    -0.524 NA 
HETATM   35  N   UNK A   0     -11.518   6.100  70.122  1.00  0.00    -0.368 NA 
HETATM   36  N   UNK A   0      -9.812   8.499  67.922  1.00  0.00    -0.162 NA 
HETATM   37  H2  UNK A   0     -11.381   5.253  67.728  1.00  0.00     0.000 HD 
HETATM   38  H2  UNK A   0     -12.707   6.986  73.015  1.00  0.00     0.000 HD 
ENDBRANCH  22  23
ENDBRANCH   2  22
TORSDOF 7
ENDMDL
MODEL       86
REMARK 921   NORMALIZED FREE ENERGY PREDICTED BY IDOCK:   -6.02 KCAL/MOL
REMARK 922        TOTAL FREE ENERGY PREDICTED BY IDOCK:  -10.23 KCAL/MOL
REMARK 923 INTER-LIGAND FREE ENERGY PREDICTED BY IDOCK:   -9.67 KCAL/MOL
REMARK 924 INTRA-LIGAND FREE ENERGY PREDICTED BY IDOCK:   -0.56 KCAL/MOL
REMARK 927      BINDING AFFINITY PREDICTED BY RF-SCORE:    0.00 PKD
ROOT
HETATM    1  C   UNK A   0     -11.712  11.822  65.133  1.00  0.00    -0.087 C  
HETATM    2  N   UNK A   0     -10.625  11.467  66.041  1.00  0.00    -0.255 NA 
ENDROOT
BRANCH   2   3
HETATM    3  C   UNK A   0     -10.912  10.775  67.212  1.00  0.00    -0.297 A  
HETATM    4  C   UNK A   0     -11.226   9.571  69.757  1.00  0.00    -0.173 A  
HETATM    5  C   UNK A   0     -10.370   9.510  67.500  1.00  0.00    -0.306 A  
HETATM    6  C   UNK A   0     -11.716  11.359  68.204  1.00  0.00    -0.355 A  
HETATM    7  C   UNK A   0     -11.862  10.778  69.467  1.00  0.00    -0.380 A  
HETATM    8  C   UNK A   0     -10.533   8.902  68.752  1.00  0.00    -0.223 A  
BRANCH   4   9
HETATM    9  C   UNK A   0     -11.263   9.006  71.128  1.00  0.00    -0.305 C  
HETATM   10  O   UNK A   0     -11.875   9.567  72.024  1.00  0.00    -0.341 OA 
ATOM     11  N   GLU A   1     -10.603   7.794  71.290  1.00  0.00    -0.217 N  
ATOM     12  H   GLU A   1     -10.048   7.404  70.529  1.00  0.00     0.000 HD 
BRANCH  11  13
ATOM     13  CA  GLU A   1     -10.713   7.078  72.575  1.00  0.00    -0.242 C  
ATOM     14  OXT GLU A   1      -9.287   7.028  74.564  1.00  0.00    -0.215 OA 
ATOM     15  C   GLU A   1      -9.404   7.255  73.368  1.00  0.00    -0.197 C  
ATOM     16  O   GLU A   1      -8.337   7.523  72.574  1.00  0.00    -0.104 OA 
BRANCH  13  17
ATOM     17  CB  GLU A   1     -10.979   5.585  72.331  1.00  0.00    -0.310 C  
BRANCH  17  18
ATOM     18  CG  GLU A   1      -9.805   4.868  71.658  1.00  0.00    -0.245 C  
ATOM     19  OE2 GLU A   1     -10.527   2.826  72.747  1.00  0.00    -0.158 OA 
ATOM     20  OE1 GLU A   1      -8.728   2.769  71.381  1.00  0.00    -0.066 OA 
ATOM     21  CD  GLU A   1      -9.749   3.401  72.003  1.00  0.00    -0.164 C  
ENDBRANCH  17  18
ENDBRANCH  13  17
ENDBRANCH  11  13
ENDBRANCH   4   9
ENDBRANCH   2   3
BRANCH   2  22
HETATM   22  C   UNK A   0      -9.358  12.209  65.917  1.00  0.00    -0.130 C  
BRANCH  22  23
HETATM   23  C   UNK A   0      -9.469  13.689  66.232  1.00  0.00    -0.191 A  
HETATM   24  N   UNK A   0     -11.639  16.304  63.738  1.00  0.00    -1.482 NA 
HETATM   25  C   UNK A   0      -9.704  16.365  66.822  1.00  0.00    -0.251 A  
HETATM   26  C   UNK A   0      -8.962  14.247  67.391  1.00  0.00    -0.201 A  
HETATM   27  N   UNK A   0      -9.756  17.664  67.102  1.00  0.00    -0.282 NA 
HETATM   28  C   UNK A   0     -10.916  16.730  64.863  1.00  0.00    -0.087 A  
HETATM   29  C   UNK A   0     -10.262  15.804  65.670  1.00  0.00    -0.380 A  
HETATM   30  N   UNK A   0      -9.072  15.568  67.692  1.00  0.00    -0.181 NA 
HETATM   31  C   UNK A   0     -10.360  18.459  66.228  1.00  0.00    -0.415 A  
HETATM   32  H1  UNK A   0     -11.589  15.305  63.537  1.00  0.00     0.000 HD 
HETATM   33  H1  UNK A   0     -10.831  20.423  65.818  1.00  0.00     0.000 HD 
HETATM   34  N   UNK A   0     -10.367  19.812  66.489  1.00  0.00    -0.472 NA 
HETATM   35  N   UNK A   0     -10.981  18.043  65.127  1.00  0.00    -0.556 NA 
HETATM   36  N   UNK A   0     -10.147  14.472  65.360  1.00  0.00    -0.399 NA 
HETATM   37  H2  UNK A   0     -11.356  16.839  62.917  1.00  0.00     0.000 HD 
HETATM   38  H2  UNK A   0      -9.922  20.189  67.327  1.00  0.00     0.000 HD 
ENDBRANCH  22  23
ENDBRANCH   2  22
TORSDOF 7
ENDMDL
MODEL       87
REMARK 921   NORMALIZED FREE ENERGY PREDICTED BY IDOCK:   -6.01 KCAL/MOL
REMARK 922        TOTAL FREE ENERGY PREDICTED BY IDOCK:  -10.21 KCAL/MOL
REMARK 923 INTER-LIGAND FREE ENERGY PREDICTED BY IDOCK:   -9.12 KCAL/MOL
REMARK 924 INTRA-LIGAND FREE ENERGY PREDICTED BY IDOCK:   -1.09 KCAL/MOL
REMARK 927      BINDING AFFINITY PREDICTED BY RF-SCORE:    0.00 PKD
ROOT
HETATM    1  C   UNK A   0      -6.891   6.227  65.577  1.00  0.00    -0.052 C  
HETATM    2  N   UNK A   0      -7.499   7.290  66.371  1.00  0.00    -0.082 NA 
ENDROOT
BRANCH   2   3
HETATM    3  C   UNK A   0      -8.118   8.355  65.726  1.00  0.00    -0.117 A  
HETATM    4  C   UNK A   0      -9.238  10.739  64.685  1.00  0.00    -0.249 A  
HETATM    5  C   UNK A   0      -9.472   8.679  65.922  1.00  0.00    -0.243 A  
HETATM    6  C   UNK A   0      -7.378   9.207  64.891  1.00  0.00    -0.101 A  
HETATM    7  C   UNK A   0      -7.920  10.393  64.387  1.00  0.00    -0.085 A  
HETATM    8  C   UNK A   0     -10.037   9.850  65.398  1.00  0.00    -0.270 A  
BRANCH   4   9
HETATM    9  C   UNK A   0      -9.789  12.052  64.269  1.00  0.00    -0.169 C  
HETATM   10  O   UNK A   0     -10.217  12.227  63.138  1.00  0.00    -0.347 OA 
ATOM     11  N   GLU A   1      -9.821  13.026  65.260  1.00  0.00    -0.493 N  
ATOM     12  H   GLU A   1      -9.387  12.852  66.167  1.00  0.00     0.000 HD 
BRANCH  11  13
ATOM     13  CA  GLU A   1     -10.491  14.312  64.989  1.00  0.00    -0.435 C  
ATOM     14  OXT GLU A   1      -9.826  16.634  65.387  1.00  0.00    -0.538 OA 
ATOM     15  C   GLU A   1      -9.694  15.448  65.657  1.00  0.00    -0.331 C  
ATOM     16  O   GLU A   1      -8.948  15.025  66.708  1.00  0.00    -0.233 OA 
BRANCH  13  17
ATOM     17  CB  GLU A   1     -11.927  14.289  65.533  1.00  0.00    -0.386 C  
BRANCH  17  18
ATOM     18  CG  GLU A   1     -11.995  14.446  67.055  1.00  0.00    -0.424 C  
ATOM     19  OE2 GLU A   1     -12.091  12.030  67.224  1.00  0.00    -0.572 OA 
ATOM     20  OE1 GLU A   1     -12.095  13.267  69.115  1.00  0.00    -0.306 OA 
ATOM     21  CD  GLU A   1     -12.067  13.121  67.770  1.00  0.00    -0.215 C  
ENDBRANCH  17  18
ENDBRANCH  13  17
ENDBRANCH  11  13
ENDBRANCH   4   9
ENDBRANCH   2   3
BRANCH   2  22
HETATM   22  C   UNK A   0      -7.072   7.429  67.774  1.00  0.00    -0.085 C  
BRANCH  22  23
HETATM   23  C   UNK A   0      -8.064   8.159  68.659  1.00  0.00    -0.124 A  
HETATM   24  N   UNK A   0     -11.709   6.376  69.799  1.00  0.00    -0.580 NA 
HETATM   25  C   UNK A   0      -9.848   9.467  70.294  1.00  0.00    -0.243 A  
HETATM   26  C   UNK A   0      -7.796   9.393  69.223  1.00  0.00    -0.085 A  
HETATM   27  N   UNK A   0     -10.716  10.142  71.041  1.00  0.00    -0.267 NA 
HETATM   28  C   UNK A   0     -11.351   7.691  70.138  1.00  0.00    -0.132 A  
HETATM   29  C   UNK A   0     -10.109   8.198  69.768  1.00  0.00    -0.197 A  
HETATM   30  N   UNK A   0      -8.670  10.048  70.031  1.00  0.00    -0.357 NA 
HETATM   31  C   UNK A   0     -11.892   9.578  71.282  1.00  0.00    -0.373 A  
HETATM   32  H1  UNK A   0     -11.032   5.872  69.226  1.00  0.00     0.000 HD 
HETATM   33  H1  UNK A   0     -13.718   9.866  72.194  1.00  0.00     0.000 HD 
HETATM   34  N   UNK A   0     -12.813  10.300  72.009  1.00  0.00    -0.405 NA 
HETATM   35  N   UNK A   0     -12.241   8.354  70.890  1.00  0.00    -0.486 NA 
HETATM   36  N   UNK A   0      -9.231   7.537  68.946  1.00  0.00    -0.143 NA 
HETATM   37  H2  UNK A   0     -12.624   6.369  69.348  1.00  0.00     0.000 HD 
HETATM   38  H2  UNK A   0     -12.598  11.237  72.351  1.00  0.00     0.000 HD 
ENDBRANCH  22  23
ENDBRANCH   2  22
TORSDOF 7
ENDMDL
MODEL       88
REMARK 921   NORMALIZED FREE ENERGY PREDICTED BY IDOCK:   -5.99 KCAL/MOL
REMARK 922        TOTAL FREE ENERGY PREDICTED BY IDOCK:  -10.18 KCAL/MOL
REMARK 923 INTER-LIGAND FREE ENERGY PREDICTED BY IDOCK:   -9.19 KCAL/MOL
REMARK 924 INTRA-LIGAND FREE ENERGY PREDICTED BY IDOCK:   -1.00 KCAL/MOL
REMARK 927      BINDING AFFINITY PREDICTED BY RF-SCORE:    0.00 PKD
ROOT
HETATM    1  C   UNK A   0     -11.895  13.194  68.452  1.00  0.00    -0.351 C  
HETATM    2  N   UNK A   0     -10.727  12.897  67.628  1.00  0.00    -0.221 NA 
ENDROOT
BRANCH   2   3
HETATM    3  C   UNK A   0      -9.924  13.939  67.181  1.00  0.00    -0.239 A  
HETATM    4  C   UNK A   0      -8.321  16.206  66.615  1.00  0.00    -0.321 A  
HETATM    5  C   UNK A   0     -10.434  15.044  66.476  1.00  0.00    -0.285 A  
HETATM    6  C   UNK A   0      -8.553  13.961  67.485  1.00  0.00    -0.195 A  
HETATM    7  C   UNK A   0      -7.761  15.083  67.224  1.00  0.00    -0.233 A  
HETATM    8  C   UNK A   0      -9.643  16.163  66.180  1.00  0.00    -0.359 A  
BRANCH   4   9
HETATM    9  C   UNK A   0      -7.531  17.450  66.447  1.00  0.00    -0.305 C  
HETATM   10  O   UNK A   0      -6.997  17.718  65.382  1.00  0.00    -0.370 OA 
ATOM     11  N   GLU A   1      -7.491  18.284  67.558  1.00  0.00    -0.213 N  
ATOM     12  H   GLU A   1      -7.894  17.981  68.445  1.00  0.00     0.000 HD 
BRANCH  11  13
ATOM     13  CA  GLU A   1      -6.862  19.614  67.440  1.00  0.00    -0.207 C  
ATOM     14  OXT GLU A   1      -5.305  20.834  68.882  1.00  0.00    -0.276 OA 
ATOM     15  C   GLU A   1      -6.142  19.951  68.760  1.00  0.00    -0.266 C  
ATOM     16  O   GLU A   1      -6.653  19.286  69.827  1.00  0.00    -0.267 OA 
BRANCH  13  17
ATOM     17  CB  GLU A   1      -7.925  20.680  67.136  1.00  0.00    -0.323 C  
BRANCH  17  18
ATOM     18  CG  GLU A   1      -9.312  20.315  67.673  1.00  0.00    -0.481 C  
ATOM     19  OE2 GLU A   1     -10.020  19.955  65.383  1.00  0.00    -0.286 OA 
ATOM     20  OE1 GLU A   1     -11.492  19.600  67.060  1.00  0.00    -0.002 OA 
ATOM     21  CD  GLU A   1     -10.279  19.950  66.575  1.00  0.00    -0.491 C  
ENDBRANCH  17  18
ENDBRANCH  13  17
ENDBRANCH  11  13
ENDBRANCH   4   9
ENDBRANCH   2   3
BRANCH   2  22
HETATM   22  C   UNK A   0     -10.682  11.590  66.948  1.00  0.00    -0.263 C  
BRANCH  22  23
HETATM   23  C   UNK A   0     -10.465  10.412  67.878  1.00  0.00    -0.209 A  
HETATM   24  N   UNK A   0     -11.101   6.451  66.583  1.00  0.00    -0.721 NA 
HETATM   25  C   UNK A   0     -10.035   8.271  69.552  1.00  0.00    -0.187 A  
HETATM   26  C   UNK A   0      -9.955  10.551  69.156  1.00  0.00    -0.220 A  
HETATM   27  N   UNK A   0      -9.872   7.258  70.397  1.00  0.00    -0.183 NA 
HETATM   28  C   UNK A   0     -10.748   6.788  67.899  1.00  0.00    -0.256 A  
HETATM   29  C   UNK A   0     -10.507   8.114  68.245  1.00  0.00    -0.160 A  
HETATM   30  N   UNK A   0      -9.739   9.501  69.991  1.00  0.00    -0.220 NA 
HETATM   31  C   UNK A   0     -10.188   6.042  69.972  1.00  0.00    -0.205 A  
HETATM   32  H1  UNK A   0     -11.221   7.240  65.947  1.00  0.00     0.000 HD 
HETATM   33  H1  UNK A   0     -10.316   4.065  70.537  1.00  0.00     0.000 HD 
HETATM   34  N   UNK A   0     -10.072   4.999  70.864  1.00  0.00    -0.224 NA 
HETATM   35  N   UNK A   0     -10.590   5.752  68.736  1.00  0.00    -0.248 NA 
HETATM   36  N   UNK A   0     -10.731   9.173  67.402  1.00  0.00    -0.397 NA 
HETATM   37  H2  UNK A   0     -11.939   5.870  66.583  1.00  0.00     0.000 HD 
HETATM   38  H2  UNK A   0      -9.754   5.157  71.821  1.00  0.00     0.000 HD 
ENDBRANCH  22  23
ENDBRANCH   2  22
TORSDOF 7
ENDMDL
MODEL       89
REMARK 921   NORMALIZED FREE ENERGY PREDICTED BY IDOCK:   -5.98 KCAL/MOL
REMARK 922        TOTAL FREE ENERGY PREDICTED BY IDOCK:  -10.18 KCAL/MOL
REMARK 923 INTER-LIGAND FREE ENERGY PREDICTED BY IDOCK:   -9.60 KCAL/MOL
REMARK 924 INTRA-LIGAND FREE ENERGY PREDICTED BY IDOCK:   -0.58 KCAL/MOL
REMARK 927      BINDING AFFINITY PREDICTED BY RF-SCORE:    0.00 PKD
ROOT
HETATM    1  C   UNK A   0     -13.272  13.682  71.383  1.00  0.00    -0.283 C  
HETATM    2  N   UNK A   0     -11.996  13.511  70.696  1.00  0.00    -0.512 NA 
ENDROOT
BRANCH   2   3
HETATM    3  C   UNK A   0     -11.455  14.575  69.984  1.00  0.00    -0.258 A  
HETATM    4  C   UNK A   0     -10.301  16.499  68.254  1.00  0.00    -0.293 A  
HETATM    5  C   UNK A   0     -10.115  14.980  70.122  1.00  0.00     0.046 A  
HETATM    6  C   UNK A   0     -12.225  15.255  69.028  1.00  0.00    -0.158 A  
HETATM    7  C   UNK A   0     -11.659  16.193  68.160  1.00  0.00    -0.133 A  
HETATM    8  C   UNK A   0      -9.542  15.942  69.279  1.00  0.00    -0.266 A  
BRANCH   4   9
HETATM    9  C   UNK A   0      -9.655  17.393  67.262  1.00  0.00    -0.258 C  
HETATM   10  O   UNK A   0     -10.249  17.751  66.256  1.00  0.00    -0.350 OA 
ATOM     11  N   GLU A   1      -8.373  17.817  67.589  1.00  0.00    -0.226 N  
ATOM     12  H   GLU A   1      -7.895  17.434  68.404  1.00  0.00     0.000 HD 
BRANCH  11  13
ATOM     13  CA  GLU A   1      -7.710  18.829  66.743  1.00  0.00    -0.241 C  
ATOM     14  OXT GLU A   1      -6.308  18.645  64.745  1.00  0.00    -0.471 OA 
ATOM     15  C   GLU A   1      -6.773  18.120  65.747  1.00  0.00    -0.273 C  
ATOM     16  O   GLU A   1      -6.368  16.899  66.177  1.00  0.00    -0.188 OA 
BRANCH  13  17
ATOM     17  CB  GLU A   1      -6.905  19.805  67.615  1.00  0.00    -0.276 C  
BRANCH  17  18
ATOM     18  CG  GLU A   1      -7.081  19.555  69.116  1.00  0.00    -0.392 C  
ATOM     19  OE2 GLU A   1      -5.194  21.026  69.504  1.00  0.00    -0.359 OA 
ATOM     20  OE1 GLU A   1      -6.255  20.106  71.273  1.00  0.00    -0.427 OA 
ATOM     21  CD  GLU A   1      -6.074  20.307  69.948  1.00  0.00    -0.345 C  
ENDBRANCH  17  18
ENDBRANCH  13  17
ENDBRANCH  11  13
ENDBRANCH   4   9
ENDBRANCH   2   3
BRANCH   2  22
HETATM   22  C   UNK A   0     -11.546  12.135  70.416  1.00  0.00     0.111 C  
BRANCH  22  23
HETATM   23  C   UNK A   0     -11.195  11.877  68.963  1.00  0.00    -0.258 A  
HETATM   24  N   UNK A   0     -13.386  13.652  65.830  1.00  0.00    -0.324 NA 
HETATM   25  C   UNK A   0     -10.536  11.441  66.329  1.00  0.00    -0.255 A  
HETATM   26  C   UNK A   0     -10.090  11.139  68.580  1.00  0.00    -0.200 A  
HETATM   27  N   UNK A   0     -10.229  11.171  65.063  1.00  0.00    -0.278 NA 
HETATM   28  C   UNK A   0     -12.340  12.739  65.623  1.00  0.00    -0.382 A  
HETATM   29  C   UNK A   0     -11.629  12.229  66.704  1.00  0.00    -0.375 A  
HETATM   30  N   UNK A   0      -9.755  10.918  67.282  1.00  0.00    -0.164 NA 
HETATM   31  C   UNK A   0     -11.016  11.669  64.118  1.00  0.00    -0.376 A  
HETATM   32  H1  UNK A   0     -13.608  13.850  66.807  1.00  0.00     0.000 HD 
HETATM   33  H1  UNK A   0     -11.337  11.727  62.083  1.00  0.00     0.000 HD 
HETATM   34  N   UNK A   0     -10.732  11.344  62.810  1.00  0.00    -0.627 NA 
HETATM   35  N   UNK A   0     -12.049  12.479  64.341  1.00  0.00    -0.399 NA 
HETATM   36  N   UNK A   0     -11.972  12.449  68.014  1.00  0.00    -0.412 NA 
HETATM   37  H2  UNK A   0     -14.223  13.344  65.337  1.00  0.00     0.000 HD 
HETATM   38  H2  UNK A   0      -9.943  10.740  62.576  1.00  0.00     0.000 HD 
ENDBRANCH  22  23
ENDBRANCH   2  22
TORSDOF 7
ENDMDL
MODEL       90
REMARK 921   NORMALIZED FREE ENERGY PREDICTED BY IDOCK:   -5.95 KCAL/MOL
REMARK 922        TOTAL FREE ENERGY PREDICTED BY IDOCK:  -10.13 KCAL/MOL
REMARK 923 INTER-LIGAND FREE ENERGY PREDICTED BY IDOCK:   -9.36 KCAL/MOL
REMARK 924 INTRA-LIGAND FREE ENERGY PREDICTED BY IDOCK:   -0.76 KCAL/MOL
REMARK 927      BINDING AFFINITY PREDICTED BY RF-SCORE:    0.00 PKD
ROOT
HETATM    1  C   UNK A   0      -8.837   7.953  71.672  1.00  0.00    -0.131 C  
HETATM    2  N   UNK A   0      -9.752   8.025  70.537  1.00  0.00    -0.177 NA 
ENDROOT
BRANCH   2   3
HETATM    3  C   UNK A   0     -10.024   9.258  69.955  1.00  0.00    -0.205 A  
HETATM    4  C   UNK A   0     -10.789  11.581  68.526  1.00  0.00    -0.254 A  
HETATM    5  C   UNK A   0      -9.167   9.861  69.017  1.00  0.00    -0.168 A  
HETATM    6  C   UNK A   0     -11.225   9.928  70.236  1.00  0.00    -0.364 A  
HETATM    7  C   UNK A   0     -11.616  11.065  69.523  1.00  0.00    -0.384 A  
HETATM    8  C   UNK A   0      -9.533  11.019  68.317  1.00  0.00    -0.172 A  
BRANCH   4   9
HETATM    9  C   UNK A   0     -11.244  12.706  67.673  1.00  0.00    -0.283 C  
HETATM   10  O   UNK A   0     -12.135  12.554  66.851  1.00  0.00    -0.537 OA 
ATOM     11  N   GLU A   1     -10.622  13.925  67.915  1.00  0.00    -0.242 N  
ATOM     12  H   GLU A   1      -9.836  13.984  68.561  1.00  0.00     0.000 HD 
BRANCH  11  13
ATOM     13  CA  GLU A   1     -11.113  15.135  67.227  1.00  0.00    -0.332 C  
ATOM     14  OXT GLU A   1     -10.364  16.304  65.211  1.00  0.00    -0.552 OA 
ATOM     15  C   GLU A   1     -10.112  15.532  66.125  1.00  0.00    -0.309 C  
ATOM     16  O   GLU A   1      -8.856  15.076  66.362  1.00  0.00    -0.273 OA 
BRANCH  13  17
ATOM     17  CB  GLU A   1     -11.273  16.288  68.229  1.00  0.00    -0.324 C  
BRANCH  17  18
ATOM     18  CG  GLU A   1      -9.938  16.916  68.641  1.00  0.00    -0.279 C  
ATOM     19  OE2 GLU A   1     -10.653  18.963  67.557  1.00  0.00    -0.423 OA 
ATOM     20  OE1 GLU A   1      -8.643  18.906  68.588  1.00  0.00    -0.342 OA 
ATOM     21  CD  GLU A   1      -9.812  18.350  68.194  1.00  0.00    -0.342 C  
ENDBRANCH  17  18
ENDBRANCH  13  17
ENDBRANCH  11  13
ENDBRANCH   4   9
ENDBRANCH   2   3
BRANCH   2  22
HETATM   22  C   UNK A   0     -10.673   6.893  70.325  1.00  0.00    -0.242 C  
BRANCH  22  23
HETATM   23  C   UNK A   0     -10.578   6.262  68.950  1.00  0.00    -0.268 A  
HETATM   24  N   UNK A   0      -8.814   2.474  68.394  1.00  0.00    -0.095 NA 
HETATM   25  C   UNK A   0     -10.439   5.098  66.461  1.00  0.00    -0.294 A  
HETATM   26  C   UNK A   0     -11.146   6.831  67.824  1.00  0.00    -0.201 A  
HETATM   27  N   UNK A   0     -10.336   4.582  65.240  1.00  0.00    -0.417 NA 
HETATM   28  C   UNK A   0      -9.287   3.270  67.339  1.00  0.00    -0.201 A  
HETATM   29  C   UNK A   0      -9.902   4.490  67.600  1.00  0.00    -0.127 A  
HETATM   30  N   UNK A   0     -11.083   6.265  66.591  1.00  0.00    -0.748 NA 
HETATM   31  C   UNK A   0      -9.678   3.438  65.107  1.00  0.00    -0.093 A  
HETATM   32  H1  UNK A   0      -8.901   2.884  69.325  1.00  0.00     0.000 HD 
HETATM   33  H1  UNK A   0      -9.017   2.052  63.733  1.00  0.00     0.000 HD 
HETATM   34  N   UNK A   0      -9.523   2.931  63.835  1.00  0.00    -0.116 NA 
HETATM   35  N   UNK A   0      -9.173   2.732  66.116  1.00  0.00    -0.295 NA 
HETATM   36  N   UNK A   0      -9.960   5.062  68.846  1.00  0.00    -0.174 NA 
HETATM   37  H2  UNK A   0      -7.847   2.202  68.221  1.00  0.00     0.000 HD 
HETATM   38  H2  UNK A   0      -9.902   3.419  63.023  1.00  0.00     0.000 HD 
ENDBRANCH  22  23
ENDBRANCH   2  22
TORSDOF 7
ENDMDL
MODEL       91
REMARK 921   NORMALIZED FREE ENERGY PREDICTED BY IDOCK:   -5.94 KCAL/MOL
REMARK 922        TOTAL FREE ENERGY PREDICTED BY IDOCK:  -10.11 KCAL/MOL
REMARK 923 INTER-LIGAND FREE ENERGY PREDICTED BY IDOCK:   -8.85 KCAL/MOL
REMARK 924 INTRA-LIGAND FREE ENERGY PREDICTED BY IDOCK:   -1.26 KCAL/MOL
REMARK 927      BINDING AFFINITY PREDICTED BY RF-SCORE:    0.00 PKD
ROOT
HETATM    1  C   UNK A   0     -13.104  10.250  70.987  1.00  0.00    -0.373 C  
HETATM    2  N   UNK A   0     -11.897   9.559  70.543  1.00  0.00    -0.410 NA 
ENDROOT
BRANCH   2   3
HETATM    3  C   UNK A   0     -11.661   8.256  70.966  1.00  0.00    -0.275 A  
HETATM    4  C   UNK A   0     -10.840   5.721  71.928  1.00  0.00    -0.309 A  
HETATM    5  C   UNK A   0     -11.244   7.236  70.091  1.00  0.00    -0.264 A  
HETATM    6  C   UNK A   0     -11.765   7.920  72.325  1.00  0.00    -0.408 A  
HETATM    7  C   UNK A   0     -11.346   6.677  72.808  1.00  0.00    -0.223 A  
HETATM    8  C   UNK A   0     -10.850   5.975  70.559  1.00  0.00    -0.382 A  
BRANCH   4   9
HETATM    9  C   UNK A   0     -10.272   4.449  72.436  1.00  0.00    -0.190 C  
HETATM   10  O   UNK A   0     -10.949   3.675  73.096  1.00  0.00    -0.179 OA 
ATOM     11  N   GLU A   1      -8.956   4.195  72.067  1.00  0.00    -0.116 N  
ATOM     12  H   GLU A   1      -8.412   4.904  71.576  1.00  0.00     0.000 HD 
BRANCH  11  13
ATOM     13  CA  GLU A   1      -8.354   2.888  72.392  1.00  0.00    -0.070 C  
ATOM     14  OXT GLU A   1      -6.922   2.144  74.233  1.00  0.00    -0.025 OA 
ATOM     15  C   GLU A   1      -7.361   3.064  73.557  1.00  0.00    -0.050 C  
ATOM     16  O   GLU A   1      -6.879   4.328  73.656  1.00  0.00    -0.055 OA 
BRANCH  13  17
ATOM     17  CB  GLU A   1      -7.626   2.318  71.166  1.00  0.00    -0.032 C  
BRANCH  17  18
ATOM     18  CG  GLU A   1      -8.544   1.507  70.246  1.00  0.00    -0.087 C  
ATOM     19  OE2 GLU A   1      -8.870   3.516  68.929  1.00  0.00    -0.091 OA 
ATOM     20  OE1 GLU A   1      -9.880   1.600  68.285  1.00  0.00    -0.112 OA 
ATOM     21  CD  GLU A   1      -9.096   2.330  69.110  1.00  0.00    -0.123 C  
ENDBRANCH  17  18
ENDBRANCH  13  17
ENDBRANCH  11  13
ENDBRANCH   4   9
ENDBRANCH   2   3
BRANCH   2  22
HETATM   22  C   UNK A   0     -10.783  10.381  70.037  1.00  0.00    -0.265 C  
BRANCH  22  23
HETATM   23  C   UNK A   0     -10.984  10.902  68.627  1.00  0.00    -0.227 A  
HETATM   24  N   UNK A   0     -12.351  14.825  67.915  1.00  0.00    -0.539 NA 
HETATM   25  C   UNK A   0     -11.313  11.862  66.070  1.00  0.00    -0.316 A  
HETATM   26  C   UNK A   0     -10.641  10.173  67.503  1.00  0.00    -0.273 A  
HETATM   27  N   UNK A   0     -11.515  12.282  64.825  1.00  0.00    -0.321 NA 
HETATM   28  C   UNK A   0     -12.117  13.890  66.894  1.00  0.00    -0.430 A  
HETATM   29  C   UNK A   0     -11.620  12.627  67.200  1.00  0.00    -0.368 A  
HETATM   30  N   UNK A   0     -10.799  10.637  66.236  1.00  0.00    -0.095 NA 
HETATM   31  C   UNK A   0     -12.047  13.486  64.659  1.00  0.00    -0.409 A  
HETATM   32  H1  UNK A   0     -12.191  14.487  68.864  1.00  0.00     0.000 HD 
HETATM   33  H1  UNK A   0     -12.717  14.826  63.244  1.00  0.00     0.000 HD 
HETATM   34  N   UNK A   0     -12.308  13.901  63.371  1.00  0.00    -1.139 NA 
HETATM   35  N   UNK A   0     -12.328  14.334  65.647  1.00  0.00    -0.420 NA 
HETATM   36  N   UNK A   0     -11.466  12.158  68.480  1.00  0.00    -0.274 NA 
HETATM   37  H2  UNK A   0     -13.294  15.204  67.833  1.00  0.00     0.000 HD 
HETATM   38  H2  UNK A   0     -12.099  13.302  62.572  1.00  0.00     0.000 HD 
ENDBRANCH  22  23
ENDBRANCH   2  22
TORSDOF 7
ENDMDL
MODEL       92
REMARK 921   NORMALIZED FREE ENERGY PREDICTED BY IDOCK:   -5.90 KCAL/MOL
REMARK 922        TOTAL FREE ENERGY PREDICTED BY IDOCK:  -10.06 KCAL/MOL
REMARK 923 INTER-LIGAND FREE ENERGY PREDICTED BY IDOCK:   -9.13 KCAL/MOL
REMARK 924 INTRA-LIGAND FREE ENERGY PREDICTED BY IDOCK:   -0.93 KCAL/MOL
REMARK 927      BINDING AFFINITY PREDICTED BY RF-SCORE:    0.00 PKD
ROOT
HETATM    1  C   UNK A   0      -6.295  10.474  70.689  1.00  0.00    -0.037 C  
HETATM    2  N   UNK A   0      -6.822  10.807  69.369  1.00  0.00    -0.095 NA 
ENDROOT
BRANCH   2   3
HETATM    3  C   UNK A   0      -6.646  12.091  68.866  1.00  0.00    -0.089 A  
HETATM    4  C   UNK A   0      -6.537  14.816  68.100  1.00  0.00    -0.138 A  
HETATM    5  C   UNK A   0      -7.334  12.565  67.735  1.00  0.00    -0.124 A  
HETATM    6  C   UNK A   0      -5.809  13.004  69.527  1.00  0.00    -0.103 A  
HETATM    7  C   UNK A   0      -5.763  14.353  69.164  1.00  0.00    -0.091 A  
HETATM    8  C   UNK A   0      -7.273  13.909  67.341  1.00  0.00    -0.113 A  
BRANCH   4   9
HETATM    9  C   UNK A   0      -6.601  16.263  67.783  1.00  0.00    -0.142 C  
HETATM   10  O   UNK A   0      -6.250  16.686  66.691  1.00  0.00    -0.269 OA 
ATOM     11  N   GLU A   1      -7.125  17.070  68.786  1.00  0.00    -0.208 N  
ATOM     12  H   GLU A   1      -7.337  16.679  69.704  1.00  0.00     0.000 HD 
BRANCH  11  13
ATOM     13  CA  GLU A   1      -7.372  18.498  68.510  1.00  0.00    -0.295 C  
ATOM     14  OXT GLU A   1      -6.189  20.535  69.173  1.00  0.00    -0.325 OA 
ATOM     15  C   GLU A   1      -6.425  19.352  69.373  1.00  0.00    -0.322 C  
ATOM     16  O   GLU A   1      -6.004  18.710  70.492  1.00  0.00    -0.143 OA 
BRANCH  13  17
ATOM     17  CB  GLU A   1      -8.833  18.855  68.825  1.00  0.00    -0.331 C  
BRANCH  17  18
ATOM     18  CG  GLU A   1      -9.782  18.592  67.652  1.00  0.00    -0.330 C  
ATOM     19  OE2 GLU A   1      -9.736  20.970  67.183  1.00  0.00    -0.374 OA 
ATOM     20  OE1 GLU A   1     -10.946  19.606  65.848  1.00  0.00    -0.375 OA 
ATOM     21  CD  GLU A   1     -10.133  19.851  66.900  1.00  0.00    -0.450 C  
ENDBRANCH  17  18
ENDBRANCH  13  17
ENDBRANCH  11  13
ENDBRANCH   4   9
ENDBRANCH   2   3
BRANCH   2  22
HETATM   22  C   UNK A   0      -7.873   9.936  68.811  1.00  0.00    -0.091 C  
BRANCH  22  23
HETATM   23  C   UNK A   0      -9.178   9.961  69.584  1.00  0.00    -0.227 A  
HETATM   24  N   UNK A   0      -9.963   7.178  72.650  1.00  0.00    -0.170 NA 
HETATM   25  C   UNK A   0     -11.527  10.030  71.012  1.00  0.00    -0.383 A  
HETATM   26  C   UNK A   0     -10.134  10.945  69.406  1.00  0.00    -0.088 A  
HETATM   27  N   UNK A   0     -12.694  10.051  71.651  1.00  0.00    -0.401 NA 
HETATM   28  C   UNK A   0     -10.892   8.138  72.219  1.00  0.00    -0.320 A  
HETATM   29  C   UNK A   0     -10.547   9.057  71.234  1.00  0.00    -0.308 A  
HETATM   30  N   UNK A   0     -11.298  10.988  70.106  1.00  0.00    -0.426 NA 
HETATM   31  C   UNK A   0     -12.933   9.088  72.531  1.00  0.00    -0.361 A  
HETATM   32  H1  UNK A   0      -9.073   7.175  72.151  1.00  0.00     0.000 HD 
HETATM   33  H1  UNK A   0     -14.346   8.337  73.829  1.00  0.00     0.000 HD 
HETATM   34  N   UNK A   0     -14.163   9.077  73.152  1.00  0.00    -1.190 NA 
HETATM   35  N   UNK A   0     -12.062   8.142  72.875  1.00  0.00    -0.617 NA 
HETATM   36  N   UNK A   0      -9.374   9.009  70.525  1.00  0.00    -0.200 NA 
HETATM   37  H2  UNK A   0     -10.382   6.249  72.623  1.00  0.00     0.000 HD 
HETATM   38  H2  UNK A   0     -14.866   9.786  72.942  1.00  0.00     0.000 HD 
ENDBRANCH  22  23
ENDBRANCH   2  22
TORSDOF 7
ENDMDL
MODEL       93
REMARK 921   NORMALIZED FREE ENERGY PREDICTED BY IDOCK:   -5.90 KCAL/MOL
REMARK 922        TOTAL FREE ENERGY PREDICTED BY IDOCK:  -10.06 KCAL/MOL
REMARK 923 INTER-LIGAND FREE ENERGY PREDICTED BY IDOCK:   -8.64 KCAL/MOL
REMARK 924 INTRA-LIGAND FREE ENERGY PREDICTED BY IDOCK:   -1.42 KCAL/MOL
REMARK 927      BINDING AFFINITY PREDICTED BY RF-SCORE:    0.00 PKD
ROOT
HETATM    1  C   UNK A   0     -11.382  15.230  67.738  1.00  0.00    -0.326 C  
HETATM    2  N   UNK A   0     -11.694  13.832  67.457  1.00  0.00    -0.353 NA 
ENDROOT
BRANCH   2   3
HETATM    3  C   UNK A   0     -11.099  12.833  68.219  1.00  0.00    -0.257 A  
HETATM    4  C   UNK A   0      -9.841  10.613  69.450  1.00  0.00    -0.164 A  
HETATM    5  C   UNK A   0     -11.842  11.845  68.890  1.00  0.00    -0.366 A  
HETATM    6  C   UNK A   0      -9.701  12.731  68.291  1.00  0.00    -0.216 A  
HETATM    7  C   UNK A   0      -9.074  11.630  68.882  1.00  0.00     0.060 A  
HETATM    8  C   UNK A   0     -11.225  10.751  69.513  1.00  0.00    -0.342 A  
BRANCH   4   9
HETATM    9  C   UNK A   0      -9.200   9.378  69.964  1.00  0.00    -0.220 C  
HETATM   10  O   UNK A   0      -8.551   9.390  71.000  1.00  0.00    -0.274 OA 
ATOM     11  N   GLU A   1      -9.434   8.230  69.218  1.00  0.00    -0.155 N  
ATOM     12  H   GLU A   1      -9.922   8.287  68.324  1.00  0.00     0.000 HD 
BRANCH  11  13
ATOM     13  CA  GLU A   1      -8.969   6.927  69.731  1.00  0.00    -0.141 C  
ATOM     14  OXT GLU A   1      -7.298   5.335  68.917  1.00  0.00    -0.067 OA 
ATOM     15  C   GLU A   1      -8.054   6.267  68.683  1.00  0.00    -0.109 C  
ATOM     16  O   GLU A   1      -8.291   6.707  67.421  1.00  0.00    -0.120 OA 
BRANCH  13  17
ATOM     17  CB  GLU A   1     -10.168   6.014  70.028  1.00  0.00    -0.264 C  
BRANCH  17  18
ATOM     18  CG  GLU A   1     -11.514   6.739  69.931  1.00  0.00    -0.355 C  
ATOM     19  OE2 GLU A   1     -11.897   6.177  72.258  1.00  0.00    -0.319 OA 
ATOM     20  OE1 GLU A   1     -13.448   7.388  71.147  1.00  0.00    -0.305 OA 
ATOM     21  CD  GLU A   1     -12.276   6.719  71.232  1.00  0.00    -0.364 C  
ENDBRANCH  17  18
ENDBRANCH  13  17
ENDBRANCH  11  13
ENDBRANCH   4   9
ENDBRANCH   2   3
BRANCH   2  22
HETATM   22  C   UNK A   0     -12.265  13.508  66.138  1.00  0.00    -0.433 C  
BRANCH  22  23
HETATM   23  C   UNK A   0     -11.339  12.715  65.235  1.00  0.00    -0.315 A  
HETATM   24  N   UNK A   0     -10.171   8.783  66.205  1.00  0.00    -0.378 NA 
HETATM   25  C   UNK A   0      -9.691  11.262  63.581  1.00  0.00    -0.321 A  
HETATM   26  C   UNK A   0     -10.909  13.184  64.007  1.00  0.00    -0.318 A  
HETATM   27  N   UNK A   0      -8.849  10.601  62.791  1.00  0.00    -0.230 NA 
HETATM   28  C   UNK A   0      -9.692   9.479  65.084  1.00  0.00    -0.137 A  
HETATM   29  C   UNK A   0     -10.158  10.758  64.799  1.00  0.00    -0.331 A  
HETATM   30  N   UNK A   0     -10.094  12.475  63.183  1.00  0.00    -0.522 NA 
HETATM   31  C   UNK A   0      -8.430   9.410  63.195  1.00  0.00    -0.205 A  
HETATM   32  H1  UNK A   0     -10.816   9.304  66.801  1.00  0.00     0.000 HD 
HETATM   33  H1  UNK A   0      -7.193   7.833  62.716  1.00  0.00     0.000 HD 
HETATM   34  N   UNK A   0      -7.516   8.749  62.404  1.00  0.00    -0.101 NA 
HETATM   35  N   UNK A   0      -8.845   8.795  64.301  1.00  0.00    -0.417 NA 
HETATM   36  N   UNK A   0     -10.976  11.475  65.636  1.00  0.00    -0.270 NA 
HETATM   37  H2  UNK A   0      -9.391   8.431  66.759  1.00  0.00     0.000 HD 
HETATM   38  H2  UNK A   0      -7.174   9.162  61.537  1.00  0.00     0.000 HD 
ENDBRANCH  22  23
ENDBRANCH   2  22
TORSDOF 7
ENDMDL
MODEL       94
REMARK 921   NORMALIZED FREE ENERGY PREDICTED BY IDOCK:   -5.89 KCAL/MOL
REMARK 922        TOTAL FREE ENERGY PREDICTED BY IDOCK:  -10.05 KCAL/MOL
REMARK 923 INTER-LIGAND FREE ENERGY PREDICTED BY IDOCK:   -9.83 KCAL/MOL
REMARK 924 INTRA-LIGAND FREE ENERGY PREDICTED BY IDOCK:   -0.21 KCAL/MOL
REMARK 927      BINDING AFFINITY PREDICTED BY RF-SCORE:    0.00 PKD
ROOT
HETATM    1  C   UNK A   0     -12.921   8.812  71.665  1.00  0.00    -0.349 C  
HETATM    2  N   UNK A   0     -11.771   9.617  71.265  1.00  0.00    -0.353 NA 
ENDROOT
BRANCH   2   3
HETATM    3  C   UNK A   0     -11.969  10.755  70.492  1.00  0.00    -0.361 A  
HETATM    4  C   UNK A   0     -12.001  13.093  68.893  1.00  0.00    -0.317 A  
HETATM    5  C   UNK A   0     -12.177  12.028  71.053  1.00  0.00    -0.245 A  
HETATM    6  C   UNK A   0     -11.898  10.685  69.092  1.00  0.00    -0.287 A  
HETATM    7  C   UNK A   0     -11.897  11.836  68.298  1.00  0.00    -0.340 A  
HETATM    8  C   UNK A   0     -12.208  13.188  70.266  1.00  0.00    -0.376 A  
BRANCH   4   9
HETATM    9  C   UNK A   0     -11.871  14.328  68.081  1.00  0.00    -0.339 C  
HETATM   10  O   UNK A   0     -11.907  15.432  68.603  1.00  0.00    -0.346 OA 
ATOM     11  N   GLU A   1     -11.661  14.127  66.722  1.00  0.00    -0.391 N  
ATOM     12  H   GLU A   1     -11.710  13.188  66.326  1.00  0.00     0.000 HD 
BRANCH  11  13
ATOM     13  CA  GLU A   1     -11.366  15.286  65.858  1.00  0.00    -0.172 C  
ATOM     14  OXT GLU A   1     -12.334  16.058  63.746  1.00  0.00    -0.858 OA 
ATOM     15  C   GLU A   1     -12.146  15.144  64.537  1.00  0.00    -0.301 C  
ATOM     16  O   GLU A   1     -12.461  13.858  64.243  1.00  0.00    -0.638 OA 
BRANCH  13  17
ATOM     17  CB  GLU A   1      -9.859  15.364  65.570  1.00  0.00    -0.359 C  
BRANCH  17  18
ATOM     18  CG  GLU A   1      -9.085  16.154  66.630  1.00  0.00    -0.282 C  
ATOM     19  OE2 GLU A   1     -10.184  18.160  65.825  1.00  0.00    -0.580 OA 
ATOM     20  OE1 GLU A   1      -8.747  18.312  67.563  1.00  0.00    -0.251 OA 
ATOM     21  CD  GLU A   1      -9.410  17.626  66.604  1.00  0.00    -0.278 C  
ENDBRANCH  17  18
ENDBRANCH  13  17
ENDBRANCH  11  13
ENDBRANCH   4   9
ENDBRANCH   2   3
BRANCH   2  22
HETATM   22  C   UNK A   0     -10.440   8.984  71.314  1.00  0.00    -0.311 C  
BRANCH  22  23
HETATM   23  C   UNK A   0      -9.659   9.075  70.018  1.00  0.00    -0.186 A  
HETATM   24  N   UNK A   0      -7.277  12.436  69.125  1.00  0.00    -0.299 NA 
HETATM   25  C   UNK A   0      -8.211   9.225  67.684  1.00  0.00    -0.115 A  
HETATM   26  C   UNK A   0      -9.596   8.036  69.107  1.00  0.00    -0.156 A  
HETATM   27  N   UNK A   0      -7.564   9.295  66.524  1.00  0.00    -0.093 NA 
HETATM   28  C   UNK A   0      -7.467  11.364  68.238  1.00  0.00    -0.101 A  
HETATM   29  C   UNK A   0      -8.229  10.264  68.619  1.00  0.00    -0.116 A  
HETATM   30  N   UNK A   0      -8.884   8.100  67.952  1.00  0.00    -0.131 NA 
HETATM   31  C   UNK A   0      -6.916  10.419  66.246  1.00  0.00    -0.118 A  
HETATM   32  H1  UNK A   0      -7.780  12.367  70.010  1.00  0.00     0.000 HD 
HETATM   33  H1  UNK A   0      -5.794  11.379  64.809  1.00  0.00     0.000 HD 
HETATM   34  N   UNK A   0      -6.292  10.515  65.022  1.00  0.00    -0.300 NA 
HETATM   35  N   UNK A   0      -6.807  11.456  67.075  1.00  0.00    -0.126 NA 
HETATM   36  N   UNK A   0      -8.951  10.205  69.784  1.00  0.00    -0.360 NA 
HETATM   37  H2  UNK A   0      -7.503  13.317  68.663  1.00  0.00     0.000 HD 
HETATM   38  H2  UNK A   0      -6.326   9.746  64.352  1.00  0.00     0.000 HD 
ENDBRANCH  22  23
ENDBRANCH   2  22
TORSDOF 7
ENDMDL
MODEL       95
REMARK 921   NORMALIZED FREE ENERGY PREDICTED BY IDOCK:   -5.88 KCAL/MOL
REMARK 922        TOTAL FREE ENERGY PREDICTED BY IDOCK:  -10.03 KCAL/MOL
REMARK 923 INTER-LIGAND FREE ENERGY PREDICTED BY IDOCK:   -9.01 KCAL/MOL
REMARK 924 INTRA-LIGAND FREE ENERGY PREDICTED BY IDOCK:   -1.02 KCAL/MOL
REMARK 927      BINDING AFFINITY PREDICTED BY RF-SCORE:    0.00 PKD
ROOT
HETATM    1  C   UNK A   0      -9.192   8.237  72.857  1.00  0.00    -0.259 C  
HETATM    2  N   UNK A   0      -8.858   8.365  71.441  1.00  0.00    -0.163 NA 
ENDROOT
BRANCH   2   3
HETATM    3  C   UNK A   0      -9.558   9.273  70.654  1.00  0.00    -0.273 A  
HETATM    4  C   UNK A   0     -10.825  11.388  69.260  1.00  0.00    -0.242 A  
HETATM    5  C   UNK A   0     -10.898   9.620  70.904  1.00  0.00    -0.409 A  
HETATM    6  C   UNK A   0      -8.917   9.942  69.600  1.00  0.00    -0.232 A  
HETATM    7  C   UNK A   0      -9.530  10.998  68.920  1.00  0.00    -0.166 A  
HETATM    8  C   UNK A   0     -11.536  10.656  70.208  1.00  0.00    -0.422 A  
BRANCH   4   9
HETATM    9  C   UNK A   0     -11.443  12.585  68.640  1.00  0.00    -0.306 C  
HETATM   10  O   UNK A   0     -12.113  13.364  69.302  1.00  0.00    -0.311 OA 
ATOM     11  N   GLU A   1     -11.163  12.769  67.291  1.00  0.00    -0.280 N  
ATOM     12  H   GLU A   1     -10.658  12.054  66.768  1.00  0.00     0.000 HD 
BRANCH  11  13
ATOM     13  CA  GLU A   1     -11.602  14.009  66.624  1.00  0.00    -0.382 C  
ATOM     14  OXT GLU A   1     -13.522  14.522  65.194  1.00  0.00    -0.308 OA 
ATOM     15  C   GLU A   1     -12.767  13.686  65.669  1.00  0.00    -0.454 C  
ATOM     16  O   GLU A   1     -12.772  12.392  65.261  1.00  0.00    -0.617 OA 
BRANCH  13  17
ATOM     17  CB  GLU A   1     -10.438  14.632  65.838  1.00  0.00    -0.325 C  
BRANCH  17  18
ATOM     18  CG  GLU A   1      -9.144  14.721  66.652  1.00  0.00    -0.300 C  
ATOM     19  OE2 GLU A   1      -8.933  17.022  65.919  1.00  0.00    -0.517 OA 
ATOM     20  OE1 GLU A   1      -7.378  16.164  67.316  1.00  0.00    -0.153 OA 
ATOM     21  CD  GLU A   1      -8.503  16.083  66.570  1.00  0.00    -0.313 C  
ENDBRANCH  17  18
ENDBRANCH  13  17
ENDBRANCH  11  13
ENDBRANCH   4   9
ENDBRANCH   2   3
BRANCH   2  22
HETATM   22  C   UNK A   0      -8.120   7.259  70.808  1.00  0.00    -0.111 C  
BRANCH  22  23
HETATM   23  C   UNK A   0      -8.869   6.574  69.681  1.00  0.00    -0.138 A  
HETATM   24  N   UNK A   0      -7.192   6.218  65.830  1.00  0.00    -0.073 NA 
HETATM   25  C   UNK A   0     -10.211   5.298  67.647  1.00  0.00    -0.170 A  
HETATM   26  C   UNK A   0     -10.086   5.942  69.867  1.00  0.00    -0.198 A  
HETATM   27  N   UNK A   0     -10.904   4.725  66.667  1.00  0.00    -0.331 NA 
HETATM   28  C   UNK A   0      -8.489   5.787  66.153  1.00  0.00    -0.130 A  
HETATM   29  C   UNK A   0      -8.960   5.893  67.458  1.00  0.00    -0.107 A  
HETATM   30  N   UNK A   0     -10.757   5.310  68.869  1.00  0.00    -0.070 NA 
HETATM   31  C   UNK A   0     -10.376   4.734  65.450  1.00  0.00    -0.069 A  
HETATM   32  H1  UNK A   0      -6.674   6.656  66.593  1.00  0.00     0.000 HD 
HETATM   33  H1  UNK A   0     -10.710   4.197  63.489  1.00  0.00     0.000 HD 
HETATM   34  N   UNK A   0     -11.117   4.190  64.425  1.00  0.00    -0.752 NA 
HETATM   35  N   UNK A   0      -9.170   5.213  65.151  1.00  0.00    -0.308 NA 
HETATM   36  N   UNK A   0      -8.282   6.537  68.462  1.00  0.00    -0.120 NA 
HETATM   37  H2  UNK A   0      -7.221   6.842  65.024  1.00  0.00     0.000 HD 
HETATM   38  H2  UNK A   0     -12.041   3.792  64.595  1.00  0.00     0.000 HD 
ENDBRANCH  22  23
ENDBRANCH   2  22
TORSDOF 7
ENDMDL
MODEL       96
REMARK 921   NORMALIZED FREE ENERGY PREDICTED BY IDOCK:   -5.87 KCAL/MOL
REMARK 922        TOTAL FREE ENERGY PREDICTED BY IDOCK:  -10.02 KCAL/MOL
REMARK 923 INTER-LIGAND FREE ENERGY PREDICTED BY IDOCK:   -9.12 KCAL/MOL
REMARK 924 INTRA-LIGAND FREE ENERGY PREDICTED BY IDOCK:   -0.90 KCAL/MOL
REMARK 927      BINDING AFFINITY PREDICTED BY RF-SCORE:    0.00 PKD
ROOT
HETATM    1  C   UNK A   0     -11.482   6.707  70.595  1.00  0.00    -0.364 C  
HETATM    2  N   UNK A   0     -10.260   7.329  70.095  1.00  0.00    -0.200 NA 
ENDROOT
BRANCH   2   3
HETATM    3  C   UNK A   0     -10.340   8.529  69.398  1.00  0.00    -0.215 A  
HETATM    4  C   UNK A   0     -10.865  10.977  68.073  1.00  0.00    -0.278 A  
HETATM    5  C   UNK A   0     -10.524   8.587  68.005  1.00  0.00    -0.249 A  
HETATM    6  C   UNK A   0     -10.309   9.753  70.084  1.00  0.00    -0.335 A  
HETATM    7  C   UNK A   0     -10.584  10.963  69.439  1.00  0.00    -0.233 A  
HETATM    8  C   UNK A   0     -10.770   9.797  67.341  1.00  0.00    -0.314 A  
BRANCH   4   9
HETATM    9  C   UNK A   0     -11.285  12.230  67.400  1.00  0.00    -0.301 C  
HETATM   10  O   UNK A   0     -11.636  13.206  68.046  1.00  0.00    -0.291 OA 
ATOM     11  N   GLU A   1     -11.200  12.218  66.013  1.00  0.00    -0.317 N  
ATOM     12  H   GLU A   1     -10.969  11.356  65.518  1.00  0.00     0.000 HD 
BRANCH  11  13
ATOM     13  CA  GLU A   1     -11.446  13.464  65.262  1.00  0.00    -0.298 C  
ATOM     14  OXT GLU A   1     -12.761  13.948  63.255  1.00  0.00    -0.775 OA 
ATOM     15  C   GLU A   1     -12.175  13.128  63.947  1.00  0.00    -0.433 C  
ATOM     16  O   GLU A   1     -11.959  11.854  63.533  1.00  0.00    -0.489 OA 
BRANCH  13  17
ATOM     17  CB  GLU A   1     -10.118  14.173  64.958  1.00  0.00    -0.326 C  
BRANCH  17  18
ATOM     18  CG  GLU A   1      -9.867  15.389  65.855  1.00  0.00    -0.387 C  
ATOM     19  OE2 GLU A   1     -11.145  16.718  64.281  1.00  0.00    -1.106 OA 
ATOM     20  OE1 GLU A   1     -10.308  17.706  66.133  1.00  0.00    -0.367 OA 
ATOM     21  CD  GLU A   1     -10.508  16.644  65.320  1.00  0.00    -0.173 C  
ENDBRANCH  17  18
ENDBRANCH  13  17
ENDBRANCH  11  13
ENDBRANCH   4   9
ENDBRANCH   2   3
BRANCH   2  22
HETATM   22  C   UNK A   0      -9.063   6.480  69.962  1.00  0.00    -0.150 C  
BRANCH  22  23
HETATM   23  C   UNK A   0      -9.141   5.465  68.838  1.00  0.00    -0.118 A  
HETATM   24  N   UNK A   0      -7.188   6.116  65.159  1.00  0.00    -0.068 NA 
HETATM   25  C   UNK A   0      -9.249   3.609  66.810  1.00  0.00    -0.181 A  
HETATM   26  C   UNK A   0      -9.760   4.236  68.980  1.00  0.00    -0.139 A  
HETATM   27  N   UNK A   0      -9.363   2.720  65.828  1.00  0.00    -0.329 NA 
HETATM   28  C   UNK A   0      -8.005   5.003  65.416  1.00  0.00    -0.108 A  
HETATM   29  C   UNK A   0      -8.579   4.828  66.671  1.00  0.00    -0.108 A  
HETATM   30  N   UNK A   0      -9.819   3.313  67.985  1.00  0.00    -0.079 NA 
HETATM   31  C   UNK A   0      -8.819   3.022  64.657  1.00  0.00    -0.110 A  
HETATM   32  H1  UNK A   0      -7.111   6.788  65.923  1.00  0.00     0.000 HD 
HETATM   33  H1  UNK A   0      -8.566   2.360  62.722  1.00  0.00     0.000 HD 
HETATM   34  N   UNK A   0      -8.984   2.127  63.622  1.00  0.00    -0.089 NA 
HETATM   35  N   UNK A   0      -8.106   4.120  64.412  1.00  0.00    -0.089 NA 
HETATM   36  N   UNK A   0      -8.523   5.765  67.672  1.00  0.00    -0.104 NA 
HETATM   37  H2  UNK A   0      -7.496   6.587  64.309  1.00  0.00     0.000 HD 
HETATM   38  H2  UNK A   0      -9.506   1.260  63.754  1.00  0.00     0.000 HD 
ENDBRANCH  22  23
ENDBRANCH   2  22
TORSDOF 7
ENDMDL
MODEL       97
REMARK 921   NORMALIZED FREE ENERGY PREDICTED BY IDOCK:   -5.85 KCAL/MOL
REMARK 922        TOTAL FREE ENERGY PREDICTED BY IDOCK:  -10.00 KCAL/MOL
REMARK 923 INTER-LIGAND FREE ENERGY PREDICTED BY IDOCK:   -8.58 KCAL/MOL
REMARK 924 INTRA-LIGAND FREE ENERGY PREDICTED BY IDOCK:   -1.41 KCAL/MOL
REMARK 927      BINDING AFFINITY PREDICTED BY RF-SCORE:    0.00 PKD
ROOT
HETATM    1  C   UNK A   0     -10.342  13.501  64.814  1.00  0.00    -0.385 C  
HETATM    2  N   UNK A   0      -9.393  13.256  65.896  1.00  0.00    -0.481 NA 
ENDROOT
BRANCH   2   3
HETATM    3  C   UNK A   0      -9.223  11.962  66.375  1.00  0.00    -0.215 A  
HETATM    4  C   UNK A   0      -9.077   9.436  67.648  1.00  0.00    -0.131 A  
HETATM    5  C   UNK A   0      -8.072  11.555  67.073  1.00  0.00    -0.161 A  
HETATM    6  C   UNK A   0     -10.248  11.012  66.236  1.00  0.00    -0.295 A  
HETATM    7  C   UNK A   0     -10.189   9.771  66.876  1.00  0.00    -0.310 A  
HETATM    8  C   UNK A   0      -7.988  10.301  67.694  1.00  0.00    -0.102 A  
BRANCH   4   9
HETATM    9  C   UNK A   0      -9.054   8.180  68.437  1.00  0.00    -0.136 C  
HETATM   10  O   UNK A   0      -9.190   7.093  67.895  1.00  0.00    -0.131 OA 
ATOM     11  N   GLU A   1      -8.820   8.336  69.798  1.00  0.00    -0.141 N  
ATOM     12  H   GLU A   1      -8.784   9.267  70.211  1.00  0.00     0.000 HD 
BRANCH  11  13
ATOM     13  CA  GLU A   1      -8.625   7.139  70.639  1.00  0.00    -0.143 C  
ATOM     14  OXT GLU A   1      -9.824   6.284  72.594  1.00  0.00    -0.166 OA 
ATOM     15  C   GLU A   1      -9.547   7.230  71.869  1.00  0.00    -0.148 C  
ATOM     16  O   GLU A   1      -9.891   8.505  72.181  1.00  0.00    -0.268 OA 
BRANCH  13  17
ATOM     17  CB  GLU A   1      -7.159   7.040  71.090  1.00  0.00    -0.074 C  
BRANCH  17  18
ATOM     18  CG  GLU A   1      -6.405   8.368  70.978  1.00  0.00    -0.040 C  
ATOM     19  OE2 GLU A   1      -6.718   8.658  73.364  1.00  0.00    -0.250 OA 
ATOM     20  OE1 GLU A   1      -5.576  10.225  72.204  1.00  0.00    -0.304 OA 
ATOM     21  CD  GLU A   1      -6.270   9.069  72.306  1.00  0.00     0.019 C  
ENDBRANCH  17  18
ENDBRANCH  13  17
ENDBRANCH  11  13
ENDBRANCH   4   9
ENDBRANCH   2   3
BRANCH   2  22
HETATM   22  C   UNK A   0      -8.982  14.406  66.721  1.00  0.00    -0.233 C  
BRANCH  22  23
HETATM   23  C   UNK A   0     -10.000  14.818  67.766  1.00  0.00    -0.223 A  
HETATM   24  N   UNK A   0     -11.679  12.006  70.420  1.00  0.00    -0.525 NA 
HETATM   25  C   UNK A   0     -11.818  15.571  69.689  1.00  0.00    -0.366 A  
HETATM   26  C   UNK A   0     -10.359  16.136  67.982  1.00  0.00    -0.271 A  
HETATM   27  N   UNK A   0     -12.735  15.953  70.573  1.00  0.00    -0.588 NA 
HETATM   28  C   UNK A   0     -12.058  13.358  70.382  1.00  0.00    -0.333 A  
HETATM   29  C   UNK A   0     -11.426  14.240  69.512  1.00  0.00    -0.287 A  
HETATM   30  N   UNK A   0     -11.256  16.519  68.928  1.00  0.00    -0.297 NA 
HETATM   31  C   UNK A   0     -13.309  15.012  71.311  1.00  0.00    -0.438 A  
HETATM   32  H1  UNK A   0     -10.974  11.730  69.736  1.00  0.00     0.000 HD 
HETATM   33  H1  UNK A   0     -14.740  14.675  72.755  1.00  0.00     0.000 HD 
HETATM   34  N   UNK A   0     -14.299  15.399  72.188  1.00  0.00    -0.570 NA 
HETATM   35  N   UNK A   0     -12.984  13.721  71.281  1.00  0.00    -0.343 NA 
HETATM   36  N   UNK A   0     -10.525  13.851  68.554  1.00  0.00    -0.246 NA 
HETATM   37  H2  UNK A   0     -12.501  11.410  70.335  1.00  0.00     0.000 HD 
HETATM   38  H2  UNK A   0     -14.580  16.376  72.267  1.00  0.00     0.000 HD 
ENDBRANCH  22  23
ENDBRANCH   2  22
TORSDOF 7
ENDMDL
MODEL       98
REMARK 921   NORMALIZED FREE ENERGY PREDICTED BY IDOCK:   -5.83 KCAL/MOL
REMARK 922        TOTAL FREE ENERGY PREDICTED BY IDOCK:   -9.97 KCAL/MOL
REMARK 923 INTER-LIGAND FREE ENERGY PREDICTED BY IDOCK:   -9.07 KCAL/MOL
REMARK 924 INTRA-LIGAND FREE ENERGY PREDICTED BY IDOCK:   -0.90 KCAL/MOL
REMARK 927      BINDING AFFINITY PREDICTED BY RF-SCORE:    0.00 PKD
ROOT
HETATM    1  C   UNK A   0      -7.795   7.530  70.432  1.00  0.00    -0.097 C  
HETATM    2  N   UNK A   0      -9.188   7.357  70.031  1.00  0.00    -0.148 NA 
ENDROOT
BRANCH   2   3
HETATM    3  C   UNK A   0      -9.959   8.475  69.737  1.00  0.00    -0.191 A  
HETATM    4  C   UNK A   0     -11.205  10.931  69.072  1.00  0.00    -0.327 A  
HETATM    5  C   UNK A   0     -10.440   9.349  70.729  1.00  0.00    -0.372 A  
HETATM    6  C   UNK A   0     -10.232   8.820  68.404  1.00  0.00    -0.228 A  
HETATM    7  C   UNK A   0     -10.831  10.037  68.068  1.00  0.00    -0.311 A  
HETATM    8  C   UNK A   0     -11.070  10.559  70.407  1.00  0.00    -0.321 A  
BRANCH   4   9
HETATM    9  C   UNK A   0     -11.722  12.279  68.732  1.00  0.00    -0.340 C  
HETATM   10  O   UNK A   0     -12.256  12.495  67.654  1.00  0.00    -0.401 OA 
ATOM     11  N   GLU A   1     -11.597  13.235  69.732  1.00  0.00    -0.453 N  
ATOM     12  H   GLU A   1     -11.080  13.022  70.586  1.00  0.00     0.000 HD 
BRANCH  11  13
ATOM     13  CA  GLU A   1     -12.219  14.560  69.548  1.00  0.00    -0.265 C  
ATOM     14  OXT GLU A   1     -11.325  16.712  68.802  1.00  0.00    -0.274 OA 
ATOM     15  C   GLU A   1     -11.119  15.601  69.269  1.00  0.00    -0.293 C  
ATOM     16  O   GLU A   1      -9.907  15.234  69.756  1.00  0.00    -0.244 OA 
BRANCH  13  17
ATOM     17  CB  GLU A   1     -13.009  14.956  70.805  1.00  0.00    -0.418 C  
BRANCH  17  18
ATOM     18  CG  GLU A   1     -12.181  14.859  72.090  1.00  0.00    -0.428 C  
ATOM     19  OE2 GLU A   1     -13.873  16.201  73.190  1.00  0.00    -0.544 OA 
ATOM     20  OE1 GLU A   1     -12.101  15.466  74.384  1.00  0.00    -0.591 OA 
ATOM     21  CD  GLU A   1     -12.822  15.582  73.246  1.00  0.00    -0.517 C  
ENDBRANCH  17  18
ENDBRANCH  13  17
ENDBRANCH  11  13
ENDBRANCH   4   9
ENDBRANCH   2   3
BRANCH   2  22
HETATM   22  C   UNK A   0      -9.843   6.079  70.364  1.00  0.00    -0.179 C  
BRANCH  22  23
HETATM   23  C   UNK A   0      -9.725   5.019  69.286  1.00  0.00    -0.179 A  
HETATM   24  N   UNK A   0      -9.392   6.061  65.215  1.00  0.00    -0.328 NA 
HETATM   25  C   UNK A   0      -9.472   3.099  67.332  1.00  0.00    -0.133 A  
HETATM   26  C   UNK A   0      -9.617   3.670  69.571  1.00  0.00    -0.137 A  
HETATM   27  N   UNK A   0      -9.405   2.149  66.404  1.00  0.00    -0.354 NA 
HETATM   28  C   UNK A   0      -9.473   4.735  65.671  1.00  0.00    -0.167 A  
HETATM   29  C   UNK A   0      -9.533   4.463  67.034  1.00  0.00    -0.175 A  
HETATM   30  N   UNK A   0      -9.492   2.714  68.614  1.00  0.00    -0.175 NA 
HETATM   31  C   UNK A   0      -9.410   2.528  65.132  1.00  0.00    -0.082 A  
HETATM   32  H1  UNK A   0      -9.444   6.777  65.940  1.00  0.00     0.000 HD 
HETATM   33  H1  UNK A   0      -9.401   1.835  63.192  1.00  0.00     0.000 HD 
HETATM   34  N   UNK A   0      -9.397   1.543  64.169  1.00  0.00    -0.120 NA 
HETATM   35  N   UNK A   0      -9.404   3.794  64.719  1.00  0.00    -0.144 NA 
HETATM   36  N   UNK A   0      -9.665   5.431  67.998  1.00  0.00    -0.130 NA 
HETATM   37  H2  UNK A   0     -10.103   6.230  64.504  1.00  0.00     0.000 HD 
HETATM   38  H2  UNK A   0      -9.384   0.556  64.425  1.00  0.00     0.000 HD 
ENDBRANCH  22  23
ENDBRANCH   2  22
TORSDOF 7
ENDMDL
MODEL       99
REMARK 921   NORMALIZED FREE ENERGY PREDICTED BY IDOCK:   -5.80 KCAL/MOL
REMARK 922        TOTAL FREE ENERGY PREDICTED BY IDOCK:   -9.91 KCAL/MOL
REMARK 923 INTER-LIGAND FREE ENERGY PREDICTED BY IDOCK:   -9.03 KCAL/MOL
REMARK 924 INTRA-LIGAND FREE ENERGY PREDICTED BY IDOCK:   -0.89 KCAL/MOL
REMARK 927      BINDING AFFINITY PREDICTED BY RF-SCORE:    0.00 PKD
ROOT
HETATM    1  C   UNK A   0     -12.852  13.745  71.400  1.00  0.00    -0.369 C  
HETATM    2  N   UNK A   0     -11.887  13.466  70.341  1.00  0.00    -0.527 NA 
ENDROOT
BRANCH   2   3
HETATM    3  C   UNK A   0     -11.376  14.516  69.587  1.00  0.00    -0.273 A  
HETATM    4  C   UNK A   0     -10.182  16.393  67.834  1.00  0.00    -0.268 A  
HETATM    5  C   UNK A   0     -10.190  15.190  69.928  1.00  0.00    -0.178 A  
HETATM    6  C   UNK A   0     -12.004  14.904  68.393  1.00  0.00    -0.255 A  
HETATM    7  C   UNK A   0     -11.412  15.818  67.516  1.00  0.00    -0.063 A  
HETATM    8  C   UNK A   0      -9.601  16.130  69.071  1.00  0.00    -0.251 A  
BRANCH   4   9
HETATM    9  C   UNK A   0      -9.479  17.263  66.860  1.00  0.00    -0.257 C  
HETATM   10  O   UNK A   0      -9.891  17.390  65.716  1.00  0.00    -0.536 OA 
ATOM     11  N   GLU A   1      -8.371  17.939  67.357  1.00  0.00    -0.222 N  
ATOM     12  H   GLU A   1      -8.027  17.744  68.297  1.00  0.00     0.000 HD 
BRANCH  11  13
ATOM     13  CA  GLU A   1      -7.699  18.944  66.511  1.00  0.00    -0.259 C  
ATOM     14  OXT GLU A   1      -6.096  18.745  64.672  1.00  0.00    -0.395 OA 
ATOM     15  C   GLU A   1      -6.621  18.249  65.658  1.00  0.00    -0.263 C  
ATOM     16  O   GLU A   1      -6.177  17.090  66.208  1.00  0.00    -0.245 OA 
BRANCH  13  17
ATOM     17  CB  GLU A   1      -7.054  20.030  67.386  1.00  0.00    -0.286 C  
BRANCH  17  18
ATOM     18  CG  GLU A   1      -7.246  19.785  68.886  1.00  0.00    -0.341 C  
ATOM     19  OE2 GLU A   1      -5.265  21.125  69.280  1.00  0.00    -0.349 OA 
ATOM     20  OE1 GLU A   1      -6.386  20.269  71.045  1.00  0.00    -0.503 OA 
ATOM     21  CD  GLU A   1      -6.191  20.464  69.721  1.00  0.00    -0.273 C  
ENDBRANCH  17  18
ENDBRANCH  13  17
ENDBRANCH  11  13
ENDBRANCH   4   9
ENDBRANCH   2   3
BRANCH   2  22
HETATM   22  C   UNK A   0     -11.816  12.087  69.824  1.00  0.00    -0.331 C  
BRANCH  22  23
HETATM   23  C   UNK A   0     -10.751  11.873  68.766  1.00  0.00    -0.224 A  
HETATM   24  N   UNK A   0      -6.757  11.028  69.812  1.00  0.00    -0.154 NA 
HETATM   25  C   UNK A   0      -8.828  11.445  66.846  1.00  0.00    -0.173 A  
HETATM   26  C   UNK A   0     -11.038  11.838  67.413  1.00  0.00    -0.282 A  
HETATM   27  N   UNK A   0      -7.907  11.297  65.898  1.00  0.00    -0.370 NA 
HETATM   28  C   UNK A   0      -7.190  11.201  68.488  1.00  0.00    -0.088 A  
HETATM   29  C   UNK A   0      -8.534  11.430  68.213  1.00  0.00    -0.154 A  
HETATM   30  N   UNK A   0     -10.096  11.629  66.457  1.00  0.00    -0.203 NA 
HETATM   31  C   UNK A   0      -6.647  11.139  66.282  1.00  0.00    -0.069 A  
HETATM   32  H1  UNK A   0      -7.476  11.144  70.527  1.00  0.00     0.000 HD 
HETATM   33  H1  UNK A   0      -4.716  10.920  65.597  1.00  0.00     0.000 HD 
HETATM   34  N   UNK A   0      -5.685  11.041  65.301  1.00  0.00    -0.422 NA 
HETATM   35  N   UNK A   0      -6.246  11.048  67.549  1.00  0.00    -0.052 NA 
HETATM   36  N   UNK A   0      -9.483  11.648  69.180  1.00  0.00    -0.392 NA 
HETATM   37  H2  UNK A   0      -5.968  11.644  70.005  1.00  0.00     0.000 HD 
HETATM   38  H2  UNK A   0      -5.933  11.087  64.313  1.00  0.00     0.000 HD 
ENDBRANCH  22  23
ENDBRANCH   2  22
TORSDOF 7
ENDMDL
MODEL      100
REMARK 921   NORMALIZED FREE ENERGY PREDICTED BY IDOCK:   -5.77 KCAL/MOL
REMARK 922        TOTAL FREE ENERGY PREDICTED BY IDOCK:   -9.87 KCAL/MOL
REMARK 923 INTER-LIGAND FREE ENERGY PREDICTED BY IDOCK:   -9.04 KCAL/MOL
REMARK 924 INTRA-LIGAND FREE ENERGY PREDICTED BY IDOCK:   -0.83 KCAL/MOL
REMARK 927      BINDING AFFINITY PREDICTED BY RF-SCORE:    0.00 PKD
ROOT
HETATM    1  C   UNK A   0      -7.739   6.616  71.018  1.00  0.00    -0.097 C  
HETATM    2  N   UNK A   0      -7.495   7.531  69.907  1.00  0.00    -0.082 NA 
ENDROOT
BRANCH   2   3
HETATM    3  C   UNK A   0      -8.370   8.589  69.689  1.00  0.00    -0.121 A  
HETATM    4  C   UNK A   0     -10.342  10.510  69.023  1.00  0.00    -0.232 A  
HETATM    5  C   UNK A   0      -8.130   9.588  68.729  1.00  0.00    -0.096 A  
HETATM    6  C   UNK A   0      -9.586   8.661  70.386  1.00  0.00    -0.196 A  
HETATM    7  C   UNK A   0     -10.570   9.595  70.051  1.00  0.00    -0.300 A  
HETATM    8  C   UNK A   0      -9.096  10.551  68.405  1.00  0.00    -0.148 A  
BRANCH   4   9
HETATM    9  C   UNK A   0     -11.420  11.421  68.568  1.00  0.00    -0.297 C  
HETATM   10  O   UNK A   0     -12.580  11.246  68.911  1.00  0.00    -0.327 OA 
ATOM     11  N   GLU A   1     -11.004  12.490  67.783  1.00  0.00    -0.225 N  
ATOM     12  H   GLU A   1     -10.036  12.551  67.467  1.00  0.00     0.000 HD 
BRANCH  11  13
ATOM     13  CA  GLU A   1     -11.977  13.535  67.411  1.00  0.00    -0.357 C  
ATOM     14  OXT GLU A   1     -13.158  14.022  65.323  1.00  0.00    -0.782 OA 
ATOM     15  C   GLU A   1     -12.216  13.487  65.890  1.00  0.00    -0.460 C  
ATOM     16  O   GLU A   1     -11.179  12.936  65.209  1.00  0.00    -0.282 OA 
BRANCH  13  17
ATOM     17  CB  GLU A   1     -11.449  14.920  67.815  1.00  0.00    -0.353 C  
BRANCH  17  18
ATOM     18  CG  GLU A   1     -11.940  15.372  69.194  1.00  0.00    -0.324 C  
ATOM     19  OE2 GLU A   1      -9.629  15.396  69.924  1.00  0.00    -0.259 OA 
ATOM     20  OE1 GLU A   1     -11.249  16.007  71.375  1.00  0.00    -0.324 OA 
ATOM     21  CD  GLU A   1     -10.810  15.578  70.170  1.00  0.00    -0.331 C  
ENDBRANCH  17  18
ENDBRANCH  13  17
ENDBRANCH  11  13
ENDBRANCH   4   9
ENDBRANCH   2   3
BRANCH   2  22
HETATM   22  C   UNK A   0      -6.613   7.070  68.820  1.00  0.00    -0.044 C  
BRANCH  22  23
HETATM   23  C   UNK A   0      -7.302   6.204  67.783  1.00  0.00    -0.084 A  
HETATM   24  N   UNK A   0     -11.454   6.475  67.110  1.00  0.00    -0.745 NA 
HETATM   25  C   UNK A   0      -8.547   4.662  65.876  1.00  0.00    -0.117 A  
HETATM   26  C   UNK A   0      -6.609   5.359  66.935  1.00  0.00    -0.053 A  
HETATM   27  N   UNK A   0      -9.132   3.866  64.985  1.00  0.00    -0.134 NA 
HETATM   28  C   UNK A   0     -10.623   5.549  66.460  1.00  0.00    -0.279 A  
HETATM   29  C   UNK A   0      -9.252   5.548  66.696  1.00  0.00    -0.135 A  
HETATM   30  N   UNK A   0      -7.214   4.593  65.990  1.00  0.00    -0.075 NA 
HETATM   31  C   UNK A   0     -10.454   3.916  64.888  1.00  0.00    -0.112 A  
HETATM   32  H1  UNK A   0     -10.989   7.079  67.789  1.00  0.00     0.000 HD 
HETATM   33  H1  UNK A   0     -12.082   3.091  63.932  1.00  0.00     0.000 HD 
HETATM   34  N   UNK A   0     -11.065   3.053  64.006  1.00  0.00    -0.590 NA 
HETATM   35  N   UNK A   0     -11.233   4.756  65.567  1.00  0.00    -0.968 NA 
HETATM   36  N   UNK A   0      -8.644   6.319  67.655  1.00  0.00    -0.115 NA 
HETATM   37  H2  UNK A   0     -12.238   5.994  67.548  1.00  0.00     0.000 HD 
HETATM   38  H2  UNK A   0     -10.520   2.397  63.446  1.00  0.00     0.000 HD 
ENDBRANCH  22  23
ENDBRANCH   2  22
TORSDOF 7
ENDMDL
MODEL      101
REMARK 921   NORMALIZED FREE ENERGY PREDICTED BY IDOCK:   -5.72 KCAL/MOL
REMARK 922        TOTAL FREE ENERGY PREDICTED BY IDOCK:   -9.80 KCAL/MOL
REMARK 923 INTER-LIGAND FREE ENERGY PREDICTED BY IDOCK:   -9.15 KCAL/MOL
REMARK 924 INTRA-LIGAND FREE ENERGY PREDICTED BY IDOCK:   -0.66 KCAL/MOL
REMARK 927      BINDING AFFINITY PREDICTED BY RF-SCORE:    0.00 PKD
ROOT
HETATM    1  C   UNK A   0     -13.798  13.984  71.949  1.00  0.00    -0.445 C  
HETATM    2  N   UNK A   0     -12.663  13.392  71.247  1.00  0.00    -0.362 NA 
ENDROOT
BRANCH   2   3
HETATM    3  C   UNK A   0     -12.568  12.009  71.147  1.00  0.00    -0.271 A  
HETATM    4  C   UNK A   0     -12.160   9.208  71.250  1.00  0.00    -0.392 A  
HETATM    5  C   UNK A   0     -11.632  11.371  70.314  1.00  0.00    -0.334 A  
HETATM    6  C   UNK A   0     -13.374  11.181  71.944  1.00  0.00    -0.409 A  
HETATM    7  C   UNK A   0     -13.167   9.801  72.012  1.00  0.00    -0.557 A  
HETATM    8  C   UNK A   0     -11.435   9.983  70.349  1.00  0.00    -0.389 A  
BRANCH   4   9
HETATM    9  C   UNK A   0     -11.841   7.768  71.405  1.00  0.00    -0.297 C  
HETATM   10  O   UNK A   0     -12.583   6.906  70.957  1.00  0.00    -0.374 OA 
ATOM     11  N   GLU A   1     -10.638   7.490  72.042  1.00  0.00    -0.206 N  
ATOM     12  H   GLU A   1     -10.091   8.242  72.460  1.00  0.00     0.000 HD 
BRANCH  11  13
ATOM     13  CA  GLU A   1     -10.159   6.096  72.106  1.00  0.00    -0.183 C  
ATOM     14  OXT GLU A   1     -10.017   4.484  73.943  1.00  0.00    -0.142 OA 
ATOM     15  C   GLU A   1     -10.099   5.649  73.579  1.00  0.00    -0.193 C  
ATOM     16  O   GLU A   1      -9.969   6.687  74.443  1.00  0.00    -0.314 OA 
BRANCH  13  17
ATOM     17  CB  GLU A   1      -8.767   5.981  71.467  1.00  0.00    -0.132 C  
BRANCH  17  18
ATOM     18  CG  GLU A   1      -8.470   4.581  70.922  1.00  0.00    -0.103 C  
ATOM     19  OE2 GLU A   1      -6.345   5.428  70.121  1.00  0.00    -0.028 OA 
ATOM     20  OE1 GLU A   1      -6.856   3.250  69.798  1.00  0.00    -0.033 OA 
ATOM     21  CD  GLU A   1      -7.124   4.497  70.249  1.00  0.00    -0.048 C  
ENDBRANCH  17  18
ENDBRANCH  13  17
ENDBRANCH  11  13
ENDBRANCH   4   9
ENDBRANCH   2   3
BRANCH   2  22
HETATM   22  C   UNK A   0     -11.465  14.229  71.054  1.00  0.00     0.115 C  
BRANCH  22  23
HETATM   23  C   UNK A   0     -11.382  14.894  69.694  1.00  0.00    -0.282 A  
HETATM   24  N   UNK A   0     -12.431  12.826  66.174  1.00  0.00    -0.451 NA 
HETATM   25  C   UNK A   0     -11.269  16.111  67.230  1.00  0.00     0.008 A  
HETATM   26  C   UNK A   0     -11.062  16.230  69.533  1.00  0.00    -0.330 A  
HETATM   27  N   UNK A   0     -11.153  16.707  66.046  1.00  0.00     0.128 NA 
HETATM   28  C   UNK A   0     -11.919  14.133  66.180  1.00  0.00    -0.422 A  
HETATM   29  C   UNK A   0     -11.640  14.772  67.384  1.00  0.00    -0.360 A  
HETATM   30  N   UNK A   0     -11.003  16.841  68.321  1.00  0.00    -0.362 NA 
HETATM   31  C   UNK A   0     -11.393  15.979  64.964  1.00  0.00    -0.156 A  
HETATM   32  H1  UNK A   0     -12.513  12.383  67.090  1.00  0.00     0.000 HD 
HETATM   33  H1  UNK A   0     -11.404  16.018  62.903  1.00  0.00     0.000 HD 
HETATM   34  N   UNK A   0     -11.220  16.579  63.736  1.00  0.00    -1.109 NA 
HETATM   35  N   UNK A   0     -11.810  14.714  64.977  1.00  0.00    -0.381 NA 
HETATM   36  N   UNK A   0     -11.695  14.151  68.607  1.00  0.00    -0.329 NA 
HETATM   37  H2  UNK A   0     -11.878  12.237  65.550  1.00  0.00     0.000 HD 
HETATM   38  H2  UNK A   0     -10.918  17.550  63.662  1.00  0.00     0.000 HD 
ENDBRANCH  22  23
ENDBRANCH   2  22
TORSDOF 7
ENDMDL
MODEL      102
REMARK 921   NORMALIZED FREE ENERGY PREDICTED BY IDOCK:   -5.69 KCAL/MOL
REMARK 922        TOTAL FREE ENERGY PREDICTED BY IDOCK:   -9.77 KCAL/MOL
REMARK 923 INTER-LIGAND FREE ENERGY PREDICTED BY IDOCK:   -8.75 KCAL/MOL
REMARK 924 INTRA-LIGAND FREE ENERGY PREDICTED BY IDOCK:   -1.02 KCAL/MOL
REMARK 927      BINDING AFFINITY PREDICTED BY RF-SCORE:    0.00 PKD
ROOT
HETATM    1  C   UNK A   0     -12.669   7.187  71.022  1.00  0.00    -0.253 C  
HETATM    2  N   UNK A   0     -11.526   8.084  70.877  1.00  0.00    -0.278 NA 
ENDROOT
BRANCH   2   3
HETATM    3  C   UNK A   0     -11.713   9.344  70.321  1.00  0.00    -0.083 A  
HETATM    4  C   UNK A   0     -11.734  11.974  69.269  1.00  0.00    -0.389 A  
HETATM    5  C   UNK A   0     -12.250  10.423  71.047  1.00  0.00    -0.498 A  
HETATM    6  C   UNK A   0     -11.298   9.610  69.007  1.00  0.00     0.053 A  
HETATM    7  C   UNK A   0     -11.291  10.907  68.488  1.00  0.00    -0.367 A  
HETATM    8  C   UNK A   0     -12.277  11.724  70.527  1.00  0.00    -0.438 A  
BRANCH   4   9
HETATM    9  C   UNK A   0     -11.613  13.370  68.784  1.00  0.00    -0.325 C  
HETATM   10  O   UNK A   0     -12.266  13.765  67.830  1.00  0.00    -0.327 OA 
ATOM     11  N   GLU A   1     -10.755  14.183  69.516  1.00  0.00    -0.437 N  
ATOM     12  H   GLU A   1     -10.179  13.787  70.259  1.00  0.00     0.000 HD 
BRANCH  11  13
ATOM     13  CA  GLU A   1     -10.685  15.624  69.207  1.00  0.00    -0.239 C  
ATOM     14  OXT GLU A   1      -8.875  17.047  68.377  1.00  0.00    -0.230 OA 
ATOM     15  C   GLU A   1      -9.221  16.012  68.928  1.00  0.00    -0.233 C  
ATOM     16  O   GLU A   1      -8.330  15.170  69.511  1.00  0.00    -0.223 OA 
BRANCH  13  17
ATOM     17  CB  GLU A   1     -11.229  16.447  70.385  1.00  0.00    -0.253 C  
BRANCH  17  18
ATOM     18  CG  GLU A   1     -12.588  15.949  70.888  1.00  0.00    -0.308 C  
ATOM     19  OE2 GLU A   1     -11.545  15.506  73.031  1.00  0.00    -0.439 OA 
ATOM     20  OE1 GLU A   1     -13.752  15.094  72.773  1.00  0.00    -0.468 OA 
ATOM     21  CD  GLU A   1     -12.542  15.502  72.327  1.00  0.00    -0.396 C  
ENDBRANCH  17  18
ENDBRANCH  13  17
ENDBRANCH  11  13
ENDBRANCH   4   9
ENDBRANCH   2   3
BRANCH   2  22
HETATM   22  C   UNK A   0     -10.178   7.489  70.913  1.00  0.00    -0.192 C  
BRANCH  22  23
HETATM   23  C   UNK A   0     -10.004   6.285  70.007  1.00  0.00    -0.171 A  
HETATM   24  N   UNK A   0      -9.540   6.724  65.841  1.00  0.00    -0.384 NA 
HETATM   25  C   UNK A   0      -9.651   4.104  68.368  1.00  0.00    -0.125 A  
HETATM   26  C   UNK A   0      -9.885   4.994  70.492  1.00  0.00    -0.219 A  
HETATM   27  N   UNK A   0      -9.536   3.030  67.592  1.00  0.00    -0.321 NA 
HETATM   28  C   UNK A   0      -9.617   5.479  66.484  1.00  0.00    -0.155 A  
HETATM   29  C   UNK A   0      -9.722   5.409  67.870  1.00  0.00    -0.136 A  
HETATM   30  N   UNK A   0      -9.711   3.911  69.691  1.00  0.00    -0.189 NA 
HETATM   31  C   UNK A   0      -9.501   3.219  66.279  1.00  0.00    -0.079 A  
HETATM   32  H1  UNK A   0      -9.630   7.538  66.450  1.00  0.00     0.000 HD 
HETATM   33  H1  UNK A   0      -9.410   2.249  64.463  1.00  0.00     0.000 HD 
HETATM   34  N   UNK A   0      -9.437   2.104  65.473  1.00  0.00    -0.347 NA 
HETATM   35  N   UNK A   0      -9.500   4.410  65.684  1.00  0.00    -0.162 NA 
HETATM   36  N   UNK A   0      -9.904   6.504  68.676  1.00  0.00    -0.137 NA 
HETATM   37  H2  UNK A   0     -10.228   6.773  65.090  1.00  0.00     0.000 HD 
HETATM   38  H2  UNK A   0      -9.418   1.165  65.872  1.00  0.00     0.000 HD 
ENDBRANCH  22  23
ENDBRANCH   2  22
TORSDOF 7
ENDMDL
MODEL      103
REMARK 921   NORMALIZED FREE ENERGY PREDICTED BY IDOCK:   -5.69 KCAL/MOL
REMARK 922        TOTAL FREE ENERGY PREDICTED BY IDOCK:   -9.76 KCAL/MOL
REMARK 923 INTER-LIGAND FREE ENERGY PREDICTED BY IDOCK:   -8.98 KCAL/MOL
REMARK 924 INTRA-LIGAND FREE ENERGY PREDICTED BY IDOCK:   -0.78 KCAL/MOL
REMARK 927      BINDING AFFINITY PREDICTED BY RF-SCORE:    0.00 PKD
ROOT
HETATM    1  C   UNK A   0      -6.966   6.944  70.239  1.00  0.00    -0.066 C  
HETATM    2  N   UNK A   0      -8.294   7.098  69.652  1.00  0.00    -0.131 NA 
ENDROOT
BRANCH   2   3
HETATM    3  C   UNK A   0      -8.821   8.373  69.480  1.00  0.00    -0.145 A  
HETATM    4  C   UNK A   0     -10.195  10.800  68.985  1.00  0.00    -0.229 A  
HETATM    5  C   UNK A   0      -8.514   9.179  68.370  1.00  0.00    -0.128 A  
HETATM    6  C   UNK A   0      -9.754   8.885  70.395  1.00  0.00    -0.226 A  
HETATM    7  C   UNK A   0     -10.448  10.073  70.149  1.00  0.00    -0.338 A  
HETATM    8  C   UNK A   0      -9.180  10.388  68.126  1.00  0.00    -0.145 A  
BRANCH   4   9
HETATM    9  C   UNK A   0     -11.011  11.991  68.645  1.00  0.00    -0.240 C  
HETATM   10  O   UNK A   0     -11.806  12.460  69.445  1.00  0.00    -0.301 OA 
ATOM     11  N   GLU A   1     -10.765  12.543  67.393  1.00  0.00    -0.225 N  
ATOM     12  H   GLU A   1     -10.143  12.072  66.736  1.00  0.00     0.000 HD 
BRANCH  11  13
ATOM     13  CA  GLU A   1     -11.412  13.816  67.025  1.00  0.00    -0.346 C  
ATOM     14  OXT GLU A   1     -13.125  14.378  65.368  1.00  0.00    -0.604 OA 
ATOM     15  C   GLU A   1     -12.259  13.606  65.755  1.00  0.00    -0.464 C  
ATOM     16  O   GLU A   1     -11.834  12.560  65.003  1.00  0.00    -0.358 OA 
BRANCH  13  17
ATOM     17  CB  GLU A   1     -10.351  14.898  66.773  1.00  0.00    -0.269 C  
BRANCH  17  18
ATOM     18  CG  GLU A   1     -10.953  16.290  66.555  1.00  0.00    -0.007 C  
ATOM     19  OE2 GLU A   1      -8.769  17.034  65.813  1.00  0.00    -0.522 OA 
ATOM     20  OE1 GLU A   1     -10.491  18.498  65.812  1.00  0.00    -0.598 OA 
ATOM     21  CD  GLU A   1      -9.944  17.280  66.031  1.00  0.00    -0.233 C  
ENDBRANCH  17  18
ENDBRANCH  13  17
ENDBRANCH  11  13
ENDBRANCH   4   9
ENDBRANCH   2   3
BRANCH   2  22
HETATM   22  C   UNK A   0      -9.189   5.927  69.663  1.00  0.00    -0.136 C  
BRANCH  22  23
HETATM   23  C   UNK A   0      -9.698   5.519  68.295  1.00  0.00    -0.132 A  
HETATM   24  N   UNK A   0      -7.996   2.281  66.200  1.00  0.00    -0.080 NA 
HETATM   25  C   UNK A   0     -10.645   4.752  65.828  1.00  0.00    -0.218 A  
HETATM   26  C   UNK A   0     -10.801   6.105  67.700  1.00  0.00    -0.332 A  
HETATM   27  N   UNK A   0     -11.086   4.437  64.614  1.00  0.00    -0.750 NA 
HETATM   28  C   UNK A   0      -9.009   3.097  65.673  1.00  0.00    -0.145 A  
HETATM   29  C   UNK A   0      -9.558   4.120  66.440  1.00  0.00    -0.202 A  
HETATM   30  N   UNK A   0     -11.276   5.734  66.483  1.00  0.00    -0.717 NA 
HETATM   31  C   UNK A   0     -10.446   3.480  63.955  1.00  0.00    -0.264 A  
HETATM   32  H1  UNK A   0      -7.669   2.536  67.133  1.00  0.00     0.000 HD 
HETATM   33  H1  UNK A   0     -10.375   2.454  62.168  1.00  0.00     0.000 HD 
HETATM   34  N   UNK A   0     -10.867   3.190  62.675  1.00  0.00    -0.172 NA 
HETATM   35  N   UNK A   0      -9.438   2.762  64.448  1.00  0.00    -0.143 NA 
HETATM   36  N   UNK A   0      -9.072   4.496  67.667  1.00  0.00    -0.116 NA 
HETATM   37  H2  UNK A   0      -7.209   2.238  65.553  1.00  0.00     0.000 HD 
HETATM   38  H2  UNK A   0     -11.645   3.695  62.250  1.00  0.00     0.000 HD 
ENDBRANCH  22  23
ENDBRANCH   2  22
TORSDOF 7
ENDMDL
MODEL      104
REMARK 921   NORMALIZED FREE ENERGY PREDICTED BY IDOCK:   -5.68 KCAL/MOL
REMARK 922        TOTAL FREE ENERGY PREDICTED BY IDOCK:   -9.75 KCAL/MOL
REMARK 923 INTER-LIGAND FREE ENERGY PREDICTED BY IDOCK:   -9.19 KCAL/MOL
REMARK 924 INTRA-LIGAND FREE ENERGY PREDICTED BY IDOCK:   -0.55 KCAL/MOL
REMARK 927      BINDING AFFINITY PREDICTED BY RF-SCORE:    0.00 PKD
ROOT
HETATM    1  C   UNK A   0     -11.371   5.781  72.632  1.00  0.00    -0.300 C  
HETATM    2  N   UNK A   0     -10.274   6.510  72.003  1.00  0.00    -0.192 NA 
ENDROOT
BRANCH   2   3
HETATM    3  C   UNK A   0     -10.510   7.772  71.471  1.00  0.00    -0.205 A  
HETATM    4  C   UNK A   0     -11.086  10.167  70.070  1.00  0.00    -0.368 A  
HETATM    5  C   UNK A   0      -9.488   8.571  70.927  1.00  0.00    -0.221 A  
HETATM    6  C   UNK A   0     -11.818   8.278  71.391  1.00  0.00    -0.330 A  
HETATM    7  C   UNK A   0     -12.111   9.449  70.688  1.00  0.00    -0.191 A  
HETATM    8  C   UNK A   0      -9.765   9.764  70.245  1.00  0.00    -0.279 A  
BRANCH   4   9
HETATM    9  C   UNK A   0     -11.392  11.338  69.213  1.00  0.00    -0.287 C  
HETATM   10  O   UNK A   0     -12.329  11.317  68.430  1.00  0.00    -0.545 OA 
ATOM     11  N   GLU A   1     -10.576  12.446  69.406  1.00  0.00    -0.423 N  
ATOM     12  H   GLU A   1      -9.765  12.388  70.021  1.00  0.00     0.000 HD 
BRANCH  11  13
ATOM     13  CA  GLU A   1     -10.898  13.709  68.714  1.00  0.00    -0.255 C  
ATOM     14  OXT GLU A   1     -10.622  14.433  66.392  1.00  0.00    -0.289 OA 
ATOM     15  C   GLU A   1     -10.298  13.675  67.295  1.00  0.00    -0.249 C  
ATOM     16  O   GLU A   1      -9.241  12.831  67.187  1.00  0.00    -0.204 OA 
BRANCH  13  17
ATOM     17  CB  GLU A   1     -10.328  14.903  69.495  1.00  0.00    -0.168 C  
BRANCH  17  18
ATOM     18  CG  GLU A   1     -11.414  15.797  70.101  1.00  0.00    -0.366 C  
ATOM     19  OE2 GLU A   1     -11.915  14.004  71.654  1.00  0.00    -0.167 OA 
ATOM     20  OE1 GLU A   1     -13.071  15.940  71.796  1.00  0.00    -0.462 OA 
ATOM     21  CD  GLU A   1     -12.135  15.133  71.246  1.00  0.00    -0.342 C  
ENDBRANCH  17  18
ENDBRANCH  13  17
ENDBRANCH  11  13
ENDBRANCH   4   9
ENDBRANCH   2   3
BRANCH   2  22
HETATM   22  C   UNK A   0      -9.096   5.738  71.570  1.00  0.00    -0.140 C  
BRANCH  22  23
HETATM   23  C   UNK A   0      -9.227   5.123  70.190  1.00  0.00    -0.142 A  
HETATM   24  N   UNK A   0     -11.233   7.133  67.075  1.00  0.00    -0.565 NA 
HETATM   25  C   UNK A   0      -9.433   4.025  67.676  1.00  0.00    -0.183 A  
HETATM   26  C   UNK A   0      -8.619   3.930  69.842  1.00  0.00    -0.065 A  
HETATM   27  N   UNK A   0      -9.564   3.448  66.485  1.00  0.00    -0.390 NA 
HETATM   28  C   UNK A   0     -10.705   5.838  66.947  1.00  0.00    -0.305 A  
HETATM   29  C   UNK A   0     -10.012   5.255  68.003  1.00  0.00    -0.152 A  
HETATM   30  N   UNK A   0      -8.715   3.379  68.604  1.00  0.00    -0.092 NA 
HETATM   31  C   UNK A   0     -10.295   4.075  65.574  1.00  0.00    -0.041 A  
HETATM   32  H1  UNK A   0     -11.123   7.562  67.995  1.00  0.00     0.000 HD 
HETATM   33  H1  UNK A   0     -11.041   3.935  63.658  1.00  0.00     0.000 HD 
HETATM   34  N   UNK A   0     -10.478   3.452  64.358  1.00  0.00    -0.427 NA 
HETATM   35  N   UNK A   0     -10.849   5.275  65.740  1.00  0.00    -0.682 NA 
HETATM   36  N   UNK A   0      -9.922   5.810  69.255  1.00  0.00    -0.168 NA 
HETATM   37  H2  UNK A   0     -12.215   7.139  66.802  1.00  0.00     0.000 HD 
HETATM   38  H2  UNK A   0     -10.065   2.539  64.167  1.00  0.00     0.000 HD 
ENDBRANCH  22  23
ENDBRANCH   2  22
TORSDOF 7
ENDMDL
MODEL      105
REMARK 921   NORMALIZED FREE ENERGY PREDICTED BY IDOCK:   -5.66 KCAL/MOL
REMARK 922        TOTAL FREE ENERGY PREDICTED BY IDOCK:   -9.73 KCAL/MOL
REMARK 923 INTER-LIGAND FREE ENERGY PREDICTED BY IDOCK:   -8.51 KCAL/MOL
REMARK 924 INTRA-LIGAND FREE ENERGY PREDICTED BY IDOCK:   -1.21 KCAL/MOL
REMARK 927      BINDING AFFINITY PREDICTED BY RF-SCORE:    0.00 PKD
ROOT
HETATM    1  C   UNK A   0     -10.798   6.947  72.793  1.00  0.00    -0.272 C  
HETATM    2  N   UNK A   0     -11.460   6.466  71.584  1.00  0.00    -0.291 NA 
ENDROOT
BRANCH   2   3
HETATM    3  C   UNK A   0     -10.710   5.836  70.599  1.00  0.00    -0.281 A  
HETATM    4  C   UNK A   0      -9.493   4.364  68.506  1.00  0.00    -0.217 A  
HETATM    5  C   UNK A   0      -9.896   4.719  70.861  1.00  0.00    -0.279 A  
HETATM    6  C   UNK A   0     -10.794   6.257  69.263  1.00  0.00    -0.406 A  
HETATM    7  C   UNK A   0     -10.210   5.527  68.224  1.00  0.00    -0.237 A  
HETATM    8  C   UNK A   0      -9.279   3.995  69.831  1.00  0.00    -0.213 A  
BRANCH   4   9
HETATM    9  C   UNK A   0      -8.978   3.508  67.411  1.00  0.00    -0.146 C  
HETATM   10  O   UNK A   0      -9.404   2.375  67.242  1.00  0.00    -0.142 OA 
ATOM     11  N   GLU A   1      -8.031   4.102  66.585  1.00  0.00    -0.097 N  
ATOM     12  H   GLU A   1      -7.657   5.024  66.810  1.00  0.00     0.000 HD 
BRANCH  11  13
ATOM     13  CA  GLU A   1      -7.574   3.387  65.378  1.00  0.00    -0.077 C  
ATOM     14  OXT GLU A   1      -5.350   2.736  64.590  1.00  0.00    -0.008 OA 
ATOM     15  C   GLU A   1      -6.037   3.456  65.300  1.00  0.00    -0.023 C  
ATOM     16  O   GLU A   1      -5.520   4.517  65.970  1.00  0.00    -0.012 OA 
BRANCH  13  17
ATOM     17  CB  GLU A   1      -8.191   4.019  64.120  1.00  0.00    -0.092 C  
BRANCH  17  18
ATOM     18  CG  GLU A   1      -9.130   3.070  63.370  1.00  0.00    -0.095 C  
ATOM     19  OE2 GLU A   1     -10.987   4.126  64.517  1.00  0.00    -0.259 OA 
ATOM     20  OE1 GLU A   1     -11.404   2.477  63.029  1.00  0.00    -0.258 OA 
ATOM     21  CD  GLU A   1     -10.579   3.298  63.718  1.00  0.00    -0.246 C  
ENDBRANCH  17  18
ENDBRANCH  13  17
ENDBRANCH  11  13
ENDBRANCH   4   9
ENDBRANCH   2   3
BRANCH   2  22
HETATM   22  C   UNK A   0     -12.780   7.033  71.254  1.00  0.00    -0.351 C  
BRANCH  22  23
HETATM   23  C   UNK A   0     -12.857   8.543  71.371  1.00  0.00    -0.255 A  
HETATM   24  N   UNK A   0     -10.957  11.058  68.573  1.00  0.00    -0.208 NA 
HETATM   25  C   UNK A   0     -13.026  11.282  71.561  1.00  0.00    -0.415 A  
HETATM   26  C   UNK A   0     -13.627   9.181  72.327  1.00  0.00    -0.489 A  
HETATM   27  N   UNK A   0     -13.079  12.603  71.707  1.00  0.00    -0.404 NA 
HETATM   28  C   UNK A   0     -11.637  11.534  69.705  1.00  0.00    -0.333 A  
HETATM   29  C   UNK A   0     -12.283  10.647  70.561  1.00  0.00    -0.358 A  
HETATM   30  N   UNK A   0     -13.717  10.533  72.429  1.00  0.00    -0.422 NA 
HETATM   31  C   UNK A   0     -12.376  13.345  70.862  1.00  0.00    -0.353 A  
HETATM   32  H1  UNK A   0     -10.926  10.042  68.475  1.00  0.00     0.000 HD 
HETATM   33  H1  UNK A   0     -11.845  15.281  70.396  1.00  0.00     0.000 HD 
HETATM   34  N   UNK A   0     -12.386  14.710  71.046  1.00  0.00    -0.309 NA 
HETATM   35  N   UNK A   0     -11.677  12.868  69.833  1.00  0.00    -0.485 NA 
HETATM   36  N   UNK A   0     -12.185   9.283  70.459  1.00  0.00    -0.483 NA 
HETATM   37  H2  UNK A   0     -10.012  11.440  68.546  1.00  0.00     0.000 HD 
HETATM   38  H2  UNK A   0     -12.916  15.136  71.806  1.00  0.00     0.000 HD 
ENDBRANCH  22  23
ENDBRANCH   2  22
TORSDOF 7
ENDMDL
MODEL      106
REMARK 921   NORMALIZED FREE ENERGY PREDICTED BY IDOCK:   -5.65 KCAL/MOL
REMARK 922        TOTAL FREE ENERGY PREDICTED BY IDOCK:   -9.71 KCAL/MOL
REMARK 923 INTER-LIGAND FREE ENERGY PREDICTED BY IDOCK:   -8.93 KCAL/MOL
REMARK 924 INTRA-LIGAND FREE ENERGY PREDICTED BY IDOCK:   -0.79 KCAL/MOL
REMARK 927      BINDING AFFINITY PREDICTED BY RF-SCORE:    0.00 PKD
ROOT
HETATM    1  C   UNK A   0     -12.343  12.329  63.310  1.00  0.00    -0.409 C  
HETATM    2  N   UNK A   0     -11.512  12.429  64.507  1.00  0.00    -0.323 NA 
ENDROOT
BRANCH   2   3
HETATM    3  C   UNK A   0     -10.520  11.481  64.730  1.00  0.00    -0.299 A  
HETATM    4  C   UNK A   0      -8.737   9.301  65.038  1.00  0.00    -0.221 A  
HETATM    5  C   UNK A   0     -10.344  10.844  65.972  1.00  0.00    -0.304 A  
HETATM    6  C   UNK A   0      -9.685  11.065  63.682  1.00  0.00    -0.364 A  
HETATM    7  C   UNK A   0      -8.815   9.980  63.822  1.00  0.00    -0.250 A  
HETATM    8  C   UNK A   0      -9.453   9.774  66.135  1.00  0.00    -0.261 A  
BRANCH   4   9
HETATM    9  C   UNK A   0      -7.919   8.071  65.168  1.00  0.00    -0.127 C  
HETATM   10  O   UNK A   0      -6.871   8.075  65.795  1.00  0.00    -0.055 OA 
ATOM     11  N   GLU A   1      -8.455   6.934  64.575  1.00  0.00    -0.342 N  
ATOM     12  H   GLU A   1      -9.298   7.000  64.003  1.00  0.00     0.000 HD 
BRANCH  11  13
ATOM     13  CA  GLU A   1      -7.794   5.631  64.782  1.00  0.00    -0.112 C  
ATOM     14  OXT GLU A   1      -6.269   4.317  63.390  1.00  0.00    -0.017 OA 
ATOM     15  C   GLU A   1      -7.119   5.192  63.468  1.00  0.00    -0.048 C  
ATOM     16  O   GLU A   1      -7.685   5.752  62.369  1.00  0.00    -0.061 OA 
BRANCH  13  17
ATOM     17  CB  GLU A   1      -8.822   4.577  65.220  1.00  0.00    -0.140 C  
BRANCH  17  18
ATOM     18  CG  GLU A   1      -8.497   3.950  66.579  1.00  0.00    -0.105 C  
ATOM     19  OE2 GLU A   1      -8.172   1.835  65.439  1.00  0.00    -0.074 OA 
ATOM     20  OE1 GLU A   1      -7.853   1.943  67.673  1.00  0.00    -0.059 OA 
ATOM     21  CD  GLU A   1      -8.169   2.482  66.474  1.00  0.00    -0.087 C  
ENDBRANCH  17  18
ENDBRANCH  13  17
ENDBRANCH  11  13
ENDBRANCH   4   9
ENDBRANCH   2   3
BRANCH   2  22
HETATM   22  C   UNK A   0     -12.017  13.244  65.626  1.00  0.00    -0.412 C  
BRANCH  22  23
HETATM   23  C   UNK A   0     -11.587  14.697  65.583  1.00  0.00    -0.328 A  
HETATM   24  N   UNK A   0     -10.099  16.646  69.011  1.00  0.00    -0.278 NA 
HETATM   25  C   UNK A   0     -10.770  17.323  65.496  1.00  0.00    -0.100 A  
HETATM   26  C   UNK A   0     -11.558  15.434  64.413  1.00  0.00    -0.264 A  
HETATM   27  N   UNK A   0     -10.433  18.608  65.440  1.00  0.00    -0.434 NA 
HETATM   28  C   UNK A   0     -10.301  17.291  67.780  1.00  0.00    -0.356 A  
HETATM   29  C   UNK A   0     -10.750  16.573  66.676  1.00  0.00    -0.150 A  
HETATM   30  N   UNK A   0     -11.156  16.731  64.359  1.00  0.00    -1.260 NA 
HETATM   31  C   UNK A   0     -10.072  19.201  66.570  1.00  0.00    -0.406 A  
HETATM   32  H1  UNK A   0     -10.362  15.661  69.037  1.00  0.00     0.000 HD 
HETATM   33  H1  UNK A   0      -9.500  21.002  67.393  1.00  0.00     0.000 HD 
HETATM   34  N   UNK A   0      -9.776  20.546  66.523  1.00  0.00    -0.646 NA 
HETATM   35  N   UNK A   0      -9.955  18.586  67.745  1.00  0.00    -0.327 NA 
HETATM   36  N   UNK A   0     -11.160  15.265  66.735  1.00  0.00    -0.309 NA 
HETATM   37  H2  UNK A   0     -10.576  17.156  69.755  1.00  0.00     0.000 HD 
HETATM   38  H2  UNK A   0      -9.832  21.067  65.648  1.00  0.00     0.000 HD 
ENDBRANCH  22  23
ENDBRANCH   2  22
TORSDOF 7
ENDMDL
MODEL      107
REMARK 921   NORMALIZED FREE ENERGY PREDICTED BY IDOCK:   -5.65 KCAL/MOL
REMARK 922        TOTAL FREE ENERGY PREDICTED BY IDOCK:   -9.71 KCAL/MOL
REMARK 923 INTER-LIGAND FREE ENERGY PREDICTED BY IDOCK:   -9.16 KCAL/MOL
REMARK 924 INTRA-LIGAND FREE ENERGY PREDICTED BY IDOCK:   -0.55 KCAL/MOL
REMARK 927      BINDING AFFINITY PREDICTED BY RF-SCORE:    0.00 PKD
ROOT
HETATM    1  C   UNK A   0     -13.306   8.326  71.905  1.00  0.00    -0.342 C  
HETATM    2  N   UNK A   0     -12.002   8.977  71.828  1.00  0.00    -0.343 NA 
ENDROOT
BRANCH   2   3
HETATM    3  C   UNK A   0     -11.759   9.906  70.823  1.00  0.00    -0.341 A  
HETATM    4  C   UNK A   0     -10.946  11.873  68.954  1.00  0.00    -0.285 A  
HETATM    5  C   UNK A   0     -12.291  11.208  70.846  1.00  0.00    -0.500 A  
HETATM    6  C   UNK A   0     -10.899   9.593  69.759  1.00  0.00    -0.274 A  
HETATM    7  C   UNK A   0     -10.481  10.563  68.843  1.00  0.00    -0.226 A  
HETATM    8  C   UNK A   0     -11.903  12.182  69.916  1.00  0.00    -0.392 A  
BRANCH   4   9
HETATM    9  C   UNK A   0     -10.415  12.942  68.074  1.00  0.00    -0.230 C  
HETATM   10  O   UNK A   0      -9.775  13.876  68.532  1.00  0.00    -0.221 OA 
ATOM     11  N   GLU A   1     -10.657  12.771  66.716  1.00  0.00    -0.250 N  
ATOM     12  H   GLU A   1     -11.257  12.012  66.391  1.00  0.00     0.000 HD 
BRANCH  11  13
ATOM     13  CA  GLU A   1     -10.038  13.697  65.749  1.00  0.00    -0.298 C  
ATOM     14  OXT GLU A   1     -10.352  16.086  65.319  1.00  0.00    -0.471 OA 
ATOM     15  C   GLU A   1     -10.787  15.042  65.785  1.00  0.00    -0.350 C  
ATOM     16  O   GLU A   1     -12.063  14.926  66.231  1.00  0.00    -0.163 OA 
BRANCH  13  17
ATOM     17  CB  GLU A   1     -10.095  13.103  64.333  1.00  0.00    -0.224 C  
BRANCH  17  18
ATOM     18  CG  GLU A   1     -11.170  12.023  64.177  1.00  0.00    -0.441 C  
ATOM     19  OE2 GLU A   1     -12.667  13.741  63.350  1.00  0.00    -0.795 OA 
ATOM     20  OE1 GLU A   1     -13.397  11.606  63.466  1.00  0.00    -0.407 OA 
ATOM     21  CD  GLU A   1     -12.463  12.571  63.629  1.00  0.00    -0.470 C  
ENDBRANCH  17  18
ENDBRANCH  13  17
ENDBRANCH  11  13
ENDBRANCH   4   9
ENDBRANCH   2   3
BRANCH   2  22
HETATM   22  C   UNK A   0     -10.872   8.332  72.522  1.00  0.00    -0.351 C  
BRANCH  22  23
HETATM   23  C   UNK A   0     -10.598   6.909  72.076  1.00  0.00    -0.212 A  
HETATM   24  N   UNK A   0      -8.673   6.089  68.417  1.00  0.00    -0.114 NA 
HETATM   25  C   UNK A   0     -10.066   4.329  71.284  1.00  0.00    -0.108 A  
HETATM   26  C   UNK A   0     -10.864   5.811  72.874  1.00  0.00    -0.261 A  
HETATM   27  N   UNK A   0      -9.870   3.070  70.901  1.00  0.00    -0.077 NA 
HETATM   28  C   UNK A   0      -9.167   5.091  69.272  1.00  0.00    -0.109 A  
HETATM   29  C   UNK A   0      -9.749   5.434  70.489  1.00  0.00    -0.185 A  
HETATM   30  N   UNK A   0     -10.606   4.533  72.492  1.00  0.00    -0.185 NA 
HETATM   31  C   UNK A   0      -9.358   2.866  69.694  1.00  0.00    -0.135 A  
HETATM   32  H1  UNK A   0      -8.831   7.048  68.726  1.00  0.00     0.000 HD 
HETATM   33  H1  UNK A   0      -8.812   1.407  68.346  1.00  0.00     0.000 HD 
HETATM   34  N   UNK A   0      -9.206   1.563  69.273  1.00  0.00    -0.102 NA 
HETATM   35  N   UNK A   0      -8.960   3.831  68.866  1.00  0.00    -0.111 NA 
HETATM   36  N   UNK A   0     -10.015   6.725  70.869  1.00  0.00    -0.186 NA 
HETATM   37  H2  UNK A   0      -9.045   5.959  67.476  1.00  0.00     0.000 HD 
HETATM   38  H2  UNK A   0      -9.478   0.782  69.870  1.00  0.00     0.000 HD 
ENDBRANCH  22  23
ENDBRANCH   2  22
TORSDOF 7
ENDMDL
MODEL      108
REMARK 921   NORMALIZED FREE ENERGY PREDICTED BY IDOCK:   -5.65 KCAL/MOL
REMARK 922        TOTAL FREE ENERGY PREDICTED BY IDOCK:   -9.71 KCAL/MOL
REMARK 923 INTER-LIGAND FREE ENERGY PREDICTED BY IDOCK:   -8.42 KCAL/MOL
REMARK 924 INTRA-LIGAND FREE ENERGY PREDICTED BY IDOCK:   -1.29 KCAL/MOL
REMARK 927      BINDING AFFINITY PREDICTED BY RF-SCORE:    0.00 PKD
ROOT
HETATM    1  C   UNK A   0     -10.501   7.714  71.508  1.00  0.00    -0.204 C  
HETATM    2  N   UNK A   0      -9.353   8.233  70.771  1.00  0.00    -0.157 NA 
ENDROOT
BRANCH   2   3
HETATM    3  C   UNK A   0      -9.523   9.317  69.918  1.00  0.00    -0.197 A  
HETATM    4  C   UNK A   0      -9.849  11.279  67.900  1.00  0.00    -0.187 A  
HETATM    5  C   UNK A   0      -8.456  10.136  69.508  1.00  0.00    -0.179 A  
HETATM    6  C   UNK A   0     -10.783   9.598  69.367  1.00  0.00    -0.248 A  
HETATM    7  C   UNK A   0     -10.948  10.553  68.360  1.00  0.00    -0.310 A  
HETATM    8  C   UNK A   0      -8.613  11.118  68.521  1.00  0.00    -0.157 A  
BRANCH   4   9
HETATM    9  C   UNK A   0      -9.980  12.201  66.746  1.00  0.00    -0.203 C  
HETATM   10  O   UNK A   0      -9.347  13.246  66.699  1.00  0.00    -0.251 OA 
ATOM     11  N   GLU A   1     -10.820  11.766  65.728  1.00  0.00    -0.284 N  
ATOM     12  H   GLU A   1     -11.379  10.921  65.847  1.00  0.00     0.000 HD 
BRANCH  11  13
ATOM     13  CA  GLU A   1     -10.895  12.538  64.473  1.00  0.00    -0.328 C  
ATOM     14  OXT GLU A   1     -12.515  14.170  63.635  1.00  0.00    -0.819 OA 
ATOM     15  C   GLU A   1     -12.260  13.247  64.396  1.00  0.00    -0.390 C  
ATOM     16  O   GLU A   1     -13.218  12.634  65.136  1.00  0.00    -0.646 OA 
BRANCH  13  17
ATOM     17  CB  GLU A   1     -10.720  11.606  63.264  1.00  0.00    -0.404 C  
BRANCH  17  18
ATOM     18  CG  GLU A   1      -9.251  11.351  62.911  1.00  0.00    -0.313 C  
ATOM     19  OE2 GLU A   1      -9.297   9.456  64.422  1.00  0.00    -0.162 OA 
ATOM     20  OE1 GLU A   1      -7.398   9.915  63.287  1.00  0.00    -0.123 OA 
ATOM     21  CD  GLU A   1      -8.685  10.152  63.629  1.00  0.00    -0.212 C  
ENDBRANCH  17  18
ENDBRANCH  13  17
ENDBRANCH  11  13
ENDBRANCH   4   9
ENDBRANCH   2   3
BRANCH   2  22
HETATM   22  C   UNK A   0      -8.182   7.351  70.616  1.00  0.00    -0.112 C  
BRANCH  22  23
HETATM   23  C   UNK A   0      -8.228   6.465  69.386  1.00  0.00    -0.118 A  
HETATM   24  N   UNK A   0     -11.532   6.515  66.769  1.00  0.00    -0.760 NA 
HETATM   25  C   UNK A   0      -8.295   4.887  67.133  1.00  0.00    -0.106 A  
HETATM   26  C   UNK A   0      -7.163   5.674  68.993  1.00  0.00    -0.073 A  
HETATM   27  N   UNK A   0      -8.325   4.074  66.081  1.00  0.00    -0.108 NA 
HETATM   28  C   UNK A   0     -10.439   5.647  66.619  1.00  0.00    -0.279 A  
HETATM   29  C   UNK A   0      -9.359   5.719  67.494  1.00  0.00    -0.111 A  
HETATM   30  N   UNK A   0      -7.186   4.891  67.883  1.00  0.00    -0.069 NA 
HETATM   31  C   UNK A   0      -9.433   4.052  65.351  1.00  0.00    -0.172 A  
HETATM   32  H1  UNK A   0     -11.493   7.132  67.581  1.00  0.00     0.000 HD 
HETATM   33  H1  UNK A   0     -10.338   3.153  63.733  1.00  0.00     0.000 HD 
HETATM   34  N   UNK A   0      -9.487   3.170  64.294  1.00  0.00    -0.136 NA 
HETATM   35  N   UNK A   0     -10.490   4.836  65.553  1.00  0.00    -0.472 NA 
HETATM   36  N   UNK A   0      -9.341   6.507  68.617  1.00  0.00    -0.126 NA 
HETATM   37  H2  UNK A   0     -12.402   5.984  66.775  1.00  0.00     0.000 HD 
HETATM   38  H2  UNK A   0      -8.701   2.556  64.080  1.00  0.00     0.000 HD 
ENDBRANCH  22  23
ENDBRANCH   2  22
TORSDOF 7
ENDMDL
MODEL      109
REMARK 921   NORMALIZED FREE ENERGY PREDICTED BY IDOCK:   -5.65 KCAL/MOL
REMARK 922        TOTAL FREE ENERGY PREDICTED BY IDOCK:   -9.71 KCAL/MOL
REMARK 923 INTER-LIGAND FREE ENERGY PREDICTED BY IDOCK:   -9.40 KCAL/MOL
REMARK 924 INTRA-LIGAND FREE ENERGY PREDICTED BY IDOCK:   -0.31 KCAL/MOL
REMARK 927      BINDING AFFINITY PREDICTED BY RF-SCORE:    0.00 PKD
ROOT
HETATM    1  C   UNK A   0     -10.505   9.546  69.156  1.00  0.00    -0.210 C  
HETATM    2  N   UNK A   0     -11.684  10.264  69.631  1.00  0.00    -0.426 NA 
ENDROOT
BRANCH   2   3
HETATM    3  C   UNK A   0     -11.736  11.648  69.506  1.00  0.00    -0.344 A  
HETATM    4  C   UNK A   0     -11.493  14.467  69.379  1.00  0.00    -0.323 A  
HETATM    5  C   UNK A   0     -12.294  12.480  70.492  1.00  0.00    -0.345 A  
HETATM    6  C   UNK A   0     -11.158  12.283  68.395  1.00  0.00    -0.283 A  
HETATM    7  C   UNK A   0     -11.020  13.673  68.335  1.00  0.00    -0.284 A  
HETATM    8  C   UNK A   0     -12.190  13.876  70.429  1.00  0.00    -0.438 A  
BRANCH   4   9
HETATM    9  C   UNK A   0     -11.240  15.929  69.393  1.00  0.00    -0.336 C  
HETATM   10  O   UNK A   0     -11.441  16.593  70.399  1.00  0.00    -0.128 OA 
ATOM     11  N   GLU A   1     -10.723  16.455  68.215  1.00  0.00    -0.322 N  
ATOM     12  H   GLU A   1     -10.640  15.871  67.383  1.00  0.00     0.000 HD 
BRANCH  11  13
ATOM     13  CA  GLU A   1     -10.295  17.866  68.182  1.00  0.00    -0.389 C  
ATOM     14  OXT GLU A   1     -10.506  19.614  66.481  1.00  0.00    -0.436 OA 
ATOM     15  C   GLU A   1     -10.498  18.423  66.760  1.00  0.00    -0.385 C  
ATOM     16  O   GLU A   1     -10.495  17.457  65.807  1.00  0.00    -0.518 OA 
BRANCH  13  17
ATOM     17  CB  GLU A   1      -8.816  17.983  68.583  1.00  0.00    -0.272 C  
BRANCH  17  18
ATOM     18  CG  GLU A   1      -7.989  16.754  68.192  1.00  0.00    -0.181 C  
ATOM     19  OE2 GLU A   1      -6.931  18.107  66.481  1.00  0.00    -0.189 OA 
ATOM     20  OE1 GLU A   1      -6.290  15.955  66.738  1.00  0.00    -0.248 OA 
ATOM     21  CD  GLU A   1      -7.038  17.036  67.057  1.00  0.00    -0.193 C  
ENDBRANCH  17  18
ENDBRANCH  13  17
ENDBRANCH  11  13
ENDBRANCH   4   9
ENDBRANCH   2   3
BRANCH   2  22
HETATM   22  C   UNK A   0     -12.562   9.579  70.596  1.00  0.00     0.001 C  
BRANCH  22  23
HETATM   23  C   UNK A   0     -11.961   8.327  71.205  1.00  0.00    -0.287 A  
HETATM   24  N   UNK A   0     -10.408   5.241  68.791  1.00  0.00    -0.167 NA 
HETATM   25  C   UNK A   0     -10.836   6.073  72.310  1.00  0.00    -0.245 A  
HETATM   26  C   UNK A   0     -11.793   8.166  72.569  1.00  0.00    -0.376 A  
HETATM   27  N   UNK A   0     -10.347   4.970  72.870  1.00  0.00    -0.183 NA 
HETATM   28  C   UNK A   0     -10.477   5.168  70.191  1.00  0.00    -0.235 A  
HETATM   29  C   UNK A   0     -10.958   6.246  70.928  1.00  0.00    -0.286 A  
HETATM   30  N   UNK A   0     -11.239   7.057  73.125  1.00  0.00    -0.530 NA 
HETATM   31  C   UNK A   0      -9.970   3.986  72.065  1.00  0.00    -0.176 A  
HETATM   32  H1  UNK A   0     -10.787   6.094  68.378  1.00  0.00     0.000 HD 
HETATM   33  H1  UNK A   0      -9.226   2.065  72.025  1.00  0.00     0.000 HD 
HETATM   34  N   UNK A   0      -9.515   2.822  72.644  1.00  0.00    -0.100 NA 
HETATM   35  N   UNK A   0      -9.979   4.048  70.734  1.00  0.00    -0.156 NA 
HETATM   36  N   UNK A   0     -11.522   7.362  70.364  1.00  0.00    -0.409 NA 
HETATM   37  H2  UNK A   0     -10.854   4.424  68.376  1.00  0.00     0.000 HD 
HETATM   38  H2  UNK A   0      -9.470   2.721  73.658  1.00  0.00     0.000 HD 
ENDBRANCH  22  23
ENDBRANCH   2  22
TORSDOF 7
ENDMDL
MODEL      110
REMARK 921   NORMALIZED FREE ENERGY PREDICTED BY IDOCK:   -5.64 KCAL/MOL
REMARK 922        TOTAL FREE ENERGY PREDICTED BY IDOCK:   -9.69 KCAL/MOL
REMARK 923 INTER-LIGAND FREE ENERGY PREDICTED BY IDOCK:   -9.13 KCAL/MOL
REMARK 924 INTRA-LIGAND FREE ENERGY PREDICTED BY IDOCK:   -0.56 KCAL/MOL
REMARK 927      BINDING AFFINITY PREDICTED BY RF-SCORE:    0.00 PKD
ROOT
HETATM    1  C   UNK A   0     -11.263  12.831  68.942  1.00  0.00    -0.283 C  
HETATM    2  N   UNK A   0      -9.874  12.541  68.598  1.00  0.00    -0.397 NA 
ENDROOT
BRANCH   2   3
HETATM    3  C   UNK A   0      -9.077  13.550  68.069  1.00  0.00    -0.201 A  
HETATM    4  C   UNK A   0      -7.521  15.791  67.307  1.00  0.00    -0.252 A  
HETATM    5  C   UNK A   0      -9.569  14.518  67.175  1.00  0.00    -0.233 A  
HETATM    6  C   UNK A   0      -7.738  13.683  68.471  1.00  0.00    -0.129 A  
HETATM    7  C   UNK A   0      -6.971  14.794  68.112  1.00  0.00    -0.130 A  
HETATM    8  C   UNK A   0      -8.800  15.622  66.782  1.00  0.00    -0.304 A  
BRANCH   4   9
HETATM    9  C   UNK A   0      -6.768  17.037  67.023  1.00  0.00    -0.203 C  
HETATM   10  O   UNK A   0      -5.993  17.104  66.081  1.00  0.00    -0.261 OA 
ATOM     11  N   GLU A   1      -7.048  18.107  67.865  1.00  0.00    -0.214 N  
ATOM     12  H   GLU A   1      -7.649  17.979  68.679  1.00  0.00     0.000 HD 
BRANCH  11  13
ATOM     13  CA  GLU A   1      -6.467  19.430  67.569  1.00  0.00    -0.207 C  
ATOM     14  OXT GLU A   1      -5.145  20.990  68.915  1.00  0.00    -0.287 OA 
ATOM     15  C   GLU A   1      -5.923  20.047  68.871  1.00  0.00    -0.274 C  
ATOM     16  O   GLU A   1      -6.526  19.556  69.983  1.00  0.00    -0.287 OA 
BRANCH  13  17
ATOM     17  CB  GLU A   1      -7.532  20.354  66.958  1.00  0.00    -0.356 C  
BRANCH  17  18
ATOM     18  CG  GLU A   1      -8.918  20.169  67.583  1.00  0.00    -0.412 C  
ATOM     19  OE2 GLU A   1      -9.793  19.817  65.350  1.00  0.00    -0.239 OA 
ATOM     20  OE1 GLU A   1     -11.196  19.688  67.117  1.00  0.00    -0.326 OA 
ATOM     21  CD  GLU A   1      -9.982  19.881  66.554  1.00  0.00    -0.474 C  
ENDBRANCH  17  18
ENDBRANCH  13  17
ENDBRANCH  11  13
ENDBRANCH   4   9
ENDBRANCH   2   3
BRANCH   2  22
HETATM   22  C   UNK A   0      -9.494  11.130  68.413  1.00  0.00    -0.189 C  
BRANCH  22  23
HETATM   23  C   UNK A   0      -9.962  10.208  69.523  1.00  0.00    -0.235 A  
HETATM   24  N   UNK A   0      -7.304   8.815  72.483  1.00  0.00    -0.340 NA 
HETATM   25  C   UNK A   0     -10.817   8.567  71.558  1.00  0.00    -0.263 A  
HETATM   26  C   UNK A   0     -11.288   9.854  69.692  1.00  0.00    -0.165 A  
HETATM   27  N   UNK A   0     -11.246   7.731  72.500  1.00  0.00    -0.335 NA 
HETATM   28  C   UNK A   0      -8.648   8.418  72.401  1.00  0.00    -0.193 A  
HETATM   29  C   UNK A   0      -9.481   8.956  71.425  1.00  0.00    -0.274 A  
HETATM   30  N   UNK A   0     -11.721   9.045  70.693  1.00  0.00    -0.414 NA 
HETATM   31  C   UNK A   0     -10.347   7.239  73.342  1.00  0.00    -0.363 A  
HETATM   32  H1  UNK A   0      -6.991   9.456  71.753  1.00  0.00     0.000 HD 
HETATM   33  H1  UNK A   0     -10.089   5.952  74.930  1.00  0.00     0.000 HD 
HETATM   34  N   UNK A   0     -10.780   6.330  74.283  1.00  0.00    -0.354 NA 
HETATM   35  N   UNK A   0      -9.059   7.575  73.359  1.00  0.00    -0.189 NA 
HETATM   36  N   UNK A   0      -9.040   9.769  70.411  1.00  0.00    -0.351 NA 
HETATM   37  H2  UNK A   0      -6.698   7.995  72.510  1.00  0.00     0.000 HD 
HETATM   38  H2  UNK A   0     -11.759   6.046  74.330  1.00  0.00     0.000 HD 
ENDBRANCH  22  23
ENDBRANCH   2  22
TORSDOF 7
ENDMDL
MODEL      111
REMARK 921   NORMALIZED FREE ENERGY PREDICTED BY IDOCK:   -5.64 KCAL/MOL
REMARK 922        TOTAL FREE ENERGY PREDICTED BY IDOCK:   -9.69 KCAL/MOL
REMARK 923 INTER-LIGAND FREE ENERGY PREDICTED BY IDOCK:   -8.83 KCAL/MOL
REMARK 924 INTRA-LIGAND FREE ENERGY PREDICTED BY IDOCK:   -0.86 KCAL/MOL
REMARK 927      BINDING AFFINITY PREDICTED BY RF-SCORE:    0.00 PKD
ROOT
HETATM    1  C   UNK A   0     -12.489  12.820  71.064  1.00  0.00    -0.277 C  
HETATM    2  N   UNK A   0     -12.170  11.430  70.747  1.00  0.00    -0.383 NA 
ENDROOT
BRANCH   2   3
HETATM    3  C   UNK A   0     -11.389  11.146  69.633  1.00  0.00    -0.294 A  
HETATM    4  C   UNK A   0      -9.979  10.239  67.350  1.00  0.00    -0.230 A  
HETATM    5  C   UNK A   0     -10.087  10.624  69.731  1.00  0.00    -0.052 A  
HETATM    6  C   UNK A   0     -11.910  11.307  68.339  1.00  0.00    -0.331 A  
HETATM    7  C   UNK A   0     -11.227  10.847  67.210  1.00  0.00    -0.307 A  
HETATM    8  C   UNK A   0      -9.378  10.186  68.604  1.00  0.00    -0.161 A  
BRANCH   4   9
HETATM    9  C   UNK A   0      -9.299   9.630  66.181  1.00  0.00    -0.194 C  
HETATM   10  O   UNK A   0      -9.550   8.486  65.831  1.00  0.00    -0.197 OA 
ATOM     11  N   GLU A   1      -8.415  10.462  65.506  1.00  0.00    -0.162 N  
ATOM     12  H   GLU A   1      -8.188  11.384  65.879  1.00  0.00     0.000 HD 
BRANCH  11  13
ATOM     13  CA  GLU A   1      -7.808  10.000  64.243  1.00  0.00    -0.144 C  
ATOM     14  OXT GLU A   1      -5.485   9.611  63.574  1.00  0.00    -0.073 OA 
ATOM     15  C   GLU A   1      -6.278  10.157  64.329  1.00  0.00    -0.132 C  
ATOM     16  O   GLU A   1      -5.892  11.103  65.221  1.00  0.00    -0.033 OA 
BRANCH  13  17
ATOM     17  CB  GLU A   1      -8.352  10.817  63.061  1.00  0.00    -0.086 C  
BRANCH  17  18
ATOM     18  CG  GLU A   1      -9.869  10.690  62.892  1.00  0.00    -0.271 C  
ATOM     19  OE2 GLU A   1     -10.104  12.747  64.154  1.00  0.00    -0.350 OA 
ATOM     20  OE1 GLU A   1     -11.955  11.724  63.359  1.00  0.00    -0.474 OA 
ATOM     21  CD  GLU A   1     -10.619  11.827  63.540  1.00  0.00    -0.440 C  
ENDBRANCH  17  18
ENDBRANCH  13  17
ENDBRANCH  11  13
ENDBRANCH   4   9
ENDBRANCH   2   3
BRANCH   2  22
HETATM   22  C   UNK A   0     -13.019  10.380  71.338  1.00  0.00    -0.443 C  
BRANCH  22  23
HETATM   23  C   UNK A   0     -12.336   9.034  71.479  1.00  0.00    -0.331 A  
HETATM   24  N   UNK A   0     -11.252   6.759  68.101  1.00  0.00    -0.554 NA 
HETATM   25  C   UNK A   0     -11.063   6.609  71.734  1.00  0.00    -0.249 A  
HETATM   26  C   UNK A   0     -11.939   8.521  72.701  1.00  0.00    -0.239 A  
HETATM   27  N   UNK A   0     -10.498   5.415  71.887  1.00  0.00    -0.219 NA 
HETATM   28  C   UNK A   0     -11.081   6.314  69.421  1.00  0.00    -0.410 A  
HETATM   29  C   UNK A   0     -11.418   7.139  70.490  1.00  0.00    -0.295 A  
HETATM   30  N   UNK A   0     -11.310   7.325  72.838  1.00  0.00    -0.515 NA 
HETATM   31  C   UNK A   0     -10.274   4.694  70.796  1.00  0.00    -0.144 A  
HETATM   32  H1  UNK A   0     -11.687   7.677  68.001  1.00  0.00     0.000 HD 
HETATM   33  H1  UNK A   0      -9.568   2.881  70.118  1.00  0.00     0.000 HD 
HETATM   34  N   UNK A   0      -9.739   3.435  70.957  1.00  0.00    -0.173 NA 
HETATM   35  N   UNK A   0     -10.510   5.108  69.552  1.00  0.00    -0.230 NA 
HETATM   36  N   UNK A   0     -12.058   8.344  70.349  1.00  0.00    -0.441 NA 
HETATM   37  H2  UNK A   0     -11.771   6.066  67.562  1.00  0.00     0.000 HD 
HETATM   38  H2  UNK A   0      -9.522   3.069  71.884  1.00  0.00     0.000 HD 
ENDBRANCH  22  23
ENDBRANCH   2  22
TORSDOF 7
ENDMDL
MODEL      112
REMARK 921   NORMALIZED FREE ENERGY PREDICTED BY IDOCK:   -5.62 KCAL/MOL
REMARK 922        TOTAL FREE ENERGY PREDICTED BY IDOCK:   -9.66 KCAL/MOL
REMARK 923 INTER-LIGAND FREE ENERGY PREDICTED BY IDOCK:   -9.33 KCAL/MOL
REMARK 924 INTRA-LIGAND FREE ENERGY PREDICTED BY IDOCK:   -0.33 KCAL/MOL
REMARK 927      BINDING AFFINITY PREDICTED BY RF-SCORE:    0.00 PKD
ROOT
HETATM    1  C   UNK A   0     -13.585   9.070  71.479  1.00  0.00    -0.340 C  
HETATM    2  N   UNK A   0     -12.371   9.877  71.396  1.00  0.00    -0.374 NA 
ENDROOT
BRANCH   2   3
HETATM    3  C   UNK A   0     -12.403  11.093  70.723  1.00  0.00    -0.406 A  
HETATM    4  C   UNK A   0     -12.097  13.574  69.392  1.00  0.00    -0.340 A  
HETATM    5  C   UNK A   0     -12.666  12.313  71.371  1.00  0.00    -0.351 A  
HETATM    6  C   UNK A   0     -12.098  11.156  69.355  1.00  0.00    -0.396 A  
HETATM    7  C   UNK A   0     -11.929  12.378  68.696  1.00  0.00    -0.272 A  
HETATM    8  C   UNK A   0     -12.530  13.544  70.715  1.00  0.00    -0.428 A  
BRANCH   4   9
HETATM    9  C   UNK A   0     -11.796  14.875  68.746  1.00  0.00    -0.296 C  
HETATM   10  O   UNK A   0     -12.560  15.823  68.851  1.00  0.00     0.165 OA 
ATOM     11  N   GLU A   1     -10.583  14.938  68.071  1.00  0.00    -0.245 N  
ATOM     12  H   GLU A   1     -10.015  14.099  67.953  1.00  0.00     0.000 HD 
BRANCH  11  13
ATOM     13  CA  GLU A   1     -10.124  16.231  67.529  1.00  0.00    -0.258 C  
ATOM     14  OXT GLU A   1      -8.264  16.836  66.056  1.00  0.00    -0.423 OA 
ATOM     15  C   GLU A   1      -8.763  16.035  66.834  1.00  0.00    -0.229 C  
ATOM     16  O   GLU A   1      -8.080  14.960  67.303  1.00  0.00    -0.182 OA 
BRANCH  13  17
ATOM     17  CB  GLU A   1      -9.991  17.265  68.658  1.00  0.00    -0.327 C  
BRANCH  17  18
ATOM     18  CG  GLU A   1     -10.390  18.679  68.228  1.00  0.00    -0.388 C  
ATOM     19  OE2 GLU A   1      -8.058  19.313  68.422  1.00  0.00    -0.317 OA 
ATOM     20  OE1 GLU A   1      -9.566  20.853  67.744  1.00  0.00    -0.256 OA 
ATOM     21  CD  GLU A   1      -9.210  19.615  68.155  1.00  0.00    -0.346 C  
ENDBRANCH  17  18
ENDBRANCH  13  17
ENDBRANCH  11  13
ENDBRANCH   4   9
ENDBRANCH   2   3
BRANCH   2  22
HETATM   22  C   UNK A   0     -11.082   9.202  71.635  1.00  0.00    -0.375 C  
BRANCH  22  23
HETATM   23  C   UNK A   0     -10.246   8.997  70.387  1.00  0.00    -0.209 A  
HETATM   24  N   UNK A   0     -11.526   6.447  67.284  1.00  0.00    -0.708 NA 
HETATM   25  C   UNK A   0      -8.748   8.653  68.105  1.00  0.00    -0.142 A  
HETATM   26  C   UNK A   0      -9.079   9.699  70.144  1.00  0.00    -0.240 A  
HETATM   27  N   UNK A   0      -7.978   8.463  67.037  1.00  0.00    -0.099 NA 
HETATM   28  C   UNK A   0     -10.287   7.106  67.282  1.00  0.00    -0.272 A  
HETATM   29  C   UNK A   0      -9.950   7.972  68.318  1.00  0.00    -0.185 A  
HETATM   30  N   UNK A   0      -8.332   9.537  69.021  1.00  0.00    -0.121 NA 
HETATM   31  C   UNK A   0      -8.377   7.569  66.141  1.00  0.00    -0.138 A  
HETATM   32  H1  UNK A   0     -12.104   6.604  68.110  1.00  0.00     0.000 HD 
HETATM   33  H1  UNK A   0      -7.861   6.644  64.374  1.00  0.00     0.000 HD 
HETATM   34  N   UNK A   0      -7.554   7.331  65.062  1.00  0.00    -0.099 NA 
HETATM   35  N   UNK A   0      -9.527   6.900  66.197  1.00  0.00    -0.380 NA 
HETATM   36  N   UNK A   0     -10.704   8.130  69.454  1.00  0.00    -0.353 NA 
HETATM   37  H2  UNK A   0     -11.391   5.447  67.137  1.00  0.00     0.000 HD 
HETATM   38  H2  UNK A   0      -6.668   7.826  64.956  1.00  0.00     0.000 HD 
ENDBRANCH  22  23
ENDBRANCH   2  22
TORSDOF 7
ENDMDL
MODEL      113
REMARK 921   NORMALIZED FREE ENERGY PREDICTED BY IDOCK:   -5.61 KCAL/MOL
REMARK 922        TOTAL FREE ENERGY PREDICTED BY IDOCK:   -9.65 KCAL/MOL
REMARK 923 INTER-LIGAND FREE ENERGY PREDICTED BY IDOCK:   -8.69 KCAL/MOL
REMARK 924 INTRA-LIGAND FREE ENERGY PREDICTED BY IDOCK:   -0.95 KCAL/MOL
REMARK 927      BINDING AFFINITY PREDICTED BY RF-SCORE:    0.00 PKD
ROOT
HETATM    1  C   UNK A   0     -10.071   9.976  65.167  1.00  0.00    -0.198 C  
HETATM    2  N   UNK A   0      -9.502  10.862  66.178  1.00  0.00    -0.193 NA 
ENDROOT
BRANCH   2   3
HETATM    3  C   UNK A   0      -9.533  12.237  65.978  1.00  0.00    -0.189 A  
HETATM    4  C   UNK A   0      -9.841  15.050  65.853  1.00  0.00    -0.369 A  
HETATM    5  C   UNK A   0     -10.350  12.845  65.008  1.00  0.00    -0.334 A  
HETATM    6  C   UNK A   0      -8.786  13.092  66.803  1.00  0.00    -0.095 A  
HETATM    7  C   UNK A   0      -8.946  14.480  66.758  1.00  0.00    -0.270 A  
HETATM    8  C   UNK A   0     -10.496  14.237  64.931  1.00  0.00    -0.454 A  
BRANCH   4   9
HETATM    9  C   UNK A   0     -10.120  16.507  65.878  1.00  0.00    -0.337 C  
HETATM   10  O   UNK A   0     -10.833  17.027  65.034  1.00  0.00    -0.678 OA 
ATOM     11  N   GLU A   1      -9.557  17.202  66.942  1.00  0.00    -0.253 N  
ATOM     12  H   GLU A   1      -8.911  16.735  67.579  1.00  0.00     0.000 HD 
BRANCH  11  13
ATOM     13  CA  GLU A   1      -9.902  18.622  67.140  1.00  0.00    -0.314 C  
ATOM     14  OXT GLU A   1      -9.381  20.641  65.859  1.00  0.00     0.045 OA 
ATOM     15  C   GLU A   1      -9.111  19.481  66.136  1.00  0.00    -0.310 C  
ATOM     16  O   GLU A   1      -7.971  18.882  65.709  1.00  0.00    -0.473 OA 
BRANCH  13  17
ATOM     17  CB  GLU A   1      -9.568  19.055  68.576  1.00  0.00    -0.442 C  
BRANCH  17  18
ATOM     18  CG  GLU A   1      -8.413  18.258  69.190  1.00  0.00     0.079 C  
ATOM     19  OE2 GLU A   1      -6.945  20.107  68.638  1.00  0.00    -0.297 OA 
ATOM     20  OE1 GLU A   1      -6.095  18.304  69.703  1.00  0.00    -0.242 OA 
ATOM     21  CD  GLU A   1      -7.103  19.001  69.131  1.00  0.00    -0.294 C  
ENDBRANCH  17  18
ENDBRANCH  13  17
ENDBRANCH  11  13
ENDBRANCH   4   9
ENDBRANCH   2   3
BRANCH   2  22
HETATM   22  C   UNK A   0      -8.550  10.280  67.142  1.00  0.00    -0.126 C  
BRANCH  22  23
HETATM   23  C   UNK A   0      -9.181   9.339  68.150  1.00  0.00    -0.130 A  
HETATM   24  N   UNK A   0     -12.567  10.473  70.389  1.00  0.00    -0.433 NA 
HETATM   25  C   UNK A   0     -10.349   7.619  69.951  1.00  0.00    -0.225 A  
HETATM   26  C   UNK A   0      -8.757   8.033  68.322  1.00  0.00    -0.130 A  
HETATM   27  N   UNK A   0     -10.861   6.787  70.854  1.00  0.00    -0.240 NA 
HETATM   28  C   UNK A   0     -11.900   9.250  70.560  1.00  0.00    -0.124 A  
HETATM   29  C   UNK A   0     -10.817   8.921  69.751  1.00  0.00    -0.200 A  
HETATM   30  N   UNK A   0      -9.327   7.176  69.209  1.00  0.00    -0.146 NA 
HETATM   31  C   UNK A   0     -11.859   7.233  71.606  1.00  0.00    -0.298 A  
HETATM   32  H1  UNK A   0     -12.162  11.099  69.692  1.00  0.00     0.000 HD 
HETATM   33  H1  UNK A   0     -13.120   6.735  73.158  1.00  0.00     0.000 HD 
HETATM   34  N   UNK A   0     -12.354   6.392  72.579  1.00  0.00    -0.526 NA 
HETATM   35  N   UNK A   0     -12.433   8.427  71.475  1.00  0.00    -0.307 NA 
HETATM   36  N   UNK A   0     -10.240   9.791  68.861  1.00  0.00    -0.191 NA 
HETATM   37  H2  UNK A   0     -12.650  10.954  71.284  1.00  0.00     0.000 HD 
HETATM   38  H2  UNK A   0     -11.966   5.459  72.716  1.00  0.00     0.000 HD 
ENDBRANCH  22  23
ENDBRANCH   2  22
TORSDOF 7
ENDMDL
MODEL      114
REMARK 921   NORMALIZED FREE ENERGY PREDICTED BY IDOCK:   -5.59 KCAL/MOL
REMARK 922        TOTAL FREE ENERGY PREDICTED BY IDOCK:   -9.63 KCAL/MOL
REMARK 923 INTER-LIGAND FREE ENERGY PREDICTED BY IDOCK:   -8.59 KCAL/MOL
REMARK 924 INTRA-LIGAND FREE ENERGY PREDICTED BY IDOCK:   -1.04 KCAL/MOL
REMARK 927      BINDING AFFINITY PREDICTED BY RF-SCORE:    0.00 PKD
ROOT
HETATM    1  C   UNK A   0     -12.911  13.566  65.349  1.00  0.00    -0.363 C  
HETATM    2  N   UNK A   0     -11.535  13.078  65.363  1.00  0.00    -0.304 NA 
ENDROOT
BRANCH   2   3
HETATM    3  C   UNK A   0     -11.170  12.093  66.273  1.00  0.00    -0.334 A  
HETATM    4  C   UNK A   0     -10.707   9.883  67.984  1.00  0.00    -0.296 A  
HETATM    5  C   UNK A   0     -11.606  12.093  67.610  1.00  0.00    -0.413 A  
HETATM    6  C   UNK A   0     -10.391  10.999  65.862  1.00  0.00    -0.315 A  
HETATM    7  C   UNK A   0     -10.173   9.899  66.696  1.00  0.00    -0.293 A  
HETATM    8  C   UNK A   0     -11.368  11.009  68.466  1.00  0.00    -0.355 A  
BRANCH   4   9
HETATM    9  C   UNK A   0     -10.596   8.674  68.835  1.00  0.00    -0.144 C  
HETATM   10  O   UNK A   0     -10.034   7.667  68.430  1.00  0.00    -0.165 OA 
ATOM     11  N   GLU A   1     -11.126   8.795  70.114  1.00  0.00    -0.341 N  
ATOM     12  H   GLU A   1     -11.647   9.631  70.379  1.00  0.00     0.000 HD 
BRANCH  11  13
ATOM     13  CA  GLU A   1     -10.927   7.702  71.085  1.00  0.00    -0.246 C  
ATOM     14  OXT GLU A   1     -12.481   6.135  72.145  1.00  0.00    -0.262 OA 
ATOM     15  C   GLU A   1     -12.301   7.198  71.568  1.00  0.00    -0.370 C  
ATOM     16  O   GLU A   1     -13.279   8.130  71.448  1.00  0.00    -0.296 OA 
BRANCH  13  17
ATOM     17  CB  GLU A   1     -10.101   8.197  72.282  1.00  0.00    -0.338 C  
BRANCH  17  18
ATOM     18  CG  GLU A   1      -9.394   7.066  73.033  1.00  0.00    -0.173 C  
ATOM     19  OE2 GLU A   1      -7.497   7.373  71.555  1.00  0.00    -0.078 OA 
ATOM     20  OE1 GLU A   1      -7.384   5.811  73.184  1.00  0.00    -0.092 OA 
ATOM     21  CD  GLU A   1      -8.013   6.790  72.495  1.00  0.00    -0.101 C  
ENDBRANCH  17  18
ENDBRANCH  13  17
ENDBRANCH  11  13
ENDBRANCH   4   9
ENDBRANCH   2   3
BRANCH   2  22
HETATM   22  C   UNK A   0     -10.501  13.922  64.738  1.00  0.00    -0.429 C  
BRANCH  22  23
HETATM   23  C   UNK A   0      -9.745  14.804  65.712  1.00  0.00    -0.313 A  
HETATM   24  N   UNK A   0      -6.111  13.547  67.441  1.00  0.00    -0.388 NA 
HETATM   25  C   UNK A   0      -8.351  16.419  67.450  1.00  0.00    -0.164 A  
HETATM   26  C   UNK A   0     -10.137  16.096  66.012  1.00  0.00    -0.351 A  
HETATM   27  N   UNK A   0      -7.726  17.197  68.329  1.00  0.00    -0.211 NA 
HETATM   28  C   UNK A   0      -6.745  14.758  67.765  1.00  0.00    -0.174 A  
HETATM   29  C   UNK A   0      -7.919  15.131  67.118  1.00  0.00    -0.215 A  
HETATM   30  N   UNK A   0      -9.456  16.902  66.869  1.00  0.00    -0.242 NA 
HETATM   31  C   UNK A   0      -6.645  16.710  68.923  1.00  0.00    -0.178 A  
HETATM   32  H1  UNK A   0      -6.604  12.963  66.765  1.00  0.00     0.000 HD 
HETATM   33  H1  UNK A   0      -5.197  17.119  70.332  1.00  0.00     0.000 HD 
HETATM   34  N   UNK A   0      -6.028  17.493  69.874  1.00  0.00    -0.245 NA 
HETATM   35  N   UNK A   0      -6.098  15.526  68.653  1.00  0.00    -0.095 NA 
HETATM   36  N   UNK A   0      -8.607  14.313  66.258  1.00  0.00    -0.307 NA 
HETATM   37  H2  UNK A   0      -5.919  13.015  68.289  1.00  0.00     0.000 HD 
HETATM   38  H2  UNK A   0      -6.391  18.416  70.113  1.00  0.00     0.000 HD 
ENDBRANCH  22  23
ENDBRANCH   2  22
TORSDOF 7
ENDMDL
MODEL      115
REMARK 921   NORMALIZED FREE ENERGY PREDICTED BY IDOCK:   -5.56 KCAL/MOL
REMARK 922        TOTAL FREE ENERGY PREDICTED BY IDOCK:   -9.59 KCAL/MOL
REMARK 923 INTER-LIGAND FREE ENERGY PREDICTED BY IDOCK:   -7.65 KCAL/MOL
REMARK 924 INTRA-LIGAND FREE ENERGY PREDICTED BY IDOCK:   -1.93 KCAL/MOL
REMARK 927      BINDING AFFINITY PREDICTED BY RF-SCORE:    0.00 PKD
ROOT
HETATM    1  C   UNK A   0      -8.623   8.849  65.164  1.00  0.00    -0.182 C  
HETATM    2  N   UNK A   0      -9.344   9.034  66.420  1.00  0.00    -0.188 NA 
ENDROOT
BRANCH   2   3
HETATM    3  C   UNK A   0      -8.937   8.336  67.550  1.00  0.00    -0.134 A  
HETATM    4  C   UNK A   0      -8.355   7.122  70.043  1.00  0.00    -0.138 A  
HETATM    5  C   UNK A   0      -7.798   8.693  68.295  1.00  0.00    -0.102 A  
HETATM    6  C   UNK A   0      -9.704   7.268  68.041  1.00  0.00    -0.157 A  
HETATM    7  C   UNK A   0      -9.433   6.676  69.278  1.00  0.00    -0.141 A  
HETATM    8  C   UNK A   0      -7.496   8.086  69.522  1.00  0.00    -0.092 A  
BRANCH   4   9
HETATM    9  C   UNK A   0      -8.129   6.596  71.411  1.00  0.00    -0.111 C  
HETATM   10  O   UNK A   0      -7.390   7.174  72.194  1.00  0.00    -0.079 OA 
ATOM     11  N   GLU A   1      -8.846   5.451  71.735  1.00  0.00    -0.135 N  
ATOM     12  H   GLU A   1      -9.394   4.967  71.023  1.00  0.00     0.000 HD 
BRANCH  11  13
ATOM     13  CA  GLU A   1      -8.807   4.942  73.119  1.00  0.00    -0.112 C  
ATOM     14  OXT GLU A   1      -8.316   2.732  74.050  1.00  0.00    -0.070 OA 
ATOM     15  C   GLU A   1      -8.657   3.409  73.091  1.00  0.00    -0.081 C  
ATOM     16  O   GLU A   1      -9.109   2.854  71.938  1.00  0.00    -0.082 OA 
BRANCH  13  17
ATOM     17  CB  GLU A   1     -10.095   5.327  73.864  1.00  0.00    -0.232 C  
BRANCH  17  18
ATOM     18  CG  GLU A   1     -11.321   5.392  72.949  1.00  0.00    -0.365 C  
ATOM     19  OE2 GLU A   1     -11.059   7.801  72.896  1.00  0.00    -0.368 OA 
ATOM     20  OE1 GLU A   1     -12.727   6.848  71.706  1.00  0.00    -0.357 OA 
ATOM     21  CD  GLU A   1     -11.662   6.802  72.539  1.00  0.00    -0.156 C  
ENDBRANCH  17  18
ENDBRANCH  13  17
ENDBRANCH  11  13
ENDBRANCH   4   9
ENDBRANCH   2   3
BRANCH   2  22
HETATM   22  C   UNK A   0     -10.705   9.596  66.352  1.00  0.00     0.085 C  
BRANCH  22  23
HETATM   23  C   UNK A   0     -11.014  10.611  67.436  1.00  0.00    -0.298 A  
HETATM   24  N   UNK A   0     -13.330   9.584  70.805  1.00  0.00    -0.586 NA 
HETATM   25  C   UNK A   0     -11.543  12.440  69.422  1.00  0.00    -0.307 A  
HETATM   26  C   UNK A   0     -10.479  11.887  67.441  1.00  0.00    -0.217 A  
HETATM   27  N   UNK A   0     -11.829  13.358  70.340  1.00  0.00    -0.527 NA 
HETATM   28  C   UNK A   0     -12.851  10.881  70.561  1.00  0.00    -0.220 A  
HETATM   29  C   UNK A   0     -12.051  11.137  69.452  1.00  0.00    -0.326 A  
HETATM   30  N   UNK A   0     -10.735  12.797  68.417  1.00  0.00    -0.243 NA 
HETATM   31  C   UNK A   0     -12.650  13.012  71.324  1.00  0.00    -0.279 A  
HETATM   32  H1  UNK A   0     -13.101   8.891  70.091  1.00  0.00     0.000 HD 
HETATM   33  H1  UNK A   0     -13.622  13.711  73.001  1.00  0.00     0.000 HD 
HETATM   34  N   UNK A   0     -12.991  13.978  72.245  1.00  0.00    -0.373 NA 
HETATM   35  N   UNK A   0     -13.151  11.791  71.498  1.00  0.00    -0.371 NA 
HETATM   36  N   UNK A   0     -11.799  10.217  68.465  1.00  0.00    -0.710 NA 
HETATM   37  H2  UNK A   0     -14.337   9.606  70.960  1.00  0.00     0.000 HD 
HETATM   38  H2  UNK A   0     -12.624  14.927  72.173  1.00  0.00     0.000 HD 
ENDBRANCH  22  23
ENDBRANCH   2  22
TORSDOF 7
ENDMDL
MODEL      116
REMARK 921   NORMALIZED FREE ENERGY PREDICTED BY IDOCK:   -5.56 KCAL/MOL
REMARK 922        TOTAL FREE ENERGY PREDICTED BY IDOCK:   -9.58 KCAL/MOL
REMARK 923 INTER-LIGAND FREE ENERGY PREDICTED BY IDOCK:   -8.47 KCAL/MOL
REMARK 924 INTRA-LIGAND FREE ENERGY PREDICTED BY IDOCK:   -1.11 KCAL/MOL
REMARK 927      BINDING AFFINITY PREDICTED BY RF-SCORE:    0.00 PKD
ROOT
HETATM    1  C   UNK A   0     -14.080   9.193  72.368  1.00  0.00    -0.359 C  
HETATM    2  N   UNK A   0     -12.727   9.201  71.818  1.00  0.00    -0.347 NA 
ENDROOT
BRANCH   2   3
HETATM    3  C   UNK A   0     -11.982   8.027  71.820  1.00  0.00    -0.301 A  
HETATM    4  C   UNK A   0     -10.196   5.835  71.655  1.00  0.00    -0.253 A  
HETATM    5  C   UNK A   0     -12.122   7.037  70.832  1.00  0.00    -0.403 A  
HETATM    6  C   UNK A   0     -10.991   7.816  72.791  1.00  0.00    -0.447 A  
HETATM    7  C   UNK A   0     -10.097   6.745  72.706  1.00  0.00    -0.197 A  
HETATM    8  C   UNK A   0     -11.251   5.942  70.752  1.00  0.00    -0.281 A  
BRANCH   4   9
HETATM    9  C   UNK A   0      -9.179   4.770  71.476  1.00  0.00    -0.142 C  
HETATM   10  O   UNK A   0      -9.057   3.872  72.295  1.00  0.00    -0.113 OA 
ATOM     11  N   GLU A   1      -8.433   4.850  70.306  1.00  0.00    -0.090 N  
ATOM     12  H   GLU A   1      -8.525   5.658  69.690  1.00  0.00     0.000 HD 
BRANCH  11  13
ATOM     13  CA  GLU A   1      -7.506   3.754  69.964  1.00  0.00    -0.045 C  
ATOM     14  OXT GLU A   1      -5.177   3.738  69.213  1.00  0.00    -0.010 OA 
ATOM     15  C   GLU A   1      -6.229   4.347  69.339  1.00  0.00    -0.027 C  
ATOM     16  O   GLU A   1      -6.432   5.566  68.777  1.00  0.00    -0.039 OA 
BRANCH  13  17
ATOM     17  CB  GLU A   1      -8.171   2.785  68.975  1.00  0.00    -0.074 C  
BRANCH  17  18
ATOM     18  CG  GLU A   1      -9.356   3.407  68.229  1.00  0.00    -0.239 C  
ATOM     19  OE2 GLU A   1      -8.040   3.289  66.197  1.00  0.00    -0.090 OA 
ATOM     20  OE1 GLU A   1     -10.145   4.103  66.100  1.00  0.00    -0.206 OA 
ATOM     21  CD  GLU A   1      -9.084   3.582  66.757  1.00  0.00    -0.164 C  
ENDBRANCH  17  18
ENDBRANCH  13  17
ENDBRANCH  11  13
ENDBRANCH   4   9
ENDBRANCH   2   3
BRANCH   2  22
HETATM   22  C   UNK A   0     -12.048  10.503  71.685  1.00  0.00    -0.104 C  
BRANCH  22  23
HETATM   23  C   UNK A   0     -12.002  11.039  70.268  1.00  0.00    -0.365 A  
HETATM   24  N   UNK A   0     -12.053  15.181  69.489  1.00  0.00    -0.459 NA 
HETATM   25  C   UNK A   0     -11.880  12.015  67.699  1.00  0.00    -0.224 A  
HETATM   26  C   UNK A   0     -11.839  10.222  69.163  1.00  0.00     0.033 A  
HETATM   27  N   UNK A   0     -11.875  12.458  66.445  1.00  0.00    -0.560 NA 
HETATM   28  C   UNK A   0     -12.064  14.204  68.481  1.00  0.00    -0.277 A  
HETATM   29  C   UNK A   0     -11.997  12.854  68.811  1.00  0.00    -0.253 A  
HETATM   30  N   UNK A   0     -11.778  10.694  67.891  1.00  0.00    -0.724 NA 
HETATM   31  C   UNK A   0     -12.000  13.765  66.252  1.00  0.00    -0.429 A  
HETATM   32  H1  UNK A   0     -12.057  14.825  70.445  1.00  0.00     0.000 HD 
HETATM   33  H1  UNK A   0     -12.147  15.225  64.805  1.00  0.00     0.000 HD 
HETATM   34  N   UNK A   0     -12.051  14.220  64.953  1.00  0.00    -0.415 NA 
HETATM   35  N   UNK A   0     -12.060  14.672  67.225  1.00  0.00    -0.529 NA 
HETATM   36  N   UNK A   0     -12.065  12.380  70.097  1.00  0.00    -0.340 NA 
HETATM   37  H2  UNK A   0     -12.828  15.831  69.355  1.00  0.00     0.000 HD 
HETATM   38  H2  UNK A   0     -11.993  13.574  64.166  1.00  0.00     0.000 HD 
ENDBRANCH  22  23
ENDBRANCH   2  22
TORSDOF 7
ENDMDL
MODEL      117
REMARK 921   NORMALIZED FREE ENERGY PREDICTED BY IDOCK:   -5.56 KCAL/MOL
REMARK 922        TOTAL FREE ENERGY PREDICTED BY IDOCK:   -9.58 KCAL/MOL
REMARK 923 INTER-LIGAND FREE ENERGY PREDICTED BY IDOCK:   -8.84 KCAL/MOL
REMARK 924 INTRA-LIGAND FREE ENERGY PREDICTED BY IDOCK:   -0.74 KCAL/MOL
REMARK 927      BINDING AFFINITY PREDICTED BY RF-SCORE:    0.00 PKD
ROOT
HETATM    1  C   UNK A   0      -9.495   7.075  66.240  1.00  0.00    -0.072 C  
HETATM    2  N   UNK A   0      -9.154   8.190  67.118  1.00  0.00    -0.136 NA 
ENDROOT
BRANCH   2   3
HETATM    3  C   UNK A   0      -9.549   9.477  66.772  1.00  0.00    -0.176 A  
HETATM    4  C   UNK A   0     -10.002  12.149  65.946  1.00  0.00    -0.267 A  
HETATM    5  C   UNK A   0      -9.576  10.538  67.694  1.00  0.00    -0.175 A  
HETATM    6  C   UNK A   0      -9.875   9.787  65.442  1.00  0.00    -0.365 A  
HETATM    7  C   UNK A   0     -10.084  11.105  65.025  1.00  0.00    -0.338 A  
HETATM    8  C   UNK A   0      -9.813  11.861  67.295  1.00  0.00    -0.197 A  
BRANCH   4   9
HETATM    9  C   UNK A   0     -10.091  13.561  65.500  1.00  0.00    -0.268 C  
HETATM   10  O   UNK A   0     -10.867  13.895  64.617  1.00  0.00    -0.390 OA 
ATOM     11  N   GLU A   1      -9.277  14.454  66.186  1.00  0.00    -0.510 N  
ATOM     12  H   GLU A   1      -8.596  14.114  66.865  1.00  0.00     0.000 HD 
BRANCH  11  13
ATOM     13  CA  GLU A   1      -9.408  15.900  65.921  1.00  0.00    -0.318 C  
ATOM     14  OXT GLU A   1      -7.755  17.692  65.697  1.00  0.00    -0.527 OA 
ATOM     15  C   GLU A   1      -8.036  16.575  66.109  1.00  0.00    -0.156 C  
ATOM     16  O   GLU A   1      -7.212  15.880  66.933  1.00  0.00    -0.208 OA 
BRANCH  13  17
ATOM     17  CB  GLU A   1     -10.434  16.525  66.878  1.00  0.00    -0.282 C  
BRANCH  17  18
ATOM     18  CG  GLU A   1     -10.630  18.027  66.651  1.00  0.00    -0.268 C  
ATOM     19  OE2 GLU A   1      -9.933  18.386  68.945  1.00  0.00    -0.381 OA 
ATOM     20  OE1 GLU A   1     -10.445  20.171  67.657  1.00  0.00    -0.355 OA 
ATOM     21  CD  GLU A   1     -10.299  18.844  67.875  1.00  0.00    -0.404 C  
ENDBRANCH  17  18
ENDBRANCH  13  17
ENDBRANCH  11  13
ENDBRANCH   4   9
ENDBRANCH   2   3
BRANCH   2  22
HETATM   22  C   UNK A   0      -8.061   7.992  68.086  1.00  0.00    -0.129 C  
BRANCH  22  23
HETATM   23  C   UNK A   0      -8.472   7.259  69.349  1.00  0.00    -0.133 A  
HETATM   24  N   UNK A   0     -12.502   7.096  70.575  1.00  0.00    -0.614 NA 
HETATM   25  C   UNK A   0      -9.225   5.899  71.618  1.00  0.00    -0.146 A  
HETATM   26  C   UNK A   0      -7.582   6.523  70.111  1.00  0.00    -0.096 A  
HETATM   27  N   UNK A   0      -9.554   5.280  72.748  1.00  0.00    -0.148 NA 
HETATM   28  C   UNK A   0     -11.443   6.552  71.320  1.00  0.00    -0.318 A  
HETATM   29  C   UNK A   0     -10.142   6.600  70.830  1.00  0.00    -0.184 A  
HETATM   30  N   UNK A   0      -7.944   5.848  71.233  1.00  0.00    -0.111 NA 
HETATM   31  C   UNK A   0     -10.818   5.350  73.144  1.00  0.00    -0.285 A  
HETATM   32  H1  UNK A   0     -12.232   7.567  69.711  1.00  0.00     0.000 HD 
HETATM   33  H1  UNK A   0     -12.122   4.810  74.646  1.00  0.00     0.000 HD 
HETATM   34  N   UNK A   0     -11.149   4.757  74.342  1.00  0.00    -0.242 NA 
HETATM   35  N   UNK A   0     -11.797   5.934  72.455  1.00  0.00    -0.481 NA 
HETATM   36  N   UNK A   0      -9.779   7.288  69.699  1.00  0.00    -0.159 NA 
HETATM   37  H2  UNK A   0     -13.053   7.726  71.158  1.00  0.00     0.000 HD 
HETATM   38  H2  UNK A   0     -10.446   4.279  74.906  1.00  0.00     0.000 HD 
ENDBRANCH  22  23
ENDBRANCH   2  22
TORSDOF 7
ENDMDL
MODEL      118
REMARK 921   NORMALIZED FREE ENERGY PREDICTED BY IDOCK:   -5.55 KCAL/MOL
REMARK 922        TOTAL FREE ENERGY PREDICTED BY IDOCK:   -9.57 KCAL/MOL
REMARK 923 INTER-LIGAND FREE ENERGY PREDICTED BY IDOCK:   -8.76 KCAL/MOL
REMARK 924 INTRA-LIGAND FREE ENERGY PREDICTED BY IDOCK:   -0.81 KCAL/MOL
REMARK 927      BINDING AFFINITY PREDICTED BY RF-SCORE:    0.00 PKD
ROOT
HETATM    1  C   UNK A   0     -12.968  13.801  65.221  1.00  0.00    -0.278 C  
HETATM    2  N   UNK A   0     -11.683  13.147  65.447  1.00  0.00    -0.334 NA 
ENDROOT
BRANCH   2   3
HETATM    3  C   UNK A   0     -11.530  12.299  66.538  1.00  0.00    -0.381 A  
HETATM    4  C   UNK A   0     -10.887  10.739  68.814  1.00  0.00    -0.262 A  
HETATM    5  C   UNK A   0     -11.050  10.983  66.416  1.00  0.00    -0.137 A  
HETATM    6  C   UNK A   0     -11.789  12.760  67.838  1.00  0.00    -0.392 A  
HETATM    7  C   UNK A   0     -11.459  12.003  68.965  1.00  0.00    -0.357 A  
HETATM    8  C   UNK A   0     -10.743  10.200  67.538  1.00  0.00    -0.347 A  
BRANCH   4   9
HETATM    9  C   UNK A   0     -10.412   9.976  69.994  1.00  0.00    -0.287 C  
HETATM   10  O   UNK A   0     -11.115   9.847  70.985  1.00  0.00    -0.337 OA 
ATOM     11  N   GLU A   1      -9.157   9.395  69.861  1.00  0.00    -0.187 N  
ATOM     12  H   GLU A   1      -8.582   9.592  69.042  1.00  0.00     0.000 HD 
BRANCH  11  13
ATOM     13  CA  GLU A   1      -8.664   8.490  70.917  1.00  0.00    -0.166 C  
ATOM     14  OXT GLU A   1      -7.102   8.817  72.773  1.00  0.00    -0.319 OA 
ATOM     15  C   GLU A   1      -7.520   9.181  71.683  1.00  0.00     0.158 C  
ATOM     16  O   GLU A   1      -6.895  10.137  70.951  1.00  0.00    -0.338 OA 
BRANCH  13  17
ATOM     17  CB  GLU A   1      -8.162   7.176  70.300  1.00  0.00    -0.131 C  
BRANCH  17  18
ATOM     18  CG  GLU A   1      -9.079   6.644  69.194  1.00  0.00    -0.137 C  
ATOM     19  OE2 GLU A   1     -10.860   6.526  70.834  1.00  0.00    -0.231 OA 
ATOM     20  OE1 GLU A   1     -11.288   5.929  68.697  1.00  0.00    -0.145 OA 
ATOM     21  CD  GLU A   1     -10.477   6.369  69.686  1.00  0.00    -0.227 C  
ENDBRANCH  17  18
ENDBRANCH  13  17
ENDBRANCH  11  13
ENDBRANCH   4   9
ENDBRANCH   2   3
BRANCH   2  22
HETATM   22  C   UNK A   0     -10.495  13.724  64.792  1.00  0.00    -0.428 C  
BRANCH  22  23
HETATM   23  C   UNK A   0      -9.914  14.929  65.507  1.00  0.00    -0.358 A  
HETATM   24  N   UNK A   0      -6.151  14.751  67.397  1.00  0.00    -0.320 NA 
HETATM   25  C   UNK A   0      -8.841  17.124  66.770  1.00  0.00    -0.246 A  
HETATM   26  C   UNK A   0     -10.523  16.171  65.496  1.00  0.00    -0.386 A  
HETATM   27  N   UNK A   0      -8.370  18.184  67.421  1.00  0.00    -0.237 NA 
HETATM   28  C   UNK A   0      -6.984  15.880  67.436  1.00  0.00    -0.200 A  
HETATM   29  C   UNK A   0      -8.193  15.885  66.748  1.00  0.00    -0.272 A  
HETATM   30  N   UNK A   0     -10.001  17.261  66.117  1.00  0.00    -0.416 NA 
HETATM   31  C   UNK A   0      -7.232  18.043  68.088  1.00  0.00    -0.236 A  
HETATM   32  H1  UNK A   0      -6.527  13.947  66.894  1.00  0.00     0.000 HD 
HETATM   33  H1  UNK A   0      -5.897  19.015  69.321  1.00  0.00     0.000 HD 
HETATM   34  N   UNK A   0      -6.772  19.124  68.807  1.00  0.00    -0.283 NA 
HETATM   35  N   UNK A   0      -6.490  16.937  68.097  1.00  0.00    -0.142 NA 
HETATM   36  N   UNK A   0      -8.720  14.781  66.126  1.00  0.00    -0.402 NA 
HETATM   37  H2  UNK A   0      -5.886  14.479  68.344  1.00  0.00     0.000 HD 
HETATM   38  H2  UNK A   0      -7.289  20.004  68.826  1.00  0.00     0.000 HD 
ENDBRANCH  22  23
ENDBRANCH   2  22
TORSDOF 7
ENDMDL
MODEL      119
REMARK 921   NORMALIZED FREE ENERGY PREDICTED BY IDOCK:   -5.54 KCAL/MOL
REMARK 922        TOTAL FREE ENERGY PREDICTED BY IDOCK:   -9.56 KCAL/MOL
REMARK 923 INTER-LIGAND FREE ENERGY PREDICTED BY IDOCK:   -8.49 KCAL/MOL
REMARK 924 INTRA-LIGAND FREE ENERGY PREDICTED BY IDOCK:   -1.07 KCAL/MOL
REMARK 927      BINDING AFFINITY PREDICTED BY RF-SCORE:    0.00 PKD
ROOT
HETATM    1  C   UNK A   0      -9.239  10.172  65.188  1.00  0.00    -0.213 C  
HETATM    2  N   UNK A   0      -9.754  10.081  66.552  1.00  0.00    -0.189 NA 
ENDROOT
BRANCH   2   3
HETATM    3  C   UNK A   0      -9.320   9.052  67.378  1.00  0.00    -0.139 A  
HETATM    4  C   UNK A   0      -8.367   7.220  69.317  1.00  0.00    -0.132 A  
HETATM    5  C   UNK A   0      -8.020   8.521  67.313  1.00  0.00    -0.102 A  
HETATM    6  C   UNK A   0     -10.162   8.541  68.379  1.00  0.00    -0.236 A  
HETATM    7  C   UNK A   0      -9.693   7.650  69.349  1.00  0.00    -0.165 A  
HETATM    8  C   UNK A   0      -7.546   7.603  68.260  1.00  0.00    -0.114 A  
BRANCH   4   9
HETATM    9  C   UNK A   0      -7.818   6.378  70.409  1.00  0.00    -0.107 C  
HETATM   10  O   UNK A   0      -6.682   6.550  70.826  1.00  0.00    -0.054 OA 
ATOM     11  N   GLU A   1      -8.696   5.438  70.935  1.00  0.00    -0.132 N  
ATOM     12  H   GLU A   1      -9.607   5.287  70.504  1.00  0.00     0.000 HD 
BRANCH  11  13
ATOM     13  CA  GLU A   1      -8.295   4.662  72.124  1.00  0.00    -0.117 C  
ATOM     14  OXT GLU A   1      -8.538   2.297  72.708  1.00  0.00    -0.062 OA 
ATOM     15  C   GLU A   1      -8.906   3.250  72.036  1.00  0.00    -0.087 C  
ATOM     16  O   GLU A   1     -10.018   3.202  71.260  1.00  0.00    -0.142 OA 
BRANCH  13  17
ATOM     17  CB  GLU A   1      -8.777   5.362  73.403  1.00  0.00    -0.115 C  
BRANCH  17  18
ATOM     18  CG  GLU A   1     -10.154   6.015  73.248  1.00  0.00    -0.202 C  
ATOM     19  OE2 GLU A   1      -9.114   8.147  73.747  1.00  0.00    -0.244 OA 
ATOM     20  OE1 GLU A   1     -11.326   8.080  73.293  1.00  0.00    -0.270 OA 
ATOM     21  CD  GLU A   1     -10.113   7.507  73.462  1.00  0.00    -0.323 C  
ENDBRANCH  17  18
ENDBRANCH  13  17
ENDBRANCH  11  13
ENDBRANCH   4   9
ENDBRANCH   2   3
BRANCH   2  22
HETATM   22  C   UNK A   0     -11.006  10.795  66.861  1.00  0.00    -0.190 C  
BRANCH  22  23
HETATM   23  C   UNK A   0     -10.918  12.302  66.708  1.00  0.00    -0.276 A  
HETATM   24  N   UNK A   0     -12.300  14.235  63.226  1.00  0.00    -1.092 NA 
HETATM   25  C   UNK A   0     -10.795  15.037  66.444  1.00  0.00    -0.326 A  
HETATM   26  C   UNK A   0     -10.482  13.133  67.724  1.00  0.00    -0.228 A  
HETATM   27  N   UNK A   0     -10.673  16.355  66.320  1.00  0.00    -0.221 NA 
HETATM   28  C   UNK A   0     -11.670  14.906  64.286  1.00  0.00    -0.247 A  
HETATM   29  C   UNK A   0     -11.282  14.210  65.427  1.00  0.00    -0.325 A  
HETATM   30  N   UNK A   0     -10.417  14.485  67.603  1.00  0.00    -0.245 NA 
HETATM   31  C   UNK A   0     -11.025  16.901  65.163  1.00  0.00    -0.053 A  
HETATM   32  H1  UNK A   0     -12.386  13.224  63.337  1.00  0.00     0.000 HD 
HETATM   33  H1  UNK A   0     -11.118  18.678  64.123  1.00  0.00     0.000 HD 
HETATM   34  N   UNK A   0     -10.848  18.259  65.013  1.00  0.00    -0.490 NA 
HETATM   35  N   UNK A   0     -11.557  16.234  64.140  1.00  0.00    -1.351 NA 
HETATM   36  N   UNK A   0     -11.343  12.844  65.543  1.00  0.00    -0.299 NA 
HETATM   37  H2  UNK A   0     -11.832  14.451  62.347  1.00  0.00     0.000 HD 
HETATM   38  H2  UNK A   0     -10.460  18.826  65.768  1.00  0.00     0.000 HD 
ENDBRANCH  22  23
ENDBRANCH   2  22
TORSDOF 7
ENDMDL
MODEL      120
REMARK 921   NORMALIZED FREE ENERGY PREDICTED BY IDOCK:   -5.54 KCAL/MOL
REMARK 922        TOTAL FREE ENERGY PREDICTED BY IDOCK:   -9.55 KCAL/MOL
REMARK 923 INTER-LIGAND FREE ENERGY PREDICTED BY IDOCK:   -8.55 KCAL/MOL
REMARK 924 INTRA-LIGAND FREE ENERGY PREDICTED BY IDOCK:   -1.00 KCAL/MOL
REMARK 927      BINDING AFFINITY PREDICTED BY RF-SCORE:    0.00 PKD
ROOT
HETATM    1  C   UNK A   0     -14.027  14.755  71.534  1.00  0.00    -0.467 C  
HETATM    2  N   UNK A   0     -12.746  14.126  71.226  1.00  0.00    -0.341 NA 
ENDROOT
BRANCH   2   3
HETATM    3  C   UNK A   0     -12.682  12.746  71.071  1.00  0.00    -0.243 A  
HETATM    4  C   UNK A   0     -12.295   9.940  71.027  1.00  0.00    -0.451 A  
HETATM    5  C   UNK A   0     -11.894  12.128  70.085  1.00  0.00    -0.368 A  
HETATM    6  C   UNK A   0     -13.364  11.899  71.959  1.00  0.00    -0.425 A  
HETATM    7  C   UNK A   0     -13.165  10.516  71.953  1.00  0.00    -0.526 A  
HETATM    8  C   UNK A   0     -11.709  10.739  70.048  1.00  0.00    -0.417 A  
BRANCH   4   9
HETATM    9  C   UNK A   0     -11.972   8.494  71.088  1.00  0.00    -0.272 C  
HETATM   10  O   UNK A   0     -12.845   7.661  71.279  1.00  0.00    -0.318 OA 
ATOM     11  N   GLU A   1     -10.638   8.172  70.868  1.00  0.00    -0.207 N  
ATOM     12  H   GLU A   1      -9.937   8.909  70.784  1.00  0.00     0.000 HD 
BRANCH  11  13
ATOM     13  CA  GLU A   1     -10.246   6.754  70.755  1.00  0.00    -0.195 C  
ATOM     14  OXT GLU A   1      -8.481   5.441  71.829  1.00  0.00    -0.124 OA 
ATOM     15  C   GLU A   1      -8.916   6.536  71.502  1.00  0.00    -0.140 C  
ATOM     16  O   GLU A   1      -8.178   7.669  71.612  1.00  0.00    -0.102 OA 
BRANCH  13  17
ATOM     17  CB  GLU A   1     -10.088   6.362  69.279  1.00  0.00    -0.203 C  
BRANCH  17  18
ATOM     18  CG  GLU A   1      -9.284   7.384  68.469  1.00  0.00    -0.142 C  
ATOM     19  OE2 GLU A   1      -8.620   5.577  66.994  1.00  0.00    -0.111 OA 
ATOM     20  OE1 GLU A   1      -7.902   7.675  66.559  1.00  0.00    -0.100 OA 
ATOM     21  CD  GLU A   1      -8.584   6.762  67.287  1.00  0.00    -0.120 C  
ENDBRANCH  17  18
ENDBRANCH  13  17
ENDBRANCH  11  13
ENDBRANCH   4   9
ENDBRANCH   2   3
BRANCH   2  22
HETATM   22  C   UNK A   0     -11.519  14.891  71.513  1.00  0.00    -0.247 C  
BRANCH  22  23
HETATM   23  C   UNK A   0     -10.870  15.510  70.290  1.00  0.00    -0.339 A  
HETATM   24  N   UNK A   0      -6.927  14.532  69.170  1.00  0.00    -0.123 NA 
HETATM   25  C   UNK A   0      -9.706  16.603  68.051  1.00  0.00    -0.241 A  
HETATM   26  C   UNK A   0     -11.553  16.341  69.421  1.00  0.00    -0.178 A  
HETATM   27  N   UNK A   0      -9.148  17.187  66.994  1.00  0.00    -0.225 NA 
HETATM   28  C   UNK A   0      -7.707  15.489  68.501  1.00  0.00    -0.132 A  
HETATM   29  C   UNK A   0      -9.019  15.726  68.897  1.00  0.00    -0.226 A  
HETATM   30  N   UNK A   0     -10.988  16.886  68.312  1.00  0.00    -0.349 NA 
HETATM   31  C   UNK A   0      -7.871  16.926  66.748  1.00  0.00    -0.244 A  
HETATM   32  H1  UNK A   0      -7.369  14.094  69.977  1.00  0.00     0.000 HD 
HETATM   33  H1  UNK A   0      -6.295  17.371  65.497  1.00  0.00     0.000 HD 
HETATM   34  N   UNK A   0      -7.277  17.572  65.686  1.00  0.00    -0.346 NA 
HETATM   35  N   UNK A   0      -7.125  16.066  67.439  1.00  0.00    -0.170 NA 
HETATM   36  N   UNK A   0      -9.587  15.179  70.020  1.00  0.00    -0.455 NA 
HETATM   37  H2  UNK A   0      -6.031  14.938  69.439  1.00  0.00     0.000 HD 
HETATM   38  H2  UNK A   0      -7.802  18.230  65.109  1.00  0.00     0.000 HD 
ENDBRANCH  22  23
ENDBRANCH   2  22
TORSDOF 7
ENDMDL
MODEL      121
REMARK 921   NORMALIZED FREE ENERGY PREDICTED BY IDOCK:   -5.52 KCAL/MOL
REMARK 922        TOTAL FREE ENERGY PREDICTED BY IDOCK:   -9.52 KCAL/MOL
REMARK 923 INTER-LIGAND FREE ENERGY PREDICTED BY IDOCK:   -7.67 KCAL/MOL
REMARK 924 INTRA-LIGAND FREE ENERGY PREDICTED BY IDOCK:   -1.85 KCAL/MOL
REMARK 927      BINDING AFFINITY PREDICTED BY RF-SCORE:    0.00 PKD
ROOT
HETATM    1  C   UNK A   0      -9.702   5.442  73.596  1.00  0.00    -0.146 C  
HETATM    2  N   UNK A   0     -10.213   6.382  72.602  1.00  0.00    -0.179 NA 
ENDROOT
BRANCH   2   3
HETATM    3  C   UNK A   0      -9.992   6.136  71.252  1.00  0.00    -0.182 A  
HETATM    4  C   UNK A   0      -9.542   6.008  68.458  1.00  0.00    -0.134 A  
HETATM    5  C   UNK A   0     -11.033   5.847  70.352  1.00  0.00    -0.376 A  
HETATM    6  C   UNK A   0      -8.700   6.240  70.713  1.00  0.00    -0.136 A  
HETATM    7  C   UNK A   0      -8.473   6.194  69.335  1.00  0.00    -0.120 A  
HETATM    8  C   UNK A   0     -10.815   5.768  68.969  1.00  0.00    -0.330 A  
BRANCH   4   9
HETATM    9  C   UNK A   0      -9.341   6.086  66.991  1.00  0.00    -0.122 C  
HETATM   10  O   UNK A   0     -10.068   5.476  66.222  1.00  0.00    -0.174 OA 
ATOM     11  N   GLU A   1      -8.315   6.927  66.574  1.00  0.00    -0.116 N  
ATOM     12  H   GLU A   1      -7.693   7.357  67.258  1.00  0.00     0.000 HD 
BRANCH  11  13
ATOM     13  CA  GLU A   1      -8.137   7.190  65.134  1.00  0.00    -0.127 C  
ATOM     14  OXT GLU A   1      -6.783   6.098  63.412  1.00  0.00    -0.035 OA 
ATOM     15  C   GLU A   1      -6.986   6.318  64.598  1.00  0.00    -0.051 C  
ATOM     16  O   GLU A   1      -6.106   5.952  65.563  1.00  0.00    -0.027 OA 
BRANCH  13  17
ATOM     17  CB  GLU A   1      -7.821   8.675  64.900  1.00  0.00    -0.116 C  
BRANCH  17  18
ATOM     18  CG  GLU A   1      -9.070   9.520  64.628  1.00  0.00    -0.263 C  
ATOM     19  OE2 GLU A   1      -8.258  11.109  66.269  1.00  0.00    -0.168 OA 
ATOM     20  OE1 GLU A   1     -10.195  11.536  65.185  1.00  0.00    -0.248 OA 
ATOM     21  CD  GLU A   1      -9.105  10.781  65.453  1.00  0.00    -0.194 C  
ENDBRANCH  17  18
ENDBRANCH  13  17
ENDBRANCH  11  13
ENDBRANCH   4   9
ENDBRANCH   2   3
BRANCH   2  22
HETATM   22  C   UNK A   0     -10.552   7.743  73.056  1.00  0.00    -0.379 C  
BRANCH  22  23
HETATM   23  C   UNK A   0     -11.079   8.651  71.963  1.00  0.00    -0.367 A  
HETATM   24  N   UNK A   0      -8.469  10.655  69.329  1.00  0.00    -0.303 NA 
HETATM   25  C   UNK A   0     -12.036  10.269  69.954  1.00  0.00    -0.150 A  
HETATM   26  C   UNK A   0     -12.429   8.797  71.697  1.00  0.00    -0.339 A  
HETATM   27  N   UNK A   0     -12.523  11.088  69.026  1.00  0.00    -0.639 NA 
HETATM   28  C   UNK A   0      -9.863  10.824  69.315  1.00  0.00    -0.138 A  
HETATM   29  C   UNK A   0     -10.668  10.092  70.182  1.00  0.00    -0.300 A  
HETATM   30  N   UNK A   0     -12.912   9.594  70.708  1.00  0.00    -0.559 NA 
HETATM   31  C   UNK A   0     -11.656  11.776  68.295  1.00  0.00    -0.308 A  
HETATM   32  H1  UNK A   0      -8.112  10.024  70.046  1.00  0.00     0.000 HD 
HETATM   33  H1  UNK A   0     -11.493  13.195  66.809  1.00  0.00     0.000 HD 
HETATM   34  N   UNK A   0     -12.160  12.666  67.371  1.00  0.00    -0.435 NA 
HETATM   35  N   UNK A   0     -10.333  11.654  68.372  1.00  0.00    -0.198 NA 
HETATM   36  N   UNK A   0     -10.178   9.293  71.184  1.00  0.00    -0.311 NA 
HETATM   37  H2  UNK A   0      -8.008  11.562  69.400  1.00  0.00     0.000 HD 
HETATM   38  H2  UNK A   0     -13.166  12.791  67.254  1.00  0.00     0.000 HD 
ENDBRANCH  22  23
ENDBRANCH   2  22
TORSDOF 7
ENDMDL
MODEL      122
REMARK 921   NORMALIZED FREE ENERGY PREDICTED BY IDOCK:   -5.49 KCAL/MOL
REMARK 922        TOTAL FREE ENERGY PREDICTED BY IDOCK:   -9.49 KCAL/MOL
REMARK 923 INTER-LIGAND FREE ENERGY PREDICTED BY IDOCK:   -8.52 KCAL/MOL
REMARK 924 INTRA-LIGAND FREE ENERGY PREDICTED BY IDOCK:   -0.96 KCAL/MOL
REMARK 927      BINDING AFFINITY PREDICTED BY RF-SCORE:    0.00 PKD
ROOT
HETATM    1  C   UNK A   0     -12.531  13.027  66.070  1.00  0.00    -0.186 C  
HETATM    2  N   UNK A   0     -11.306  12.528  65.452  1.00  0.00    -0.313 NA 
ENDROOT
BRANCH   2   3
HETATM    3  C   UNK A   0     -10.667  11.422  66.000  1.00  0.00    -0.263 A  
HETATM    4  C   UNK A   0      -9.671   8.975  67.024  1.00  0.00    -0.247 A  
HETATM    5  C   UNK A   0     -10.683  11.139  67.378  1.00  0.00    -0.294 A  
HETATM    6  C   UNK A   0     -10.026  10.488  65.171  1.00  0.00    -0.375 A  
HETATM    7  C   UNK A   0      -9.547   9.272  65.667  1.00  0.00    -0.324 A  
HETATM    8  C   UNK A   0     -10.180   9.937  67.893  1.00  0.00    -0.234 A  
BRANCH   4   9
HETATM    9  C   UNK A   0      -9.288   7.641  67.546  1.00  0.00    -0.139 C  
HETATM   10  O   UNK A   0      -8.838   6.780  66.804  1.00  0.00    -0.116 OA 
ATOM     11  N   GLU A   1      -9.432   7.474  68.918  1.00  0.00    -0.145 N  
ATOM     12  H   GLU A   1      -9.878   8.198  69.481  1.00  0.00     0.000 HD 
BRANCH  11  13
ATOM     13  CA  GLU A   1      -8.934   6.238  69.551  1.00  0.00    -0.134 C  
ATOM     14  OXT GLU A   1     -10.067   4.413  70.725  1.00  0.00    -0.204 OA 
ATOM     15  C   GLU A   1     -10.081   5.572  70.334  1.00  0.00    -0.230 C  
ATOM     16  O   GLU A   1     -11.048   6.449  70.705  1.00  0.00    -0.269 OA 
BRANCH  13  17
ATOM     17  CB  GLU A   1      -7.770   6.560  70.501  1.00  0.00    -0.105 C  
BRANCH  17  18
ATOM     18  CG  GLU A   1      -7.079   7.887  70.175  1.00  0.00    -0.050 C  
ATOM     19  OE2 GLU A   1      -8.786   9.009  71.480  1.00  0.00    -0.304 OA 
ATOM     20  OE1 GLU A   1      -7.139  10.234  70.535  1.00  0.00    -0.298 OA 
ATOM     21  CD  GLU A   1      -7.774   9.070  70.801  1.00  0.00    -0.128 C  
ENDBRANCH  17  18
ENDBRANCH  13  17
ENDBRANCH  11  13
ENDBRANCH   4   9
ENDBRANCH   2   3
BRANCH   2  22
HETATM   22  C   UNK A   0     -10.565  13.440  64.563  1.00  0.00    -0.425 C  
BRANCH  22  23
HETATM   23  C   UNK A   0     -10.280  14.802  65.166  1.00  0.00    -0.377 A  
HETATM   24  N   UNK A   0      -7.027  15.405  67.778  1.00  0.00    -0.146 NA 
HETATM   25  C   UNK A   0      -9.738  17.280  66.231  1.00  0.00    -0.266 A  
HETATM   26  C   UNK A   0     -10.993  15.937  64.824  1.00  0.00    -0.375 A  
HETATM   27  N   UNK A   0      -9.531  18.476  66.774  1.00  0.00    -0.291 NA 
HETATM   28  C   UNK A   0      -7.957  16.406  67.457  1.00  0.00    -0.152 A  
HETATM   29  C   UNK A   0      -8.979  16.149  66.549  1.00  0.00    -0.287 A  
HETATM   30  N   UNK A   0     -10.734  17.165  65.344  1.00  0.00    -0.560 NA 
HETATM   31  C   UNK A   0      -8.560  18.586  67.671  1.00  0.00    -0.264 A  
HETATM   32  H1  UNK A   0      -7.200  14.493  67.353  1.00  0.00     0.000 HD 
HETATM   33  H1  UNK A   0      -7.633  19.896  68.965  1.00  0.00     0.000 HD 
HETATM   34  N   UNK A   0      -8.380  19.811  68.275  1.00  0.00    -0.306 NA 
HETATM   35  N   UNK A   0      -7.730  17.603  68.016  1.00  0.00    -0.225 NA 
HETATM   36  N   UNK A   0      -9.243  14.907  66.030  1.00  0.00    -0.491 NA 
HETATM   37  H2  UNK A   0      -6.951  15.309  68.791  1.00  0.00     0.000 HD 
HETATM   38  H2  UNK A   0      -8.974  20.607  68.040  1.00  0.00     0.000 HD 
ENDBRANCH  22  23
ENDBRANCH   2  22
TORSDOF 7
ENDMDL
MODEL      123
REMARK 921   NORMALIZED FREE ENERGY PREDICTED BY IDOCK:   -5.47 KCAL/MOL
REMARK 922        TOTAL FREE ENERGY PREDICTED BY IDOCK:   -9.46 KCAL/MOL
REMARK 923 INTER-LIGAND FREE ENERGY PREDICTED BY IDOCK:   -8.45 KCAL/MOL
REMARK 924 INTRA-LIGAND FREE ENERGY PREDICTED BY IDOCK:   -1.01 KCAL/MOL
REMARK 927      BINDING AFFINITY PREDICTED BY RF-SCORE:    0.00 PKD
ROOT
HETATM    1  C   UNK A   0     -10.305  12.052  64.910  1.00  0.00    -0.278 C  
HETATM    2  N   UNK A   0      -9.493  11.557  66.019  1.00  0.00    -0.224 NA 
ENDROOT
BRANCH   2   3
HETATM    3  C   UNK A   0      -9.898  10.419  66.707  1.00  0.00    -0.195 A  
HETATM    4  C   UNK A   0     -10.370   8.080  68.233  1.00  0.00    -0.240 A  
HETATM    5  C   UNK A   0      -9.953   9.148  66.107  1.00  0.00    -0.338 A  
HETATM    6  C   UNK A   0     -10.206  10.487  68.074  1.00  0.00    -0.195 A  
HETATM    7  C   UNK A   0     -10.423   9.336  68.836  1.00  0.00    -0.235 A  
HETATM    8  C   UNK A   0     -10.200   7.988  66.854  1.00  0.00    -0.385 A  
BRANCH   4   9
HETATM    9  C   UNK A   0     -10.469   6.843  69.047  1.00  0.00    -0.208 C  
HETATM   10  O   UNK A   0     -10.658   5.757  68.521  1.00  0.00    -0.222 OA 
ATOM     11  N   GLU A   1     -10.284   7.014  70.413  1.00  0.00    -0.195 N  
ATOM     12  H   GLU A   1     -10.200   7.950  70.809  1.00  0.00     0.000 HD 
BRANCH  11  13
ATOM     13  CA  GLU A   1     -10.210   5.827  71.286  1.00  0.00    -0.215 C  
ATOM     14  OXT GLU A   1     -11.742   4.916  72.965  1.00  0.00    -0.278 OA 
ATOM     15  C   GLU A   1     -11.366   5.874  72.304  1.00  0.00    -0.298 C  
ATOM     16  O   GLU A   1     -11.822   7.132  72.530  1.00  0.00    -0.229 OA 
BRANCH  13  17
ATOM     17  CB  GLU A   1      -8.864   5.793  72.025  1.00  0.00    -0.138 C  
BRANCH  17  18
ATOM     18  CG  GLU A   1      -8.234   7.179  72.189  1.00  0.00    -0.103 C  
ATOM     19  OE2 GLU A   1      -8.968   7.155  74.499  1.00  0.00    -0.205 OA 
ATOM     20  OE1 GLU A   1      -7.806   8.934  73.731  1.00  0.00    -0.380 OA 
ATOM     21  CD  GLU A   1      -8.391   7.723  73.586  1.00  0.00    -0.207 C  
ENDBRANCH  17  18
ENDBRANCH  13  17
ENDBRANCH  11  13
ENDBRANCH   4   9
ENDBRANCH   2   3
BRANCH   2  22
HETATM   22  C   UNK A   0      -8.539  12.492  66.641  1.00  0.00    -0.053 C  
BRANCH  22  23
HETATM   23  C   UNK A   0      -9.131  13.844  66.991  1.00  0.00    -0.250 A  
HETATM   24  N   UNK A   0      -7.397  17.423  65.595  1.00  0.00    -0.279 NA 
HETATM   25  C   UNK A   0     -10.224  16.295  67.593  1.00  0.00    -0.272 A  
HETATM   26  C   UNK A   0     -10.315  13.984  67.692  1.00  0.00    -0.242 A  
HETATM   27  N   UNK A   0     -10.742  17.469  67.944  1.00  0.00    -0.380 NA 
HETATM   28  C   UNK A   0      -8.502  17.385  66.461  1.00  0.00    -0.264 A  
HETATM   29  C   UNK A   0      -9.052  16.165  66.843  1.00  0.00    -0.218 A  
HETATM   30  N   UNK A   0     -10.863  15.189  67.995  1.00  0.00    -0.275 NA 
HETATM   31  C   UNK A   0     -10.097  18.565  67.567  1.00  0.00    -0.357 A  
HETATM   32  H1  UNK A   0      -7.012  16.515  65.335  1.00  0.00     0.000 HD 
HETATM   33  H1  UNK A   0     -10.106  20.622  67.687  1.00  0.00     0.000 HD 
HETATM   34  N   UNK A   0     -10.602  19.780  67.977  1.00  0.00    -0.377 NA 
HETATM   35  N   UNK A   0      -9.007  18.578  66.802  1.00  0.00    -0.284 NA 
HETATM   36  N   UNK A   0      -8.493  14.949  66.540  1.00  0.00    -0.431 NA 
HETATM   37  H2  UNK A   0      -6.665  18.014  65.988  1.00  0.00     0.000 HD 
HETATM   38  H2  UNK A   0     -11.444  19.834  68.551  1.00  0.00     0.000 HD 
ENDBRANCH  22  23
ENDBRANCH   2  22
TORSDOF 7
ENDMDL
MODEL      124
REMARK 921   NORMALIZED FREE ENERGY PREDICTED BY IDOCK:   -5.47 KCAL/MOL
REMARK 922        TOTAL FREE ENERGY PREDICTED BY IDOCK:   -9.46 KCAL/MOL
REMARK 923 INTER-LIGAND FREE ENERGY PREDICTED BY IDOCK:   -8.19 KCAL/MOL
REMARK 924 INTRA-LIGAND FREE ENERGY PREDICTED BY IDOCK:   -1.27 KCAL/MOL
REMARK 927      BINDING AFFINITY PREDICTED BY RF-SCORE:    0.00 PKD
ROOT
HETATM    1  C   UNK A   0      -8.535   8.866  63.292  1.00  0.00    -0.151 C  
HETATM    2  N   UNK A   0      -8.900   9.171  64.672  1.00  0.00    -0.323 NA 
ENDROOT
BRANCH   2   3
HETATM    3  C   UNK A   0      -9.437  10.417  64.977  1.00  0.00    -0.253 A  
HETATM    4  C   UNK A   0     -10.358  13.077  65.290  1.00  0.00    -0.318 A  
HETATM    5  C   UNK A   0      -8.832  11.303  65.886  1.00  0.00    -0.174 A  
HETATM    6  C   UNK A   0     -10.590  10.874  64.321  1.00  0.00    -0.336 A  
HETATM    7  C   UNK A   0     -11.040  12.190  64.458  1.00  0.00    -0.375 A  
HETATM    8  C   UNK A   0      -9.291  12.616  66.057  1.00  0.00    -0.074 A  
BRANCH   4   9
HETATM    9  C   UNK A   0     -10.742  14.509  65.348  1.00  0.00    -0.361 C  
HETATM   10  O   UNK A   0     -11.783  14.902  64.844  1.00  0.00    -0.382 OA 
ATOM     11  N   GLU A   1      -9.868  15.332  66.047  1.00  0.00    -0.304 N  
ATOM     12  H   GLU A   1      -8.978  14.968  66.387  1.00  0.00     0.000 HD 
BRANCH  11  13
ATOM     13  CA  GLU A   1     -10.240  16.739  66.292  1.00  0.00    -0.332 C  
ATOM     14  OXT GLU A   1      -9.129  18.855  65.764  1.00  0.00    -0.387 OA 
ATOM     15  C   GLU A   1      -9.047  17.647  65.938  1.00  0.00     0.121 C  
ATOM     16  O   GLU A   1      -7.854  17.005  66.007  1.00  0.00    -0.409 OA 
BRANCH  13  17
ATOM     17  CB  GLU A   1     -10.629  16.936  67.765  1.00  0.00    -0.340 C  
BRANCH  17  18
ATOM     18  CG  GLU A   1     -10.096  15.831  68.681  1.00  0.00    -0.211 C  
ATOM     19  OE2 GLU A   1      -8.194  17.254  69.163  1.00  0.00    -0.152 OA 
ATOM     20  OE1 GLU A   1      -8.343  15.235  70.168  1.00  0.00     0.133 OA 
ATOM     21  CD  GLU A   1      -8.791  16.204  69.338  1.00  0.00    -0.111 C  
ENDBRANCH  17  18
ENDBRANCH  13  17
ENDBRANCH  11  13
ENDBRANCH   4   9
ENDBRANCH   2   3
BRANCH   2  22
HETATM   22  C   UNK A   0      -8.302   8.347  65.738  1.00  0.00    -0.146 C  
BRANCH  22  23
HETATM   23  C   UNK A   0      -9.266   7.966  66.845  1.00  0.00    -0.155 A  
HETATM   24  N   UNK A   0      -9.006   9.709  70.674  1.00  0.00    -0.316 NA 
HETATM   25  C   UNK A   0     -11.037   7.304  68.843  1.00  0.00     0.070 A  
HETATM   26  C   UNK A   0     -10.338   7.114  66.644  1.00  0.00    -0.151 A  
HETATM   27  N   UNK A   0     -11.873   6.926  69.807  1.00  0.00    -0.632 NA 
HETATM   28  C   UNK A   0      -9.924   8.699  70.344  1.00  0.00    -0.187 A  
HETATM   29  C   UNK A   0      -9.986   8.203  69.045  1.00  0.00    -0.189 A  
HETATM   30  N   UNK A   0     -11.218   6.781  67.624  1.00  0.00    -0.598 NA 
HETATM   31  C   UNK A   0     -11.680   7.426  71.020  1.00  0.00    -0.297 A  
HETATM   32  H1  UNK A   0      -8.373   9.988  69.924  1.00  0.00     0.000 HD 
HETATM   33  H1  UNK A   0     -12.362   7.377  72.965  1.00  0.00     0.000 HD 
HETATM   34  N   UNK A   0     -12.510   6.993  72.031  1.00  0.00    -0.483 NA 
HETATM   35  N   UNK A   0     -10.756   8.333  71.329  1.00  0.00    -0.221 NA 
HETATM   36  N   UNK A   0      -9.092   8.537  68.059  1.00  0.00    -0.140 NA 
HETATM   37  H2  UNK A   0      -8.472   9.440  71.500  1.00  0.00     0.000 HD 
HETATM   38  H2  UNK A   0     -13.248   6.311  71.852  1.00  0.00     0.000 HD 
ENDBRANCH  22  23
ENDBRANCH   2  22
TORSDOF 7
ENDMDL
MODEL      125
REMARK 921   NORMALIZED FREE ENERGY PREDICTED BY IDOCK:   -5.43 KCAL/MOL
REMARK 922        TOTAL FREE ENERGY PREDICTED BY IDOCK:   -9.41 KCAL/MOL
REMARK 923 INTER-LIGAND FREE ENERGY PREDICTED BY IDOCK:   -8.08 KCAL/MOL
REMARK 924 INTRA-LIGAND FREE ENERGY PREDICTED BY IDOCK:   -1.32 KCAL/MOL
REMARK 927      BINDING AFFINITY PREDICTED BY RF-SCORE:    0.00 PKD
ROOT
HETATM    1  C   UNK A   0     -10.172   6.573  72.096  1.00  0.00    -0.185 C  
HETATM    2  N   UNK A   0     -10.857   6.740  70.818  1.00  0.00    -0.239 NA 
ENDROOT
BRANCH   2   3
HETATM    3  C   UNK A   0     -10.127   7.110  69.695  1.00  0.00    -0.192 A  
HETATM    4  C   UNK A   0      -8.782   8.206  67.456  1.00  0.00    -0.129 A  
HETATM    5  C   UNK A   0     -10.596   6.909  68.384  1.00  0.00    -0.249 A  
HETATM    6  C   UNK A   0      -8.899   7.776  69.832  1.00  0.00    -0.142 A  
HETATM    7  C   UNK A   0      -8.239   8.333  68.734  1.00  0.00    -0.117 A  
HETATM    8  C   UNK A   0      -9.928   7.436  67.270  1.00  0.00    -0.259 A  
BRANCH   4   9
HETATM    9  C   UNK A   0      -8.166   8.900  66.298  1.00  0.00    -0.111 C  
HETATM   10  O   UNK A   0      -6.964   9.116  66.261  1.00  0.00    -0.083 OA 
ATOM     11  N   GLU A   1      -9.038   9.229  65.268  1.00  0.00    -0.236 N  
ATOM     12  H   GLU A   1     -10.043   9.090  65.379  1.00  0.00     0.000 HD 
BRANCH  11  13
ATOM     13  CA  GLU A   1      -8.496   9.780  64.011  1.00  0.00    -0.182 C  
ATOM     14  OXT GLU A   1      -9.053  11.778  62.711  1.00  0.00    -0.293 OA 
ATOM     15  C   GLU A   1      -9.386  10.948  63.545  1.00  0.00    -0.272 C  
ATOM     16  O   GLU A   1     -10.653  10.873  64.024  1.00  0.00    -0.372 OA 
BRANCH  13  17
ATOM     17  CB  GLU A   1      -8.453   8.691  62.928  1.00  0.00    -0.128 C  
BRANCH  17  18
ATOM     18  CG  GLU A   1      -7.031   8.234  62.592  1.00  0.00    -0.090 C  
ATOM     19  OE2 GLU A   1      -7.270   6.507  64.277  1.00  0.00    -0.060 OA 
ATOM     20  OE1 GLU A   1      -5.349   6.633  63.093  1.00  0.00    -0.028 OA 
ATOM     21  CD  GLU A   1      -6.595   7.050  63.417  1.00  0.00    -0.044 C  
ENDBRANCH  17  18
ENDBRANCH  13  17
ENDBRANCH  11  13
ENDBRANCH   4   9
ENDBRANCH   2   3
BRANCH   2  22
HETATM   22  C   UNK A   0     -12.318   6.936  70.844  1.00  0.00    -0.313 C  
BRANCH  22  23
HETATM   23  C   UNK A   0     -12.754   8.304  71.332  1.00  0.00    -0.263 A  
HETATM   24  N   UNK A   0     -11.538  11.825  69.360  1.00  0.00    -0.297 NA 
HETATM   25  C   UNK A   0     -13.576  10.784  72.192  1.00  0.00     0.005 A  
HETATM   26  C   UNK A   0     -13.647   8.477  72.374  1.00  0.00    -0.279 A  
HETATM   27  N   UNK A   0     -13.943  11.973  72.662  1.00  0.00    -0.186 NA 
HETATM   28  C   UNK A   0     -12.303  11.822  70.537  1.00  0.00    -0.299 A  
HETATM   29  C   UNK A   0     -12.710  10.620  71.107  1.00  0.00    -0.422 A  
HETATM   30  N   UNK A   0     -14.059   9.697  72.807  1.00  0.00    -0.728 NA 
HETATM   31  C   UNK A   0     -13.446  13.051  72.069  1.00  0.00    -0.492 A  
HETATM   32  H1  UNK A   0     -11.265  10.905  69.012  1.00  0.00     0.000 HD 
HETATM   33  H1  UNK A   0     -13.400  15.110  72.133  1.00  0.00     0.000 HD 
HETATM   34  N   UNK A   0     -13.782  14.281  72.589  1.00  0.00    -0.603 NA 
HETATM   35  N   UNK A   0     -12.662  13.030  70.993  1.00  0.00    -0.309 NA 
HETATM   36  N   UNK A   0     -12.288   9.389  70.671  1.00  0.00    -0.487 NA 
HETATM   37  H2  UNK A   0     -10.713  12.412  69.480  1.00  0.00     0.000 HD 
HETATM   38  H2  UNK A   0     -14.393  14.361  73.402  1.00  0.00     0.000 HD 
ENDBRANCH  22  23
ENDBRANCH   2  22
TORSDOF 7
ENDMDL
MODEL      126
REMARK 921   NORMALIZED FREE ENERGY PREDICTED BY IDOCK:   -5.43 KCAL/MOL
REMARK 922        TOTAL FREE ENERGY PREDICTED BY IDOCK:   -9.39 KCAL/MOL
REMARK 923 INTER-LIGAND FREE ENERGY PREDICTED BY IDOCK:   -8.44 KCAL/MOL
REMARK 924 INTRA-LIGAND FREE ENERGY PREDICTED BY IDOCK:   -0.95 KCAL/MOL
REMARK 927      BINDING AFFINITY PREDICTED BY RF-SCORE:    0.00 PKD
ROOT
HETATM    1  C   UNK A   0      -8.941   8.960  62.386  1.00  0.00    -0.022 C  
HETATM    2  N   UNK A   0      -8.882   9.404  63.776  1.00  0.00    -0.349 NA 
ENDROOT
BRANCH   2   3
HETATM    3  C   UNK A   0      -9.638  10.500  64.175  1.00  0.00    -0.313 A  
HETATM    4  C   UNK A   0     -10.894  12.944  64.862  1.00  0.00    -0.331 A  
HETATM    5  C   UNK A   0      -9.645  10.977  65.497  1.00  0.00    -0.263 A  
HETATM    6  C   UNK A   0     -10.383  11.230  63.235  1.00  0.00    -0.406 A  
HETATM    7  C   UNK A   0     -10.991  12.444  63.564  1.00  0.00    -0.506 A  
HETATM    8  C   UNK A   0     -10.277  12.178  65.848  1.00  0.00    -0.272 A  
BRANCH   4   9
HETATM    9  C   UNK A   0     -11.421  14.290  65.197  1.00  0.00    -0.351 C  
HETATM   10  O   UNK A   0     -12.462  14.699  64.706  1.00  0.00    -0.467 OA 
ATOM     11  N   GLU A   1     -10.677  15.005  66.128  1.00  0.00    -0.318 N  
ATOM     12  H   GLU A   1      -9.779  14.648  66.454  1.00  0.00     0.000 HD 
BRANCH  11  13
ATOM     13  CA  GLU A   1     -11.201  16.286  66.641  1.00  0.00     0.246 C  
ATOM     14  OXT GLU A   1     -10.753  18.613  66.031  1.00  0.00    -0.406 OA 
ATOM     15  C   GLU A   1     -10.392  17.445  66.029  1.00  0.00    -0.304 C  
ATOM     16  O   GLU A   1      -9.148  17.072  65.635  1.00  0.00    -0.500 OA 
BRANCH  13  17
ATOM     17  CB  GLU A   1     -11.098  16.327  68.173  1.00  0.00    -0.329 C  
BRANCH  17  18
ATOM     18  CG  GLU A   1     -11.486  15.002  68.837  1.00  0.00    -0.333 C  
ATOM     19  OE2 GLU A   1     -11.280  16.107  70.985  1.00  0.00    -0.352 OA 
ATOM     20  OE1 GLU A   1     -11.909  13.938  70.917  1.00  0.00    -0.276 OA 
ATOM     21  CD  GLU A   1     -11.535  15.103  70.340  1.00  0.00    -0.286 C  
ENDBRANCH  17  18
ENDBRANCH  13  17
ENDBRANCH  11  13
ENDBRANCH   4   9
ENDBRANCH   2   3
BRANCH   2  22
HETATM   22  C   UNK A   0      -7.730   8.970  64.586  1.00  0.00    -0.115 C  
BRANCH  22  23
HETATM   23  C   UNK A   0      -7.987   7.729  65.420  1.00  0.00    -0.125 A  
HETATM   24  N   UNK A   0      -9.354   4.151  63.661  1.00  0.00    -0.143 NA 
HETATM   25  C   UNK A   0      -8.416   5.467  66.924  1.00  0.00    -0.107 A  
HETATM   26  C   UNK A   0      -7.695   7.662  66.770  1.00  0.00    -0.102 A  
HETATM   27  N   UNK A   0      -8.667   4.404  67.683  1.00  0.00    -0.103 NA 
HETATM   28  C   UNK A   0      -9.170   4.313  65.044  1.00  0.00    -0.155 A  
HETATM   29  C   UNK A   0      -8.669   5.508  65.550  1.00  0.00    -0.154 A  
HETATM   30  N   UNK A   0      -7.903   6.550  67.522  1.00  0.00    -0.111 NA 
HETATM   31  C   UNK A   0      -9.196   3.339  67.096  1.00  0.00    -0.187 A  
HETATM   32  H1  UNK A   0      -9.157   4.976  63.093  1.00  0.00     0.000 HD 
HETATM   33  H1  UNK A   0      -9.916   1.438  67.439  1.00  0.00     0.000 HD 
HETATM   34  N   UNK A   0      -9.508   2.257  67.890  1.00  0.00    -0.343 NA 
HETATM   35  N   UNK A   0      -9.430   3.230  65.790  1.00  0.00    -0.315 NA 
HETATM   36  N   UNK A   0      -8.465   6.632  64.789  1.00  0.00    -0.343 NA 
HETATM   37  H2  UNK A   0     -10.297   3.813  63.471  1.00  0.00     0.000 HD 
HETATM   38  H2  UNK A   0      -9.337   2.275  68.896  1.00  0.00     0.000 HD 
ENDBRANCH  22  23
ENDBRANCH   2  22
TORSDOF 7
ENDMDL
MODEL      127
REMARK 921   NORMALIZED FREE ENERGY PREDICTED BY IDOCK:   -5.42 KCAL/MOL
REMARK 922        TOTAL FREE ENERGY PREDICTED BY IDOCK:   -9.39 KCAL/MOL
REMARK 923 INTER-LIGAND FREE ENERGY PREDICTED BY IDOCK:   -8.28 KCAL/MOL
REMARK 924 INTRA-LIGAND FREE ENERGY PREDICTED BY IDOCK:   -1.11 KCAL/MOL
REMARK 927      BINDING AFFINITY PREDICTED BY RF-SCORE:    0.00 PKD
ROOT
HETATM    1  C   UNK A   0     -14.016   9.161  71.211  1.00  0.00    -0.101 C  
HETATM    2  N   UNK A   0     -12.577   9.326  71.028  1.00  0.00    -0.473 NA 
ENDROOT
BRANCH   2   3
HETATM    3  C   UNK A   0     -11.723   8.278  71.349  1.00  0.00    -0.287 A  
HETATM    4  C   UNK A   0      -9.798   6.227  71.689  1.00  0.00    -0.184 A  
HETATM    5  C   UNK A   0     -12.009   6.939  71.028  1.00  0.00    -0.422 A  
HETATM    6  C   UNK A   0     -10.483   8.531  71.957  1.00  0.00    -0.407 A  
HETATM    7  C   UNK A   0      -9.523   7.527  72.112  1.00  0.00    -0.185 A  
HETATM    8  C   UNK A   0     -11.067   5.917  71.206  1.00  0.00    -0.307 A  
BRANCH   4   9
HETATM    9  C   UNK A   0      -8.749   5.180  71.726  1.00  0.00    -0.130 C  
HETATM   10  O   UNK A   0      -7.764   5.300  72.440  1.00  0.00    -0.097 OA 
ATOM     11  N   GLU A   1      -8.996   4.060  70.941  1.00  0.00    -0.094 N  
ATOM     12  H   GLU A   1      -9.797   4.040  70.310  1.00  0.00     0.000 HD 
BRANCH  11  13
ATOM     13  CA  GLU A   1      -8.089   2.900  71.031  1.00  0.00    -0.053 C  
ATOM     14  OXT GLU A   1      -6.375   2.026  69.517  1.00  0.00    -0.024 OA 
ATOM     15  C   GLU A   1      -7.377   2.708  69.678  1.00  0.00    -0.044 C  
ATOM     16  O   GLU A   1      -8.070   3.233  68.636  1.00  0.00    -0.061 OA 
BRANCH  13  17
ATOM     17  CB  GLU A   1      -8.880   1.633  71.390  1.00  0.00    -0.105 C  
BRANCH  17  18
ATOM     18  CG  GLU A   1     -10.281   1.933  71.931  1.00  0.00    -0.163 C  
ATOM     19  OE2 GLU A   1      -9.362   1.802  74.170  1.00  0.00    -0.067 OA 
ATOM     20  OE1 GLU A   1     -11.553   2.285  73.905  1.00  0.00    -0.163 OA 
ATOM     21  CD  GLU A   1     -10.319   1.990  73.437  1.00  0.00    -0.112 C  
ENDBRANCH  17  18
ENDBRANCH  13  17
ENDBRANCH  11  13
ENDBRANCH   4   9
ENDBRANCH   2   3
BRANCH   2  22
HETATM   22  C   UNK A   0     -12.051  10.700  70.932  1.00  0.00    -0.385 C  
BRANCH  22  23
HETATM   23  C   UNK A   0     -11.830  11.184  69.512  1.00  0.00    -0.353 A  
HETATM   24  N   UNK A   0     -12.100  15.272  68.522  1.00  0.00    -0.572 NA 
HETATM   25  C   UNK A   0     -11.391  12.068  66.944  1.00  0.00    -0.341 A  
HETATM   26  C   UNK A   0     -11.430  10.343  68.488  1.00  0.00    -0.162 A  
HETATM   27  N   UNK A   0     -11.228  12.462  65.685  1.00  0.00    -0.309 NA 
HETATM   28  C   UNK A   0     -11.874  14.260  67.576  1.00  0.00    -0.395 A  
HETATM   29  C   UNK A   0     -11.748  12.935  67.981  1.00  0.00    -0.356 A  
HETATM   30  N   UNK A   0     -11.211  10.770  67.217  1.00  0.00    -0.374 NA 
HETATM   31  C   UNK A   0     -11.429  13.744  65.408  1.00  0.00    -0.311 A  
HETATM   32  H1  UNK A   0     -12.223  14.953  69.484  1.00  0.00     0.000 HD 
HETATM   33  H1  UNK A   0     -11.469  15.128  63.883  1.00  0.00     0.000 HD 
HETATM   34  N   UNK A   0     -11.314  14.143  64.095  1.00  0.00    -0.608 NA 
HETATM   35  N   UNK A   0     -11.713  14.679  66.313  1.00  0.00    -0.354 NA 
HETATM   36  N   UNK A   0     -11.976  12.506  69.265  1.00  0.00    -0.281 NA 
HETATM   37  H2  UNK A   0     -12.896  15.844  68.239  1.00  0.00     0.000 HD 
HETATM   38  H2  UNK A   0     -11.082  13.475  63.359  1.00  0.00     0.000 HD 
ENDBRANCH  22  23
ENDBRANCH   2  22
TORSDOF 7
ENDMDL
MODEL      128
REMARK 921   NORMALIZED FREE ENERGY PREDICTED BY IDOCK:   -5.42 KCAL/MOL
REMARK 922        TOTAL FREE ENERGY PREDICTED BY IDOCK:   -9.39 KCAL/MOL
REMARK 923 INTER-LIGAND FREE ENERGY PREDICTED BY IDOCK:   -7.89 KCAL/MOL
REMARK 924 INTRA-LIGAND FREE ENERGY PREDICTED BY IDOCK:   -1.49 KCAL/MOL
REMARK 927      BINDING AFFINITY PREDICTED BY RF-SCORE:    0.00 PKD
ROOT
HETATM    1  C   UNK A   0     -10.541   6.785  72.957  1.00  0.00    -0.267 C  
HETATM    2  N   UNK A   0     -11.141   6.451  71.669  1.00  0.00    -0.256 NA 
ENDROOT
BRANCH   2   3
HETATM    3  C   UNK A   0     -10.320   6.113  70.600  1.00  0.00    -0.214 A  
HETATM    4  C   UNK A   0      -8.618   5.793  68.358  1.00  0.00    -0.112 A  
HETATM    5  C   UNK A   0     -10.825   5.755  69.337  1.00  0.00    -0.393 A  
HETATM    6  C   UNK A   0      -8.924   6.187  70.725  1.00  0.00    -0.145 A  
HETATM    7  C   UNK A   0      -8.080   6.046  69.620  1.00  0.00    -0.107 A  
HETATM    8  C   UNK A   0      -9.988   5.580  68.227  1.00  0.00    -0.201 A  
BRANCH   4   9
HETATM    9  C   UNK A   0      -7.750   5.769  67.155  1.00  0.00    -0.101 C  
HETATM   10  O   UNK A   0      -6.642   5.256  67.188  1.00  0.00    -0.050 OA 
ATOM     11  N   GLU A   1      -8.309   6.319  66.008  1.00  0.00    -0.131 N  
ATOM     12  H   GLU A   1      -9.209   6.797  66.051  1.00  0.00     0.000 HD 
BRANCH  11  13
ATOM     13  CA  GLU A   1      -7.587   6.203  64.726  1.00  0.00    -0.092 C  
ATOM     14  OXT GLU A   1      -6.439   7.850  63.325  1.00  0.00    -0.066 OA 
ATOM     15  C   GLU A   1      -7.261   7.613  64.200  1.00  0.00    -0.080 C  
ATOM     16  O   GLU A   1      -8.102   8.565  64.678  1.00  0.00    -0.138 OA 
BRANCH  13  17
ATOM     17  CB  GLU A   1      -8.443   5.446  63.700  1.00  0.00    -0.059 C  
BRANCH  17  18
ATOM     18  CG  GLU A   1      -8.420   3.928  63.902  1.00  0.00    -0.094 C  
ATOM     19  OE2 GLU A   1     -10.515   4.133  65.104  1.00  0.00    -0.230 OA 
ATOM     20  OE1 GLU A   1      -9.608   2.084  64.813  1.00  0.00    -0.101 OA 
ATOM     21  CD  GLU A   1      -9.620   3.429  64.666  1.00  0.00    -0.161 C  
ENDBRANCH  17  18
ENDBRANCH  13  17
ENDBRANCH  11  13
ENDBRANCH   4   9
ENDBRANCH   2   3
BRANCH   2  22
HETATM   22  C   UNK A   0     -12.525   6.894  71.422  1.00  0.00    -0.367 C  
BRANCH  22  23
HETATM   23  C   UNK A   0     -12.726   8.394  71.517  1.00  0.00    -0.308 A  
HETATM   24  N   UNK A   0     -10.758  11.039  68.891  1.00  0.00    -0.199 NA 
HETATM   25  C   UNK A   0     -13.118  11.113  71.663  1.00  0.00    -0.424 A  
HETATM   26  C   UNK A   0     -13.630   8.975  72.388  1.00  0.00    -0.477 A  
HETATM   27  N   UNK A   0     -13.283  12.426  71.791  1.00  0.00    -0.412 NA 
HETATM   28  C   UNK A   0     -11.578  11.465  69.948  1.00  0.00    -0.323 A  
HETATM   29  C   UNK A   0     -12.235  10.534  70.746  1.00  0.00    -0.369 A  
HETATM   30  N   UNK A   0     -13.831  10.316  72.469  1.00  0.00    -0.402 NA 
HETATM   31  C   UNK A   0     -12.559  13.218  71.010  1.00  0.00    -0.324 A  
HETATM   32  H1  UNK A   0     -10.642  10.029  68.807  1.00  0.00     0.000 HD 
HETATM   33  H1  UNK A   0     -12.132  15.187  70.579  1.00  0.00     0.000 HD 
HETATM   34  N   UNK A   0     -12.689  14.579  71.180  1.00  0.00    -0.316 NA 
HETATM   35  N   UNK A   0     -11.731  12.792  70.058  1.00  0.00    -0.513 NA 
HETATM   36  N   UNK A   0     -12.026   9.180  70.667  1.00  0.00    -0.461 NA 
HETATM   37  H2  UNK A   0      -9.846  11.492  68.951  1.00  0.00     0.000 HD 
HETATM   38  H2  UNK A   0     -13.321  14.965  71.882  1.00  0.00     0.000 HD 
ENDBRANCH  22  23
ENDBRANCH   2  22
TORSDOF 7
ENDMDL
MODEL      129
REMARK 921   NORMALIZED FREE ENERGY PREDICTED BY IDOCK:   -5.41 KCAL/MOL
REMARK 922        TOTAL FREE ENERGY PREDICTED BY IDOCK:   -9.38 KCAL/MOL
REMARK 923 INTER-LIGAND FREE ENERGY PREDICTED BY IDOCK:   -8.76 KCAL/MOL
REMARK 924 INTRA-LIGAND FREE ENERGY PREDICTED BY IDOCK:   -0.62 KCAL/MOL
REMARK 927      BINDING AFFINITY PREDICTED BY RF-SCORE:    0.00 PKD
ROOT
HETATM    1  C   UNK A   0     -12.161  14.616  71.585  1.00  0.00    -0.344 C  
HETATM    2  N   UNK A   0     -12.255  14.284  70.166  1.00  0.00    -0.327 NA 
ENDROOT
BRANCH   2   3
HETATM    3  C   UNK A   0     -12.050  12.972  69.756  1.00  0.00    -0.258 A  
HETATM    4  C   UNK A   0     -11.297  10.324  69.088  1.00  0.00    -0.244 A  
HETATM    5  C   UNK A   0     -11.586  12.641  68.471  1.00  0.00    -0.363 A  
HETATM    6  C   UNK A   0     -12.235  11.910  70.655  1.00  0.00    -0.424 A  
HETATM    7  C   UNK A   0     -11.851  10.604  70.338  1.00  0.00    -0.441 A  
HETATM    8  C   UNK A   0     -11.226  11.330  68.129  1.00  0.00    -0.351 A  
BRANCH   4   9
HETATM    9  C   UNK A   0     -10.765   8.974  68.781  1.00  0.00    -0.108 C  
HETATM   10  O   UNK A   0     -10.590   8.613  67.627  1.00  0.00    -0.248 OA 
ATOM     11  N   GLU A   1     -10.445   8.195  69.886  1.00  0.00    -0.222 N  
ATOM     12  H   GLU A   1     -10.675   8.515  70.827  1.00  0.00     0.000 HD 
BRANCH  11  13
ATOM     13  CA  GLU A   1      -9.766   6.900  69.685  1.00  0.00    -0.155 C  
ATOM     14  OXT GLU A   1     -10.348   4.614  70.338  1.00  0.00    -0.195 OA 
ATOM     15  C   GLU A   1     -10.488   5.817  70.508  1.00  0.00    -0.263 C  
ATOM     16  O   GLU A   1     -11.170   6.322  71.567  1.00  0.00    -0.268 OA 
BRANCH  13  17
ATOM     17  CB  GLU A   1      -8.296   6.997  70.122  1.00  0.00    -0.138 C  
BRANCH  17  18
ATOM     18  CG  GLU A   1      -8.123   7.029  71.643  1.00  0.00    -0.103 C  
ATOM     19  OE2 GLU A   1      -8.008   9.446  71.502  1.00  0.00    -0.298 OA 
ATOM     20  OE1 GLU A   1      -7.875   8.453  73.528  1.00  0.00    -0.294 OA 
ATOM     21  CD  GLU A   1      -7.997   8.432  72.181  1.00  0.00    -0.128 C  
ENDBRANCH  17  18
ENDBRANCH  13  17
ENDBRANCH  11  13
ENDBRANCH   4   9
ENDBRANCH   2   3
BRANCH   2  22
HETATM   22  C   UNK A   0     -12.132  15.386  69.195  1.00  0.00    -0.242 C  
BRANCH  22  23
HETATM   23  C   UNK A   0     -10.736  15.970  69.089  1.00  0.00    -0.272 A  
HETATM   24  N   UNK A   0     -10.128  20.080  68.382  1.00  0.00    -0.425 NA 
HETATM   25  C   UNK A   0      -8.205  17.038  68.935  1.00  0.00    -0.204 A  
HETATM   26  C   UNK A   0      -9.594  15.224  69.317  1.00  0.00    -0.249 A  
HETATM   27  N   UNK A   0      -6.972  17.518  68.812  1.00  0.00    -0.228 NA 
HETATM   28  C   UNK A   0      -9.083  19.147  68.466  1.00  0.00    -0.371 A  
HETATM   29  C   UNK A   0      -9.355  17.812  68.750  1.00  0.00    -0.229 A  
HETATM   30  N   UNK A   0      -8.339  15.741  69.243  1.00  0.00    -0.244 NA 
HETATM   31  C   UNK A   0      -6.837  18.796  68.483  1.00  0.00    -0.264 A  
HETATM   32  H1  UNK A   0     -11.068  19.696  68.479  1.00  0.00     0.000 HD 
HETATM   33  H1  UNK A   0      -5.458  20.264  68.048  1.00  0.00     0.000 HD 
HETATM   34  N   UNK A   0      -5.561  19.281  68.301  1.00  0.00    -0.196 NA 
HETATM   35  N   UNK A   0      -7.847  19.652  68.338  1.00  0.00    -0.333 NA 
HETATM   36  N   UNK A   0     -10.622  17.291  68.818  1.00  0.00    -0.332 NA 
HETATM   37  H2  UNK A   0     -10.054  20.609  67.513  1.00  0.00     0.000 HD 
HETATM   38  H2  UNK A   0      -4.746  18.678  68.415  1.00  0.00     0.000 HD 
ENDBRANCH  22  23
ENDBRANCH   2  22
TORSDOF 7
ENDMDL
MODEL      130
REMARK 921   NORMALIZED FREE ENERGY PREDICTED BY IDOCK:   -5.39 KCAL/MOL
REMARK 922        TOTAL FREE ENERGY PREDICTED BY IDOCK:   -9.35 KCAL/MOL
REMARK 923 INTER-LIGAND FREE ENERGY PREDICTED BY IDOCK:   -8.65 KCAL/MOL
REMARK 924 INTRA-LIGAND FREE ENERGY PREDICTED BY IDOCK:   -0.70 KCAL/MOL
REMARK 927      BINDING AFFINITY PREDICTED BY RF-SCORE:    0.00 PKD
ROOT
HETATM    1  C   UNK A   0     -11.687  14.142  64.895  1.00  0.00    -0.392 C  
HETATM    2  N   UNK A   0     -11.097  14.238  66.227  1.00  0.00    -0.317 NA 
ENDROOT
BRANCH   2   3
HETATM    3  C   UNK A   0     -10.689  13.080  66.878  1.00  0.00    -0.262 A  
HETATM    4  C   UNK A   0     -10.216  10.611  68.185  1.00  0.00    -0.192 A  
HETATM    5  C   UNK A   0     -10.557  13.000  68.276  1.00  0.00    -0.260 A  
HETATM    6  C   UNK A   0     -10.457  11.901  66.153  1.00  0.00    -0.272 A  
HETATM    7  C   UNK A   0     -10.239  10.677  66.792  1.00  0.00    -0.284 A  
HETATM    8  C   UNK A   0     -10.308  11.785  68.928  1.00  0.00    -0.151 A  
BRANCH   4   9
HETATM    9  C   UNK A   0     -10.116   9.305  68.880  1.00  0.00    -0.195 C  
HETATM   10  O   UNK A   0      -9.150   8.575  68.714  1.00  0.00    -0.142 OA 
ATOM     11  N   GLU A   1     -11.159   9.012  69.749  1.00  0.00    -0.396 N  
ATOM     12  H   GLU A   1     -11.976   9.621  69.798  1.00  0.00     0.000 HD 
BRANCH  11  13
ATOM     13  CA  GLU A   1     -11.074   7.810  70.601  1.00  0.00    -0.256 C  
ATOM     14  OXT GLU A   1     -12.779   6.467  71.734  1.00  0.00    -0.320 OA 
ATOM     15  C   GLU A   1     -12.456   7.529  71.220  1.00  0.00    -0.323 C  
ATOM     16  O   GLU A   1     -13.237   8.637  71.299  1.00  0.00    -0.264 OA 
BRANCH  13  17
ATOM     17  CB  GLU A   1     -10.035   8.020  71.713  1.00  0.00    -0.245 C  
BRANCH  17  18
ATOM     18  CG  GLU A   1      -9.341   6.723  72.139  1.00  0.00    -0.145 C  
ATOM     19  OE2 GLU A   1      -9.209   7.621  74.387  1.00  0.00    -0.118 OA 
ATOM     20  OE1 GLU A   1      -8.408   5.547  73.980  1.00  0.00    -0.112 OA 
ATOM     21  CD  GLU A   1      -8.992   6.708  73.606  1.00  0.00    -0.133 C  
ENDBRANCH  17  18
ENDBRANCH  13  17
ENDBRANCH  11  13
ENDBRANCH   4   9
ENDBRANCH   2   3
BRANCH   2  22
HETATM   22  C   UNK A   0     -11.346  15.468  67.000  1.00  0.00    -0.106 C  
BRANCH  22  23
HETATM   23  C   UNK A   0     -10.252  16.511  66.882  1.00  0.00    -0.296 A  
HETATM   24  N   UNK A   0     -10.165  19.893  69.395  1.00  0.00    -0.576 NA 
HETATM   25  C   UNK A   0      -8.245  18.383  66.694  1.00  0.00    -0.266 A  
HETATM   26  C   UNK A   0      -9.173  16.369  66.027  1.00  0.00    -0.293 A  
HETATM   27  N   UNK A   0      -7.294  19.301  66.546  1.00  0.00    -0.226 NA 
HETATM   28  C   UNK A   0      -9.246  19.678  68.355  1.00  0.00    -0.339 A  
HETATM   29  C   UNK A   0      -9.306  18.514  67.596  1.00  0.00    -0.281 A  
HETATM   30  N   UNK A   0      -8.177  17.288  65.927  1.00  0.00    -0.543 NA 
HETATM   31  C   UNK A   0      -7.373  20.397  67.288  1.00  0.00    -0.310 A  
HETATM   32  H1  UNK A   0     -10.888  19.180  69.496  1.00  0.00     0.000 HD 
HETATM   33  H1  UNK A   0      -6.481  22.216  67.667  1.00  0.00     0.000 HD 
HETATM   34  N   UNK A   0      -6.420  21.373  67.096  1.00  0.00    -0.562 NA 
HETATM   35  N   UNK A   0      -8.297  20.615  68.223  1.00  0.00     0.279 NA 
HETATM   36  N   UNK A   0     -10.316  17.590  67.695  1.00  0.00    -0.346 NA 
HETATM   37  H2  UNK A   0     -10.593  20.814  69.298  1.00  0.00     0.000 HD 
HETATM   38  H2  UNK A   0      -5.678  21.255  66.406  1.00  0.00     0.000 HD 
ENDBRANCH  22  23
ENDBRANCH   2  22
TORSDOF 7
ENDMDL
MODEL      131
REMARK 921   NORMALIZED FREE ENERGY PREDICTED BY IDOCK:   -5.39 KCAL/MOL
REMARK 922        TOTAL FREE ENERGY PREDICTED BY IDOCK:   -9.34 KCAL/MOL
REMARK 923 INTER-LIGAND FREE ENERGY PREDICTED BY IDOCK:   -8.71 KCAL/MOL
REMARK 924 INTRA-LIGAND FREE ENERGY PREDICTED BY IDOCK:   -0.63 KCAL/MOL
REMARK 927      BINDING AFFINITY PREDICTED BY RF-SCORE:    0.00 PKD
ROOT
HETATM    1  C   UNK A   0     -11.745   6.755  69.930  1.00  0.00    -0.221 C  
HETATM    2  N   UNK A   0     -10.524   7.546  69.802  1.00  0.00    -0.225 NA 
ENDROOT
BRANCH   2   3
HETATM    3  C   UNK A   0     -10.608   8.866  69.376  1.00  0.00    -0.217 A  
HETATM    4  C   UNK A   0     -11.149  11.517  68.537  1.00  0.00    -0.287 A  
HETATM    5  C   UNK A   0     -10.566   9.231  68.019  1.00  0.00    -0.262 A  
HETATM    6  C   UNK A   0     -10.811   9.901  70.303  1.00  0.00    -0.367 A  
HETATM    7  C   UNK A   0     -11.095  11.207  69.895  1.00  0.00    -0.234 A  
HETATM    8  C   UNK A   0     -10.819  10.544  67.597  1.00  0.00    -0.355 A  
BRANCH   4   9
HETATM    9  C   UNK A   0     -11.575  12.864  68.084  1.00  0.00    -0.336 C  
HETATM   10  O   UNK A   0     -12.114  13.646  68.852  1.00  0.00    -0.347 OA 
ATOM     11  N   GLU A   1     -11.272  13.171  66.763  1.00  0.00    -0.289 N  
ATOM     12  H   GLU A   1     -10.885  12.459  66.144  1.00  0.00     0.000 HD 
BRANCH  11  13
ATOM     13  CA  GLU A   1     -11.515  14.538  66.265  1.00  0.00    -0.358 C  
ATOM     14  OXT GLU A   1     -12.004  15.418  64.034  1.00  0.00    -0.512 OA 
ATOM     15  C   GLU A   1     -11.550  14.518  64.725  1.00  0.00    -0.413 C  
ATOM     16  O   GLU A   1     -10.867  13.473  64.193  1.00  0.00    -0.372 OA 
BRANCH  13  17
ATOM     17  CB  GLU A   1     -10.407  15.486  66.750  1.00  0.00    -0.288 C  
BRANCH  17  18
ATOM     18  CG  GLU A   1     -10.950  16.728  67.463  1.00  0.00    -0.134 C  
ATOM     19  OE2 GLU A   1      -9.286  18.037  66.282  1.00  0.00    -0.400 OA 
ATOM     20  OE1 GLU A   1     -10.725  19.083  67.676  1.00  0.00    -0.443 OA 
ATOM     21  CD  GLU A   1     -10.220  17.986  67.066  1.00  0.00    -0.362 C  
ENDBRANCH  17  18
ENDBRANCH  13  17
ENDBRANCH  11  13
ENDBRANCH   4   9
ENDBRANCH   2   3
BRANCH   2  22
HETATM   22  C   UNK A   0      -9.245   6.821  69.705  1.00  0.00    -0.145 C  
BRANCH  22  23
HETATM   23  C   UNK A   0      -8.797   6.534  68.285  1.00  0.00    -0.119 A  
HETATM   24  N   UNK A   0     -11.282   4.467  65.579  1.00  0.00    -0.864 NA 
HETATM   25  C   UNK A   0      -8.003   6.046  65.696  1.00  0.00    -0.116 A  
HETATM   26  C   UNK A   0      -7.609   7.013  67.763  1.00  0.00    -0.111 A  
HETATM   27  N   UNK A   0      -7.573   5.776  64.467  1.00  0.00    -0.078 NA 
HETATM   28  C   UNK A   0      -9.975   4.875  65.272  1.00  0.00     0.036 A  
HETATM   29  C   UNK A   0      -9.228   5.597  66.198  1.00  0.00    -0.159 A  
HETATM   30  N   UNK A   0      -7.208   6.778  66.486  1.00  0.00    -0.071 NA 
HETATM   31  C   UNK A   0      -8.349   5.031  63.692  1.00  0.00    -0.127 A  
HETATM   32  H1  UNK A   0     -11.597   4.682  66.526  1.00  0.00     0.000 HD 
HETATM   33  H1  UNK A   0      -8.478   4.132  61.842  1.00  0.00     0.000 HD 
HETATM   34  N   UNK A   0      -7.880   4.705  62.438  1.00  0.00    -0.063 NA 
HETATM   35  N   UNK A   0      -9.561   4.593  64.029  1.00  0.00    -0.353 NA 
HETATM   36  N   UNK A   0      -9.634   5.828  67.489  1.00  0.00    -0.112 NA 
HETATM   37  H2  UNK A   0     -11.391   3.470  65.393  1.00  0.00     0.000 HD 
HETATM   38  H2  UNK A   0      -6.966   5.025  62.118  1.00  0.00     0.000 HD 
ENDBRANCH  22  23
ENDBRANCH   2  22
TORSDOF 7
ENDMDL
MODEL      132
REMARK 921   NORMALIZED FREE ENERGY PREDICTED BY IDOCK:   -5.37 KCAL/MOL
REMARK 922        TOTAL FREE ENERGY PREDICTED BY IDOCK:   -9.32 KCAL/MOL
REMARK 923 INTER-LIGAND FREE ENERGY PREDICTED BY IDOCK:   -8.34 KCAL/MOL
REMARK 924 INTRA-LIGAND FREE ENERGY PREDICTED BY IDOCK:   -0.98 KCAL/MOL
REMARK 927      BINDING AFFINITY PREDICTED BY RF-SCORE:    0.00 PKD
ROOT
HETATM    1  C   UNK A   0     -10.717  12.827  65.255  1.00  0.00    -0.294 C  
HETATM    2  N   UNK A   0     -10.709  12.972  66.708  1.00  0.00    -0.261 NA 
ENDROOT
BRANCH   2   3
HETATM    3  C   UNK A   0     -10.254  11.922  67.496  1.00  0.00    -0.196 A  
HETATM    4  C   UNK A   0      -9.505   9.949  69.386  1.00  0.00    -0.226 A  
HETATM    5  C   UNK A   0      -8.971  11.904  68.072  1.00  0.00    -0.185 A  
HETATM    6  C   UNK A   0     -11.104  10.849  67.810  1.00  0.00    -0.371 A  
HETATM    7  C   UNK A   0     -10.746   9.882  68.754  1.00  0.00    -0.247 A  
HETATM    8  C   UNK A   0      -8.589  10.923  68.997  1.00  0.00    -0.110 A  
BRANCH   4   9
HETATM    9  C   UNK A   0      -9.161   9.010  70.482  1.00  0.00    -0.221 C  
HETATM   10  O   UNK A   0      -8.218   9.230  71.227  1.00  0.00    -0.324 OA 
ATOM     11  N   GLU A   1     -10.007   7.916  70.615  1.00  0.00    -0.186 N  
ATOM     12  H   GLU A   1     -10.736   7.741  69.924  1.00  0.00     0.000 HD 
BRANCH  11  13
ATOM     13  CA  GLU A   1      -9.840   7.010  71.768  1.00  0.00    -0.162 C  
ATOM     14  OXT GLU A   1      -9.486   4.593  71.929  1.00  0.00    -0.135 OA 
ATOM     15  C   GLU A   1      -9.873   5.551  71.275  1.00  0.00    -0.175 C  
ATOM     16  O   GLU A   1     -10.538   5.404  70.101  1.00  0.00    -0.296 OA 
BRANCH  13  17
ATOM     17  CB  GLU A   1     -10.961   7.241  72.793  1.00  0.00    -0.366 C  
BRANCH  17  18
ATOM     18  CG  GLU A   1     -11.665   8.591  72.619  1.00  0.00    -0.301 C  
ATOM     19  OE2 GLU A   1     -13.552   7.397  71.675  1.00  0.00    -0.370 OA 
ATOM     20  OE1 GLU A   1     -13.666   9.644  71.893  1.00  0.00    -0.358 OA 
ATOM     21  CD  GLU A   1     -13.039   8.451  72.015  1.00  0.00    -0.352 C  
ENDBRANCH  17  18
ENDBRANCH  13  17
ENDBRANCH  11  13
ENDBRANCH   4   9
ENDBRANCH   2   3
BRANCH   2  22
HETATM   22  C   UNK A   0     -11.564  14.018  67.297  1.00  0.00    -0.369 C  
BRANCH  22  23
HETATM   23  C   UNK A   0     -10.828  15.292  67.663  1.00  0.00    -0.295 A  
HETATM   24  N   UNK A   0      -6.765  15.834  66.682  1.00  0.00    -0.121 NA 
HETATM   25  C   UNK A   0      -9.500  17.618  68.292  1.00  0.00    -0.295 A  
HETATM   26  C   UNK A   0     -11.457  16.380  68.240  1.00  0.00    -0.143 A  
HETATM   27  N   UNK A   0      -8.868  18.730  68.656  1.00  0.00    -0.339 NA 
HETATM   28  C   UNK A   0      -7.513  16.764  67.420  1.00  0.00    -0.161 A  
HETATM   29  C   UNK A   0      -8.864  16.541  67.666  1.00  0.00    -0.192 A  
HETATM   30  N   UNK A   0     -10.810  17.533  68.555  1.00  0.00    -0.263 NA 
HETATM   31  C   UNK A   0      -7.566  18.805  68.418  1.00  0.00    -0.301 A  
HETATM   32  H1  UNK A   0      -7.264  14.986  66.410  1.00  0.00     0.000 HD 
HETATM   33  H1  UNK A   0      -5.898  19.990  68.661  1.00  0.00     0.000 HD 
HETATM   34  N   UNK A   0      -6.899  19.933  68.844  1.00  0.00    -0.332 NA 
HETATM   35  N   UNK A   0      -6.857  17.877  67.777  1.00  0.00    -0.188 NA 
HETATM   36  N   UNK A   0      -9.513  15.374  67.352  1.00  0.00    -0.205 NA 
HETATM   37  H2  UNK A   0      -5.913  15.591  67.187  1.00  0.00     0.000 HD 
HETATM   38  H2  UNK A   0      -7.392  20.685  69.326  1.00  0.00     0.000 HD 
ENDBRANCH  22  23
ENDBRANCH   2  22
TORSDOF 7
ENDMDL
MODEL      133
REMARK 921   NORMALIZED FREE ENERGY PREDICTED BY IDOCK:   -5.36 KCAL/MOL
REMARK 922        TOTAL FREE ENERGY PREDICTED BY IDOCK:   -9.30 KCAL/MOL
REMARK 923 INTER-LIGAND FREE ENERGY PREDICTED BY IDOCK:   -7.77 KCAL/MOL
REMARK 924 INTRA-LIGAND FREE ENERGY PREDICTED BY IDOCK:   -1.53 KCAL/MOL
REMARK 927      BINDING AFFINITY PREDICTED BY RF-SCORE:    0.00 PKD
ROOT
HETATM    1  C   UNK A   0      -5.691   8.347  62.800  1.00  0.00    -0.074 C  
HETATM    2  N   UNK A   0      -7.082   8.390  63.240  1.00  0.00    -0.089 NA 
ENDROOT
BRANCH   2   3
HETATM    3  C   UNK A   0      -7.518   9.448  64.028  1.00  0.00    -0.113 A  
HETATM    4  C   UNK A   0      -8.455  11.352  65.905  1.00  0.00    -0.002 A  
HETATM    5  C   UNK A   0      -8.836   9.935  63.987  1.00  0.00    -0.253 A  
HETATM    6  C   UNK A   0      -6.655  10.038  64.966  1.00  0.00    -0.124 A  
HETATM    7  C   UNK A   0      -7.115  10.965  65.905  1.00  0.00    -0.029 A  
HETATM    8  C   UNK A   0      -9.303  10.887  64.903  1.00  0.00    -0.258 A  
BRANCH   4   9
HETATM    9  C   UNK A   0      -8.989  12.233  66.972  1.00  0.00    -0.204 C  
HETATM   10  O   UNK A   0      -8.262  13.014  67.567  1.00  0.00    -0.159 OA 
ATOM     11  N   GLU A   1     -10.357  12.134  67.196  1.00  0.00    -0.213 N  
ATOM     12  H   GLU A   1     -10.907  11.417  66.723  1.00  0.00     0.000 HD 
BRANCH  11  13
ATOM     13  CA  GLU A   1     -11.007  13.078  68.127  1.00  0.00    -0.244 C  
ATOM     14  OXT GLU A   1     -12.284  12.745  70.188  1.00  0.00    -0.312 OA 
ATOM     15  C   GLU A   1     -11.858  12.286  69.138  1.00  0.00    -0.301 C  
ATOM     16  O   GLU A   1     -12.243  11.072  68.670  1.00  0.00    -0.571 OA 
BRANCH  13  17
ATOM     17  CB  GLU A   1     -11.895  14.062  67.351  1.00  0.00    -0.445 C  
BRANCH  17  18
ATOM     18  CG  GLU A   1     -12.459  13.470  66.056  1.00  0.00    -0.456 C  
ATOM     19  OE2 GLU A   1     -11.090  15.049  64.828  1.00  0.00    -0.387 OA 
ATOM     20  OE1 GLU A   1     -12.373  13.581  63.686  1.00  0.00    -0.687 OA 
ATOM     21  CD  GLU A   1     -11.893  14.130  64.825  1.00  0.00    -0.417 C  
ENDBRANCH  17  18
ENDBRANCH  13  17
ENDBRANCH  11  13
ENDBRANCH   4   9
ENDBRANCH   2   3
BRANCH   2  22
HETATM   22  C   UNK A   0      -7.850   7.132  63.208  1.00  0.00    -0.114 C  
BRANCH  22  23
HETATM   23  C   UNK A   0      -7.942   6.424  64.546  1.00  0.00    -0.117 A  
HETATM   24  N   UNK A   0     -11.428   6.640  66.906  1.00  0.00    -0.767 NA 
HETATM   25  C   UNK A   0      -8.124   5.110  66.956  1.00  0.00    -0.104 A  
HETATM   26  C   UNK A   0      -6.944   5.593  65.023  1.00  0.00    -0.059 A  
HETATM   27  N   UNK A   0      -8.165   4.510  68.142  1.00  0.00    -0.090 NA 
HETATM   28  C   UNK A   0     -10.256   5.983  67.314  1.00  0.00    -0.195 A  
HETATM   29  C   UNK A   0      -9.158   5.910  66.462  1.00  0.00    -0.143 A  
HETATM   30  N   UNK A   0      -7.024   4.939  66.211  1.00  0.00    -0.065 NA 
HETATM   31  C   UNK A   0      -9.244   4.697  68.891  1.00  0.00    -0.129 A  
HETATM   32  H1  UNK A   0     -11.380   7.095  65.994  1.00  0.00     0.000 HD 
HETATM   33  H1  UNK A   0     -10.094   4.266  70.718  1.00  0.00     0.000 HD 
HETATM   34  N   UNK A   0      -9.265   4.121  70.142  1.00  0.00    -0.124 NA 
HETATM   35  N   UNK A   0     -10.319   5.385  68.512  1.00  0.00    -0.171 NA 
HETATM   36  N   UNK A   0      -9.078   6.576  65.265  1.00  0.00    -0.350 NA 
HETATM   37  H2  UNK A   0     -11.718   7.312  67.616  1.00  0.00     0.000 HD 
HETATM   38  H2  UNK A   0      -8.477   3.569  70.481  1.00  0.00     0.000 HD 
ENDBRANCH  22  23
ENDBRANCH   2  22
TORSDOF 7
ENDMDL
MODEL      134
REMARK 921   NORMALIZED FREE ENERGY PREDICTED BY IDOCK:   -5.35 KCAL/MOL
REMARK 922        TOTAL FREE ENERGY PREDICTED BY IDOCK:   -9.29 KCAL/MOL
REMARK 923 INTER-LIGAND FREE ENERGY PREDICTED BY IDOCK:   -8.49 KCAL/MOL
REMARK 924 INTRA-LIGAND FREE ENERGY PREDICTED BY IDOCK:   -0.80 KCAL/MOL
REMARK 927      BINDING AFFINITY PREDICTED BY RF-SCORE:    0.00 PKD
ROOT
HETATM    1  C   UNK A   0     -12.609  13.478  66.593  1.00  0.00    -0.058 C  
HETATM    2  N   UNK A   0     -11.459  12.686  66.168  1.00  0.00    -0.343 NA 
ENDROOT
BRANCH   2   3
HETATM    3  C   UNK A   0     -11.049  11.607  66.942  1.00  0.00    -0.308 A  
HETATM    4  C   UNK A   0     -10.528   9.239  68.407  1.00  0.00    -0.246 A  
HETATM    5  C   UNK A   0     -11.286  11.530  68.326  1.00  0.00    -0.352 A  
HETATM    6  C   UNK A   0     -10.431  10.497  66.344  1.00  0.00    -0.258 A  
HETATM    7  C   UNK A   0     -10.186   9.320  67.058  1.00  0.00    -0.331 A  
HETATM    8  C   UNK A   0     -11.018  10.367  69.060  1.00  0.00    -0.282 A  
BRANCH   4   9
HETATM    9  C   UNK A   0     -10.396   7.960  69.146  1.00  0.00    -0.219 C  
HETATM   10  O   UNK A   0     -11.234   7.617  69.967  1.00  0.00    -0.231 OA 
ATOM     11  N   GLU A   1      -9.297   7.183  68.800  1.00  0.00    -0.136 N  
ATOM     12  H   GLU A   1      -8.590   7.546  68.161  1.00  0.00     0.000 HD 
BRANCH  11  13
ATOM     13  CA  GLU A   1      -9.164   5.826  69.366  1.00  0.00    -0.125 C  
ATOM     14  OXT GLU A   1      -8.082   4.984  71.393  1.00  0.00    -0.107 OA 
ATOM     15  C   GLU A   1      -8.184   5.867  70.554  1.00  0.00    -0.119 C  
ATOM     16  O   GLU A   1      -7.313   6.906  70.486  1.00  0.00    -0.074 OA 
BRANCH  13  17
ATOM     17  CB  GLU A   1      -8.650   4.852  68.296  1.00  0.00    -0.105 C  
BRANCH  17  18
ATOM     18  CG  GLU A   1      -9.764   4.297  67.403  1.00  0.00    -0.210 C  
ATOM     19  OE2 GLU A   1      -9.280   6.075  65.827  1.00  0.00    -0.120 OA 
ATOM     20  OE1 GLU A   1     -10.895   4.574  65.334  1.00  0.00    -0.271 OA 
ATOM     21  CD  GLU A   1      -9.931   5.088  66.130  1.00  0.00    -0.218 C  
ENDBRANCH  17  18
ENDBRANCH  13  17
ENDBRANCH  11  13
ENDBRANCH   4   9
ENDBRANCH   2   3
BRANCH   2  22
HETATM   22  C   UNK A   0     -10.527  13.294  65.202  1.00  0.00    -0.333 C  
BRANCH  22  23
HETATM   23  C   UNK A   0     -10.289  14.777  65.414  1.00  0.00    -0.386 A  
HETATM   24  N   UNK A   0      -6.644  16.212  66.970  1.00  0.00    -0.267 NA 
HETATM   25  C   UNK A   0      -9.842  17.468  65.764  1.00  0.00     0.024 A  
HETATM   26  C   UNK A   0     -11.197  15.744  65.022  1.00  0.00    -0.308 A  
HETATM   27  N   UNK A   0      -9.673  18.770  65.974  1.00  0.00    -0.498 NA 
HETATM   28  C   UNK A   0      -7.741  17.039  66.678  1.00  0.00    -0.267 A  
HETATM   29  C   UNK A   0      -8.897  16.502  66.121  1.00  0.00    -0.306 A  
HETATM   30  N   UNK A   0     -10.986  17.075  65.190  1.00  0.00    -0.504 NA 
HETATM   31  C   UNK A   0      -8.550  19.159  66.564  1.00  0.00    -0.322 A  
HETATM   32  H1  UNK A   0      -6.790  15.216  66.803  1.00  0.00     0.000 HD 
HETATM   33  H1  UNK A   0      -7.534  20.800  67.286  1.00  0.00     0.000 HD 
HETATM   34  N   UNK A   0      -8.397  20.502  66.832  1.00  0.00    -0.527 NA 
HETATM   35  N   UNK A   0      -7.549  18.347  66.898  1.00  0.00    -0.212 NA 
HETATM   36  N   UNK A   0      -9.109  15.156  65.957  1.00  0.00    -0.472 NA 
HETATM   37  H2  UNK A   0      -6.337  16.364  67.930  1.00  0.00     0.000 HD 
HETATM   38  H2  UNK A   0      -9.124  21.174  66.585  1.00  0.00     0.000 HD 
ENDBRANCH  22  23
ENDBRANCH   2  22
TORSDOF 7
ENDMDL
MODEL      135
REMARK 921   NORMALIZED FREE ENERGY PREDICTED BY IDOCK:   -5.35 KCAL/MOL
REMARK 922        TOTAL FREE ENERGY PREDICTED BY IDOCK:   -9.28 KCAL/MOL
REMARK 923 INTER-LIGAND FREE ENERGY PREDICTED BY IDOCK:   -8.29 KCAL/MOL
REMARK 924 INTRA-LIGAND FREE ENERGY PREDICTED BY IDOCK:   -1.00 KCAL/MOL
REMARK 927      BINDING AFFINITY PREDICTED BY RF-SCORE:    0.00 PKD
ROOT
HETATM    1  C   UNK A   0     -12.260  12.151  64.554  1.00  0.00    -0.319 C  
HETATM    2  N   UNK A   0     -10.852  12.198  64.937  1.00  0.00    -0.297 NA 
ENDROOT
BRANCH   2   3
HETATM    3  C   UNK A   0     -10.379  11.325  65.910  1.00  0.00    -0.253 A  
HETATM    4  C   UNK A   0      -9.379   9.847  68.110  1.00  0.00    -0.138 A  
HETATM    5  C   UNK A   0      -9.038  10.903  65.965  1.00  0.00    -0.208 A  
HETATM    6  C   UNK A   0     -11.225  10.877  66.936  1.00  0.00    -0.162 A  
HETATM    7  C   UNK A   0     -10.736  10.162  68.033  1.00  0.00    -0.305 A  
HETATM    8  C   UNK A   0      -8.540  10.159  67.044  1.00  0.00    -0.129 A  
BRANCH   4   9
HETATM    9  C   UNK A   0      -8.820   9.204  69.324  1.00  0.00    -0.144 C  
HETATM   10  O   UNK A   0      -8.488   9.869  70.294  1.00  0.00    -0.178 OA 
ATOM     11  N   GLU A   1      -8.753   7.816  69.285  1.00  0.00    -0.138 N  
ATOM     12  H   GLU A   1      -8.975   7.313  68.426  1.00  0.00     0.000 HD 
BRANCH  11  13
ATOM     13  CA  GLU A   1      -8.357   7.078  70.500  1.00  0.00    -0.132 C  
ATOM     14  OXT GLU A   1      -6.214   6.159  71.246  1.00  0.00    -0.040 OA 
ATOM     15  C   GLU A   1      -6.918   6.555  70.328  1.00  0.00    -0.066 C  
ATOM     16  O   GLU A   1      -6.559   6.410  69.027  1.00  0.00    -0.044 OA 
BRANCH  13  17
ATOM     17  CB  GLU A   1      -9.315   5.903  70.744  1.00  0.00    -0.180 C  
BRANCH  17  18
ATOM     18  CG  GLU A   1     -10.631   6.328  71.402  1.00  0.00    -0.284 C  
ATOM     19  OE2 GLU A   1     -11.587   6.527  69.183  1.00  0.00    -0.276 OA 
ATOM     20  OE1 GLU A   1     -12.885   6.950  70.984  1.00  0.00    -0.333 OA 
ATOM     21  CD  GLU A   1     -11.718   6.605  70.394  1.00  0.00    -0.386 C  
ENDBRANCH  17  18
ENDBRANCH  13  17
ENDBRANCH  11  13
ENDBRANCH   4   9
ENDBRANCH   2   3
BRANCH   2  22
HETATM   22  C   UNK A   0     -10.094  13.421  64.616  1.00  0.00    -0.229 C  
BRANCH  22  23
HETATM   23  C   UNK A   0     -10.269  14.544  65.620  1.00  0.00    -0.357 A  
HETATM   24  N   UNK A   0      -7.631  17.830  65.716  1.00  0.00    -0.547 NA 
HETATM   25  C   UNK A   0     -10.607  16.600  67.416  1.00  0.00    -0.295 A  
HETATM   26  C   UNK A   0     -11.346  14.613  66.486  1.00  0.00    -0.353 A  
HETATM   27  N   UNK A   0     -10.761  17.554  68.330  1.00  0.00    -0.328 NA 
HETATM   28  C   UNK A   0      -8.677  17.650  66.634  1.00  0.00    -0.264 A  
HETATM   29  C   UNK A   0      -9.540  16.565  66.513  1.00  0.00    -0.271 A  
HETATM   30  N   UNK A   0     -11.522  15.623  67.377  1.00  0.00    -0.169 NA 
HETATM   31  C   UNK A   0      -9.842  18.509  68.386  1.00  0.00    -0.372 A  
HETATM   32  H1  UNK A   0      -7.526  17.090  65.021  1.00  0.00     0.000 HD 
HETATM   33  H1  UNK A   0      -9.264  20.200  69.411  1.00  0.00     0.000 HD 
HETATM   34  N   UNK A   0      -9.971  19.466  69.368  1.00  0.00    -0.487 NA 
HETATM   35  N   UNK A   0      -8.814  18.622  67.547  1.00  0.00    -0.269 NA 
HETATM   36  N   UNK A   0      -9.356  15.543  65.616  1.00  0.00    -0.335 NA 
HETATM   37  H2  UNK A   0      -6.751  17.971  66.211  1.00  0.00     0.000 HD 
HETATM   38  H2  UNK A   0     -10.747  19.441  70.030  1.00  0.00     0.000 HD 
ENDBRANCH  22  23
ENDBRANCH   2  22
TORSDOF 7
ENDMDL
MODEL      136
REMARK 921   NORMALIZED FREE ENERGY PREDICTED BY IDOCK:   -5.30 KCAL/MOL
REMARK 922        TOTAL FREE ENERGY PREDICTED BY IDOCK:   -9.21 KCAL/MOL
REMARK 923 INTER-LIGAND FREE ENERGY PREDICTED BY IDOCK:   -8.76 KCAL/MOL
REMARK 924 INTRA-LIGAND FREE ENERGY PREDICTED BY IDOCK:   -0.46 KCAL/MOL
REMARK 927      BINDING AFFINITY PREDICTED BY RF-SCORE:    0.00 PKD
ROOT
HETATM    1  C   UNK A   0     -10.842  14.795  68.794  1.00  0.00    -0.255 C  
HETATM    2  N   UNK A   0     -11.665  13.692  68.306  1.00  0.00    -0.343 NA 
ENDROOT
BRANCH   2   3
HETATM    3  C   UNK A   0     -11.600  12.458  68.940  1.00  0.00    -0.316 A  
HETATM    4  C   UNK A   0     -11.342  10.129  70.533  1.00  0.00    -0.416 A  
HETATM    5  C   UNK A   0     -10.501  11.591  68.805  1.00  0.00    -0.227 A  
HETATM    6  C   UNK A   0     -12.620  12.053  69.815  1.00  0.00     0.193 A  
HETATM    7  C   UNK A   0     -12.492  10.914  70.616  1.00  0.00    -0.460 A  
HETATM    8  C   UNK A   0     -10.374  10.429  69.579  1.00  0.00    -0.264 A  
BRANCH   4   9
HETATM    9  C   UNK A   0     -11.132   8.994  71.464  1.00  0.00    -0.349 C  
HETATM   10  O   UNK A   0     -11.852   8.836  72.438  1.00  0.00    -0.357 OA 
ATOM     11  N   GLU A   1     -10.107   8.122  71.118  1.00  0.00    -0.181 N  
ATOM     12  H   GLU A   1      -9.490   8.337  70.335  1.00  0.00     0.000 HD 
BRANCH  11  13
ATOM     13  CA  GLU A   1      -9.921   6.881  71.894  1.00  0.00    -0.171 C  
ATOM     14  OXT GLU A   1      -8.053   6.037  73.233  1.00  0.00    -0.114 OA 
ATOM     15  C   GLU A   1      -8.453   6.785  72.352  1.00  0.00    -0.119 C  
ATOM     16  O   GLU A   1      -7.605   7.490  71.562  1.00  0.00    -0.081 OA 
BRANCH  13  17
ATOM     17  CB  GLU A   1     -10.282   5.658  71.037  1.00  0.00    -0.281 C  
BRANCH  17  18
ATOM     18  CG  GLU A   1     -10.224   5.942  69.532  1.00  0.00    -0.288 C  
ATOM     19  OE2 GLU A   1      -8.107   4.761  69.470  1.00  0.00    -0.069 OA 
ATOM     20  OE1 GLU A   1      -8.960   5.596  67.552  1.00  0.00    -0.110 OA 
ATOM     21  CD  GLU A   1      -8.988   5.369  68.885  1.00  0.00    -0.117 C  
ENDBRANCH  17  18
ENDBRANCH  13  17
ENDBRANCH  11  13
ENDBRANCH   4   9
ENDBRANCH   2   3
BRANCH   2  22
HETATM   22  C   UNK A   0     -12.194  13.787  66.933  1.00  0.00    -0.366 C  
BRANCH  22  23
HETATM   23  C   UNK A   0     -11.336  13.102  65.887  1.00  0.00    -0.311 A  
HETATM   24  N   UNK A   0     -10.391   9.004  66.168  1.00  0.00    -0.277 NA 
HETATM   25  C   UNK A   0      -9.811  11.849  63.970  1.00  0.00    -0.233 A  
HETATM   26  C   UNK A   0     -10.901  13.741  64.740  1.00  0.00    -0.401 A  
HETATM   27  N   UNK A   0      -9.028  11.280  63.058  1.00  0.00    -0.483 NA 
HETATM   28  C   UNK A   0      -9.891   9.846  65.162  1.00  0.00    -0.278 A  
HETATM   29  C   UNK A   0     -10.284  11.179  65.103  1.00  0.00    -0.289 A  
HETATM   30  N   UNK A   0     -10.148  13.131  63.787  1.00  0.00    -0.710 NA 
HETATM   31  C   UNK A   0      -8.673  10.017  63.251  1.00  0.00    -0.221 A  
HETATM   32  H1  UNK A   0     -10.991   9.455  66.859  1.00  0.00     0.000 HD 
HETATM   33  H1  UNK A   0      -7.545   8.472  62.485  1.00  0.00     0.000 HD 
HETATM   34  N   UNK A   0      -7.817   9.444  62.337  1.00  0.00    -0.113 NA 
HETATM   35  N   UNK A   0      -9.103   9.253  64.254  1.00  0.00    -0.429 NA 
HETATM   36  N   UNK A   0     -11.041  11.794  66.069  1.00  0.00    -0.319 NA 
HETATM   37  H2  UNK A   0      -9.622   8.521  66.634  1.00  0.00     0.000 HD 
HETATM   38  H2  UNK A   0      -7.467   9.974  61.538  1.00  0.00     0.000 HD 
ENDBRANCH  22  23
ENDBRANCH   2  22
TORSDOF 7
ENDMDL
MODEL      137
REMARK 921   NORMALIZED FREE ENERGY PREDICTED BY IDOCK:   -5.28 KCAL/MOL
REMARK 922        TOTAL FREE ENERGY PREDICTED BY IDOCK:   -9.19 KCAL/MOL
REMARK 923 INTER-LIGAND FREE ENERGY PREDICTED BY IDOCK:   -9.34 KCAL/MOL
REMARK 924 INTRA-LIGAND FREE ENERGY PREDICTED BY IDOCK:    0.15 KCAL/MOL
REMARK 927      BINDING AFFINITY PREDICTED BY RF-SCORE:    0.00 PKD
ROOT
HETATM    1  C   UNK A   0      -7.881   8.686  66.012  1.00  0.00    -0.102 C  
HETATM    2  N   UNK A   0      -9.269   9.088  66.223  1.00  0.00    -0.189 NA 
ENDROOT
BRANCH   2   3
HETATM    3  C   UNK A   0      -9.563  10.424  66.470  1.00  0.00    -0.179 A  
HETATM    4  C   UNK A   0     -10.227  13.041  67.327  1.00  0.00    -0.239 A  
HETATM    5  C   UNK A   0     -10.826  10.985  66.211  1.00  0.00    -0.234 A  
HETATM    6  C   UNK A   0      -8.608  11.263  67.067  1.00  0.00    -0.148 A  
HETATM    7  C   UNK A   0      -8.934  12.549  67.507  1.00  0.00    -0.185 A  
HETATM    8  C   UNK A   0     -11.157  12.284  66.619  1.00  0.00    -0.344 A  
BRANCH   4   9
HETATM    9  C   UNK A   0     -10.626  14.349  67.901  1.00  0.00    -0.240 C  
HETATM   10  O   UNK A   0     -11.312  15.134  67.264  1.00  0.00    -0.338 OA 
ATOM     11  N   GLU A   1     -10.208  14.579  69.207  1.00  0.00    -0.396 N  
ATOM     12  H   GLU A   1      -9.579  13.923  69.669  1.00  0.00     0.000 HD 
BRANCH  11  13
ATOM     13  CA  GLU A   1     -10.685  15.781  69.917  1.00  0.00    -0.328 C  
ATOM     14  OXT GLU A   1     -12.422  16.117  71.608  1.00  0.00    -0.425 OA 
ATOM     15  C   GLU A   1     -11.957  15.429  70.711  1.00  0.00    -0.359 C  
ATOM     16  O   GLU A   1     -12.620  14.360  70.201  1.00  0.00    -0.345 OA 
BRANCH  13  17
ATOM     17  CB  GLU A   1     -10.987  16.905  68.915  1.00  0.00    -0.207 C  
BRANCH  17  18
ATOM     18  CG  GLU A   1      -9.944  18.027  68.939  1.00  0.00    -0.347 C  
ATOM     19  OE2 GLU A   1     -11.232  19.156  67.223  1.00  0.00    -0.299 OA 
ATOM     20  OE1 GLU A   1      -9.358  20.136  68.018  1.00  0.00    -0.316 OA 
ATOM     21  CD  GLU A   1     -10.267  19.136  67.969  1.00  0.00    -0.401 C  
ENDBRANCH  17  18
ENDBRANCH  13  17
ENDBRANCH  11  13
ENDBRANCH   4   9
ENDBRANCH   2   3
BRANCH   2  22
HETATM   22  C   UNK A   0     -10.237   8.041  66.595  1.00  0.00    -0.245 C  
BRANCH  22  23
HETATM   23  C   UNK A   0     -10.206   7.655  68.061  1.00  0.00    -0.202 A  
HETATM   24  N   UNK A   0     -13.005   9.217  70.799  1.00  0.00    -0.500 NA 
HETATM   25  C   UNK A   0     -10.174   6.928  70.714  1.00  0.00    -0.195 A  
HETATM   26  C   UNK A   0      -9.337   6.705  68.567  1.00  0.00    -0.125 A  
HETATM   27  N   UNK A   0     -10.102   6.601  72.001  1.00  0.00    -0.184 NA 
HETATM   28  C   UNK A   0     -11.946   8.373  71.171  1.00  0.00    -0.272 A  
HETATM   29  C   UNK A   0     -11.088   7.856  70.206  1.00  0.00    -0.229 A  
HETATM   30  N   UNK A   0      -9.313   6.338  69.875  1.00  0.00    -0.150 NA 
HETATM   31  C   UNK A   0     -10.938   7.203  72.837  1.00  0.00    -0.320 A  
HETATM   32  H1  UNK A   0     -13.046   9.457  69.808  1.00  0.00     0.000 HD 
HETATM   33  H1  UNK A   0     -11.471   7.369  74.821  1.00  0.00     0.000 HD 
HETATM   34  N   UNK A   0     -10.828   6.907  74.178  1.00  0.00    -0.410 NA 
HETATM   35  N   UNK A   0     -11.892   8.057  72.472  1.00  0.00    -0.485 NA 
HETATM   36  N   UNK A   0     -11.111   8.231  68.886  1.00  0.00    -0.403 NA 
HETATM   37  H2  UNK A   0     -12.991  10.065  71.364  1.00  0.00     0.000 HD 
HETATM   38  H2  UNK A   0     -10.127   6.247  74.517  1.00  0.00     0.000 HD 
ENDBRANCH  22  23
ENDBRANCH   2  22
TORSDOF 7
ENDMDL
MODEL      138
REMARK 921   NORMALIZED FREE ENERGY PREDICTED BY IDOCK:   -5.28 KCAL/MOL
REMARK 922        TOTAL FREE ENERGY PREDICTED BY IDOCK:   -9.19 KCAL/MOL
REMARK 923 INTER-LIGAND FREE ENERGY PREDICTED BY IDOCK:   -8.68 KCAL/MOL
REMARK 924 INTRA-LIGAND FREE ENERGY PREDICTED BY IDOCK:   -0.51 KCAL/MOL
REMARK 927      BINDING AFFINITY PREDICTED BY RF-SCORE:    0.00 PKD
ROOT
HETATM    1  C   UNK A   0     -14.409  15.092  71.365  1.00  0.00    -0.497 C  
HETATM    2  N   UNK A   0     -13.034  14.604  71.325  1.00  0.00    -0.320 NA 
ENDROOT
BRANCH   2   3
HETATM    3  C   UNK A   0     -12.176  15.058  70.331  1.00  0.00    -0.341 A  
HETATM    4  C   UNK A   0     -10.291  15.637  68.297  1.00  0.00    -0.244 A  
HETATM    5  C   UNK A   0     -10.970  15.724  70.613  1.00  0.00    -0.341 A  
HETATM    6  C   UNK A   0     -12.455  14.802  68.979  1.00  0.00     0.045 A  
HETATM    7  C   UNK A   0     -11.523  15.069  67.973  1.00  0.00    -0.357 A  
HETATM    8  C   UNK A   0     -10.039  16.026  69.610  1.00  0.00    -0.244 A  
BRANCH   4   9
HETATM    9  C   UNK A   0      -9.241  15.808  67.263  1.00  0.00    -0.207 C  
HETATM   10  O   UNK A   0      -9.092  14.985  66.373  1.00  0.00    -0.276 OA 
ATOM     11  N   GLU A   1      -8.494  16.976  67.362  1.00  0.00    -0.194 N  
ATOM     12  H   GLU A   1      -8.609  17.595  68.164  1.00  0.00     0.000 HD 
BRANCH  11  13
ATOM     13  CA  GLU A   1      -7.533  17.311  66.293  1.00  0.00    -0.319 C  
ATOM     14  OXT GLU A   1      -5.134  16.891  66.042  1.00  0.00    -0.305 OA 
ATOM     15  C   GLU A   1      -6.106  16.991  66.778  1.00  0.00    -0.204 C  
ATOM     16  O   GLU A   1      -5.991  17.001  68.130  1.00  0.00    -0.120 OA 
BRANCH  13  17
ATOM     17  CB  GLU A   1      -7.640  18.799  65.929  1.00  0.00    -0.191 C  
BRANCH  17  18
ATOM     18  CG  GLU A   1      -8.222  19.654  67.059  1.00  0.00    -0.319 C  
ATOM     19  OE2 GLU A   1     -10.148  20.072  65.648  1.00  0.00    -0.404 OA 
ATOM     20  OE1 GLU A   1     -10.090  20.960  67.725  1.00  0.00    -0.221 OA 
ATOM     21  CD  GLU A   1      -9.569  20.233  66.711  1.00  0.00    -0.411 C  
ENDBRANCH  17  18
ENDBRANCH  13  17
ENDBRANCH  11  13
ENDBRANCH   4   9
ENDBRANCH   2   3
BRANCH   2  22
HETATM   22  C   UNK A   0     -12.729  13.354  72.045  1.00  0.00    -0.134 C  
BRANCH  22  23
HETATM   23  C   UNK A   0     -12.354  12.192  71.145  1.00  0.00    -0.160 A  
HETATM   24  N   UNK A   0      -9.026  12.402  68.566  1.00  0.00    -0.355 NA 
HETATM   25  C   UNK A   0     -11.650  10.072  69.540  1.00  0.00    -0.059 A  
HETATM   26  C   UNK A   0     -13.005  10.973  71.186  1.00  0.00    -0.324 A  
HETATM   27  N   UNK A   0     -11.364   9.053  68.735  1.00  0.00    -0.240 NA 
HETATM   28  C   UNK A   0      -9.902  11.306  68.612  1.00  0.00    -0.202 A  
HETATM   29  C   UNK A   0     -10.953  11.284  69.523  1.00  0.00    -0.191 A  
HETATM   30  N   UNK A   0     -12.666   9.920  70.398  1.00  0.00    -0.528 NA 
HETATM   31  C   UNK A   0     -10.373   9.211  67.868  1.00  0.00    -0.232 A  
HETATM   32  H1  UNK A   0      -9.259  13.175  69.190  1.00  0.00     0.000 HD 
HETATM   33  H1  UNK A   0      -9.349   8.299  66.329  1.00  0.00     0.000 HD 
HETATM   34  N   UNK A   0     -10.111   8.177  66.996  1.00  0.00    -0.251 NA 
HETATM   35  N   UNK A   0      -9.596  10.290  67.792  1.00  0.00    -0.151 NA 
HETATM   36  N   UNK A   0     -11.297  12.352  70.314  1.00  0.00    -0.384 NA 
HETATM   37  H2  UNK A   0      -8.939  12.740  67.608  1.00  0.00     0.000 HD 
HETATM   38  H2  UNK A   0     -10.662   7.318  67.017  1.00  0.00     0.000 HD 
ENDBRANCH  22  23
ENDBRANCH   2  22
TORSDOF 7
ENDMDL
MODEL      139
REMARK 921   NORMALIZED FREE ENERGY PREDICTED BY IDOCK:   -5.27 KCAL/MOL
REMARK 922        TOTAL FREE ENERGY PREDICTED BY IDOCK:   -9.18 KCAL/MOL
REMARK 923 INTER-LIGAND FREE ENERGY PREDICTED BY IDOCK:   -8.07 KCAL/MOL
REMARK 924 INTRA-LIGAND FREE ENERGY PREDICTED BY IDOCK:   -1.11 KCAL/MOL
REMARK 927      BINDING AFFINITY PREDICTED BY RF-SCORE:    0.00 PKD
ROOT
HETATM    1  C   UNK A   0      -8.155   7.452  66.870  1.00  0.00    -0.120 C  
HETATM    2  N   UNK A   0      -9.525   7.802  66.506  1.00  0.00    -0.212 NA 
ENDROOT
BRANCH   2   3
HETATM    3  C   UNK A   0      -9.826   9.114  66.160  1.00  0.00    -0.293 A  
HETATM    4  C   UNK A   0     -10.072  11.853  65.481  1.00  0.00    -0.277 A  
HETATM    5  C   UNK A   0     -10.250  10.070  67.100  1.00  0.00    -0.284 A  
HETATM    6  C   UNK A   0      -9.647   9.560  64.841  1.00  0.00    -0.158 A  
HETATM    7  C   UNK A   0      -9.750  10.912  64.503  1.00  0.00    -0.334 A  
HETATM    8  C   UNK A   0     -10.388  11.425  66.767  1.00  0.00    -0.271 A  
BRANCH   4   9
HETATM    9  C   UNK A   0     -10.059  13.303  65.170  1.00  0.00    -0.231 C  
HETATM   10  O   UNK A   0     -10.585  13.735  64.155  1.00  0.00    -0.264 OA 
ATOM     11  N   GLU A   1      -9.460  14.112  66.128  1.00  0.00    -0.467 N  
ATOM     12  H   GLU A   1      -8.974  13.697  66.922  1.00  0.00     0.000 HD 
BRANCH  11  13
ATOM     13  CA  GLU A   1      -9.535  15.579  65.984  1.00  0.00    -0.352 C  
ATOM     14  OXT GLU A   1      -7.832  17.335  66.085  1.00  0.00    -0.360 OA 
ATOM     15  C   GLU A   1      -8.175  16.195  66.365  1.00  0.00    -0.301 C  
ATOM     16  O   GLU A   1      -7.452  15.406  67.200  1.00  0.00    -0.205 OA 
BRANCH  13  17
ATOM     17  CB  GLU A   1     -10.639  16.146  66.889  1.00  0.00    -0.283 C  
BRANCH  17  18
ATOM     18  CG  GLU A   1     -10.642  15.530  68.291  1.00  0.00    -0.255 C  
ATOM     19  OE2 GLU A   1     -12.438  14.074  67.562  1.00  0.00    -0.181 OA 
ATOM     20  OE1 GLU A   1     -11.645  13.875  69.668  1.00  0.00    -0.268 OA 
ATOM     21  CD  GLU A   1     -11.669  14.435  68.437  1.00  0.00    -0.332 C  
ENDBRANCH  17  18
ENDBRANCH  13  17
ENDBRANCH  11  13
ENDBRANCH   4   9
ENDBRANCH   2   3
BRANCH   2  22
HETATM   22  C   UNK A   0     -10.601   6.887  66.928  1.00  0.00    -0.302 C  
BRANCH  22  23
HETATM   23  C   UNK A   0     -10.642   6.618  68.420  1.00  0.00    -0.242 A  
HETATM   24  N   UNK A   0      -9.036   3.081  70.055  1.00  0.00    -0.110 NA 
HETATM   25  C   UNK A   0     -10.681   6.148  71.130  1.00  0.00    -0.256 A  
HETATM   26  C   UNK A   0     -11.107   7.546  69.334  1.00  0.00     0.004 A  
HETATM   27  N   UNK A   0     -10.761   5.921  72.437  1.00  0.00    -0.220 NA 
HETATM   28  C   UNK A   0      -9.702   4.054  70.818  1.00  0.00    -0.193 A  
HETATM   29  C   UNK A   0     -10.164   5.221  70.218  1.00  0.00    -0.275 A  
HETATM   30  N   UNK A   0     -11.131   7.323  70.674  1.00  0.00    -0.257 NA 
HETATM   31  C   UNK A   0     -10.338   4.746  72.887  1.00  0.00    -0.185 A  
HETATM   32  H1  UNK A   0      -8.983   3.271  69.054  1.00  0.00     0.000 HD 
HETATM   33  H1  UNK A   0     -10.146   3.585  74.578  1.00  0.00     0.000 HD 
HETATM   34  N   UNK A   0     -10.472   4.488  74.233  1.00  0.00    -0.252 NA 
HETATM   35  N   UNK A   0      -9.772   3.805  72.133  1.00  0.00    -0.152 NA 
HETATM   36  N   UNK A   0     -10.145   5.441  68.864  1.00  0.00    -0.183 NA 
HETATM   37  H2  UNK A   0      -9.454   2.165  70.216  1.00  0.00     0.000 HD 
HETATM   38  H2  UNK A   0     -10.882   5.178  74.864  1.00  0.00     0.000 HD 
ENDBRANCH  22  23
ENDBRANCH   2  22
TORSDOF 7
ENDMDL
MODEL      140
REMARK 921   NORMALIZED FREE ENERGY PREDICTED BY IDOCK:   -5.27 KCAL/MOL
REMARK 922        TOTAL FREE ENERGY PREDICTED BY IDOCK:   -9.17 KCAL/MOL
REMARK 923 INTER-LIGAND FREE ENERGY PREDICTED BY IDOCK:   -8.23 KCAL/MOL
REMARK 924 INTRA-LIGAND FREE ENERGY PREDICTED BY IDOCK:   -0.94 KCAL/MOL
REMARK 927      BINDING AFFINITY PREDICTED BY RF-SCORE:    0.00 PKD
ROOT
HETATM    1  C   UNK A   0     -10.978  10.202  67.989  1.00  0.00    -0.270 C  
HETATM    2  N   UNK A   0      -9.952  10.422  66.974  1.00  0.00    -0.198 NA 
ENDROOT
BRANCH   2   3
HETATM    3  C   UNK A   0      -9.457  11.705  66.770  1.00  0.00    -0.186 A  
HETATM    4  C   UNK A   0      -8.558  14.391  66.706  1.00  0.00    -0.139 A  
HETATM    5  C   UNK A   0     -10.202  12.715  66.136  1.00  0.00    -0.272 A  
HETATM    6  C   UNK A   0      -8.193  12.066  67.264  1.00  0.00    -0.173 A  
HETATM    7  C   UNK A   0      -7.751  13.392  67.250  1.00  0.00    -0.092 A  
HETATM    8  C   UNK A   0      -9.756  14.043  66.088  1.00  0.00    -0.300 A  
BRANCH   4   9
HETATM    9  C   UNK A   0      -8.163  15.817  66.798  1.00  0.00    -0.267 C  
HETATM   10  O   UNK A   0      -8.404  16.598  65.889  1.00  0.00    -0.430 OA 
ATOM     11  N   GLU A   1      -7.559  16.192  67.993  1.00  0.00    -0.130 N  
ATOM     12  H   GLU A   1      -7.318  15.488  68.690  1.00  0.00     0.000 HD 
BRANCH  11  13
ATOM     13  CA  GLU A   1      -7.272  17.617  68.241  1.00  0.00    -0.227 C  
ATOM     14  OXT GLU A   1      -5.571  18.746  69.591  1.00  0.00    -0.214 OA 
ATOM     15  C   GLU A   1      -6.216  17.734  69.356  1.00  0.00    -0.244 C  
ATOM     16  O   GLU A   1      -6.189  16.653  70.175  1.00  0.00    -0.165 OA 
BRANCH  13  17
ATOM     17  CB  GLU A   1      -8.555  18.354  68.656  1.00  0.00    -0.315 C  
BRANCH  17  18
ATOM     18  CG  GLU A   1      -8.870  19.560  67.767  1.00  0.00    -0.370 C  
ATOM     19  OE2 GLU A   1     -10.891  18.420  67.066  1.00  0.00    -0.345 OA 
ATOM     20  OE1 GLU A   1     -10.450  20.481  66.252  1.00  0.00    -0.185 OA 
ATOM     21  CD  GLU A   1     -10.164  19.399  67.011  1.00  0.00    -0.408 C  
ENDBRANCH  17  18
ENDBRANCH  13  17
ENDBRANCH  11  13
ENDBRANCH   4   9
ENDBRANCH   2   3
BRANCH   2  22
HETATM   22  C   UNK A   0      -9.791   9.397  65.928  1.00  0.00    -0.291 C  
BRANCH  22  23
HETATM   23  C   UNK A   0      -9.357   8.040  66.447  1.00  0.00    -0.200 A  
HETATM   24  N   UNK A   0     -11.177   4.488  65.091  1.00  0.00    -1.047 NA 
HETATM   25  C   UNK A   0      -8.544   5.575  67.359  1.00  0.00    -0.108 A  
HETATM   26  C   UNK A   0      -8.285   7.875  67.306  1.00  0.00    -0.122 A  
HETATM   27  N   UNK A   0      -8.168   4.400  67.857  1.00  0.00    -0.094 NA 
HETATM   28  C   UNK A   0     -10.191   4.520  66.089  1.00  0.00    -0.254 A  
HETATM   29  C   UNK A   0      -9.599   5.725  66.454  1.00  0.00    -0.153 A  
HETATM   30  N   UNK A   0      -7.875   6.663  67.762  1.00  0.00    -0.110 NA 
HETATM   31  C   UNK A   0      -8.845   3.325  67.476  1.00  0.00    -0.133 A  
HETATM   32  H1  UNK A   0     -11.453   5.397  64.719  1.00  0.00     0.000 HD 
HETATM   33  H1  UNK A   0      -9.014   1.288  67.741  1.00  0.00     0.000 HD 
HETATM   34  N   UNK A   0      -8.493   2.115  68.033  1.00  0.00    -0.065 NA 
HETATM   35  N   UNK A   0      -9.828   3.325  66.578  1.00  0.00    -0.386 NA 
HETATM   36  N   UNK A   0     -10.018   6.949  65.995  1.00  0.00    -0.336 NA 
HETATM   37  H2  UNK A   0     -11.997   3.983  65.425  1.00  0.00     0.000 HD 
HETATM   38  H2  UNK A   0      -7.737   2.049  68.715  1.00  0.00     0.000 HD 
ENDBRANCH  22  23
ENDBRANCH   2  22
TORSDOF 7
ENDMDL
MODEL      141
REMARK 921   NORMALIZED FREE ENERGY PREDICTED BY IDOCK:   -5.26 KCAL/MOL
REMARK 922        TOTAL FREE ENERGY PREDICTED BY IDOCK:   -9.16 KCAL/MOL
REMARK 923 INTER-LIGAND FREE ENERGY PREDICTED BY IDOCK:   -8.47 KCAL/MOL
REMARK 924 INTRA-LIGAND FREE ENERGY PREDICTED BY IDOCK:   -0.69 KCAL/MOL
REMARK 927      BINDING AFFINITY PREDICTED BY RF-SCORE:    0.00 PKD
ROOT
HETATM    1  C   UNK A   0      -6.588  10.497  68.832  1.00  0.00    -0.054 C  
HETATM    2  N   UNK A   0      -7.524  11.441  68.229  1.00  0.00    -0.094 NA 
ENDROOT
BRANCH   2   3
HETATM    3  C   UNK A   0      -7.276  12.805  68.326  1.00  0.00    -0.114 A  
HETATM    4  C   UNK A   0      -7.118  15.614  68.664  1.00  0.00    -0.127 A  
HETATM    5  C   UNK A   0      -7.444  13.687  67.244  1.00  0.00    -0.052 A  
HETATM    6  C   UNK A   0      -6.909  13.375  69.555  1.00  0.00     0.066 A  
HETATM    7  C   UNK A   0      -6.845  14.760  69.733  1.00  0.00    -0.173 A  
HETATM    8  C   UNK A   0      -7.353  15.077  67.400  1.00  0.00    -0.231 A  
BRANCH   4   9
HETATM    9  C   UNK A   0      -7.182  17.082  68.864  1.00  0.00    -0.239 C  
HETATM   10  O   UNK A   0      -6.410  17.649  69.622  1.00  0.00    -0.244 OA 
ATOM     11  N   GLU A   1      -8.134  17.746  68.100  1.00  0.00    -0.256 N  
ATOM     12  H   GLU A   1      -8.801  17.219  67.536  1.00  0.00     0.000 HD 
BRANCH  11  13
ATOM     13  CA  GLU A   1      -8.171  19.221  68.113  1.00  0.00    -0.318 C  
ATOM     14  OXT GLU A   1      -9.794  20.838  67.252  1.00  0.00    -0.474 OA 
ATOM     15  C   GLU A   1      -9.331  19.706  67.224  1.00  0.00    -0.332 C  
ATOM     16  O   GLU A   1      -9.684  18.804  66.274  1.00  0.00    -0.343 OA 
BRANCH  13  17
ATOM     17  CB  GLU A   1      -6.841  19.790  67.596  1.00  0.00    -0.276 C  
BRANCH  17  18
ATOM     18  CG  GLU A   1      -6.832  20.011  66.080  1.00  0.00    -0.275 C  
ATOM     19  OE2 GLU A   1      -5.775  17.842  65.848  1.00  0.00    -0.191 OA 
ATOM     20  OE1 GLU A   1      -6.254  19.039  63.992  1.00  0.00    -0.392 OA 
ATOM     21  CD  GLU A   1      -6.230  18.850  65.331  1.00  0.00    -0.278 C  
ENDBRANCH  17  18
ENDBRANCH  13  17
ENDBRANCH  11  13
ENDBRANCH   4   9
ENDBRANCH   2   3
BRANCH   2  22
HETATM   22  C   UNK A   0      -8.885  10.960  67.929  1.00  0.00    -0.134 C  
BRANCH  22  23
HETATM   23  C   UNK A   0      -9.970  11.588  68.782  1.00  0.00    -0.157 A  
HETATM   24  N   UNK A   0     -11.201  15.574  68.178  1.00  0.00    -0.330 NA 
HETATM   25  C   UNK A   0     -11.965  12.717  70.303  1.00  0.00    -0.284 A  
HETATM   26  C   UNK A   0     -10.685  10.875  69.728  1.00  0.00    -0.137 A  
HETATM   27  N   UNK A   0     -12.893  13.255  71.089  1.00  0.00    -0.315 NA 
HETATM   28  C   UNK A   0     -11.698  14.758  69.207  1.00  0.00    -0.316 A  
HETATM   29  C   UNK A   0     -11.281  13.435  69.317  1.00  0.00    -0.219 A  
HETATM   30  N   UNK A   0     -11.672  11.423  70.484  1.00  0.00    -0.470 NA 
HETATM   31  C   UNK A   0     -13.168  14.543  70.927  1.00  0.00    -0.316 A  
HETATM   32  H1  UNK A   0     -10.490  15.146  67.585  1.00  0.00     0.000 HD 
HETATM   33  H1  UNK A   0     -14.300  16.104  71.651  1.00  0.00     0.000 HD 
HETATM   34  N   UNK A   0     -14.089  15.114  71.776  1.00  0.00    -0.495 NA 
HETATM   35  N   UNK A   0     -12.632  15.320  69.987  1.00  0.00    -0.597 NA 
HETATM   36  N   UNK A   0     -10.280  12.886  68.556  1.00  0.00    -0.302 NA 
HETATM   37  H2  UNK A   0     -10.853  16.451  68.565  1.00  0.00     0.000 HD 
HETATM   38  H2  UNK A   0     -14.546  14.565  72.505  1.00  0.00     0.000 HD 
ENDBRANCH  22  23
ENDBRANCH   2  22
TORSDOF 7
ENDMDL
MODEL      142
REMARK 921   NORMALIZED FREE ENERGY PREDICTED BY IDOCK:   -5.22 KCAL/MOL
REMARK 922        TOTAL FREE ENERGY PREDICTED BY IDOCK:   -9.11 KCAL/MOL
REMARK 923 INTER-LIGAND FREE ENERGY PREDICTED BY IDOCK:   -8.11 KCAL/MOL
REMARK 924 INTRA-LIGAND FREE ENERGY PREDICTED BY IDOCK:   -1.00 KCAL/MOL
REMARK 927      BINDING AFFINITY PREDICTED BY RF-SCORE:    0.00 PKD
ROOT
HETATM    1  C   UNK A   0      -9.425  12.009  66.606  1.00  0.00    -0.217 C  
HETATM    2  N   UNK A   0     -10.194  12.039  67.846  1.00  0.00    -0.191 NA 
ENDROOT
BRANCH   2   3
HETATM    3  C   UNK A   0     -10.285  10.889  68.622  1.00  0.00    -0.189 A  
HETATM    4  C   UNK A   0     -10.745   8.440  69.969  1.00  0.00    -0.236 A  
HETATM    5  C   UNK A   0     -11.026  10.834  69.816  1.00  0.00    -0.314 A  
HETATM    6  C   UNK A   0      -9.684   9.694  68.194  1.00  0.00    -0.164 A  
HETATM    7  C   UNK A   0      -9.921   8.480  68.845  1.00  0.00    -0.197 A  
HETATM    8  C   UNK A   0     -11.246   9.628  70.495  1.00  0.00    -0.359 A  
BRANCH   4   9
HETATM    9  C   UNK A   0     -11.111   7.146  70.594  1.00  0.00    -0.267 C  
HETATM   10  O   UNK A   0     -12.030   6.471  70.155  1.00  0.00    -0.383 OA 
ATOM     11  N   GLU A   1     -10.312   6.753  71.661  1.00  0.00    -0.197 N  
ATOM     12  H   GLU A   1      -9.603   7.384  72.034  1.00  0.00     0.000 HD 
BRANCH  11  13
ATOM     13  CA  GLU A   1     -10.498   5.412  72.248  1.00  0.00    -0.219 C  
ATOM     14  OXT GLU A   1     -10.929   4.659  74.537  1.00  0.00    -0.295 OA 
ATOM     15  C   GLU A   1     -10.516   5.530  73.784  1.00  0.00    -0.272 C  
ATOM     16  O   GLU A   1      -9.866   6.630  74.238  1.00  0.00    -0.267 OA 
BRANCH  13  17
ATOM     17  CB  GLU A   1      -9.362   4.476  71.808  1.00  0.00    -0.194 C  
BRANCH  17  18
ATOM     18  CG  GLU A   1      -8.073   5.223  71.454  1.00  0.00    -0.115 C  
ATOM     19  OE2 GLU A   1      -7.197   4.580  73.621  1.00  0.00    -0.069 OA 
ATOM     20  OE1 GLU A   1      -5.895   5.783  72.218  1.00  0.00    -0.029 OA 
ATOM     21  CD  GLU A   1      -7.042   5.148  72.552  1.00  0.00    -0.086 C  
ENDBRANCH  17  18
ENDBRANCH  13  17
ENDBRANCH  11  13
ENDBRANCH   4   9
ENDBRANCH   2   3
BRANCH   2  22
HETATM   22  C   UNK A   0     -11.181  13.120  68.015  1.00  0.00    -0.277 C  
BRANCH  22  23
HETATM   23  C   UNK A   0     -10.755  14.450  67.425  1.00  0.00    -0.280 A  
HETATM   24  N   UNK A   0      -7.755  16.791  69.237  1.00  0.00    -0.157 NA 
HETATM   25  C   UNK A   0      -9.954  16.846  66.335  1.00  0.00    -0.309 A  
HETATM   26  C   UNK A   0     -11.241  14.925  66.220  1.00  0.00    -0.331 A  
HETATM   27  N   UNK A   0      -9.624  18.026  65.818  1.00  0.00    -0.464 NA 
HETATM   28  C   UNK A   0      -8.477  17.200  68.105  1.00  0.00    -0.227 A  
HETATM   29  C   UNK A   0      -9.421  16.354  67.531  1.00  0.00    -0.224 A  
HETATM   30  N   UNK A   0     -10.853  16.106  65.673  1.00  0.00    -0.283 NA 
HETATM   31  C   UNK A   0      -8.752  18.770  66.485  1.00  0.00    -0.312 A  
HETATM   32  H1  UNK A   0      -8.020  15.884  69.621  1.00  0.00     0.000 HD 
HETATM   33  H1  UNK A   0      -7.781  20.587  66.492  1.00  0.00     0.000 HD 
HETATM   34  N   UNK A   0      -8.452  20.015  65.979  1.00  0.00    -0.520 NA 
HETATM   35  N   UNK A   0      -8.129  18.392  67.599  1.00  0.00    -0.247 NA 
HETATM   36  N   UNK A   0      -9.816  15.164  68.088  1.00  0.00    -0.215 NA 
HETATM   37  H2  UNK A   0      -7.806  17.506  69.962  1.00  0.00     0.000 HD 
HETATM   38  H2  UNK A   0      -8.885  20.353  65.119  1.00  0.00     0.000 HD 
ENDBRANCH  22  23
ENDBRANCH   2  22
TORSDOF 7
ENDMDL
MODEL      143
REMARK 921   NORMALIZED FREE ENERGY PREDICTED BY IDOCK:   -5.20 KCAL/MOL
REMARK 922        TOTAL FREE ENERGY PREDICTED BY IDOCK:   -9.08 KCAL/MOL
REMARK 923 INTER-LIGAND FREE ENERGY PREDICTED BY IDOCK:   -7.88 KCAL/MOL
REMARK 924 INTRA-LIGAND FREE ENERGY PREDICTED BY IDOCK:   -1.20 KCAL/MOL
REMARK 927      BINDING AFFINITY PREDICTED BY RF-SCORE:    0.00 PKD
ROOT
HETATM    1  C   UNK A   0      -5.732   9.128  69.840  1.00  0.00    -0.031 C  
HETATM    2  N   UNK A   0      -6.321   8.498  68.662  1.00  0.00    -0.052 NA 
ENDROOT
BRANCH   2   3
HETATM    3  C   UNK A   0      -7.051   9.271  67.768  1.00  0.00    -0.082 A  
HETATM    4  C   UNK A   0      -8.796  10.876  66.217  1.00  0.00    -0.187 A  
HETATM    5  C   UNK A   0      -7.892   8.711  66.790  1.00  0.00    -0.094 A  
HETATM    6  C   UNK A   0      -7.030  10.672  67.856  1.00  0.00    -0.077 A  
HETATM    7  C   UNK A   0      -7.899  11.469  67.106  1.00  0.00    -0.160 A  
HETATM    8  C   UNK A   0      -8.748   9.501  66.009  1.00  0.00    -0.166 A  
BRANCH   4   9
HETATM    9  C   UNK A   0      -9.812  11.693  65.510  1.00  0.00    -0.234 C  
HETATM   10  O   UNK A   0     -10.652  11.171  64.792  1.00  0.00    -0.317 OA 
ATOM     11  N   GLU A   1      -9.762  13.058  65.765  1.00  0.00    -0.444 N  
ATOM     12  H   GLU A   1      -8.999  13.452  66.316  1.00  0.00     0.000 HD 
BRANCH  11  13
ATOM     13  CA  GLU A   1     -10.825  13.933  65.233  1.00  0.00    -0.333 C  
ATOM     14  OXT GLU A   1     -10.835  16.280  64.538  1.00  0.00    -0.668 OA 
ATOM     15  C   GLU A   1     -10.308  15.383  65.181  1.00  0.00    -0.374 C  
ATOM     16  O   GLU A   1      -9.303  15.619  66.062  1.00  0.00    -0.318 OA 
BRANCH  13  17
ATOM     17  CB  GLU A   1     -12.074  13.853  66.123  1.00  0.00    -0.478 C  
BRANCH  17  18
ATOM     18  CG  GLU A   1     -11.791  14.196  67.588  1.00  0.00    -0.427 C  
ATOM     19  OE2 GLU A   1     -12.151  11.860  68.124  1.00  0.00    -0.516 OA 
ATOM     20  OE1 GLU A   1     -11.591  13.296  69.777  1.00  0.00    -0.276 OA 
ATOM     21  CD  GLU A   1     -11.873  12.990  68.489  1.00  0.00    -0.325 C  
ENDBRANCH  17  18
ENDBRANCH  13  17
ENDBRANCH  11  13
ENDBRANCH   4   9
ENDBRANCH   2   3
BRANCH   2  22
HETATM   22  C   UNK A   0      -6.494   7.035  68.682  1.00  0.00    -0.036 C  
BRANCH  22  23
HETATM   23  C   UNK A   0      -7.324   6.521  69.843  1.00  0.00    -0.086 A  
HETATM   24  N   UNK A   0     -11.536   6.618  69.738  1.00  0.00    -0.616 NA 
HETATM   25  C   UNK A   0      -8.831   5.555  71.931  1.00  0.00    -0.135 A  
HETATM   26  C   UNK A   0      -6.765   5.904  70.947  1.00  0.00    -0.057 A  
HETATM   27  N   UNK A   0      -9.535   5.131  72.977  1.00  0.00    -0.142 NA 
HETATM   28  C   UNK A   0     -10.800   6.184  70.851  1.00  0.00    -0.281 A  
HETATM   29  C   UNK A   0      -9.410   6.134  70.798  1.00  0.00    -0.158 A  
HETATM   30  N   UNK A   0      -7.500   5.423  71.984  1.00  0.00    -0.095 NA 
HETATM   31  C   UNK A   0     -10.852   5.282  72.936  1.00  0.00    -0.270 A  
HETATM   32  H1  UNK A   0     -10.982   6.939  68.944  1.00  0.00     0.000 HD 
HETATM   33  H1  UNK A   0     -12.590   5.011  74.010  1.00  0.00     0.000 HD 
HETATM   34  N   UNK A   0     -11.577   4.894  74.042  1.00  0.00    -0.088 NA 
HETATM   35  N   UNK A   0     -11.528   5.762  71.894  1.00  0.00    -0.218 NA 
HETATM   36  N   UNK A   0      -8.670   6.625  69.752  1.00  0.00    -0.139 NA 
HETATM   37  H2  UNK A   0     -12.199   7.341  70.016  1.00  0.00     0.000 HD 
HETATM   38  H2  UNK A   0     -11.116   4.503  74.864  1.00  0.00     0.000 HD 
ENDBRANCH  22  23
ENDBRANCH   2  22
TORSDOF 7
ENDMDL
MODEL      144
REMARK 921   NORMALIZED FREE ENERGY PREDICTED BY IDOCK:   -5.17 KCAL/MOL
REMARK 922        TOTAL FREE ENERGY PREDICTED BY IDOCK:   -9.04 KCAL/MOL
REMARK 923 INTER-LIGAND FREE ENERGY PREDICTED BY IDOCK:   -9.02 KCAL/MOL
REMARK 924 INTRA-LIGAND FREE ENERGY PREDICTED BY IDOCK:   -0.01 KCAL/MOL
REMARK 927      BINDING AFFINITY PREDICTED BY RF-SCORE:    0.00 PKD
ROOT
HETATM    1  C   UNK A   0     -10.346  12.393  63.943  1.00  0.00    -0.423 C  
HETATM    2  N   UNK A   0     -10.970  12.293  65.259  1.00  0.00    -0.297 NA 
ENDROOT
BRANCH   2   3
HETATM    3  C   UNK A   0     -10.770  11.151  66.025  1.00  0.00    -0.211 A  
HETATM    4  C   UNK A   0     -10.100   9.019  67.766  1.00  0.00    -0.260 A  
HETATM    5  C   UNK A   0      -9.945  10.091  65.608  1.00  0.00    -0.355 A  
HETATM    6  C   UNK A   0     -11.341  11.042  67.303  1.00  0.00    -0.265 A  
HETATM    7  C   UNK A   0     -11.002  10.002  68.173  1.00  0.00    -0.289 A  
HETATM    8  C   UNK A   0      -9.621   9.025  66.459  1.00  0.00    -0.286 A  
BRANCH   4   9
HETATM    9  C   UNK A   0      -9.630   7.983  68.718  1.00  0.00    -0.149 C  
HETATM   10  O   UNK A   0      -8.701   7.243  68.435  1.00  0.00    -0.124 OA 
ATOM     11  N   GLU A   1     -10.286   7.959  69.943  1.00  0.00    -0.205 N  
ATOM     12  H   GLU A   1     -11.101   8.550  70.103  1.00  0.00     0.000 HD 
BRANCH  11  13
ATOM     13  CA  GLU A   1      -9.789   7.070  71.011  1.00  0.00    -0.180 C  
ATOM     14  OXT GLU A   1     -10.679   5.011  71.990  1.00  0.00    -0.206 OA 
ATOM     15  C   GLU A   1     -10.880   6.040  71.361  1.00  0.00    -0.270 C  
ATOM     16  O   GLU A   1     -12.130   6.468  71.052  1.00  0.00    -0.352 OA 
BRANCH  13  17
ATOM     17  CB  GLU A   1      -9.423   7.889  72.258  1.00  0.00    -0.248 C  
BRANCH  17  18
ATOM     18  CG  GLU A   1      -7.940   7.792  72.626  1.00  0.00    -0.145 C  
ATOM     19  OE2 GLU A   1      -8.580   6.429  74.526  1.00  0.00    -0.131 OA 
ATOM     20  OE1 GLU A   1      -6.391   6.854  74.163  1.00  0.00    -0.073 OA 
ATOM     21  CD  GLU A   1      -7.705   6.961  73.862  1.00  0.00    -0.101 C  
ENDBRANCH  17  18
ENDBRANCH  13  17
ENDBRANCH  11  13
ENDBRANCH   4   9
ENDBRANCH   2   3
BRANCH   2  22
HETATM   22  C   UNK A   0     -12.111  13.181  65.546  1.00  0.00    -0.442 C  
BRANCH  22  23
HETATM   23  C   UNK A   0     -11.942  14.030  66.791  1.00  0.00    -0.444 A  
HETATM   24  N   UNK A   0     -12.814  12.502  70.622  1.00  0.00    -0.023 NA 
HETATM   25  C   UNK A   0     -11.599  15.556  69.054  1.00  0.00    -0.365 A  
HETATM   26  C   UNK A   0     -11.402  15.303  66.761  1.00  0.00    -0.183 A  
HETATM   27  N   UNK A   0     -11.476  16.333  70.127  1.00  0.00    -0.415 NA 
HETATM   28  C   UNK A   0     -12.421  13.830  70.389  1.00  0.00    -0.314 A  
HETATM   29  C   UNK A   0     -12.102  14.252  69.102  1.00  0.00    -0.302 A  
HETATM   30  N   UNK A   0     -11.228  16.065  67.873  1.00  0.00    -0.316 NA 
HETATM   31  C   UNK A   0     -11.865  15.838  71.294  1.00  0.00    -0.437 A  
HETATM   32  H1  UNK A   0     -12.903  11.919  69.789  1.00  0.00     0.000 HD 
HETATM   33  H1  UNK A   0     -12.089  16.280  73.295  1.00  0.00     0.000 HD 
HETATM   34  N   UNK A   0     -11.790  16.661  72.397  1.00  0.00    -0.563 NA 
HETATM   35  N   UNK A   0     -12.304  14.595  71.483  1.00  0.00    -0.335 NA 
HETATM   36  N   UNK A   0     -12.283  13.483  67.981  1.00  0.00    -0.315 NA 
HETATM   37  H2  UNK A   0     -13.682  12.483  71.156  1.00  0.00     0.000 HD 
HETATM   38  H2  UNK A   0     -11.446  17.619  72.318  1.00  0.00     0.000 HD 
ENDBRANCH  22  23
ENDBRANCH   2  22
TORSDOF 7
ENDMDL
MODEL      145
REMARK 921   NORMALIZED FREE ENERGY PREDICTED BY IDOCK:   -5.17 KCAL/MOL
REMARK 922        TOTAL FREE ENERGY PREDICTED BY IDOCK:   -9.03 KCAL/MOL
REMARK 923 INTER-LIGAND FREE ENERGY PREDICTED BY IDOCK:   -7.86 KCAL/MOL
REMARK 924 INTRA-LIGAND FREE ENERGY PREDICTED BY IDOCK:   -1.16 KCAL/MOL
REMARK 927      BINDING AFFINITY PREDICTED BY RF-SCORE:    0.00 PKD
ROOT
HETATM    1  C   UNK A   0      -9.277  11.686  66.278  1.00  0.00    -0.217 C  
HETATM    2  N   UNK A   0      -8.812  11.245  67.590  1.00  0.00    -0.136 NA 
ENDROOT
BRANCH   2   3
HETATM    3  C   UNK A   0      -9.520  10.262  68.271  1.00  0.00    -0.142 A  
HETATM    4  C   UNK A   0     -10.630   8.139  69.782  1.00  0.00    -0.231 A  
HETATM    5  C   UNK A   0      -9.925   9.060  67.664  1.00  0.00    -0.252 A  
HETATM    6  C   UNK A   0      -9.801  10.406  69.638  1.00  0.00    -0.179 A  
HETATM    7  C   UNK A   0     -10.333   9.357  70.393  1.00  0.00    -0.318 A  
HETATM    8  C   UNK A   0     -10.489   8.010  68.403  1.00  0.00    -0.205 A  
BRANCH   4   9
HETATM    9  C   UNK A   0     -11.073   6.975  70.589  1.00  0.00    -0.272 C  
HETATM   10  O   UNK A   0     -12.235   6.599  70.567  1.00  0.00    -0.364 OA 
ATOM     11  N   GLU A   1     -10.072   6.337  71.311  1.00  0.00    -0.187 N  
ATOM     12  H   GLU A   1      -9.133   6.732  71.352  1.00  0.00     0.000 HD 
BRANCH  11  13
ATOM     13  CA  GLU A   1     -10.382   5.080  72.020  1.00  0.00    -0.213 C  
ATOM     14  OXT GLU A   1     -11.070   4.610  74.321  1.00  0.00    -0.287 OA 
ATOM     15  C   GLU A   1     -10.543   5.373  73.523  1.00  0.00    -0.270 C  
ATOM     16  O   GLU A   1      -9.885   6.492  73.919  1.00  0.00    -0.196 OA 
BRANCH  13  17
ATOM     17  CB  GLU A   1      -9.257   4.056  71.803  1.00  0.00    -0.184 C  
BRANCH  17  18
ATOM     18  CG  GLU A   1      -9.636   2.947  70.818  1.00  0.00    -0.195 C  
ATOM     19  OE2 GLU A   1      -8.853   4.378  69.025  1.00  0.00    -0.086 OA 
ATOM     20  OE1 GLU A   1      -9.639   2.319  68.527  1.00  0.00    -0.186 OA 
ATOM     21  CD  GLU A   1      -9.330   3.315  69.388  1.00  0.00    -0.161 C  
ENDBRANCH  17  18
ENDBRANCH  13  17
ENDBRANCH  11  13
ENDBRANCH   4   9
ENDBRANCH   2   3
BRANCH   2  22
HETATM   22  C   UNK A   0      -7.894  12.133  68.326  1.00  0.00    -0.153 C  
BRANCH  22  23
HETATM   23  C   UNK A   0      -8.244  13.606  68.234  1.00  0.00    -0.156 A  
HETATM   24  N   UNK A   0     -11.158  15.327  70.746  1.00  0.00    -0.422 NA 
HETATM   25  C   UNK A   0      -8.853  16.285  68.094  1.00  0.00    -0.183 A  
HETATM   26  C   UNK A   0      -7.570  14.485  67.406  1.00  0.00    -0.184 A  
HETATM   27  N   UNK A   0      -9.167  17.571  67.969  1.00  0.00    -0.268 NA 
HETATM   28  C   UNK A   0     -10.497  16.035  69.730  1.00  0.00    -0.300 A  
HETATM   29  C   UNK A   0      -9.510  15.415  68.969  1.00  0.00    -0.236 A  
HETATM   30  N   UNK A   0      -7.863  15.809  67.329  1.00  0.00    -0.175 NA 
HETATM   31  C   UNK A   0     -10.164  18.038  68.708  1.00  0.00    -0.354 A  
HETATM   32  H1  UNK A   0     -10.906  14.342  70.830  1.00  0.00     0.000 HD 
HETATM   33  H1  UNK A   0     -11.294  19.714  69.108  1.00  0.00     0.000 HD 
HETATM   34  N   UNK A   0     -10.527  19.356  68.539  1.00  0.00    -0.480 NA 
HETATM   35  N   UNK A   0     -10.828  17.329  69.620  1.00  0.00    -0.276 NA 
HETATM   36  N   UNK A   0      -9.220  14.076  69.045  1.00  0.00    -0.394 NA 
HETATM   37  H2  UNK A   0     -12.168  15.422  70.638  1.00  0.00     0.000 HD 
HETATM   38  H2  UNK A   0     -10.044  19.953  67.867  1.00  0.00     0.000 HD 
ENDBRANCH  22  23
ENDBRANCH   2  22
TORSDOF 7
ENDMDL
MODEL      146
REMARK 921   NORMALIZED FREE ENERGY PREDICTED BY IDOCK:   -5.16 KCAL/MOL
REMARK 922        TOTAL FREE ENERGY PREDICTED BY IDOCK:   -9.01 KCAL/MOL
REMARK 923 INTER-LIGAND FREE ENERGY PREDICTED BY IDOCK:   -8.54 KCAL/MOL
REMARK 924 INTRA-LIGAND FREE ENERGY PREDICTED BY IDOCK:   -0.48 KCAL/MOL
REMARK 927      BINDING AFFINITY PREDICTED BY RF-SCORE:    0.00 PKD
ROOT
HETATM    1  C   UNK A   0     -11.206   6.389  69.121  1.00  0.00    -0.354 C  
HETATM    2  N   UNK A   0     -10.031   7.243  68.977  1.00  0.00    -0.172 NA 
ENDROOT
BRANCH   2   3
HETATM    3  C   UNK A   0     -10.176   8.521  68.452  1.00  0.00    -0.203 A  
HETATM    4  C   UNK A   0     -10.839  11.055  67.371  1.00  0.00    -0.327 A  
HETATM    5  C   UNK A   0     -10.004   8.807  67.086  1.00  0.00    -0.295 A  
HETATM    6  C   UNK A   0     -10.578   9.586  69.274  1.00  0.00    -0.236 A  
HETATM    7  C   UNK A   0     -10.922  10.833  68.745  1.00  0.00    -0.295 A  
HETATM    8  C   UNK A   0     -10.316  10.062  66.546  1.00  0.00    -0.268 A  
BRANCH   4   9
HETATM    9  C   UNK A   0     -11.322  12.326  66.778  1.00  0.00    -0.339 C  
HETATM   10  O   UNK A   0     -12.239  12.336  65.971  1.00  0.00    -0.646 OA 
ATOM     11  N   GLU A   1     -10.695  13.475  67.242  1.00  0.00    -0.266 N  
ATOM     12  H   GLU A   1      -9.888  13.407  67.862  1.00  0.00     0.000 HD 
BRANCH  11  13
ATOM     13  CA  GLU A   1     -11.208  14.795  66.830  1.00  0.00    -0.344 C  
ATOM     14  OXT GLU A   1     -10.466  16.397  65.134  1.00  0.00    -0.622 OA 
ATOM     15  C   GLU A   1     -10.205  15.448  65.860  1.00  0.00    -0.344 C  
ATOM     16  O   GLU A   1      -8.941  14.980  66.011  1.00  0.00    -0.223 OA 
BRANCH  13  17
ATOM     17  CB  GLU A   1     -11.410  15.695  68.059  1.00  0.00    -0.324 C  
BRANCH  17  18
ATOM     18  CG  GLU A   1     -12.504  15.188  69.002  1.00  0.00     0.076 C  
ATOM     19  OE2 GLU A   1     -10.895  15.308  70.811  1.00  0.00    -0.300 OA 
ATOM     20  OE1 GLU A   1     -13.007  14.642  71.258  1.00  0.00    -0.305 OA 
ATOM     21  CD  GLU A   1     -12.026  15.061  70.426  1.00  0.00    -0.323 C  
ENDBRANCH  17  18
ENDBRANCH  13  17
ENDBRANCH  11  13
ENDBRANCH   4   9
ENDBRANCH   2   3
BRANCH   2  22
HETATM   22  C   UNK A   0      -8.708   6.593  68.977  1.00  0.00    -0.129 C  
BRANCH  22  23
HETATM   23  C   UNK A   0      -8.412   5.781  67.731  1.00  0.00    -0.103 A  
HETATM   24  N   UNK A   0     -11.490   4.589  65.110  1.00  0.00    -1.109 NA 
HETATM   25  C   UNK A   0      -7.873   4.341  65.450  1.00  0.00    -0.086 A  
HETATM   26  C   UNK A   0      -7.126   5.473  67.326  1.00  0.00    -0.074 A  
HETATM   27  N   UNK A   0      -7.591   3.599  64.383  1.00  0.00    -0.075 NA 
HETATM   28  C   UNK A   0     -10.147   4.217  64.946  1.00  0.00    -0.202 A  
HETATM   29  C   UNK A   0      -9.175   4.687  65.824  1.00  0.00    -0.147 A  
HETATM   30  N   UNK A   0      -6.849   4.762  66.202  1.00  0.00    -0.057 NA 
HETATM   31  C   UNK A   0      -8.607   3.160  63.651  1.00  0.00    -0.089 A  
HETATM   32  H1  UNK A   0     -11.690   5.159  65.932  1.00  0.00     0.000 HD 
HETATM   33  H1  UNK A   0      -9.101   2.009  62.015  1.00  0.00     0.000 HD 
HETATM   34  N   UNK A   0      -8.320   2.346  62.577  1.00  0.00    -0.072 NA 
HETATM   35  N   UNK A   0      -9.885   3.468  63.865  1.00  0.00    -0.157 NA 
HETATM   36  N   UNK A   0      -9.458   5.400  66.962  1.00  0.00    -0.126 NA 
HETATM   37  H2  UNK A   0     -12.086   3.762  65.105  1.00  0.00     0.000 HD 
HETATM   38  H2  UNK A   0      -7.358   2.089  62.353  1.00  0.00     0.000 HD 
ENDBRANCH  22  23
ENDBRANCH   2  22
TORSDOF 7
ENDMDL
MODEL      147
REMARK 921   NORMALIZED FREE ENERGY PREDICTED BY IDOCK:   -5.16 KCAL/MOL
REMARK 922        TOTAL FREE ENERGY PREDICTED BY IDOCK:   -9.01 KCAL/MOL
REMARK 923 INTER-LIGAND FREE ENERGY PREDICTED BY IDOCK:   -8.42 KCAL/MOL
REMARK 924 INTRA-LIGAND FREE ENERGY PREDICTED BY IDOCK:   -0.59 KCAL/MOL
REMARK 927      BINDING AFFINITY PREDICTED BY RF-SCORE:    0.00 PKD
ROOT
HETATM    1  C   UNK A   0     -11.819   7.744  72.004  1.00  0.00    -0.307 C  
HETATM    2  N   UNK A   0     -10.606   8.332  71.444  1.00  0.00    -0.215 NA 
ENDROOT
BRANCH   2   3
HETATM    3  C   UNK A   0     -10.690   9.521  70.728  1.00  0.00    -0.321 A  
HETATM    4  C   UNK A   0     -11.060  11.749  69.019  1.00  0.00    -0.301 A  
HETATM    5  C   UNK A   0      -9.675   9.959  69.860  1.00  0.00    -0.274 A  
HETATM    6  C   UNK A   0     -11.849  10.310  70.795  1.00  0.00    -0.459 A  
HETATM    7  C   UNK A   0     -12.045  11.400  69.943  1.00  0.00    -0.404 A  
HETATM    8  C   UNK A   0      -9.845  11.069  69.021  1.00  0.00    -0.165 A  
BRANCH   4   9
HETATM    9  C   UNK A   0     -11.303  12.819  68.021  1.00  0.00    -0.292 C  
HETATM   10  O   UNK A   0     -12.372  12.905  67.435  1.00  0.00    -0.286 OA 
ATOM     11  N   GLU A   1     -10.260  13.721  67.849  1.00  0.00    -0.240 N  
ATOM     12  H   GLU A   1      -9.363  13.565  68.309  1.00  0.00     0.000 HD 
BRANCH  11  13
ATOM     13  CA  GLU A   1     -10.463  14.907  66.996  1.00  0.00    -0.272 C  
ATOM     14  OXT GLU A   1     -10.578  15.192  64.567  1.00  0.00    -0.237 OA 
ATOM     15  C   GLU A   1     -10.220  14.520  65.525  1.00  0.00    -0.370 C  
ATOM     16  O   GLU A   1      -9.412  13.439  65.388  1.00  0.00     0.044 OA 
BRANCH  13  17
ATOM     17  CB  GLU A   1      -9.498  16.030  67.407  1.00  0.00    -0.220 C  
BRANCH  17  18
ATOM     18  CG  GLU A   1     -10.160  17.411  67.431  1.00  0.00    -0.321 C  
ATOM     19  OE2 GLU A   1      -8.198  18.246  68.585  1.00  0.00    -0.309 OA 
ATOM     20  OE1 GLU A   1      -9.874  19.677  68.084  1.00  0.00    -0.369 OA 
ATOM     21  CD  GLU A   1      -9.297  18.454  68.095  1.00  0.00    -0.317 C  
ENDBRANCH  17  18
ENDBRANCH  13  17
ENDBRANCH  11  13
ENDBRANCH   4   9
ENDBRANCH   2   3
BRANCH   2  22
HETATM   22  C   UNK A   0      -9.432   7.456  71.278  1.00  0.00    -0.154 C  
BRANCH  22  23
HETATM   23  C   UNK A   0      -9.568   6.438  70.163  1.00  0.00    -0.160 A  
HETATM   24  N   UNK A   0      -9.624   7.615  66.116  1.00  0.00    -0.422 NA 
HETATM   25  C   UNK A   0      -9.775   4.589  68.136  1.00  0.00    -0.127 A  
HETATM   26  C   UNK A   0      -9.577   5.073  70.392  1.00  0.00    -0.193 A  
HETATM   27  N   UNK A   0      -9.930   3.679  67.179  1.00  0.00    -0.246 NA 
HETATM   28  C   UNK A   0      -9.797   6.287  66.538  1.00  0.00    -0.126 A  
HETATM   29  C   UNK A   0      -9.718   5.964  67.889  1.00  0.00    -0.119 A  
HETATM   30  N   UNK A   0      -9.679   4.152  69.398  1.00  0.00    -0.193 NA 
HETATM   31  C   UNK A   0     -10.049   4.112  65.930  1.00  0.00    -0.152 A  
HETATM   32  H1  UNK A   0      -9.506   8.300  66.862  1.00  0.00     0.000 HD 
HETATM   33  H1  UNK A   0     -10.357   3.508  63.985  1.00  0.00     0.000 HD 
HETATM   34  N   UNK A   0     -10.265   3.175  64.944  1.00  0.00    -0.380 NA 
HETATM   35  N   UNK A   0      -9.953   5.386  65.557  1.00  0.00    -0.377 NA 
HETATM   36  N   UNK A   0      -9.621   6.897  68.891  1.00  0.00    -0.139 NA 
HETATM   37  H2  UNK A   0     -10.394   7.891  65.507  1.00  0.00     0.000 HD 
HETATM   38  H2  UNK A   0     -10.332   2.181  65.167  1.00  0.00     0.000 HD 
ENDBRANCH  22  23
ENDBRANCH   2  22
TORSDOF 7
ENDMDL
MODEL      148
REMARK 921   NORMALIZED FREE ENERGY PREDICTED BY IDOCK:   -5.15 KCAL/MOL
REMARK 922        TOTAL FREE ENERGY PREDICTED BY IDOCK:   -9.01 KCAL/MOL
REMARK 923 INTER-LIGAND FREE ENERGY PREDICTED BY IDOCK:   -7.68 KCAL/MOL
REMARK 924 INTRA-LIGAND FREE ENERGY PREDICTED BY IDOCK:   -1.33 KCAL/MOL
REMARK 927      BINDING AFFINITY PREDICTED BY RF-SCORE:    0.00 PKD
ROOT
HETATM    1  C   UNK A   0      -8.200  17.195  68.531  1.00  0.00    -0.261 C  
HETATM    2  N   UNK A   0      -8.466  16.143  67.554  1.00  0.00    -0.160 NA 
ENDROOT
BRANCH   2   3
HETATM    3  C   UNK A   0      -8.079  14.837  67.834  1.00  0.00    -0.141 A  
HETATM    4  C   UNK A   0      -7.359  12.105  68.043  1.00  0.00    -0.105 A  
HETATM    5  C   UNK A   0      -8.959  13.883  68.376  1.00  0.00    -0.178 A  
HETATM    6  C   UNK A   0      -6.786  14.394  67.513  1.00  0.00    -0.132 A  
HETATM    7  C   UNK A   0      -6.429  13.046  67.598  1.00  0.00    -0.162 A  
HETATM    8  C   UNK A   0      -8.604  12.533  68.495  1.00  0.00    -0.054 A  
BRANCH   4   9
HETATM    9  C   UNK A   0      -7.042  10.657  68.017  1.00  0.00    -0.085 C  
HETATM   10  O   UNK A   0      -6.141  10.196  68.703  1.00  0.00    -0.044 OA 
ATOM     11  N   GLU A   1      -7.864   9.881  67.209  1.00  0.00    -0.102 N  
ATOM     12  H   GLU A   1      -8.556  10.323  66.603  1.00  0.00     0.000 HD 
BRANCH  11  13
ATOM     13  CA  GLU A   1      -7.728   8.413  67.237  1.00  0.00    -0.098 C  
ATOM     14  OXT GLU A   1      -7.782   6.718  65.471  1.00  0.00    -0.089 OA 
ATOM     15  C   GLU A   1      -8.068   7.846  65.845  1.00  0.00    -0.119 C  
ATOM     16  O   GLU A   1      -8.877   8.663  65.124  1.00  0.00    -0.177 OA 
BRANCH  13  17
ATOM     17  CB  GLU A   1      -8.669   7.811  68.291  1.00  0.00    -0.127 C  
BRANCH  17  18
ATOM     18  CG  GLU A   1      -8.226   6.426  68.771  1.00  0.00    -0.121 C  
ATOM     19  OE2 GLU A   1     -10.227   5.516  67.750  1.00  0.00    -0.168 OA 
ATOM     20  OE1 GLU A   1      -8.777   4.116  68.771  1.00  0.00    -0.089 OA 
ATOM     21  CD  GLU A   1      -9.191   5.339  68.370  1.00  0.00    -0.113 C  
ENDBRANCH  17  18
ENDBRANCH  13  17
ENDBRANCH  11  13
ENDBRANCH   4   9
ENDBRANCH   2   3
BRANCH   2  22
HETATM   22  C   UNK A   0      -8.727  16.550  66.161  1.00  0.00    -0.300 C  
BRANCH  22  23
HETATM   23  C   UNK A   0      -9.784  15.720  65.458  1.00  0.00    -0.220 A  
HETATM   24  N   UNK A   0      -9.299  11.571  64.895  1.00  0.00    -0.399 NA 
HETATM   25  C   UNK A   0     -11.717  14.208  64.216  1.00  0.00    -0.345 A  
HETATM   26  C   UNK A   0     -10.999  16.243  65.054  1.00  0.00    -0.298 A  
HETATM   27  N   UNK A   0     -12.642  13.510  63.564  1.00  0.00    -0.773 NA 
HETATM   28  C   UNK A   0     -10.392  12.298  64.396  1.00  0.00    -0.331 A  
HETATM   29  C   UNK A   0     -10.511  13.658  64.662  1.00  0.00    -0.423 A  
HETATM   30  N   UNK A   0     -11.960  15.505  64.440  1.00  0.00    -0.564 NA 
HETATM   31  C   UNK A   0     -12.392  12.231  63.320  1.00  0.00    -0.409 A  
HETATM   32  H1  UNK A   0      -8.598  12.121  65.393  1.00  0.00     0.000 HD 
HETATM   33  H1  UNK A   0     -13.132  10.537  62.409  1.00  0.00     0.000 HD 
HETATM   34  N   UNK A   0     -13.325  11.521  62.597  1.00  0.00    -0.097 NA 
HETATM   35  N   UNK A   0     -11.312  11.575  63.742  1.00  0.00    -0.494 NA 
HETATM   36  N   UNK A   0      -9.536  14.402  65.277  1.00  0.00    -0.501 NA 
HETATM   37  H2  UNK A   0      -8.858  11.042  64.143  1.00  0.00     0.000 HD 
HETATM   38  H2  UNK A   0     -14.180  11.964  62.260  1.00  0.00     0.000 HD 
ENDBRANCH  22  23
ENDBRANCH   2  22
TORSDOF 7
ENDMDL
MODEL      149
REMARK 921   NORMALIZED FREE ENERGY PREDICTED BY IDOCK:   -5.15 KCAL/MOL
REMARK 922        TOTAL FREE ENERGY PREDICTED BY IDOCK:   -9.01 KCAL/MOL
REMARK 923 INTER-LIGAND FREE ENERGY PREDICTED BY IDOCK:   -7.61 KCAL/MOL
REMARK 924 INTRA-LIGAND FREE ENERGY PREDICTED BY IDOCK:   -1.40 KCAL/MOL
REMARK 927      BINDING AFFINITY PREDICTED BY RF-SCORE:    0.00 PKD
ROOT
HETATM    1  C   UNK A   0     -13.489   9.771  71.065  1.00  0.00    -0.180 C  
HETATM    2  N   UNK A   0     -12.140   9.328  70.726  1.00  0.00    -0.443 NA 
ENDROOT
BRANCH   2   3
HETATM    3  C   UNK A   0     -11.724   8.056  71.100  1.00  0.00    -0.284 A  
HETATM    4  C   UNK A   0     -10.530   5.583  71.794  1.00  0.00    -0.287 A  
HETATM    5  C   UNK A   0     -11.714   6.967  70.209  1.00  0.00    -0.284 A  
HETATM    6  C   UNK A   0     -11.222   7.822  72.390  1.00  0.00    -0.392 A  
HETATM    7  C   UNK A   0     -10.617   6.610  72.733  1.00  0.00    -0.260 A  
HETATM    8  C   UNK A   0     -11.138   5.736  70.551  1.00  0.00    -0.280 A  
BRANCH   4   9
HETATM    9  C   UNK A   0      -9.778   4.341  72.098  1.00  0.00    -0.160 C  
HETATM   10  O   UNK A   0     -10.266   3.463  72.793  1.00  0.00    -0.156 OA 
ATOM     11  N   GLU A   1      -8.527   4.240  71.500  1.00  0.00    -0.094 N  
ATOM     12  H   GLU A   1      -8.136   5.030  70.987  1.00  0.00     0.000 HD 
BRANCH  11  13
ATOM     13  CA  GLU A   1      -7.770   2.979  71.616  1.00  0.00    -0.052 C  
ATOM     14  OXT GLU A   1      -5.572   2.455  72.555  1.00  0.00    -0.003 OA 
ATOM     15  C   GLU A   1      -6.341   3.289  72.098  1.00  0.00    -0.014 C  
ATOM     16  O   GLU A   1      -5.946   4.554  71.807  1.00  0.00    -0.015 OA 
BRANCH  13  17
ATOM     17  CB  GLU A   1      -7.721   2.263  70.258  1.00  0.00    -0.044 C  
BRANCH  17  18
ATOM     18  CG  GLU A   1      -8.183   3.147  69.095  1.00  0.00    -0.077 C  
ATOM     19  OE2 GLU A   1      -5.850   3.499  68.537  1.00  0.00    -0.021 OA 
ATOM     20  OE1 GLU A   1      -7.447   4.454  67.254  1.00  0.00    -0.076 OA 
ATOM     21  CD  GLU A   1      -7.030   3.700  68.297  1.00  0.00    -0.050 C  
ENDBRANCH  17  18
ENDBRANCH  13  17
ENDBRANCH  11  13
ENDBRANCH   4   9
ENDBRANCH   2   3
BRANCH   2  22
HETATM   22  C   UNK A   0     -11.141  10.362  70.400  1.00  0.00    -0.296 C  
BRANCH  22  23
HETATM   23  C   UNK A   0     -11.120  10.769  68.939  1.00  0.00    -0.253 A  
HETATM   24  N   UNK A   0      -9.320   8.331  66.010  1.00  0.00    -0.356 NA 
HETATM   25  C   UNK A   0     -11.115  11.487  66.284  1.00  0.00    -0.263 A  
HETATM   26  C   UNK A   0     -11.769  11.896  68.467  1.00  0.00    -0.330 A  
HETATM   27  N   UNK A   0     -11.079  11.884  65.015  1.00  0.00    -0.310 NA 
HETATM   28  C   UNK A   0      -9.874   9.591  65.734  1.00  0.00    -0.293 A  
HETATM   29  C   UNK A   0     -10.496  10.321  66.743  1.00  0.00    -0.214 A  
HETATM   30  N   UNK A   0     -11.772  12.260  67.158  1.00  0.00    -0.502 NA 
HETATM   31  C   UNK A   0     -10.408  11.133  64.152  1.00  0.00    -0.361 A  
HETATM   32  H1  UNK A   0      -9.356   8.041  66.987  1.00  0.00     0.000 HD 
HETATM   33  H1  UNK A   0      -9.807  10.993  62.186  1.00  0.00     0.000 HD 
HETATM   34  N   UNK A   0     -10.323  11.572  62.849  1.00  0.00    -0.656 NA 
HETATM   35  N   UNK A   0      -9.827   9.972  64.450  1.00  0.00    -0.392 NA 
HETATM   36  N   UNK A   0     -10.486   9.954  68.065  1.00  0.00    -0.208 NA 
HETATM   37  H2  UNK A   0      -8.360   8.288  65.668  1.00  0.00     0.000 HD 
HETATM   38  H2  UNK A   0     -10.762  12.445  62.558  1.00  0.00     0.000 HD 
ENDBRANCH  22  23
ENDBRANCH   2  22
TORSDOF 7
ENDMDL
MODEL      150
REMARK 921   NORMALIZED FREE ENERGY PREDICTED BY IDOCK:   -5.15 KCAL/MOL
REMARK 922        TOTAL FREE ENERGY PREDICTED BY IDOCK:   -9.00 KCAL/MOL
REMARK 923 INTER-LIGAND FREE ENERGY PREDICTED BY IDOCK:   -7.84 KCAL/MOL
REMARK 924 INTRA-LIGAND FREE ENERGY PREDICTED BY IDOCK:   -1.16 KCAL/MOL
REMARK 927      BINDING AFFINITY PREDICTED BY RF-SCORE:    0.00 PKD
ROOT
HETATM    1  C   UNK A   0     -11.581   8.017  70.689  1.00  0.00    -0.196 C  
HETATM    2  N   UNK A   0     -10.196   8.074  70.229  1.00  0.00    -0.197 NA 
ENDROOT
BRANCH   2   3
HETATM    3  C   UNK A   0      -9.792   9.118  69.405  1.00  0.00    -0.172 A  
HETATM    4  C   UNK A   0      -9.095  11.475  67.996  1.00  0.00    -0.174 A  
HETATM    5  C   UNK A   0     -10.588   9.611  68.356  1.00  0.00    -0.264 A  
HETATM    6  C   UNK A   0      -8.577   9.780  69.642  1.00  0.00    -0.201 A  
HETATM    7  C   UNK A   0      -8.235  10.952  68.962  1.00  0.00    -0.126 A  
HETATM    8  C   UNK A   0     -10.242  10.768  67.645  1.00  0.00    -0.221 A  
BRANCH   4   9
HETATM    9  C   UNK A   0      -8.812  12.783  67.358  1.00  0.00    -0.190 C  
HETATM   10  O   UNK A   0      -7.664  13.163  67.182  1.00  0.00    -0.127 OA 
ATOM     11  N   GLU A   1      -9.930  13.498  66.944  1.00  0.00    -0.250 N  
ATOM     12  H   GLU A   1     -10.867  13.170  67.179  1.00  0.00     0.000 HD 
BRANCH  11  13
ATOM     13  CA  GLU A   1      -9.747  14.736  66.162  1.00  0.00    -0.312 C  
ATOM     14  OXT GLU A   1      -9.782  17.102  66.788  1.00  0.00    -0.250 OA 
ATOM     15  C   GLU A   1     -10.096  15.949  67.045  1.00  0.00    -0.268 C  
ATOM     16  O   GLU A   1     -10.944  15.640  68.059  1.00  0.00    -0.296 OA 
BRANCH  13  17
ATOM     17  CB  GLU A   1     -10.649  14.717  64.918  1.00  0.00    -0.446 C  
BRANCH  17  18
ATOM     18  CG  GLU A   1     -11.145  13.313  64.558  1.00  0.00    -0.392 C  
ATOM     19  OE2 GLU A   1     -13.349  13.982  65.311  1.00  0.00    -0.741 OA 
ATOM     20  OE1 GLU A   1     -13.052  11.900  64.485  1.00  0.00    -0.451 OA 
ATOM     21  CD  GLU A   1     -12.615  13.132  64.835  1.00  0.00    -0.407 C  
ENDBRANCH  17  18
ENDBRANCH  13  17
ENDBRANCH  11  13
ENDBRANCH   4   9
ENDBRANCH   2   3
BRANCH   2  22
HETATM   22  C   UNK A   0      -9.404   6.832  70.284  1.00  0.00    -0.159 C  
BRANCH  22  23
HETATM   23  C   UNK A   0      -8.836   6.395  68.948  1.00  0.00    -0.125 A  
HETATM   24  N   UNK A   0     -11.343   5.112  65.813  1.00  0.00    -0.746 NA 
HETATM   25  C   UNK A   0      -7.808   5.640  66.511  1.00  0.00    -0.101 A  
HETATM   26  C   UNK A   0      -7.490   6.487  68.642  1.00  0.00    -0.088 A  
HETATM   27  N   UNK A   0      -7.282   5.229  65.361  1.00  0.00    -0.067 NA 
HETATM   28  C   UNK A   0      -9.941   5.104  65.735  1.00  0.00    -0.068 A  
HETATM   29  C   UNK A   0      -9.177   5.588  66.792  1.00  0.00    -0.129 A  
HETATM   30  N   UNK A   0      -6.972   6.116  67.441  1.00  0.00    -0.067 NA 
HETATM   31  C   UNK A   0      -8.106   4.734  64.447  1.00  0.00    -0.110 A  
HETATM   32  H1  UNK A   0     -11.731   5.430  66.701  1.00  0.00     0.000 HD 
HETATM   33  H1  UNK A   0      -8.191   3.876  62.575  1.00  0.00     0.000 HD 
HETATM   34  N   UNK A   0      -7.556   4.257  63.277  1.00  0.00    -0.058 NA 
HETATM   35  N   UNK A   0      -9.431   4.685  64.568  1.00  0.00    -0.321 NA 
HETATM   36  N   UNK A   0      -9.702   5.956  68.005  1.00  0.00    -0.116 NA 
HETATM   37  H2  UNK A   0     -11.711   4.189  65.581  1.00  0.00     0.000 HD 
HETATM   38  H2  UNK A   0      -6.548   4.283  63.120  1.00  0.00     0.000 HD 
ENDBRANCH  22  23
ENDBRANCH   2  22
TORSDOF 7
ENDMDL
MODEL      151
REMARK 921   NORMALIZED FREE ENERGY PREDICTED BY IDOCK:   -5.14 KCAL/MOL
REMARK 922        TOTAL FREE ENERGY PREDICTED BY IDOCK:   -8.98 KCAL/MOL
REMARK 923 INTER-LIGAND FREE ENERGY PREDICTED BY IDOCK:   -8.40 KCAL/MOL
REMARK 924 INTRA-LIGAND FREE ENERGY PREDICTED BY IDOCK:   -0.58 KCAL/MOL
REMARK 927      BINDING AFFINITY PREDICTED BY RF-SCORE:    0.00 PKD
ROOT
HETATM    1  C   UNK A   0      -9.813  12.040  68.790  1.00  0.00    -0.044 C  
HETATM    2  N   UNK A   0      -8.375  12.207  68.601  1.00  0.00    -0.327 NA 
ENDROOT
BRANCH   2   3
HETATM    3  C   UNK A   0      -7.890  13.393  68.061  1.00  0.00    -0.148 A  
HETATM    4  C   UNK A   0      -6.954  15.956  67.300  1.00  0.00    -0.241 A  
HETATM    5  C   UNK A   0      -8.704  14.292  67.349  1.00  0.00    -0.217 A  
HETATM    6  C   UNK A   0      -6.557  13.777  68.271  1.00  0.00    -0.109 A  
HETATM    7  C   UNK A   0      -6.093  15.046  67.913  1.00  0.00    -0.170 A  
HETATM    8  C   UNK A   0      -8.243  15.556  66.957  1.00  0.00    -0.275 A  
BRANCH   4   9
HETATM    9  C   UNK A   0      -6.519  17.348  67.031  1.00  0.00    -0.169 C  
HETATM   10  O   UNK A   0      -6.175  17.695  65.911  1.00  0.00    -0.215 OA 
ATOM     11  N   GLU A   1      -6.581  18.212  68.118  1.00  0.00    -0.197 N  
ATOM     12  H   GLU A   1      -6.807  17.856  69.047  1.00  0.00     0.000 HD 
BRANCH  11  13
ATOM     13  CA  GLU A   1      -6.317  19.649  67.914  1.00  0.00    -0.213 C  
ATOM     14  OXT GLU A   1      -5.322  21.363  69.351  1.00  0.00    -0.252 OA 
ATOM     15  C   GLU A   1      -5.875  20.277  69.250  1.00  0.00    -0.321 C  
ATOM     16  O   GLU A   1      -6.314  19.585  70.331  1.00  0.00    -0.197 OA 
BRANCH  13  17
ATOM     17  CB  GLU A   1      -7.581  20.354  67.398  1.00  0.00    -0.364 C  
BRANCH  17  18
ATOM     18  CG  GLU A   1      -8.875  19.739  67.940  1.00  0.00    -0.381 C  
ATOM     19  OE2 GLU A   1      -9.840  20.019  65.734  1.00  0.00    -0.397 OA 
ATOM     20  OE1 GLU A   1     -11.080  19.070  67.367  1.00  0.00    -0.395 OA 
ATOM     21  CD  GLU A   1      -9.951  19.642  66.889  1.00  0.00    -0.400 C  
ENDBRANCH  17  18
ENDBRANCH  13  17
ENDBRANCH  11  13
ENDBRANCH   4   9
ENDBRANCH   2   3
BRANCH   2  22
HETATM   22  C   UNK A   0      -7.540  10.993  68.578  1.00  0.00    -0.114 C  
BRANCH  22  23
HETATM   23  C   UNK A   0      -8.162   9.824  67.839  1.00  0.00    -0.113 A  
HETATM   24  N   UNK A   0     -11.249   7.532  69.568  1.00  0.00    -0.455 NA 
HETATM   25  C   UNK A   0      -9.319   7.726  66.486  1.00  0.00    -0.189 A  
HETATM   26  C   UNK A   0      -7.835   9.503  66.534  1.00  0.00    -0.101 A  
HETATM   27  N   UNK A   0      -9.823   6.684  65.832  1.00  0.00    -0.310 NA 
HETATM   28  C   UNK A   0     -10.675   7.241  68.320  1.00  0.00    -0.123 A  
HETATM   29  C   UNK A   0      -9.692   8.070  67.789  1.00  0.00    -0.156 A  
HETATM   30  N   UNK A   0      -8.400   8.470  65.857  1.00  0.00    -0.130 NA 
HETATM   31  C   UNK A   0     -10.715   5.933  66.463  1.00  0.00    -0.181 A  
HETATM   32  H1  UNK A   0     -10.851   8.335  70.057  1.00  0.00     0.000 HD 
HETATM   33  H1  UNK A   0     -11.883   4.243  66.292  1.00  0.00     0.000 HD 
HETATM   34  N   UNK A   0     -11.197   4.821  65.807  1.00  0.00    -0.851 NA 
HETATM   35  N   UNK A   0     -11.197   6.186  67.678  1.00  0.00    -0.513 NA 
HETATM   36  N   UNK A   0      -9.119   9.110  68.477  1.00  0.00    -0.133 NA 
HETATM   37  H2  UNK A   0     -11.219   6.708  70.167  1.00  0.00     0.000 HD 
HETATM   38  H2  UNK A   0     -10.878   4.584  64.867  1.00  0.00     0.000 HD 
ENDBRANCH  22  23
ENDBRANCH   2  22
TORSDOF 7
ENDMDL
MODEL      152
REMARK 921   NORMALIZED FREE ENERGY PREDICTED BY IDOCK:   -5.13 KCAL/MOL
REMARK 922        TOTAL FREE ENERGY PREDICTED BY IDOCK:   -8.97 KCAL/MOL
REMARK 923 INTER-LIGAND FREE ENERGY PREDICTED BY IDOCK:   -7.70 KCAL/MOL
REMARK 924 INTRA-LIGAND FREE ENERGY PREDICTED BY IDOCK:   -1.27 KCAL/MOL
REMARK 927      BINDING AFFINITY PREDICTED BY RF-SCORE:    0.00 PKD
ROOT
HETATM    1  C   UNK A   0     -10.932  12.152  64.850  1.00  0.00    -0.309 C  
HETATM    2  N   UNK A   0     -11.178  11.932  66.272  1.00  0.00    -0.330 NA 
ENDROOT
BRANCH   2   3
HETATM    3  C   UNK A   0     -10.740  10.754  66.867  1.00  0.00    -0.252 A  
HETATM    4  C   UNK A   0     -10.162   8.200  67.948  1.00  0.00    -0.274 A  
HETATM    5  C   UNK A   0     -10.947  10.467  68.228  1.00  0.00    -0.314 A  
HETATM    6  C   UNK A   0     -10.122   9.756  66.097  1.00  0.00    -0.315 A  
HETATM    7  C   UNK A   0      -9.850   8.489  66.620  1.00  0.00    -0.342 A  
HETATM    8  C   UNK A   0     -10.651   9.210  68.773  1.00  0.00    -0.208 A  
BRANCH   4   9
HETATM    9  C   UNK A   0     -10.001   6.826  68.483  1.00  0.00    -0.149 C  
HETATM   10  O   UNK A   0     -10.862   6.318  69.185  1.00  0.00    -0.268 OA 
ATOM     11  N   GLU A   1      -8.843   6.166  68.089  1.00  0.00    -0.113 N  
ATOM     12  H   GLU A   1      -8.123   6.659  67.562  1.00  0.00     0.000 HD 
BRANCH  11  13
ATOM     13  CA  GLU A   1      -8.667   4.745  68.442  1.00  0.00    -0.101 C  
ATOM     14  OXT GLU A   1      -7.205   3.612  70.046  1.00  0.00    -0.041 OA 
ATOM     15  C   GLU A   1      -7.442   4.600  69.365  1.00  0.00    -0.052 C  
ATOM     16  O   GLU A   1      -6.549   5.611  69.222  1.00  0.00    -0.049 OA 
BRANCH  13  17
ATOM     17  CB  GLU A   1      -8.467   3.903  67.172  1.00  0.00    -0.100 C  
BRANCH  17  18
ATOM     18  CG  GLU A   1      -9.784   3.538  66.481  1.00  0.00    -0.043 C  
ATOM     19  OE2 GLU A   1      -9.480   5.472  65.051  1.00  0.00     0.137 OA 
ATOM     20  OE1 GLU A   1     -11.287   4.149  64.746  1.00  0.00    -0.294 OA 
ATOM     21  CD  GLU A   1     -10.139   4.496  65.372  1.00  0.00    -0.192 C  
ENDBRANCH  17  18
ENDBRANCH  13  17
ENDBRANCH  11  13
ENDBRANCH   4   9
ENDBRANCH   2   3
BRANCH   2  22
HETATM   22  C   UNK A   0     -12.233  12.733  66.917  1.00  0.00    -0.039 C  
BRANCH  22  23
HETATM   23  C   UNK A   0     -11.744  14.035  67.523  1.00  0.00    -0.387 A  
HETATM   24  N   UNK A   0     -10.838  17.370  65.110  1.00  0.00    -0.609 NA 
HETATM   25  C   UNK A   0     -10.893  16.409  68.622  1.00  0.00    -0.331 A  
HETATM   26  C   UNK A   0     -11.664  14.242  68.888  1.00  0.00    -0.328 A  
HETATM   27  N   UNK A   0     -10.432  17.527  69.175  1.00  0.00    -0.392 NA 
HETATM   28  C   UNK A   0     -10.649  17.347  66.501  1.00  0.00    -0.184 A  
HETATM   29  C   UNK A   0     -11.015  16.227  67.241  1.00  0.00    -0.144 A  
HETATM   30  N   UNK A   0     -11.244  15.410  69.441  1.00  0.00    -0.274 NA 
HETATM   31  C   UNK A   0     -10.061  18.509  68.364  1.00  0.00    -0.388 A  
HETATM   32  H1  UNK A   0     -11.192  16.505  64.702  1.00  0.00     0.000 HD 
HETATM   33  H1  UNK A   0      -9.246  20.400  68.308  1.00  0.00     0.000 HD 
HETATM   34  N   UNK A   0      -9.531  19.646  68.933  1.00  0.00    -0.353 NA 
HETATM   35  N   UNK A   0     -10.183  18.484  67.038  1.00  0.00    -0.360 NA 
HETATM   36  N   UNK A   0     -11.433  15.047  66.680  1.00  0.00    -0.302 NA 
HETATM   37  H2  UNK A   0      -9.974  17.648  64.644  1.00  0.00     0.000 HD 
HETATM   38  H2  UNK A   0      -9.428  19.730  69.944  1.00  0.00     0.000 HD 
ENDBRANCH  22  23
ENDBRANCH   2  22
TORSDOF 7
ENDMDL
MODEL      153
REMARK 921   NORMALIZED FREE ENERGY PREDICTED BY IDOCK:   -5.12 KCAL/MOL
REMARK 922        TOTAL FREE ENERGY PREDICTED BY IDOCK:   -8.96 KCAL/MOL
REMARK 923 INTER-LIGAND FREE ENERGY PREDICTED BY IDOCK:   -9.17 KCAL/MOL
REMARK 924 INTRA-LIGAND FREE ENERGY PREDICTED BY IDOCK:    0.21 KCAL/MOL
REMARK 927      BINDING AFFINITY PREDICTED BY RF-SCORE:    0.00 PKD
ROOT
HETATM    1  C   UNK A   0     -10.288  10.139  65.448  1.00  0.00    -0.106 C  
HETATM    2  N   UNK A   0      -9.486  10.724  66.519  1.00  0.00    -0.166 NA 
ENDROOT
BRANCH   2   3
HETATM    3  C   UNK A   0      -9.435  12.106  66.657  1.00  0.00    -0.223 A  
HETATM    4  C   UNK A   0      -9.179  14.927  66.595  1.00  0.00    -0.302 A  
HETATM    5  C   UNK A   0      -8.388  12.765  67.327  1.00  0.00    -0.187 A  
HETATM    6  C   UNK A   0     -10.412  12.917  66.058  1.00  0.00    -0.290 A  
HETATM    7  C   UNK A   0     -10.283  14.308  66.010  1.00  0.00    -0.327 A  
HETATM    8  C   UNK A   0      -8.264  14.161  67.312  1.00  0.00    -0.200 A  
BRANCH   4   9
HETATM    9  C   UNK A   0      -8.960  16.386  66.443  1.00  0.00    -0.305 C  
HETATM   10  O   UNK A   0      -8.062  16.817  65.734  1.00  0.00    -0.358 OA 
ATOM     11  N   GLU A   1      -9.866  17.198  67.114  1.00  0.00    -0.263 N  
ATOM     12  H   GLU A   1     -10.552  16.789  67.748  1.00  0.00     0.000 HD 
BRANCH  11  13
ATOM     13  CA  GLU A   1      -9.825  18.657  66.900  1.00  0.00    -0.333 C  
ATOM     14  OXT GLU A   1     -11.157  20.155  65.495  1.00  0.00    -0.134 OA 
ATOM     15  C   GLU A   1     -10.759  19.023  65.731  1.00  0.00    -0.276 C  
ATOM     16  O   GLU A   1     -10.965  17.991  64.874  1.00  0.00    -0.776 OA 
BRANCH  13  17
ATOM     17  CB  GLU A   1      -8.391  19.108  66.585  1.00  0.00    -0.309 C  
BRANCH  17  18
ATOM     18  CG  GLU A   1      -7.762  19.937  67.709  1.00  0.00    -0.327 C  
ATOM     19  OE2 GLU A   1      -6.388  18.015  68.252  1.00  0.00    -0.182 OA 
ATOM     20  OE1 GLU A   1      -6.137  19.920  69.441  1.00  0.00    -0.266 OA 
ATOM     21  CD  GLU A   1      -6.710  19.172  68.470  1.00  0.00    -0.268 C  
ENDBRANCH  17  18
ENDBRANCH  13  17
ENDBRANCH  11  13
ENDBRANCH   4   9
ENDBRANCH   2   3
BRANCH   2  22
HETATM   22  C   UNK A   0      -8.438   9.885  67.128  1.00  0.00    -0.121 C  
BRANCH  22  23
HETATM   23  C   UNK A   0      -8.724   9.473  68.559  1.00  0.00    -0.124 A  
HETATM   24  N   UNK A   0     -11.677   6.606  69.467  1.00  0.00    -0.657 NA 
HETATM   25  C   UNK A   0      -9.216   8.696  71.151  1.00  0.00    -0.213 A  
HETATM   26  C   UNK A   0      -7.976   9.926  69.631  1.00  0.00    -0.162 A  
HETATM   27  N   UNK A   0      -9.471   8.378  72.417  1.00  0.00    -0.280 NA 
HETATM   28  C   UNK A   0     -10.942   7.296  70.444  1.00  0.00    -0.252 A  
HETATM   29  C   UNK A   0      -9.948   8.194  70.070  1.00  0.00    -0.192 A  
HETATM   30  N   UNK A   0      -8.212   9.549  70.915  1.00  0.00    -0.327 NA 
HETATM   31  C   UNK A   0     -10.482   7.552  72.654  1.00  0.00    -0.271 A  
HETATM   32  H1  UNK A   0     -11.469   6.861  68.501  1.00  0.00     0.000 HD 
HETATM   33  H1  UNK A   0     -11.560   6.631  74.150  1.00  0.00     0.000 HD 
HETATM   34  N   UNK A   0     -10.782   7.266  73.968  1.00  0.00    -0.572 NA 
HETATM   35  N   UNK A   0     -11.215   6.961  71.713  1.00  0.00    -0.243 NA 
HETATM   36  N   UNK A   0      -9.716   8.578  68.773  1.00  0.00    -0.161 NA 
HETATM   37  H2  UNK A   0     -12.676   6.704  69.647  1.00  0.00     0.000 HD 
HETATM   38  H2  UNK A   0     -10.245   7.676  74.733  1.00  0.00     0.000 HD 
ENDBRANCH  22  23
ENDBRANCH   2  22
TORSDOF 7
ENDMDL
MODEL      154
REMARK 921   NORMALIZED FREE ENERGY PREDICTED BY IDOCK:   -5.12 KCAL/MOL
REMARK 922        TOTAL FREE ENERGY PREDICTED BY IDOCK:   -8.96 KCAL/MOL
REMARK 923 INTER-LIGAND FREE ENERGY PREDICTED BY IDOCK:   -9.20 KCAL/MOL
REMARK 924 INTRA-LIGAND FREE ENERGY PREDICTED BY IDOCK:    0.24 KCAL/MOL
REMARK 927      BINDING AFFINITY PREDICTED BY RF-SCORE:    0.00 PKD
ROOT
HETATM    1  C   UNK A   0     -14.055  13.687  72.179  1.00  0.00    -0.461 C  
HETATM    2  N   UNK A   0     -12.861  13.283  71.443  1.00  0.00    -0.356 NA 
ENDROOT
BRANCH   2   3
HETATM    3  C   UNK A   0     -12.644  11.936  71.179  1.00  0.00    -0.288 A  
HETATM    4  C   UNK A   0     -11.964   9.198  70.927  1.00  0.00    -0.299 A  
HETATM    5  C   UNK A   0     -11.741  11.489  70.198  1.00  0.00    -0.395 A  
HETATM    6  C   UNK A   0     -13.283  10.950  71.946  1.00  0.00    -0.508 A  
HETATM    7  C   UNK A   0     -12.940   9.599  71.839  1.00  0.00    -0.527 A  
HETATM    8  C   UNK A   0     -11.410  10.135  70.058  1.00  0.00    -0.351 A  
BRANCH   4   9
HETATM    9  C   UNK A   0     -11.495   7.791  70.889  1.00  0.00    -0.279 C  
HETATM   10  O   UNK A   0     -12.055   6.923  71.541  1.00  0.00    -0.318 OA 
ATOM     11  N   GLU A   1     -10.427   7.542  70.036  1.00  0.00    -0.222 N  
ATOM     12  H   GLU A   1      -9.950   8.313  69.568  1.00  0.00     0.000 HD 
BRANCH  11  13
ATOM     13  CA  GLU A   1      -9.990   6.151  69.812  1.00  0.00    -0.170 C  
ATOM     14  OXT GLU A   1      -7.777   5.107  69.751  1.00  0.00    -0.069 OA 
ATOM     15  C   GLU A   1      -8.457   6.119  69.663  1.00  0.00    -0.127 C  
ATOM     16  O   GLU A   1      -7.940   7.304  69.250  1.00  0.00    -0.114 OA 
BRANCH  13  17
ATOM     17  CB  GLU A   1     -10.650   5.583  68.546  1.00  0.00    -0.208 C  
BRANCH  17  18
ATOM     18  CG  GLU A   1      -9.655   4.899  67.605  1.00  0.00    -0.183 C  
ATOM     19  OE2 GLU A   1      -9.605   6.940  66.298  1.00  0.00    -0.135 OA 
ATOM     20  OE1 GLU A   1      -8.312   5.197  65.669  1.00  0.00    -0.115 OA 
ATOM     21  CD  GLU A   1      -9.214   5.798  66.477  1.00  0.00    -0.143 C  
ENDBRANCH  17  18
ENDBRANCH  13  17
ENDBRANCH  11  13
ENDBRANCH   4   9
ENDBRANCH   2   3
BRANCH   2  22
HETATM   22  C   UNK A   0     -11.735  14.234  71.388  1.00  0.00     0.047 C  
BRANCH  22  23
HETATM   23  C   UNK A   0     -11.543  14.893  70.036  1.00  0.00    -0.289 A  
HETATM   24  N   UNK A   0     -12.251  12.793  66.451  1.00  0.00    -0.518 NA 
HETATM   25  C   UNK A   0     -11.232  16.100  67.584  1.00  0.00    -0.147 A  
HETATM   26  C   UNK A   0     -11.228  16.233  69.895  1.00  0.00    -0.317 A  
HETATM   27  N   UNK A   0     -11.021  16.691  66.411  1.00  0.00     0.013 NA 
HETATM   28  C   UNK A   0     -11.761  14.107  66.494  1.00  0.00    -0.397 A  
HETATM   29  C   UNK A   0     -11.596  14.756  67.713  1.00  0.00    -0.357 A  
HETATM   30  N   UNK A   0     -11.072  16.838  68.689  1.00  0.00    -0.297 NA 
HETATM   31  C   UNK A   0     -11.155  15.954  65.316  1.00  0.00    -0.248 A  
HETATM   32  H1  UNK A   0     -12.408  12.354  67.359  1.00  0.00     0.000 HD 
HETATM   33  H1  UNK A   0     -10.987  15.983  63.262  1.00  0.00     0.000 HD 
HETATM   34  N   UNK A   0     -10.884  16.550  64.104  1.00  0.00    -0.753 NA 
HETATM   35  N   UNK A   0     -11.555  14.684  65.301  1.00  0.00    -0.351 NA 
HETATM   36  N   UNK A   0     -11.749  14.141  68.930  1.00  0.00    -0.313 NA 
HETATM   37  H2  UNK A   0     -11.639  12.209  65.882  1.00  0.00     0.000 HD 
HETATM   38  H2  UNK A   0     -10.589  17.526  64.051  1.00  0.00     0.000 HD 
ENDBRANCH  22  23
ENDBRANCH   2  22
TORSDOF 7
ENDMDL
MODEL      155
REMARK 921   NORMALIZED FREE ENERGY PREDICTED BY IDOCK:   -5.11 KCAL/MOL
REMARK 922        TOTAL FREE ENERGY PREDICTED BY IDOCK:   -8.95 KCAL/MOL
REMARK 923 INTER-LIGAND FREE ENERGY PREDICTED BY IDOCK:   -8.49 KCAL/MOL
REMARK 924 INTRA-LIGAND FREE ENERGY PREDICTED BY IDOCK:   -0.46 KCAL/MOL
REMARK 927      BINDING AFFINITY PREDICTED BY RF-SCORE:    0.00 PKD
ROOT
HETATM    1  C   UNK A   0      -6.592  11.626  69.958  1.00  0.00     0.044 C  
HETATM    2  N   UNK A   0      -7.436  11.945  68.810  1.00  0.00    -0.171 NA 
ENDROOT
BRANCH   2   3
HETATM    3  C   UNK A   0      -7.682  13.276  68.491  1.00  0.00    -0.120 A  
HETATM    4  C   UNK A   0      -7.919  16.071  68.095  1.00  0.00    -0.142 A  
HETATM    5  C   UNK A   0      -8.733  14.014  69.064  1.00  0.00     0.166 A  
HETATM    6  C   UNK A   0      -6.827  13.967  67.618  1.00  0.00    -0.193 A  
HETATM    7  C   UNK A   0      -6.928  15.348  67.431  1.00  0.00    -0.222 A  
HETATM    8  C   UNK A   0      -8.865  15.394  68.861  1.00  0.00    -0.211 A  
BRANCH   4   9
HETATM    9  C   UNK A   0      -7.962  17.551  68.012  1.00  0.00    -0.234 C  
HETATM   10  O   UNK A   0      -8.775  18.195  68.657  1.00  0.00    -0.306 OA 
ATOM     11  N   GLU A   1      -6.994  18.129  67.199  1.00  0.00    -0.190 N  
ATOM     12  H   GLU A   1      -6.385  17.545  66.627  1.00  0.00     0.000 HD 
BRANCH  11  13
ATOM     13  CA  GLU A   1      -6.857  19.598  67.173  1.00  0.00    -0.204 C  
ATOM     14  OXT GLU A   1      -6.742  21.211  65.335  1.00  0.00    -0.043 OA 
ATOM     15  C   GLU A   1      -6.616  20.058  65.723  1.00  0.00    -0.244 C  
ATOM     16  O   GLU A   1      -6.077  19.088  64.942  1.00  0.00    -0.260 OA 
BRANCH  13  17
ATOM     17  CB  GLU A   1      -5.685  20.039  68.063  1.00  0.00    -0.231 C  
BRANCH  17  18
ATOM     18  CG  GLU A   1      -5.320  19.003  69.131  1.00  0.00    -0.202 C  
ATOM     19  OE2 GLU A   1      -5.930  20.637  70.815  1.00  0.00    -0.555 OA 
ATOM     20  OE1 GLU A   1      -5.237  18.588  71.468  1.00  0.00    -0.435 OA 
ATOM     21  CD  GLU A   1      -5.532  19.519  70.532  1.00  0.00    -0.242 C  
ENDBRANCH  17  18
ENDBRANCH  13  17
ENDBRANCH  11  13
ENDBRANCH   4   9
ENDBRANCH   2   3
BRANCH   2  22
HETATM   22  C   UNK A   0      -8.333  10.890  68.303  1.00  0.00    -0.129 C  
BRANCH  22  23
HETATM   23  C   UNK A   0      -9.560  10.651  69.161  1.00  0.00    -0.177 A  
HETATM   24  N   UNK A   0      -9.664   7.560  72.026  1.00  0.00    -0.157 NA 
HETATM   25  C   UNK A   0     -11.772  10.240  70.745  1.00  0.00    -0.360 A  
HETATM   26  C   UNK A   0     -10.666  11.481  69.133  1.00  0.00    -0.168 A  
HETATM   27  N   UNK A   0     -12.873  10.029  71.459  1.00  0.00    -0.396 NA 
HETATM   28  C   UNK A   0     -10.761   8.390  71.741  1.00  0.00    -0.285 A  
HETATM   29  C   UNK A   0     -10.640   9.422  70.817  1.00  0.00    -0.303 A  
HETATM   30  N   UNK A   0     -11.764  11.286  69.910  1.00  0.00    -0.322 NA 
HETATM   31  C   UNK A   0     -12.891   8.978  72.269  1.00  0.00    -0.406 A  
HETATM   32  H1  UNK A   0      -8.827   7.736  71.469  1.00  0.00     0.000 HD 
HETATM   33  H1  UNK A   0     -14.065   7.919  73.590  1.00  0.00     0.000 HD 
HETATM   34  N   UNK A   0     -14.052   8.727  72.968  1.00  0.00    -1.105 NA 
HETATM   35  N   UNK A   0     -11.861   8.160  72.472  1.00  0.00    -0.463 NA 
HETATM   36  N   UNK A   0      -9.533   9.612  70.029  1.00  0.00    -0.228 NA 
HETATM   37  H2  UNK A   0      -9.937   6.581  71.948  1.00  0.00     0.000 HD 
HETATM   38  H2  UNK A   0     -14.869   9.329  72.866  1.00  0.00     0.000 HD 
ENDBRANCH  22  23
ENDBRANCH   2  22
TORSDOF 7
ENDMDL
MODEL      156
REMARK 921   NORMALIZED FREE ENERGY PREDICTED BY IDOCK:   -5.09 KCAL/MOL
REMARK 922        TOTAL FREE ENERGY PREDICTED BY IDOCK:   -8.92 KCAL/MOL
REMARK 923 INTER-LIGAND FREE ENERGY PREDICTED BY IDOCK:   -9.10 KCAL/MOL
REMARK 924 INTRA-LIGAND FREE ENERGY PREDICTED BY IDOCK:    0.17 KCAL/MOL
REMARK 927      BINDING AFFINITY PREDICTED BY RF-SCORE:    0.00 PKD
ROOT
HETATM    1  C   UNK A   0     -11.248  10.370  67.909  1.00  0.00    -0.263 C  
HETATM    2  N   UNK A   0     -10.521  10.639  66.672  1.00  0.00    -0.244 NA 
ENDROOT
BRANCH   2   3
HETATM    3  C   UNK A   0     -10.450  11.940  66.190  1.00  0.00    -0.237 A  
HETATM    4  C   UNK A   0     -10.429  14.699  65.545  1.00  0.00    -0.374 A  
HETATM    5  C   UNK A   0     -11.477  12.526  65.429  1.00  0.00    -0.383 A  
HETATM    6  C   UNK A   0      -9.356  12.759  66.512  1.00  0.00    -0.221 A  
HETATM    7  C   UNK A   0      -9.347  14.124  66.212  1.00  0.00    -0.215 A  
HETATM    8  C   UNK A   0     -11.466  13.887  65.094  1.00  0.00    -0.324 A  
BRANCH   4   9
HETATM    9  C   UNK A   0     -10.495  16.165  65.333  1.00  0.00    -0.373 C  
HETATM   10  O   UNK A   0     -11.236  16.647  64.490  1.00  0.00    -0.909 OA 
ATOM     11  N   GLU A   1      -9.703  16.926  66.184  1.00  0.00    -0.285 N  
ATOM     12  H   GLU A   1      -9.050  16.473  66.823  1.00  0.00     0.000 HD 
BRANCH  11  13
ATOM     13  CA  GLU A   1      -9.817  18.397  66.155  1.00  0.00    -0.272 C  
ATOM     14  OXT GLU A   1      -8.157  20.176  65.884  1.00  0.00    -0.290 OA 
ATOM     15  C   GLU A   1      -8.407  19.015  66.180  1.00  0.00    -0.217 C  
ATOM     16  O   GLU A   1      -7.478  18.194  66.732  1.00  0.00    -0.200 OA 
BRANCH  13  17
ATOM     17  CB  GLU A   1     -10.627  18.892  67.363  1.00  0.00    -0.534 C  
BRANCH  17  18
ATOM     18  CG  GLU A   1     -10.181  18.258  68.684  1.00  0.00    -0.377 C  
ATOM     19  OE2 GLU A   1     -11.765  16.470  68.272  1.00  0.00    -0.106 OA 
ATOM     20  OE1 GLU A   1     -10.482  16.399  70.131  1.00  0.00    -0.196 OA 
ATOM     21  CD  GLU A   1     -10.904  16.968  68.979  1.00  0.00    -0.206 C  
ENDBRANCH  17  18
ENDBRANCH  13  17
ENDBRANCH  11  13
ENDBRANCH   4   9
ENDBRANCH   2   3
BRANCH   2  22
HETATM   22  C   UNK A   0     -10.266   9.504  65.767  1.00  0.00    -0.037 C  
BRANCH  22  23
HETATM   23  C   UNK A   0      -9.879   8.219  66.473  1.00  0.00    -0.253 A  
HETATM   24  N   UNK A   0     -11.978   6.865  69.868  1.00  0.00    -0.640 NA 
HETATM   25  C   UNK A   0      -9.203   5.868  67.731  1.00  0.00    -0.108 A  
HETATM   26  C   UNK A   0      -8.897   7.369  65.996  1.00  0.00    -0.146 A  
HETATM   27  N   UNK A   0      -8.821   4.755  68.352  1.00  0.00    -0.101 NA 
HETATM   28  C   UNK A   0     -10.845   6.218  69.350  1.00  0.00    -0.340 A  
HETATM   29  C   UNK A   0     -10.230   6.695  68.196  1.00  0.00    -0.170 A  
HETATM   30  N   UNK A   0      -8.555   6.206  66.610  1.00  0.00    -0.115 NA 
HETATM   31  C   UNK A   0      -9.446   4.431  69.477  1.00  0.00    -0.181 A  
HETATM   32  H1  UNK A   0     -12.258   7.716  69.380  1.00  0.00     0.000 HD 
HETATM   33  H1  UNK A   0      -9.496   3.061  71.015  1.00  0.00     0.000 HD 
HETATM   34  N   UNK A   0      -9.015   3.310  70.150  1.00  0.00    -0.091 NA 
HETATM   35  N   UNK A   0     -10.477   5.100  69.991  1.00  0.00    -0.283 NA 
HETATM   36  N   UNK A   0     -10.574   7.872  67.581  1.00  0.00    -0.406 NA 
HETATM   37  H2  UNK A   0     -11.847   7.059  70.861  1.00  0.00     0.000 HD 
HETATM   38  H2  UNK A   0      -8.241   2.748  69.796  1.00  0.00     0.000 HD 
ENDBRANCH  22  23
ENDBRANCH   2  22
TORSDOF 7
ENDMDL
MODEL      157
REMARK 921   NORMALIZED FREE ENERGY PREDICTED BY IDOCK:   -5.08 KCAL/MOL
REMARK 922        TOTAL FREE ENERGY PREDICTED BY IDOCK:   -8.90 KCAL/MOL
REMARK 923 INTER-LIGAND FREE ENERGY PREDICTED BY IDOCK:   -7.98 KCAL/MOL
REMARK 924 INTRA-LIGAND FREE ENERGY PREDICTED BY IDOCK:   -0.92 KCAL/MOL
REMARK 927      BINDING AFFINITY PREDICTED BY RF-SCORE:    0.00 PKD
ROOT
HETATM    1  C   UNK A   0     -10.885   6.801  66.848  1.00  0.00    -0.331 C  
HETATM    2  N   UNK A   0     -10.111   7.868  67.476  1.00  0.00    -0.193 NA 
ENDROOT
BRANCH   2   3
HETATM    3  C   UNK A   0     -10.559   9.180  67.385  1.00  0.00    -0.244 A  
HETATM    4  C   UNK A   0     -11.111  11.954  67.217  1.00  0.00    -0.344 A  
HETATM    5  C   UNK A   0     -10.995   9.913  68.504  1.00  0.00    -0.226 A  
HETATM    6  C   UNK A   0     -10.525   9.861  66.158  1.00  0.00    -0.144 A  
HETATM    7  C   UNK A   0     -10.780  11.232  66.071  1.00  0.00    -0.301 A  
HETATM    8  C   UNK A   0     -11.284  11.283  68.425  1.00  0.00    -0.324 A  
BRANCH   4   9
HETATM    9  C   UNK A   0     -11.257  13.429  67.168  1.00  0.00    -0.302 C  
HETATM   10  O   UNK A   0     -12.183  13.950  66.564  1.00  0.00    -0.441 OA 
ATOM     11  N   GLU A   1     -10.309  14.146  67.887  1.00  0.00    -0.232 N  
ATOM     12  H   GLU A   1      -9.516  13.668  68.315  1.00  0.00     0.000 HD 
BRANCH  11  13
ATOM     13  CA  GLU A   1     -10.460  15.607  68.025  1.00  0.00    -0.263 C  
ATOM     14  OXT GLU A   1      -8.894  17.374  68.671  1.00  0.00    -0.271 OA 
ATOM     15  C   GLU A   1      -9.192  16.188  68.679  1.00  0.00    -0.220 C  
ATOM     16  O   GLU A   1      -8.515  15.277  69.423  1.00  0.00    -0.237 OA 
BRANCH  13  17
ATOM     17  CB  GLU A   1     -11.690  15.935  68.886  1.00  0.00    -0.376 C  
BRANCH  17  18
ATOM     18  CG  GLU A   1     -11.348  16.152  70.363  1.00  0.00    -0.377 C  
ATOM     19  OE2 GLU A   1     -12.236  13.942  70.814  1.00  0.00    -0.338 OA 
ATOM     20  OE1 GLU A   1     -11.378  15.153  72.518  1.00  0.00    -0.392 OA 
ATOM     21  CD  GLU A   1     -11.711  14.966  71.220  1.00  0.00    -0.331 C  
ENDBRANCH  17  18
ENDBRANCH  13  17
ENDBRANCH  11  13
ENDBRANCH   4   9
ENDBRANCH   2   3
BRANCH   2  22
HETATM   22  C   UNK A   0      -8.699   7.593  67.796  1.00  0.00    -0.127 C  
BRANCH  22  23
HETATM   23  C   UNK A   0      -8.014   8.691  68.587  1.00  0.00    -0.115 A  
HETATM   24  N   UNK A   0      -7.423  12.529  66.949  1.00  0.00    -0.387 NA 
HETATM   25  C   UNK A   0      -6.807  10.695  70.034  1.00  0.00    -0.148 A  
HETATM   26  C   UNK A   0      -7.639   8.538  69.909  1.00  0.00    -0.071 A  
HETATM   27  N   UNK A   0      -6.172  11.629  70.735  1.00  0.00    -0.512 NA 
HETATM   28  C   UNK A   0      -6.951  12.147  68.215  1.00  0.00    -0.080 A  
HETATM   29  C   UNK A   0      -7.225  10.877  68.712  1.00  0.00    -0.091 A  
HETATM   30  N   UNK A   0      -7.042   9.521  70.633  1.00  0.00    -0.139 NA 
HETATM   31  C   UNK A   0      -5.917  12.785  70.135  1.00  0.00    -0.135 A  
HETATM   32  H1  UNK A   0      -7.908  11.801  66.424  1.00  0.00     0.000 HD 
HETATM   33  H1  UNK A   0      -5.015  14.621  70.380  1.00  0.00     0.000 HD 
HETATM   34  N   UNK A   0      -5.211  13.733  70.842  1.00  0.00    -0.120 NA 
HETATM   35  N   UNK A   0      -6.313  13.103  68.904  1.00  0.00    -0.087 NA 
HETATM   36  N   UNK A   0      -7.823   9.884  67.977  1.00  0.00    -0.086 NA 
HETATM   37  H2  UNK A   0      -6.660  12.912  66.392  1.00  0.00     0.000 HD 
HETATM   38  H2  UNK A   0      -4.895  13.553  71.795  1.00  0.00     0.000 HD 
ENDBRANCH  22  23
ENDBRANCH   2  22
TORSDOF 7
ENDMDL
MODEL      158
REMARK 921   NORMALIZED FREE ENERGY PREDICTED BY IDOCK:   -5.07 KCAL/MOL
REMARK 922        TOTAL FREE ENERGY PREDICTED BY IDOCK:   -8.89 KCAL/MOL
REMARK 923 INTER-LIGAND FREE ENERGY PREDICTED BY IDOCK:   -7.79 KCAL/MOL
REMARK 924 INTRA-LIGAND FREE ENERGY PREDICTED BY IDOCK:   -1.10 KCAL/MOL
REMARK 927      BINDING AFFINITY PREDICTED BY RF-SCORE:    0.00 PKD
ROOT
HETATM    1  C   UNK A   0      -6.237  13.698  70.517  1.00  0.00    -0.028 C  
HETATM    2  N   UNK A   0      -6.571  12.861  69.368  1.00  0.00    -0.227 NA 
ENDROOT
BRANCH   2   3
HETATM    3  C   UNK A   0      -6.841  11.511  69.562  1.00  0.00    -0.075 A  
HETATM    4  C   UNK A   0      -7.604   8.870  70.245  1.00  0.00    -0.077 A  
HETATM    5  C   UNK A   0      -5.984  10.660  70.284  1.00  0.00    -0.111 A  
HETATM    6  C   UNK A   0      -8.040  10.951  69.094  1.00  0.00    -0.104 A  
HETATM    7  C   UNK A   0      -8.430   9.655  69.441  1.00  0.00    -0.156 A  
HETATM    8  C   UNK A   0      -6.350   9.348  70.613  1.00  0.00    -0.075 A  
BRANCH   4   9
HETATM    9  C   UNK A   0      -8.058   7.543  70.730  1.00  0.00    -0.108 C  
HETATM   10  O   UNK A   0      -7.256   6.661  70.995  1.00  0.00    -0.074 OA 
ATOM     11  N   GLU A   1      -9.431   7.409  70.898  1.00  0.00    -0.166 N  
ATOM     12  H   GLU A   1     -10.063   8.150  70.595  1.00  0.00     0.000 HD 
BRANCH  11  13
ATOM     13  CA  GLU A   1      -9.966   6.183  71.521  1.00  0.00    -0.182 C  
ATOM     14  OXT GLU A   1     -10.611   4.010  70.597  1.00  0.00     0.464 OA 
ATOM     15  C   GLU A   1     -10.397   5.200  70.416  1.00  0.00    -0.256 C  
ATOM     16  O   GLU A   1     -10.690   5.818  69.244  1.00  0.00    -0.286 OA 
BRANCH  13  17
ATOM     17  CB  GLU A   1     -11.166   6.522  72.418  1.00  0.00    -0.310 C  
BRANCH  17  18
ATOM     18  CG  GLU A   1     -11.384   8.029  72.585  1.00  0.00    -0.469 C  
ATOM     19  OE2 GLU A   1     -13.384   7.812  71.232  1.00  0.00    -0.280 OA 
ATOM     20  OE1 GLU A   1     -12.830   9.840  72.062  1.00  0.00    -0.395 OA 
ATOM     21  CD  GLU A   1     -12.628   8.514  71.884  1.00  0.00    -0.354 C  
ENDBRANCH  17  18
ENDBRANCH  13  17
ENDBRANCH  11  13
ENDBRANCH   4   9
ENDBRANCH   2   3
BRANCH   2  22
HETATM   22  C   UNK A   0      -6.195  13.351  68.030  1.00  0.00    -0.133 C  
BRANCH  22  23
HETATM   23  C   UNK A   0      -7.293  14.112  67.314  1.00  0.00    -0.008 A  
HETATM   24  N   UNK A   0     -10.571  12.112  65.575  1.00  0.00    -0.268 NA 
HETATM   25  C   UNK A   0      -9.307  15.494  66.048  1.00  0.00    -0.344 A  
HETATM   26  C   UNK A   0      -7.344  15.494  67.276  1.00  0.00    -0.214 A  
HETATM   27  N   UNK A   0     -10.238  16.183  65.395  1.00  0.00    -0.538 NA 
HETATM   28  C   UNK A   0     -10.371  13.499  65.481  1.00  0.00    -0.300 A  
HETATM   29  C   UNK A   0      -9.292  14.098  66.121  1.00  0.00    -0.136 A  
HETATM   30  N   UNK A   0      -8.333  16.186  66.653  1.00  0.00    -0.256 NA 
HETATM   31  C   UNK A   0     -11.190  15.498  64.775  1.00  0.00    -0.390 A  
HETATM   32  H1  UNK A   0      -9.847  11.599  66.079  1.00  0.00     0.000 HD 
HETATM   33  H1  UNK A   0     -12.856  15.680  63.575  1.00  0.00     0.000 HD 
HETATM   34  N   UNK A   0     -12.124  16.207  64.052  1.00  0.00    -1.159 NA 
HETATM   35  N   UNK A   0     -11.322  14.173  64.818  1.00  0.00    -0.356 NA 
HETATM   36  N   UNK A   0      -8.291  13.396  66.744  1.00  0.00    -0.420 NA 
HETATM   37  H2  UNK A   0     -10.698  11.714  64.645  1.00  0.00     0.000 HD 
HETATM   38  H2  UNK A   0     -12.085  17.225  63.996  1.00  0.00     0.000 HD 
ENDBRANCH  22  23
ENDBRANCH   2  22
TORSDOF 7
ENDMDL
MODEL      159
REMARK 921   NORMALIZED FREE ENERGY PREDICTED BY IDOCK:   -5.06 KCAL/MOL
REMARK 922        TOTAL FREE ENERGY PREDICTED BY IDOCK:   -8.89 KCAL/MOL
REMARK 923 INTER-LIGAND FREE ENERGY PREDICTED BY IDOCK:   -9.11 KCAL/MOL
REMARK 924 INTRA-LIGAND FREE ENERGY PREDICTED BY IDOCK:    0.23 KCAL/MOL
REMARK 927      BINDING AFFINITY PREDICTED BY RF-SCORE:    0.00 PKD
ROOT
HETATM    1  C   UNK A   0      -9.396   7.360  73.688  1.00  0.00    -0.258 C  
HETATM    2  N   UNK A   0      -8.767   7.502  72.378  1.00  0.00    -0.119 NA 
ENDROOT
BRANCH   2   3
HETATM    3  C   UNK A   0      -9.347   8.337  71.429  1.00  0.00    -0.172 A  
HETATM    4  C   UNK A   0     -10.483  10.312  69.747  1.00  0.00    -0.300 A  
HETATM    5  C   UNK A   0     -10.739   8.459  71.274  1.00  0.00    -0.286 A  
HETATM    6  C   UNK A   0      -8.546   9.159  70.621  1.00  0.00    -0.266 A  
HETATM    7  C   UNK A   0      -9.100  10.146  69.802  1.00  0.00    -0.166 A  
HETATM    8  C   UNK A   0     -11.308   9.424  70.432  1.00  0.00    -0.295 A  
BRANCH   4   9
HETATM    9  C   UNK A   0     -11.082  11.435  68.985  1.00  0.00    -0.243 C  
HETATM   10  O   UNK A   0     -12.146  11.303  68.399  1.00  0.00    -0.598 OA 
ATOM     11  N   GLU A   1     -10.376  12.631  69.034  1.00  0.00    -0.436 N  
ATOM     12  H   GLU A   1      -9.458  12.670  69.477  1.00  0.00     0.000 HD 
BRANCH  11  13
ATOM     13  CA  GLU A   1     -10.967  13.844  68.439  1.00  0.00    -0.253 C  
ATOM     14  OXT GLU A   1     -12.038  15.812  69.426  1.00  0.00    -0.354 OA 
ATOM     15  C   GLU A   1     -11.696  14.643  69.536  1.00  0.00    -0.324 C  
ATOM     16  O   GLU A   1     -12.083  13.872  70.584  1.00  0.00    -0.332 OA 
BRANCH  13  17
ATOM     17  CB  GLU A   1     -11.955  13.463  67.325  1.00  0.00    -0.393 C  
BRANCH  17  18
ATOM     18  CG  GLU A   1     -11.853  14.371  66.096  1.00  0.00    -0.391 C  
ATOM     19  OE2 GLU A   1     -12.999  12.652  64.828  1.00  0.00    -0.816 OA 
ATOM     20  OE1 GLU A   1     -12.413  14.576  63.797  1.00  0.00    -0.809 OA 
ATOM     21  CD  GLU A   1     -12.479  13.755  64.870  1.00  0.00    -0.386 C  
ENDBRANCH  17  18
ENDBRANCH  13  17
ENDBRANCH  11  13
ENDBRANCH   4   9
ENDBRANCH   2   3
BRANCH   2  22
HETATM   22  C   UNK A   0      -7.817   6.458  71.956  1.00  0.00    -0.100 C  
BRANCH  22  23
HETATM   23  C   UNK A   0      -8.316   5.581  70.824  1.00  0.00    -0.122 A  
HETATM   24  N   UNK A   0      -6.786   5.962  66.916  1.00  0.00    -0.056 NA 
HETATM   25  C   UNK A   0      -9.195   3.965  68.778  1.00  0.00    -0.152 A  
HETATM   26  C   UNK A   0      -9.216   4.548  71.019  1.00  0.00    -0.140 A  
HETATM   27  N   UNK A   0      -9.676   3.208  67.796  1.00  0.00    -0.243 NA 
HETATM   28  C   UNK A   0      -7.827   5.084  67.257  1.00  0.00    -0.096 A  
HETATM   29  C   UNK A   0      -8.249   4.976  68.578  1.00  0.00    -0.085 A  
HETATM   30  N   UNK A   0      -9.656   3.745  70.016  1.00  0.00    -0.197 NA 
HETATM   31  C   UNK A   0      -9.237   3.442  66.566  1.00  0.00    -0.164 A  
HETATM   32  H1  UNK A   0      -6.428   6.535  67.680  1.00  0.00     0.000 HD 
HETATM   33  H1  UNK A   0      -9.438   2.876  64.595  1.00  0.00     0.000 HD 
HETATM   34  N   UNK A   0      -9.776   2.696  65.541  1.00  0.00    -0.357 NA 
HETATM   35  N   UNK A   0      -8.297   4.331  66.253  1.00  0.00    -0.108 NA 
HETATM   36  N   UNK A   0      -7.807   5.792  69.588  1.00  0.00    -0.094 NA 
HETATM   37  H2  UNK A   0      -7.070   6.556  66.137  1.00  0.00     0.000 HD 
HETATM   38  H2  UNK A   0     -10.488   1.988  65.722  1.00  0.00     0.000 HD 
ENDBRANCH  22  23
ENDBRANCH   2  22
TORSDOF 7
ENDMDL
MODEL      160
REMARK 921   NORMALIZED FREE ENERGY PREDICTED BY IDOCK:   -5.06 KCAL/MOL
REMARK 922        TOTAL FREE ENERGY PREDICTED BY IDOCK:   -8.87 KCAL/MOL
REMARK 923 INTER-LIGAND FREE ENERGY PREDICTED BY IDOCK:   -7.28 KCAL/MOL
REMARK 924 INTRA-LIGAND FREE ENERGY PREDICTED BY IDOCK:   -1.59 KCAL/MOL
REMARK 927      BINDING AFFINITY PREDICTED BY RF-SCORE:    0.00 PKD
ROOT
HETATM    1  C   UNK A   0      -6.478   8.088  65.284  1.00  0.00    -0.048 C  
HETATM    2  N   UNK A   0      -7.929   8.240  65.340  1.00  0.00    -0.119 NA 
ENDROOT
BRANCH   2   3
HETATM    3  C   UNK A   0      -8.479   9.512  65.447  1.00  0.00    -0.148 A  
HETATM    4  C   UNK A   0      -9.826  11.958  65.925  1.00  0.00    -0.261 A  
HETATM    5  C   UNK A   0      -9.479   9.984  64.578  1.00  0.00    -0.359 A  
HETATM    6  C   UNK A   0      -8.096  10.366  66.494  1.00  0.00    -0.122 A  
HETATM    7  C   UNK A   0      -8.768  11.566  66.745  1.00  0.00    -0.178 A  
HETATM    8  C   UNK A   0     -10.140  11.199  64.801  1.00  0.00    -0.351 A  
BRANCH   4   9
HETATM    9  C   UNK A   0     -10.632  13.159  66.252  1.00  0.00    -0.284 C  
HETATM   10  O   UNK A   0     -11.382  13.658  65.427  1.00  0.00    -0.298 OA 
ATOM     11  N   GLU A   1     -10.504  13.626  67.555  1.00  0.00    -0.240 N  
ATOM     12  H   GLU A   1      -9.812  13.217  68.183  1.00  0.00     0.000 HD 
BRANCH  11  13
ATOM     13  CA  GLU A   1     -11.379  14.719  68.020  1.00  0.00    -0.316 C  
ATOM     14  OXT GLU A   1     -10.967  17.093  68.447  1.00  0.00    -0.337 OA 
ATOM     15  C   GLU A   1     -10.521  15.962  68.320  1.00  0.00    -0.257 C  
ATOM     16  O   GLU A   1      -9.229  15.658  68.605  1.00  0.00    -0.188 OA 
BRANCH  13  17
ATOM     17  CB  GLU A   1     -12.139  14.290  69.285  1.00  0.00    -0.351 C  
BRANCH  17  18
ATOM     18  CG  GLU A   1     -12.015  12.792  69.580  1.00  0.00    -0.354 C  
ATOM     19  OE2 GLU A   1     -12.996  13.219  71.756  1.00  0.00    -0.358 OA 
ATOM     20  OE1 GLU A   1     -12.454  11.100  71.188  1.00  0.00    -0.382 OA 
ATOM     21  CD  GLU A   1     -12.538  12.428  70.947  1.00  0.00    -0.246 C  
ENDBRANCH  17  18
ENDBRANCH  13  17
ENDBRANCH  11  13
ENDBRANCH   4   9
ENDBRANCH   2   3
BRANCH   2  22
HETATM   22  C   UNK A   0      -8.728   7.059  65.712  1.00  0.00    -0.100 C  
BRANCH  22  23
HETATM   23  C   UNK A   0      -8.679   6.714  67.188  1.00  0.00    -0.111 A  
HETATM   24  N   UNK A   0     -11.327   8.490  69.945  1.00  0.00    -0.456 NA 
HETATM   25  C   UNK A   0      -8.616   6.061  69.860  1.00  0.00    -0.131 A  
HETATM   26  C   UNK A   0      -7.846   5.735  67.701  1.00  0.00    -0.098 A  
HETATM   27  N   UNK A   0      -8.528   5.767  71.154  1.00  0.00    -0.126 NA 
HETATM   28  C   UNK A   0     -10.302   7.605  70.316  1.00  0.00    -0.214 A  
HETATM   29  C   UNK A   0      -9.495   7.018  69.346  1.00  0.00    -0.145 A  
HETATM   30  N   UNK A   0      -7.807   5.405  69.018  1.00  0.00    -0.089 NA 
HETATM   31  C   UNK A   0      -9.311   6.433  71.992  1.00  0.00    -0.151 A  
HETATM   32  H1  UNK A   0     -11.381   8.705  68.949  1.00  0.00     0.000 HD 
HETATM   33  H1  UNK A   0      -9.785   6.682  73.982  1.00  0.00     0.000 HD 
HETATM   34  N   UNK A   0      -9.182   6.170  73.338  1.00  0.00    -0.131 NA 
HETATM   35  N   UNK A   0     -10.231   7.323  71.625  1.00  0.00    -0.193 NA 
HETATM   36  N   UNK A   0      -9.533   7.358  68.017  1.00  0.00    -0.140 NA 
HETATM   37  H2  UNK A   0     -11.256   9.353  70.485  1.00  0.00     0.000 HD 
HETATM   38  H2  UNK A   0      -8.506   5.485  73.678  1.00  0.00     0.000 HD 
ENDBRANCH  22  23
ENDBRANCH   2  22
TORSDOF 7
ENDMDL
MODEL      161
REMARK 921   NORMALIZED FREE ENERGY PREDICTED BY IDOCK:   -5.05 KCAL/MOL
REMARK 922        TOTAL FREE ENERGY PREDICTED BY IDOCK:   -8.87 KCAL/MOL
REMARK 923 INTER-LIGAND FREE ENERGY PREDICTED BY IDOCK:   -7.81 KCAL/MOL
REMARK 924 INTRA-LIGAND FREE ENERGY PREDICTED BY IDOCK:   -1.06 KCAL/MOL
REMARK 927      BINDING AFFINITY PREDICTED BY RF-SCORE:    0.00 PKD
ROOT
HETATM    1  C   UNK A   0      -9.602  18.337  68.581  1.00  0.00    -0.335 C  
HETATM    2  N   UNK A   0      -9.434  17.215  67.662  1.00  0.00    -0.239 NA 
ENDROOT
BRANCH   2   3
HETATM    3  C   UNK A   0      -8.786  16.066  68.099  1.00  0.00    -0.178 A  
HETATM    4  C   UNK A   0      -7.529  13.587  68.647  1.00  0.00    -0.108 A  
HETATM    5  C   UNK A   0      -9.443  15.051  68.818  1.00  0.00    -0.210 A  
HETATM    6  C   UNK A   0      -7.440  15.839  67.771  1.00  0.00    -0.162 A  
HETATM    7  C   UNK A   0      -6.819  14.613  68.024  1.00  0.00    -0.152 A  
HETATM    8  C   UNK A   0      -8.822  13.827  69.105  1.00  0.00     0.425 A  
BRANCH   4   9
HETATM    9  C   UNK A   0      -6.930  12.240  68.807  1.00  0.00    -0.098 C  
HETATM   10  O   UNK A   0      -5.965  12.061  69.534  1.00  0.00    -0.079 OA 
ATOM     11  N   GLU A   1      -7.571  11.218  68.117  1.00  0.00    -0.099 N  
ATOM     12  H   GLU A   1      -8.329  11.430  67.468  1.00  0.00     0.000 HD 
BRANCH  11  13
ATOM     13  CA  GLU A   1      -7.145   9.822  68.335  1.00  0.00    -0.073 C  
ATOM     14  OXT GLU A   1      -6.509   8.032  66.790  1.00  0.00    -0.053 OA 
ATOM     15  C   GLU A   1      -7.088   9.093  66.978  1.00  0.00    -0.086 C  
ATOM     16  O   GLU A   1      -7.891   9.655  66.041  1.00  0.00    -0.100 OA 
BRANCH  13  17
ATOM     17  CB  GLU A   1      -8.129   9.105  69.272  1.00  0.00    -0.102 C  
BRANCH  17  18
ATOM     18  CG  GLU A   1      -7.974   9.522  70.738  1.00  0.00    -0.090 C  
ATOM     19  OE2 GLU A   1      -5.939   8.205  70.815  1.00  0.00    -0.033 OA 
ATOM     20  OE1 GLU A   1      -6.589   9.339  72.659  1.00  0.00    -0.303 OA 
ATOM     21  CD  GLU A   1      -6.736   8.942  71.374  1.00  0.00    -0.085 C  
ENDBRANCH  17  18
ENDBRANCH  13  17
ENDBRANCH  11  13
ENDBRANCH   4   9
ENDBRANCH   2   3
BRANCH   2  22
HETATM   22  C   UNK A   0      -9.556  17.487  66.218  1.00  0.00    -0.237 C  
BRANCH  22  23
HETATM   23  C   UNK A   0     -10.308  16.421  65.445  1.00  0.00    -0.262 A  
HETATM   24  N   UNK A   0      -9.497  12.323  66.006  1.00  0.00    -0.340 NA 
HETATM   25  C   UNK A   0     -11.698  14.485  64.072  1.00  0.00    -0.080 A  
HETATM   26  C   UNK A   0     -11.361  16.714  64.598  1.00  0.00     0.042 A  
HETATM   27  N   UNK A   0     -12.348  13.572  63.356  1.00  0.00    -0.963 NA 
HETATM   28  C   UNK A   0     -10.413  12.808  65.060  1.00  0.00    -0.314 A  
HETATM   29  C   UNK A   0     -10.666  14.173  64.962  1.00  0.00    -0.416 A  
HETATM   30  N   UNK A   0     -12.054  15.766  63.915  1.00  0.00    -1.125 NA 
HETATM   31  C   UNK A   0     -11.980  12.305  63.492  1.00  0.00    -0.533 A  
HETATM   32  H1  UNK A   0      -9.008  13.036  66.548  1.00  0.00     0.000 HD 
HETATM   33  H1  UNK A   0     -12.331  10.390  62.815  1.00  0.00     0.000 HD 
HETATM   34  N   UNK A   0     -12.614  11.365  62.710  1.00  0.00    -0.763 NA 
HETATM   35  N   UNK A   0     -11.056  11.871  64.348  1.00  0.00    -0.320 NA 
HETATM   36  N   UNK A   0      -9.961  15.129  65.649  1.00  0.00    -0.341 NA 
HETATM   37  H2  UNK A   0      -8.824  11.703  65.556  1.00  0.00     0.000 HD 
HETATM   38  H2  UNK A   0     -13.342  11.634  62.048  1.00  0.00     0.000 HD 
ENDBRANCH  22  23
ENDBRANCH   2  22
TORSDOF 7
ENDMDL
MODEL      162
REMARK 921   NORMALIZED FREE ENERGY PREDICTED BY IDOCK:   -5.05 KCAL/MOL
REMARK 922        TOTAL FREE ENERGY PREDICTED BY IDOCK:   -8.86 KCAL/MOL
REMARK 923 INTER-LIGAND FREE ENERGY PREDICTED BY IDOCK:   -7.24 KCAL/MOL
REMARK 924 INTRA-LIGAND FREE ENERGY PREDICTED BY IDOCK:   -1.62 KCAL/MOL
REMARK 927      BINDING AFFINITY PREDICTED BY RF-SCORE:    0.00 PKD
ROOT
HETATM    1  C   UNK A   0      -6.407   9.563  62.444  1.00  0.00    -0.096 C  
HETATM    2  N   UNK A   0      -7.442   8.881  63.216  1.00  0.00    -0.099 NA 
ENDROOT
BRANCH   2   3
HETATM    3  C   UNK A   0      -7.784   9.361  64.474  1.00  0.00    -0.118 A  
HETATM    4  C   UNK A   0      -8.461   9.985  67.153  1.00  0.00    -0.125 A  
HETATM    5  C   UNK A   0      -9.115   9.599  64.861  1.00  0.00    -0.284 A  
HETATM    6  C   UNK A   0      -6.796   9.565  65.450  1.00  0.00    -0.086 A  
HETATM    7  C   UNK A   0      -7.124   9.857  66.777  1.00  0.00    -0.090 A  
HETATM    8  C   UNK A   0      -9.456   9.921  66.182  1.00  0.00    -0.254 A  
BRANCH   4   9
HETATM    9  C   UNK A   0      -8.833  10.165  68.578  1.00  0.00    -0.127 C  
HETATM   10  O   UNK A   0      -8.114  10.790  69.343  1.00  0.00    -0.131 OA 
ATOM     11  N   GLU A   1     -10.057   9.620  68.947  1.00  0.00    -0.180 N  
ATOM     12  H   GLU A   1     -10.585   9.047  68.289  1.00  0.00     0.000 HD 
BRANCH  11  13
ATOM     13  CA  GLU A   1     -10.585   9.880  70.300  1.00  0.00    -0.301 C  
ATOM     14  OXT GLU A   1     -10.770   8.476  72.296  1.00  0.00    -0.323 OA 
ATOM     15  C   GLU A   1     -10.649   8.555  71.082  1.00  0.00    -0.220 C  
ATOM     16  O   GLU A   1     -10.734   7.467  70.274  1.00  0.00    -0.228 OA 
BRANCH  13  17
ATOM     17  CB  GLU A   1     -11.985  10.505  70.213  1.00  0.00    -0.411 C  
BRANCH  17  18
ATOM     18  CG  GLU A   1     -11.962  12.037  70.240  1.00  0.00    -0.398 C  
ATOM     19  OE2 GLU A   1     -11.941  12.001  67.816  1.00  0.00    -0.538 OA 
ATOM     20  OE1 GLU A   1     -11.962  13.990  68.889  1.00  0.00    -0.335 OA 
ATOM     21  CD  GLU A   1     -11.951  12.638  68.857  1.00  0.00    -0.242 C  
ENDBRANCH  17  18
ENDBRANCH  13  17
ENDBRANCH  11  13
ENDBRANCH   4   9
ENDBRANCH   2   3
BRANCH   2  22
HETATM   22  C   UNK A   0      -7.772   7.494  62.843  1.00  0.00    -0.123 C  
BRANCH  22  23
HETATM   23  C   UNK A   0      -7.704   6.507  63.992  1.00  0.00    -0.105 A  
HETATM   24  N   UNK A   0     -11.167   4.598  65.452  1.00  0.00    -0.984 NA 
HETATM   25  C   UNK A   0      -7.576   4.688  66.052  1.00  0.00    -0.090 A  
HETATM   26  C   UNK A   0      -6.509   6.098  64.558  1.00  0.00    -0.034 A  
HETATM   27  N   UNK A   0      -7.494   3.853  67.084  1.00  0.00    -0.072 NA 
HETATM   28  C   UNK A   0      -9.894   4.433  66.021  1.00  0.00    -0.230 A  
HETATM   29  C   UNK A   0      -8.786   5.057  65.456  1.00  0.00    -0.146 A  
HETATM   30  N   UNK A   0      -6.435   5.201  65.575  1.00  0.00    -0.035 NA 
HETATM   31  C   UNK A   0      -8.625   3.363  67.573  1.00  0.00    -0.103 A  
HETATM   32  H1  UNK A   0     -11.213   5.240  64.661  1.00  0.00     0.000 HD 
HETATM   33  H1  UNK A   0      -9.415   2.165  69.052  1.00  0.00     0.000 HD 
HETATM   34  N   UNK A   0      -8.545   2.542  68.676  1.00  0.00    -0.068 NA 
HETATM   35  N   UNK A   0      -9.833   3.588  67.060  1.00  0.00    -0.339 NA 
HETATM   36  N   UNK A   0      -8.864   5.967  64.433  1.00  0.00    -0.328 NA 
HETATM   37  H2  UNK A   0     -11.837   4.876  66.168  1.00  0.00     0.000 HD 
HETATM   38  H2  UNK A   0      -7.645   2.319  69.103  1.00  0.00     0.000 HD 
ENDBRANCH  22  23
ENDBRANCH   2  22
TORSDOF 7
ENDMDL
MODEL      163
REMARK 921   NORMALIZED FREE ENERGY PREDICTED BY IDOCK:   -5.04 KCAL/MOL
REMARK 922        TOTAL FREE ENERGY PREDICTED BY IDOCK:   -8.85 KCAL/MOL
REMARK 923 INTER-LIGAND FREE ENERGY PREDICTED BY IDOCK:   -9.58 KCAL/MOL
REMARK 924 INTRA-LIGAND FREE ENERGY PREDICTED BY IDOCK:    0.73 KCAL/MOL
REMARK 927      BINDING AFFINITY PREDICTED BY RF-SCORE:    0.00 PKD
ROOT
HETATM    1  C   UNK A   0      -6.684   9.057  67.992  1.00  0.00    -0.068 C  
HETATM    2  N   UNK A   0      -7.430   9.782  69.017  1.00  0.00    -0.077 NA 
ENDROOT
BRANCH   2   3
HETATM    3  C   UNK A   0      -7.875  11.072  68.753  1.00  0.00    -0.138 A  
HETATM    4  C   UNK A   0      -8.641  13.653  67.873  1.00  0.00    -0.181 A  
HETATM    5  C   UNK A   0      -7.134  12.217  69.097  1.00  0.00    -0.015 A  
HETATM    6  C   UNK A   0      -9.076  11.281  68.056  1.00  0.00    -0.156 A  
HETATM    7  C   UNK A   0      -9.451  12.550  67.605  1.00  0.00    -0.188 A  
HETATM    8  C   UNK A   0      -7.515  13.499  68.677  1.00  0.00    -0.108 A  
BRANCH   4   9
HETATM    9  C   UNK A   0      -8.955  14.982  67.293  1.00  0.00    -0.199 C  
HETATM   10  O   UNK A   0      -8.066  15.764  66.991  1.00  0.00    -0.192 OA 
ATOM     11  N   GLU A   1     -10.305  15.235  67.082  1.00  0.00    -0.261 N  
ATOM     12  H   GLU A   1     -11.011  14.579  67.416  1.00  0.00     0.000 HD 
BRANCH  11  13
ATOM     13  CA  GLU A   1     -10.707  16.462  66.368  1.00  0.00    -0.161 C  
ATOM     14  OXT GLU A   1     -11.675  16.839  64.152  1.00  0.00    -1.033 OA 
ATOM     15  C   GLU A   1     -11.050  16.110  64.908  1.00  0.00    -0.325 C  
ATOM     16  O   GLU A   1     -10.439  14.977  64.479  1.00  0.00    -0.208 OA 
BRANCH  13  17
ATOM     17  CB  GLU A   1      -9.570  17.495  66.404  1.00  0.00    -0.283 C  
BRANCH  17  18
ATOM     18  CG  GLU A   1     -10.073  18.941  66.420  1.00  0.00    -0.457 C  
ATOM     19  OE2 GLU A   1      -8.190  19.500  67.840  1.00  0.00    -0.295 OA 
ATOM     20  OE1 GLU A   1      -9.622  21.132  67.218  1.00  0.00    -0.335 OA 
ATOM     21  CD  GLU A   1      -9.189  19.851  67.235  1.00  0.00    -0.348 C  
ENDBRANCH  17  18
ENDBRANCH  13  17
ENDBRANCH  11  13
ENDBRANCH   4   9
ENDBRANCH   2   3
BRANCH   2  22
HETATM   22  C   UNK A   0      -7.314   9.314  70.410  1.00  0.00    -0.111 C  
BRANCH  22  23
HETATM   23  C   UNK A   0      -8.637   8.953  71.058  1.00  0.00    -0.206 A  
HETATM   24  N   UNK A   0     -12.107  11.249  70.386  1.00  0.00    -0.360 NA 
HETATM   25  C   UNK A   0     -11.045   8.276  72.202  1.00  0.00    -0.328 A  
HETATM   26  C   UNK A   0      -8.811   7.808  71.814  1.00  0.00    -0.119 A  
HETATM   27  N   UNK A   0     -12.184   7.958  72.811  1.00  0.00    -0.606 NA 
HETATM   28  C   UNK A   0     -12.061  10.154  71.264  1.00  0.00    -0.394 A  
HETATM   29  C   UNK A   0     -10.893   9.411  71.400  1.00  0.00    -0.360 A  
HETATM   30  N   UNK A   0      -9.996   7.465  72.384  1.00  0.00    -0.174 NA 
HETATM   31  C   UNK A   0     -13.218   8.774  72.650  1.00  0.00    -0.275 A  
HETATM   32  H1  UNK A   0     -11.225  11.479  69.927  1.00  0.00     0.000 HD 
HETATM   33  H1  UNK A   0     -15.176   9.104  73.202  1.00  0.00     0.000 HD 
HETATM   34  N   UNK A   0     -14.381   8.476  73.325  1.00  0.00    -0.863 NA 
HETATM   35  N   UNK A   0     -13.219   9.851  71.867  1.00  0.00    -0.436 NA 
HETATM   36  N   UNK A   0      -9.696   9.763  70.828  1.00  0.00    -0.320 NA 
HETATM   37  H2  UNK A   0     -12.474  12.069  70.869  1.00  0.00     0.000 HD 
HETATM   38  H2  UNK A   0     -14.446   7.655  73.927  1.00  0.00     0.000 HD 
ENDBRANCH  22  23
ENDBRANCH   2  22
TORSDOF 7
ENDMDL
MODEL      164
REMARK 921   NORMALIZED FREE ENERGY PREDICTED BY IDOCK:   -5.02 KCAL/MOL
REMARK 922        TOTAL FREE ENERGY PREDICTED BY IDOCK:   -8.82 KCAL/MOL
REMARK 923 INTER-LIGAND FREE ENERGY PREDICTED BY IDOCK:   -7.49 KCAL/MOL
REMARK 924 INTRA-LIGAND FREE ENERGY PREDICTED BY IDOCK:   -1.33 KCAL/MOL
REMARK 927      BINDING AFFINITY PREDICTED BY RF-SCORE:    0.00 PKD
ROOT
HETATM    1  C   UNK A   0      -6.495  11.470  69.791  1.00  0.00    -0.125 C  
HETATM    2  N   UNK A   0      -7.256  10.583  68.916  1.00  0.00    -0.079 NA 
ENDROOT
BRANCH   2   3
HETATM    3  C   UNK A   0      -7.808   9.418  69.436  1.00  0.00    -0.087 A  
HETATM    4  C   UNK A   0      -9.232   7.121  70.285  1.00  0.00    -0.156 A  
HETATM    5  C   UNK A   0      -8.465   9.377  70.678  1.00  0.00    -0.239 A  
HETATM    6  C   UNK A   0      -7.789   8.229  68.690  1.00  0.00    -0.120 A  
HETATM    7  C   UNK A   0      -8.503   7.097  69.095  1.00  0.00    -0.133 A  
HETATM    8  C   UNK A   0      -9.160   8.239  71.111  1.00  0.00    -0.198 A  
BRANCH   4   9
HETATM    9  C   UNK A   0     -10.097   5.978  70.665  1.00  0.00    -0.194 C  
HETATM   10  O   UNK A   0     -11.245   5.893  70.254  1.00  0.00    -0.332 OA 
ATOM     11  N   GLU A   1      -9.495   5.016  71.466  1.00  0.00    -0.148 N  
ATOM     12  H   GLU A   1      -8.559   5.169  71.841  1.00  0.00     0.000 HD 
BRANCH  11  13
ATOM     13  CA  GLU A   1     -10.223   3.769  71.769  1.00  0.00    -0.028 C  
ATOM     14  OXT GLU A   1     -11.145   2.860  73.847  1.00  0.00    -0.206 OA 
ATOM     15  C   GLU A   1     -10.362   3.622  73.296  1.00  0.00    -0.163 C  
ATOM     16  O   GLU A   1      -9.406   4.297  73.982  1.00  0.00    -0.105 OA 
BRANCH  13  17
ATOM     17  CB  GLU A   1      -9.470   2.560  71.193  1.00  0.00    -0.222 C  
BRANCH  17  18
ATOM     18  CG  GLU A   1      -9.890   2.217  69.761  1.00  0.00     0.220 C  
ATOM     19  OE2 GLU A   1      -8.010   3.530  68.977  1.00  0.00    -0.057 OA 
ATOM     20  OE1 GLU A   1      -9.334   2.491  67.469  1.00  0.00    -0.178 OA 
ATOM     21  CD  GLU A   1      -8.974   2.824  68.729  1.00  0.00    -0.130 C  
ENDBRANCH  17  18
ENDBRANCH  13  17
ENDBRANCH  11  13
ENDBRANCH   4   9
ENDBRANCH   2   3
BRANCH   2  22
HETATM   22  C   UNK A   0      -7.055  10.716  67.462  1.00  0.00    -0.089 C  
BRANCH  22  23
HETATM   23  C   UNK A   0      -8.158  11.472  66.746  1.00  0.00    -0.158 A  
HETATM   24  N   UNK A   0      -9.811  10.043  63.142  1.00  0.00    -0.514 NA 
HETATM   25  C   UNK A   0     -10.186  12.820  65.467  1.00  0.00    -0.279 A  
HETATM   26  C   UNK A   0      -8.754  12.603  67.274  1.00  0.00    -0.198 A  
HETATM   27  N   UNK A   0     -11.128  13.520  64.842  1.00  0.00    -0.330 NA 
HETATM   28  C   UNK A   0     -10.176  11.265  63.730  1.00  0.00    -0.377 A  
HETATM   29  C   UNK A   0      -9.623  11.651  64.947  1.00  0.00    -0.150 A  
HETATM   30  N   UNK A   0      -9.756  13.276  66.650  1.00  0.00    -0.263 NA 
HETATM   31  C   UNK A   0     -11.538  13.082  63.658  1.00  0.00    -0.449 A  
HETATM   32  H1  UNK A   0      -9.087   9.519  63.634  1.00  0.00     0.000 HD 
HETATM   33  H1  UNK A   0     -12.788  13.499  62.074  1.00  0.00     0.000 HD 
HETATM   34  N   UNK A   0     -12.473  13.836  62.984  1.00  0.00    -1.000 NA 
HETATM   35  N   UNK A   0     -11.126  11.954  63.083  1.00  0.00    -0.693 NA 
HETATM   36  N   UNK A   0      -8.608  10.972  65.572  1.00  0.00    -0.312 NA 
HETATM   37  H2  UNK A   0      -9.536  10.191  62.171  1.00  0.00     0.000 HD 
HETATM   38  H2  UNK A   0     -12.839  14.701  63.382  1.00  0.00     0.000 HD 
ENDBRANCH  22  23
ENDBRANCH   2  22
TORSDOF 7
ENDMDL
MODEL      165
REMARK 921   NORMALIZED FREE ENERGY PREDICTED BY IDOCK:   -5.01 KCAL/MOL
REMARK 922        TOTAL FREE ENERGY PREDICTED BY IDOCK:   -8.81 KCAL/MOL
REMARK 923 INTER-LIGAND FREE ENERGY PREDICTED BY IDOCK:   -7.92 KCAL/MOL
REMARK 924 INTRA-LIGAND FREE ENERGY PREDICTED BY IDOCK:   -0.89 KCAL/MOL
REMARK 927      BINDING AFFINITY PREDICTED BY RF-SCORE:    0.00 PKD
ROOT
HETATM    1  C   UNK A   0     -12.039  13.068  67.053  1.00  0.00    -0.267 C  
HETATM    2  N   UNK A   0     -10.971  12.429  66.289  1.00  0.00    -0.275 NA 
ENDROOT
BRANCH   2   3
HETATM    3  C   UNK A   0     -10.256  11.383  66.859  1.00  0.00    -0.219 A  
HETATM    4  C   UNK A   0      -9.125   9.135  68.159  1.00  0.00    -0.134 A  
HETATM    5  C   UNK A   0      -9.577  11.506  68.085  1.00  0.00    -0.187 A  
HETATM    6  C   UNK A   0     -10.242  10.117  66.253  1.00  0.00    -0.288 A  
HETATM    7  C   UNK A   0      -9.701   9.001  66.896  1.00  0.00    -0.260 A  
HETATM    8  C   UNK A   0      -9.003  10.400  68.727  1.00  0.00    -0.157 A  
BRANCH   4   9
HETATM    9  C   UNK A   0      -8.663   7.942  68.911  1.00  0.00    -0.135 C  
HETATM   10  O   UNK A   0      -7.588   7.418  68.663  1.00  0.00    -0.105 OA 
ATOM     11  N   GLU A   1      -9.510   7.514  69.926  1.00  0.00    -0.161 N  
ATOM     12  H   GLU A   1     -10.428   7.941  70.046  1.00  0.00     0.000 HD 
BRANCH  11  13
ATOM     13  CA  GLU A   1      -9.067   6.434  70.829  1.00  0.00    -0.151 C  
ATOM     14  OXT GLU A   1     -10.215   4.476  71.746  1.00  0.00    -0.193 OA 
ATOM     15  C   GLU A   1     -10.286   5.589  71.244  1.00  0.00    -0.233 C  
ATOM     16  O   GLU A   1     -11.456   6.271  71.160  1.00  0.00    -0.310 OA 
BRANCH  13  17
ATOM     17  CB  GLU A   1      -8.392   7.027  72.075  1.00  0.00    -0.106 C  
BRANCH  17  18
ATOM     18  CG  GLU A   1      -7.190   6.207  72.554  1.00  0.00    -0.085 C  
ATOM     19  OE2 GLU A   1      -8.591   5.332  74.329  1.00  0.00    -0.116 OA 
ATOM     20  OE1 GLU A   1      -6.453   4.620  74.160  1.00  0.00    -0.057 OA 
ATOM     21  CD  GLU A   1      -7.510   5.364  73.762  1.00  0.00    -0.091 C  
ENDBRANCH  17  18
ENDBRANCH  13  17
ENDBRANCH  11  13
ENDBRANCH   4   9
ENDBRANCH   2   3
BRANCH   2  22
HETATM   22  C   UNK A   0     -10.406  13.171  65.148  1.00  0.00    -0.311 C  
BRANCH  22  23
HETATM   23  C   UNK A   0     -10.126  14.634  65.433  1.00  0.00    -0.372 A  
HETATM   24  N   UNK A   0      -6.461  15.880  67.101  1.00  0.00    -0.300 NA 
HETATM   25  C   UNK A   0      -9.602  17.291  65.915  1.00  0.00    -0.046 A  
HETATM   26  C   UNK A   0     -10.998  15.647  65.075  1.00  0.00    -0.431 A  
HETATM   27  N   UNK A   0      -9.395  18.576  66.188  1.00  0.00    -0.493 NA 
HETATM   28  C   UNK A   0      -7.528  16.754  66.835  1.00  0.00    -0.222 A  
HETATM   29  C   UNK A   0      -8.692  16.280  66.238  1.00  0.00    -0.335 A  
HETATM   30  N   UNK A   0     -10.749  16.962  65.309  1.00  0.00    -0.609 NA 
HETATM   31  C   UNK A   0      -8.270  18.901  66.810  1.00  0.00    -0.279 A  
HETATM   32  H1  UNK A   0      -6.636  14.898  66.885  1.00  0.00     0.000 HD 
HETATM   33  H1  UNK A   0      -7.214  20.474  67.622  1.00  0.00     0.000 HD 
HETATM   34  N   UNK A   0      -8.080  20.225  67.143  1.00  0.00    -0.328 NA 
HETATM   35  N   UNK A   0      -7.299  18.044  67.118  1.00  0.00    -0.192 NA 
HETATM   36  N   UNK A   0      -8.943  14.951  66.008  1.00  0.00    -0.473 NA 
HETATM   37  H2  UNK A   0      -6.163  15.977  68.071  1.00  0.00     0.000 HD 
HETATM   38  H2  UNK A   0      -8.782  20.931  66.918  1.00  0.00     0.000 HD 
ENDBRANCH  22  23
ENDBRANCH   2  22
TORSDOF 7
ENDMDL
MODEL      166
REMARK 921   NORMALIZED FREE ENERGY PREDICTED BY IDOCK:   -5.01 KCAL/MOL
REMARK 922        TOTAL FREE ENERGY PREDICTED BY IDOCK:   -8.81 KCAL/MOL
REMARK 923 INTER-LIGAND FREE ENERGY PREDICTED BY IDOCK:   -7.84 KCAL/MOL
REMARK 924 INTRA-LIGAND FREE ENERGY PREDICTED BY IDOCK:   -0.97 KCAL/MOL
REMARK 927      BINDING AFFINITY PREDICTED BY RF-SCORE:    0.00 PKD
ROOT
HETATM    1  C   UNK A   0     -10.623  13.105  65.963  1.00  0.00    -0.281 C  
HETATM    2  N   UNK A   0     -10.907  13.272  67.386  1.00  0.00    -0.264 NA 
ENDROOT
BRANCH   2   3
HETATM    3  C   UNK A   0     -10.842  12.169  68.229  1.00  0.00    -0.223 A  
HETATM    4  C   UNK A   0     -10.597  10.161  70.212  1.00  0.00    -0.324 A  
HETATM    5  C   UNK A   0      -9.728  11.311  68.274  1.00  0.00    -0.199 A  
HETATM    6  C   UNK A   0     -11.880  11.906  69.136  1.00  0.00    -0.371 A  
HETATM    7  C   UNK A   0     -11.759  10.928  70.127  1.00  0.00    -0.433 A  
HETATM    8  C   UNK A   0      -9.607  10.306  69.244  1.00  0.00    -0.239 A  
BRANCH   4   9
HETATM    9  C   UNK A   0     -10.397   9.210  71.333  1.00  0.00    -0.338 C  
HETATM   10  O   UNK A   0     -11.246   9.071  72.200  1.00  0.00    -0.351 OA 
ATOM     11  N   GLU A   1      -9.217   8.476  71.287  1.00  0.00    -0.180 N  
ATOM     12  H   GLU A   1      -8.510   8.681  70.582  1.00  0.00     0.000 HD 
BRANCH  11  13
ATOM     13  CA  GLU A   1      -9.000   7.398  72.270  1.00  0.00    -0.128 C  
ATOM     14  OXT GLU A   1      -7.868   7.347  74.440  1.00  0.00    -0.134 OA 
ATOM     15  C   GLU A   1      -8.025   7.891  73.356  1.00  0.00    -0.169 C  
ATOM     16  O   GLU A   1      -7.221   8.897  72.929  1.00  0.00    -0.342 OA 
BRANCH  13  17
ATOM     17  CB  GLU A   1      -8.423   6.154  71.576  1.00  0.00    -0.127 C  
BRANCH  17  18
ATOM     18  CG  GLU A   1      -9.441   5.018  71.438  1.00  0.00    -0.206 C  
ATOM     19  OE2 GLU A   1      -7.581   3.492  71.137  1.00  0.00    -0.043 OA 
ATOM     20  OE1 GLU A   1      -9.688   2.676  71.129  1.00  0.00    -0.154 OA 
ATOM     21  CD  GLU A   1      -8.785   3.678  71.219  1.00  0.00    -0.081 C  
ENDBRANCH  17  18
ENDBRANCH  13  17
ENDBRANCH  11  13
ENDBRANCH   4   9
ENDBRANCH   2   3
BRANCH   2  22
HETATM   22  C   UNK A   0     -11.658  14.471  67.799  1.00  0.00    -0.365 C  
BRANCH  22  23
HETATM   23  C   UNK A   0     -10.791  15.685  68.073  1.00  0.00    -0.308 A  
HETATM   24  N   UNK A   0      -6.690  15.295  68.962  1.00  0.00    -0.114 NA 
HETATM   25  C   UNK A   0      -9.210  17.888  68.532  1.00  0.00    -0.284 A  
HETATM   26  C   UNK A   0     -11.258  16.981  67.949  1.00  0.00     0.015 A  
HETATM   27  N   UNK A   0      -8.480  18.967  68.803  1.00  0.00    -0.335 NA 
HETATM   28  C   UNK A   0      -7.369  16.524  68.964  1.00  0.00    -0.228 A  
HETATM   29  C   UNK A   0      -8.714  16.584  68.614  1.00  0.00    -0.244 A  
HETATM   30  N   UNK A   0     -10.486  18.076  68.174  1.00  0.00    -0.378 NA 
HETATM   31  C   UNK A   0      -7.222  18.781  69.181  1.00  0.00    -0.221 A  
HETATM   32  H1  UNK A   0      -7.263  14.478  68.752  1.00  0.00     0.000 HD 
HETATM   33  H1  UNK A   0      -5.515  19.751  69.806  1.00  0.00     0.000 HD 
HETATM   34  N   UNK A   0      -6.482  19.894  69.516  1.00  0.00    -0.347 NA 
HETATM   35  N   UNK A   0      -6.615  17.598  69.241  1.00  0.00    -0.246 NA 
HETATM   36  N   UNK A   0      -9.493  15.476  68.393  1.00  0.00    -0.193 NA 
HETATM   37  H2  UNK A   0      -6.204  15.163  69.849  1.00  0.00     0.000 HD 
HETATM   38  H2  UNK A   0      -6.888  20.829  69.473  1.00  0.00     0.000 HD 
ENDBRANCH  22  23
ENDBRANCH   2  22
TORSDOF 7
ENDMDL
MODEL      167
REMARK 921   NORMALIZED FREE ENERGY PREDICTED BY IDOCK:   -5.00 KCAL/MOL
REMARK 922        TOTAL FREE ENERGY PREDICTED BY IDOCK:   -8.79 KCAL/MOL
REMARK 923 INTER-LIGAND FREE ENERGY PREDICTED BY IDOCK:   -7.99 KCAL/MOL
REMARK 924 INTRA-LIGAND FREE ENERGY PREDICTED BY IDOCK:   -0.81 KCAL/MOL
REMARK 927      BINDING AFFINITY PREDICTED BY RF-SCORE:    0.00 PKD
ROOT
HETATM    1  C   UNK A   0     -11.800  15.047  67.786  1.00  0.00    -0.204 C  
HETATM    2  N   UNK A   0     -10.926  14.020  67.225  1.00  0.00    -0.290 NA 
ENDROOT
BRANCH   2   3
HETATM    3  C   UNK A   0     -10.698  12.852  67.942  1.00  0.00    -0.220 A  
HETATM    4  C   UNK A   0     -10.219  10.298  69.070  1.00  0.00    -0.225 A  
HETATM    5  C   UNK A   0     -11.739  12.085  68.496  1.00  0.00    -0.387 A  
HETATM    6  C   UNK A   0      -9.396  12.346  68.082  1.00  0.00    -0.209 A  
HETATM    7  C   UNK A   0      -9.154  11.080  68.622  1.00  0.00    -0.174 A  
HETATM    8  C   UNK A   0     -11.507  10.827  69.069  1.00  0.00    -0.368 A  
BRANCH   4   9
HETATM    9  C   UNK A   0      -9.995   8.904  69.526  1.00  0.00    -0.191 C  
HETATM   10  O   UNK A   0     -10.410   7.955  68.878  1.00  0.00    -0.210 OA 
ATOM     11  N   GLU A   1      -9.252   8.771  70.693  1.00  0.00    -0.179 N  
ATOM     12  H   GLU A   1      -8.989   9.596  71.233  1.00  0.00     0.000 HD 
BRANCH  11  13
ATOM     13  CA  GLU A   1      -8.845   7.426  71.141  1.00  0.00    -0.142 C  
ATOM     14  OXT GLU A   1      -8.685   6.405  73.360  1.00  0.00    -0.124 OA 
ATOM     15  C   GLU A   1      -8.725   7.419  72.677  1.00  0.00    -0.124 C  
ATOM     16  O   GLU A   1      -8.492   8.651  73.196  1.00  0.00    -0.398 OA 
BRANCH  13  17
ATOM     17  CB  GLU A   1      -7.499   7.039  70.509  1.00  0.00    -0.088 C  
BRANCH  17  18
ATOM     18  CG  GLU A   1      -6.663   8.251  70.088  1.00  0.00    -0.036 C  
ATOM     19  OE2 GLU A   1      -5.859   6.946  68.210  1.00  0.00    -0.019 OA 
ATOM     20  OE1 GLU A   1      -5.158   9.081  68.449  1.00  0.00    -0.030 OA 
ATOM     21  CD  GLU A   1      -5.869   7.996  68.832  1.00  0.00    -0.035 C  
ENDBRANCH  17  18
ENDBRANCH  13  17
ENDBRANCH  11  13
ENDBRANCH   4   9
ENDBRANCH   2   3
BRANCH   2  22
HETATM   22  C   UNK A   0      -9.993  14.423  66.158  1.00  0.00    -0.311 C  
BRANCH  22  23
HETATM   23  C   UNK A   0      -9.215  15.690  66.455  1.00  0.00    -0.293 A  
HETATM   24  N   UNK A   0     -10.830  19.496  65.637  1.00  0.00    -0.388 NA 
HETATM   25  C   UNK A   0      -7.821  17.991  67.030  1.00  0.00    -0.218 A  
HETATM   26  C   UNK A   0      -7.991  15.683  67.098  1.00  0.00    -0.219 A  
HETATM   27  N   UNK A   0      -7.104  19.085  67.268  1.00  0.00    -0.208 NA 
HETATM   28  C   UNK A   0      -9.531  19.296  66.129  1.00  0.00    -0.282 A  
HETATM   29  C   UNK A   0      -9.080  18.013  66.423  1.00  0.00    -0.235 A  
HETATM   30  N   UNK A   0      -7.294  16.813  67.387  1.00  0.00    -0.151 NA 
HETATM   31  C   UNK A   0      -7.615  20.251  66.893  1.00  0.00    -0.299 A  
HETATM   32  H1  UNK A   0     -11.367  18.647  65.461  1.00  0.00     0.000 HD 
HETATM   33  H1  UNK A   0      -7.243  22.275  66.800  1.00  0.00     0.000 HD 
HETATM   34  N   UNK A   0      -6.850  21.379  67.089  1.00  0.00    -0.767 NA 
HETATM   35  N   UNK A   0      -8.825  20.412  66.361  1.00  0.00    -0.571 NA 
HETATM   36  N   UNK A   0      -9.784  16.873  66.125  1.00  0.00    -0.386 NA 
HETATM   37  H2  UNK A   0     -10.801  20.072  64.796  1.00  0.00     0.000 HD 
HETATM   38  H2  UNK A   0      -5.921  21.320  67.507  1.00  0.00     0.000 HD 
ENDBRANCH  22  23
ENDBRANCH   2  22
TORSDOF 7
ENDMDL
MODEL      168
REMARK 921   NORMALIZED FREE ENERGY PREDICTED BY IDOCK:   -5.00 KCAL/MOL
REMARK 922        TOTAL FREE ENERGY PREDICTED BY IDOCK:   -8.79 KCAL/MOL
REMARK 923 INTER-LIGAND FREE ENERGY PREDICTED BY IDOCK:   -7.75 KCAL/MOL
REMARK 924 INTRA-LIGAND FREE ENERGY PREDICTED BY IDOCK:   -1.04 KCAL/MOL
REMARK 927      BINDING AFFINITY PREDICTED BY RF-SCORE:    0.00 PKD
ROOT
HETATM    1  C   UNK A   0      -8.164  16.411  66.278  1.00  0.00    -0.308 C  
HETATM    2  N   UNK A   0      -9.284  15.548  66.642  1.00  0.00    -0.248 NA 
ENDROOT
BRANCH   2   3
HETATM    3  C   UNK A   0      -9.232  14.194  66.331  1.00  0.00    -0.183 A  
HETATM    4  C   UNK A   0      -9.428  11.399  65.914  1.00  0.00    -0.251 A  
HETATM    5  C   UNK A   0      -8.402  13.288  67.015  1.00  0.00    -0.092 A  
HETATM    6  C   UNK A   0     -10.077  13.658  65.346  1.00  0.00    -0.291 A  
HETATM    7  C   UNK A   0     -10.190  12.279  65.147  1.00  0.00    -0.305 A  
HETATM    8  C   UNK A   0      -8.483  11.905  66.803  1.00  0.00    -0.167 A  
BRANCH   4   9
HETATM    9  C   UNK A   0      -9.628   9.933  65.808  1.00  0.00    -0.250 C  
HETATM   10  O   UNK A   0      -9.457   9.349  64.749  1.00  0.00    -0.201 OA 
ATOM     11  N   GLU A   1      -9.969   9.292  66.993  1.00  0.00    -0.206 N  
ATOM     12  H   GLU A   1     -10.169   9.834  67.834  1.00  0.00     0.000 HD 
BRANCH  11  13
ATOM     13  CA  GLU A   1     -10.038   7.818  67.023  1.00  0.00    -0.273 C  
ATOM     14  OXT GLU A   1     -11.238   6.252  68.472  1.00  0.00    -0.352 OA 
ATOM     15  C   GLU A   1     -10.777   7.372  68.299  1.00  0.00    -0.099 C  
ATOM     16  O   GLU A   1     -10.719   8.292  69.294  1.00  0.00    -0.211 OA 
BRANCH  13  17
ATOM     17  CB  GLU A   1      -8.623   7.219  67.001  1.00  0.00    -0.122 C  
BRANCH  17  18
ATOM     18  CG  GLU A   1      -7.745   7.712  68.154  1.00  0.00    -0.119 C  
ATOM     19  OE2 GLU A   1      -6.547   9.083  66.554  1.00  0.00    -0.066 OA 
ATOM     20  OE1 GLU A   1      -5.955   9.162  68.733  1.00  0.00    -0.043 OA 
ATOM     21  CD  GLU A   1      -6.706   8.708  67.704  1.00  0.00    -0.066 C  
ENDBRANCH  17  18
ENDBRANCH  13  17
ENDBRANCH  11  13
ENDBRANCH   4   9
ENDBRANCH   2   3
BRANCH   2  22
HETATM   22  C   UNK A   0     -10.581  16.189  66.923  1.00  0.00    -0.283 C  
BRANCH  22  23
HETATM   23  C   UNK A   0     -11.296  15.639  68.143  1.00  0.00    -0.340 A  
HETATM   24  N   UNK A   0     -11.081  11.554  69.155  1.00  0.00    -0.246 NA 
HETATM   25  C   UNK A   0     -12.561  14.649  70.376  1.00  0.00    -0.343 A  
HETATM   26  C   UNK A   0     -11.967  16.447  69.043  1.00  0.00     0.214 A  
HETATM   27  N   UNK A   0     -13.226  14.187  71.430  1.00  0.00    -0.345 NA 
HETATM   28  C   UNK A   0     -11.860  12.486  69.860  1.00  0.00    -0.303 A  
HETATM   29  C   UNK A   0     -11.845  13.829  69.498  1.00  0.00    -0.339 A  
HETATM   30  N   UNK A   0     -12.595  15.968  70.149  1.00  0.00    -0.558 NA 
HETATM   31  C   UNK A   0     -13.213  12.878  71.643  1.00  0.00    -0.324 A  
HETATM   32  H1  UNK A   0     -10.577  11.924  68.349  1.00  0.00     0.000 HD 
HETATM   33  H1  UNK A   0     -13.936  11.385  72.866  1.00  0.00     0.000 HD 
HETATM   34  N   UNK A   0     -13.947  12.392  72.703  1.00  0.00    -0.424 NA 
HETATM   35  N   UNK A   0     -12.523  11.999  70.918  1.00  0.00    -0.347 NA 
HETATM   36  N   UNK A   0     -11.215  14.309  68.378  1.00  0.00    -0.257 NA 
HETATM   37  H2  UNK A   0     -11.656  10.760  68.873  1.00  0.00     0.000 HD 
HETATM   38  H2  UNK A   0     -14.482  13.019  73.304  1.00  0.00     0.000 HD 
ENDBRANCH  22  23
ENDBRANCH   2  22
TORSDOF 7
ENDMDL
MODEL      169
REMARK 921   NORMALIZED FREE ENERGY PREDICTED BY IDOCK:   -4.98 KCAL/MOL
REMARK 922        TOTAL FREE ENERGY PREDICTED BY IDOCK:   -8.77 KCAL/MOL
REMARK 923 INTER-LIGAND FREE ENERGY PREDICTED BY IDOCK:   -8.05 KCAL/MOL
REMARK 924 INTRA-LIGAND FREE ENERGY PREDICTED BY IDOCK:   -0.72 KCAL/MOL
REMARK 927      BINDING AFFINITY PREDICTED BY RF-SCORE:    0.00 PKD
ROOT
HETATM    1  C   UNK A   0     -12.369  13.422  66.979  1.00  0.00    -0.177 C  
HETATM    2  N   UNK A   0     -11.490  12.620  66.133  1.00  0.00    -0.343 NA 
ENDROOT
BRANCH   2   3
HETATM    3  C   UNK A   0     -11.148  11.332  66.530  1.00  0.00    -0.216 A  
HETATM    4  C   UNK A   0     -10.170   8.867  67.525  1.00  0.00    -0.309 A  
HETATM    5  C   UNK A   0     -10.374  10.471  65.732  1.00  0.00    -0.270 A  
HETATM    6  C   UNK A   0     -11.513  10.860  67.800  1.00  0.00    -0.323 A  
HETATM    7  C   UNK A   0     -11.020   9.652  68.304  1.00  0.00    -0.172 A  
HETATM    8  C   UNK A   0      -9.899   9.244  66.213  1.00  0.00    -0.361 A  
BRANCH   4   9
HETATM    9  C   UNK A   0      -9.536   7.651  68.089  1.00  0.00    -0.145 C  
HETATM   10  O   UNK A   0     -10.191   6.828  68.710  1.00  0.00    -0.160 OA 
ATOM     11  N   GLU A   1      -8.181   7.505  67.816  1.00  0.00    -0.118 N  
ATOM     12  H   GLU A   1      -7.665   8.254  67.354  1.00  0.00     0.000 HD 
BRANCH  11  13
ATOM     13  CA  GLU A   1      -7.497   6.255  68.199  1.00  0.00    -0.090 C  
ATOM     14  OXT GLU A   1      -5.478   5.816  69.513  1.00  0.00    -0.004 OA 
ATOM     15  C   GLU A   1      -6.141   6.598  68.846  1.00  0.00    -0.026 C  
ATOM     16  O   GLU A   1      -5.661   7.807  68.460  1.00  0.00    -0.026 OA 
BRANCH  13  17
ATOM     17  CB  GLU A   1      -7.278   5.368  66.965  1.00  0.00    -0.078 C  
BRANCH  17  18
ATOM     18  CG  GLU A   1      -8.326   4.259  66.829  1.00  0.00    -0.101 C  
ATOM     19  OE2 GLU A   1      -7.110   3.009  68.513  1.00  0.00    -0.048 OA 
ATOM     20  OE1 GLU A   1      -9.005   2.135  67.646  1.00  0.00    -0.124 OA 
ATOM     21  CD  GLU A   1      -8.058   3.095  67.749  1.00  0.00    -0.079 C  
ENDBRANCH  17  18
ENDBRANCH  13  17
ENDBRANCH  11  13
ENDBRANCH   4   9
ENDBRANCH   2   3
BRANCH   2  22
HETATM   22  C   UNK A   0     -10.662  13.328  65.140  1.00  0.00    -0.322 C  
BRANCH  22  23
HETATM   23  C   UNK A   0     -10.599  14.830  65.338  1.00  0.00    -0.378 A  
HETATM   24  N   UNK A   0      -8.252  16.541  68.393  1.00  0.00    -0.186 NA 
HETATM   25  C   UNK A   0     -10.453  17.556  65.675  1.00  0.00    -0.149 A  
HETATM   26  C   UNK A   0     -11.214  15.724  64.481  1.00  0.00    -0.322 A  
HETATM   27  N   UNK A   0     -10.443  18.874  65.850  1.00  0.00    -0.559 NA 
HETATM   28  C   UNK A   0      -9.077  17.290  67.539  1.00  0.00    -0.223 A  
HETATM   29  C   UNK A   0      -9.788  16.663  66.520  1.00  0.00    -0.281 A  
HETATM   30  N   UNK A   0     -11.148  17.072  64.638  1.00  0.00    -1.014 NA 
HETATM   31  C   UNK A   0      -9.774  19.353  66.890  1.00  0.00    -0.343 A  
HETATM   32  H1  UNK A   0      -8.271  15.531  68.245  1.00  0.00     0.000 HD 
HETATM   33  H1  UNK A   0      -9.295  21.082  67.905  1.00  0.00     0.000 HD 
HETATM   34  N   UNK A   0      -9.809  20.714  67.104  1.00  0.00    -0.564 NA 
HETATM   35  N   UNK A   0      -9.053  18.616  67.733  1.00  0.00    -0.282 NA 
HETATM   36  N   UNK A   0      -9.857  15.301  66.367  1.00  0.00    -0.259 NA 
HETATM   37  H2  UNK A   0      -8.468  16.756  69.366  1.00  0.00     0.000 HD 
HETATM   38  H2  UNK A   0     -10.331  21.332  66.483  1.00  0.00     0.000 HD 
ENDBRANCH  22  23
ENDBRANCH   2  22
TORSDOF 7
ENDMDL
MODEL      170
REMARK 921   NORMALIZED FREE ENERGY PREDICTED BY IDOCK:   -4.98 KCAL/MOL
REMARK 922        TOTAL FREE ENERGY PREDICTED BY IDOCK:   -8.76 KCAL/MOL
REMARK 923 INTER-LIGAND FREE ENERGY PREDICTED BY IDOCK:   -7.62 KCAL/MOL
REMARK 924 INTRA-LIGAND FREE ENERGY PREDICTED BY IDOCK:   -1.14 KCAL/MOL
REMARK 927      BINDING AFFINITY PREDICTED BY RF-SCORE:    0.00 PKD
ROOT
HETATM    1  C   UNK A   0      -5.509  13.334  71.558  1.00  0.00    -0.131 C  
HETATM    2  N   UNK A   0      -5.536  13.202  70.104  1.00  0.00    -0.107 NA 
ENDROOT
BRANCH   2   3
HETATM    3  C   UNK A   0      -6.064  14.231  69.334  1.00  0.00    -0.108 A  
HETATM    4  C   UNK A   0      -7.322  16.061  67.575  1.00  0.00    -0.190 A  
HETATM    5  C   UNK A   0      -5.379  14.790  68.240  1.00  0.00    -0.113 A  
HETATM    6  C   UNK A   0      -7.358  14.713  69.583  1.00  0.00    -0.064 A  
HETATM    7  C   UNK A   0      -7.991  15.603  68.710  1.00  0.00    -0.172 A  
HETATM    8  C   UNK A   0      -5.991  15.707  67.374  1.00  0.00    -0.052 A  
BRANCH   4   9
HETATM    9  C   UNK A   0      -8.020  16.902  66.573  1.00  0.00    -0.294 C  
HETATM   10  O   UNK A   0      -7.409  17.717  65.899  1.00  0.00    -0.438 OA 
ATOM     11  N   GLU A   1      -9.381  16.655  66.433  1.00  0.00    -0.264 N  
ATOM     12  H   GLU A   1      -9.857  16.015  67.068  1.00  0.00     0.000 HD 
BRANCH  11  13
ATOM     13  CA  GLU A   1     -10.130  17.329  65.355  1.00  0.00     0.235 C  
ATOM     14  OXT GLU A   1     -11.114  19.564  65.179  1.00  0.00    -0.345 OA 
ATOM     15  C   GLU A   1     -10.697  18.659  65.888  1.00  0.00    -0.227 C  
ATOM     16  O   GLU A   1     -10.853  18.666  67.236  1.00  0.00    -0.426 OA 
BRANCH  13  17
ATOM     17  CB  GLU A   1     -11.276  16.432  64.863  1.00  0.00    -0.191 C  
BRANCH  17  18
ATOM     18  CG  GLU A   1     -11.189  15.000  65.397  1.00  0.00    -0.356 C  
ATOM     19  OE2 GLU A   1     -12.682  14.324  63.610  1.00  0.00    -0.783 OA 
ATOM     20  OE1 GLU A   1     -11.897  12.761  65.041  1.00  0.00    -0.341 OA 
ATOM     21  CD  GLU A   1     -12.004  14.028  64.581  1.00  0.00    -0.430 C  
ENDBRANCH  17  18
ENDBRANCH  13  17
ENDBRANCH  11  13
ENDBRANCH   4   9
ENDBRANCH   2   3
BRANCH   2  22
HETATM   22  C   UNK A   0      -5.414  11.847  69.537  1.00  0.00    -0.067 C  
BRANCH  22  23
HETATM   23  C   UNK A   0      -6.721  11.081  69.465  1.00  0.00    -0.126 A  
HETATM   24  N   UNK A   0      -8.066   8.732  72.696  1.00  0.00    -0.390 NA 
HETATM   25  C   UNK A   0      -9.111   9.724  69.351  1.00  0.00    -0.201 A  
HETATM   26  C   UNK A   0      -7.591  11.185  68.395  1.00  0.00    -0.110 A  
HETATM   27  N   UNK A   0     -10.243   9.034  69.249  1.00  0.00    -0.199 NA 
HETATM   28  C   UNK A   0      -8.738   8.814  71.465  1.00  0.00    -0.206 A  
HETATM   29  C   UNK A   0      -8.261   9.648  70.459  1.00  0.00    -0.098 A  
HETATM   30  N   UNK A   0      -8.773  10.519  68.328  1.00  0.00    -0.130 NA 
HETATM   31  C   UNK A   0     -10.567   8.227  70.251  1.00  0.00    -0.227 A  
HETATM   32  H1  UNK A   0      -7.200   9.267  72.758  1.00  0.00     0.000 HD 
HETATM   33  H1  UNK A   0     -11.960   6.851  70.893  1.00  0.00     0.000 HD 
HETATM   34  N   UNK A   0     -11.711   7.471  70.122  1.00  0.00    -0.497 NA 
HETATM   35  N   UNK A   0      -9.877   8.111  71.383  1.00  0.00    -0.167 NA 
HETATM   36  N   UNK A   0      -7.064  10.315  70.526  1.00  0.00    -0.407 NA 
HETATM   37  H2  UNK A   0      -7.893   7.756  72.935  1.00  0.00     0.000 HD 
HETATM   38  H2  UNK A   0     -12.290   7.530  69.284  1.00  0.00     0.000 HD 
ENDBRANCH  22  23
ENDBRANCH   2  22
TORSDOF 7
ENDMDL
MODEL      171
REMARK 921   NORMALIZED FREE ENERGY PREDICTED BY IDOCK:   -4.96 KCAL/MOL
REMARK 922        TOTAL FREE ENERGY PREDICTED BY IDOCK:   -8.74 KCAL/MOL
REMARK 923 INTER-LIGAND FREE ENERGY PREDICTED BY IDOCK:   -8.00 KCAL/MOL
REMARK 924 INTRA-LIGAND FREE ENERGY PREDICTED BY IDOCK:   -0.74 KCAL/MOL
REMARK 927      BINDING AFFINITY PREDICTED BY RF-SCORE:    0.00 PKD
ROOT
HETATM    1  C   UNK A   0      -9.346  11.195  62.818  1.00  0.00    -0.351 C  
HETATM    2  N   UNK A   0      -9.924  10.914  64.129  1.00  0.00    -0.315 NA 
ENDROOT
BRANCH   2   3
HETATM    3  C   UNK A   0      -9.332   9.959  64.946  1.00  0.00    -0.268 A  
HETATM    4  C   UNK A   0      -8.207   7.767  66.343  1.00  0.00    -0.116 A  
HETATM    5  C   UNK A   0     -10.024   9.318  65.989  1.00  0.00    -0.325 A  
HETATM    6  C   UNK A   0      -8.013   9.541  64.711  1.00  0.00    -0.123 A  
HETATM    7  C   UNK A   0      -7.458   8.449  65.384  1.00  0.00    -0.085 A  
HETATM    8  C   UNK A   0      -9.467   8.241  66.694  1.00  0.00    -0.271 A  
BRANCH   4   9
HETATM    9  C   UNK A   0      -7.683   6.531  66.974  1.00  0.00    -0.100 C  
HETATM   10  O   UNK A   0      -6.542   6.149  66.761  1.00  0.00    -0.054 OA 
ATOM     11  N   GLU A   1      -8.558   5.888  67.841  1.00  0.00    -0.106 N  
ATOM     12  H   GLU A   1      -9.523   6.207  67.930  1.00  0.00     0.000 HD 
BRANCH  11  13
ATOM     13  CA  GLU A   1      -8.077   4.741  68.634  1.00  0.00    -0.083 C  
ATOM     14  OXT GLU A   1      -7.763   2.375  68.088  1.00  0.00    -0.055 OA 
ATOM     15  C   GLU A   1      -8.301   3.443  67.834  1.00  0.00    -0.084 C  
ATOM     16  O   GLU A   1      -9.295   3.552  66.916  1.00  0.00    -0.177 OA 
BRANCH  13  17
ATOM     17  CB  GLU A   1      -8.828   4.667  69.972  1.00  0.00    -0.125 C  
BRANCH  17  18
ATOM     18  CG  GLU A   1      -8.923   6.020  70.683  1.00  0.00    -0.150 C  
ATOM     19  OE2 GLU A   1     -11.336   5.847  70.523  1.00  0.00    -0.291 OA 
ATOM     20  OE1 GLU A   1     -10.426   7.646  71.543  1.00  0.00    -0.203 OA 
ATOM     21  CD  GLU A   1     -10.349   6.465  70.888  1.00  0.00    -0.204 C  
ENDBRANCH  17  18
ENDBRANCH  13  17
ENDBRANCH  11  13
ENDBRANCH   4   9
ENDBRANCH   2   3
BRANCH   2  22
HETATM   22  C   UNK A   0     -11.323  11.317  64.361  1.00  0.00    -0.037 C  
BRANCH  22  23
HETATM   23  C   UNK A   0     -11.503  12.329  65.476  1.00  0.00    -0.361 A  
HETATM   24  N   UNK A   0     -11.846  11.120  69.499  1.00  0.00    -0.323 NA 
HETATM   25  C   UNK A   0     -11.792  14.166  67.503  1.00  0.00    -0.401 A  
HETATM   26  C   UNK A   0     -11.464  13.695  65.260  1.00  0.00    -0.308 A  
HETATM   27  N   UNK A   0     -11.985  15.071  68.457  1.00  0.00    -0.544 NA 
HETATM   28  C   UNK A   0     -11.958  12.456  69.080  1.00  0.00    -0.241 A  
HETATM   29  C   UNK A   0     -11.786  12.788  67.739  1.00  0.00    -0.359 A  
HETATM   30  N   UNK A   0     -11.606  14.610  66.254  1.00  0.00    -0.363 NA 
HETATM   31  C   UNK A   0     -12.194  14.631  69.691  1.00  0.00    -0.283 A  
HETATM   32  H1  UNK A   0     -11.698  10.439  68.755  1.00  0.00     0.000 HD 
HETATM   33  H1  UNK A   0     -12.609  15.227  71.620  1.00  0.00     0.000 HD 
HETATM   34  N   UNK A   0     -12.449  15.566  70.671  1.00  0.00    -0.421 NA 
HETATM   35  N   UNK A   0     -12.153  13.352  70.057  1.00  0.00    -0.339 NA 
HETATM   36  N   UNK A   0     -11.649  11.861  66.737  1.00  0.00    -0.528 NA 
HETATM   37  H2  UNK A   0     -12.660  10.859  70.055  1.00  0.00     0.000 HD 
HETATM   38  H2  UNK A   0     -12.476  16.562  70.455  1.00  0.00     0.000 HD 
ENDBRANCH  22  23
ENDBRANCH   2  22
TORSDOF 7
ENDMDL
MODEL      172
REMARK 921   NORMALIZED FREE ENERGY PREDICTED BY IDOCK:   -4.95 KCAL/MOL
REMARK 922        TOTAL FREE ENERGY PREDICTED BY IDOCK:   -8.72 KCAL/MOL
REMARK 923 INTER-LIGAND FREE ENERGY PREDICTED BY IDOCK:   -7.38 KCAL/MOL
REMARK 924 INTRA-LIGAND FREE ENERGY PREDICTED BY IDOCK:   -1.35 KCAL/MOL
REMARK 927      BINDING AFFINITY PREDICTED BY RF-SCORE:    0.00 PKD
ROOT
HETATM    1  C   UNK A   0      -5.233  13.065  72.057  1.00  0.00    -0.009 C  
HETATM    2  N   UNK A   0      -5.328  12.651  70.660  1.00  0.00    -0.141 NA 
ENDROOT
BRANCH   2   3
HETATM    3  C   UNK A   0      -5.887  13.517  69.727  1.00  0.00    -0.117 A  
HETATM    4  C   UNK A   0      -7.300  15.029  67.793  1.00  0.00    -0.183 A  
HETATM    5  C   UNK A   0      -5.491  13.540  68.378  1.00  0.00    -0.095 A  
HETATM    6  C   UNK A   0      -6.939  14.372  70.092  1.00  0.00     0.093 A  
HETATM    7  C   UNK A   0      -7.651  15.107  69.140  1.00  0.00    -0.188 A  
HETATM    8  C   UNK A   0      -6.177  14.297  67.418  1.00  0.00     0.184 A  
BRANCH   4   9
HETATM    9  C   UNK A   0      -8.122  15.699  66.756  1.00  0.00    -0.244 C  
HETATM   10  O   UNK A   0      -7.666  16.610  66.081  1.00  0.00    -0.289 OA 
ATOM     11  N   GLU A   1      -9.402  15.185  66.588  1.00  0.00    -0.249 N  
ATOM     12  H   GLU A   1      -9.759  14.473  67.224  1.00  0.00     0.000 HD 
BRANCH  11  13
ATOM     13  CA  GLU A   1     -10.240  15.681  65.478  1.00  0.00    -0.385 C  
ATOM     14  OXT GLU A   1     -11.134  17.897  64.950  1.00  0.00    -0.782 OA 
ATOM     15  C   GLU A   1     -10.680  17.125  65.782  1.00  0.00    -0.138 C  
ATOM     16  O   GLU A   1     -10.679  17.411  67.109  1.00  0.00    -0.295 OA 
BRANCH  13  17
ATOM     17  CB  GLU A   1     -11.474  14.784  65.302  1.00  0.00    -0.352 C  
BRANCH  17  18
ATOM     18  CG  GLU A   1     -11.903  14.091  66.599  1.00  0.00    -0.443 C  
ATOM     19  OE2 GLU A   1     -11.656  11.968  65.457  1.00  0.00    -0.350 OA 
ATOM     20  OE1 GLU A   1     -12.275  11.985  67.630  1.00  0.00    -0.484 OA 
ATOM     21  CD  GLU A   1     -11.926  12.589  66.472  1.00  0.00    -0.296 C  
ENDBRANCH  17  18
ENDBRANCH  13  17
ENDBRANCH  11  13
ENDBRANCH   4   9
ENDBRANCH   2   3
BRANCH   2  22
HETATM   22  C   UNK A   0      -5.238  11.210  70.364  1.00  0.00    -0.094 C  
BRANCH  22  23
HETATM   23  C   UNK A   0      -6.534  10.450  70.574  1.00  0.00    -0.093 A  
HETATM   24  N   UNK A   0      -9.681  10.666  67.779  1.00  0.00    -0.160 NA 
HETATM   25  C   UNK A   0      -8.869   9.041  70.935  1.00  0.00    -0.240 A  
HETATM   26  C   UNK A   0      -6.723   9.571  71.625  1.00  0.00     0.275 A  
HETATM   27  N   UNK A   0     -10.007   8.392  71.160  1.00  0.00    -0.184 NA 
HETATM   28  C   UNK A   0      -9.767   9.959  68.988  1.00  0.00    -0.193 A  
HETATM   29  C   UNK A   0      -8.671   9.891  69.842  1.00  0.00    -0.201 A  
HETATM   30  N   UNK A   0      -7.872   8.870  71.812  1.00  0.00    -0.335 NA 
HETATM   31  C   UNK A   0     -11.004   8.579  70.305  1.00  0.00    -0.235 A  
HETATM   32  H1  UNK A   0      -8.801  11.157  67.621  1.00  0.00     0.000 HD 
HETATM   33  H1  UNK A   0     -12.967   8.096  69.909  1.00  0.00     0.000 HD 
HETATM   34  N   UNK A   0     -12.202   7.952  70.567  1.00  0.00    -0.472 NA 
HETATM   35  N   UNK A   0     -10.924   9.313  69.196  1.00  0.00    -0.414 NA 
HETATM   36  N   UNK A   0      -7.513  10.603  69.654  1.00  0.00    -0.268 NA 
HETATM   37  H2  UNK A   0     -10.463  11.315  67.696  1.00  0.00     0.000 HD 
HETATM   38  H2  UNK A   0     -12.318   7.363  71.392  1.00  0.00     0.000 HD 
ENDBRANCH  22  23
ENDBRANCH   2  22
TORSDOF 7
ENDMDL
MODEL      173
REMARK 921   NORMALIZED FREE ENERGY PREDICTED BY IDOCK:   -4.94 KCAL/MOL
REMARK 922        TOTAL FREE ENERGY PREDICTED BY IDOCK:   -8.71 KCAL/MOL
REMARK 923 INTER-LIGAND FREE ENERGY PREDICTED BY IDOCK:   -8.02 KCAL/MOL
REMARK 924 INTRA-LIGAND FREE ENERGY PREDICTED BY IDOCK:   -0.68 KCAL/MOL
REMARK 927      BINDING AFFINITY PREDICTED BY RF-SCORE:    0.00 PKD
ROOT
HETATM    1  C   UNK A   0     -11.945  13.645  69.893  1.00  0.00    -0.348 C  
HETATM    2  N   UNK A   0     -11.249  12.616  69.125  1.00  0.00    -0.350 NA 
ENDROOT
BRANCH   2   3
HETATM    3  C   UNK A   0     -11.429  11.278  69.456  1.00  0.00    -0.307 A  
HETATM    4  C   UNK A   0     -11.496   8.591  70.351  1.00  0.00    -0.135 A  
HETATM    5  C   UNK A   0     -10.931  10.226  68.666  1.00  0.00    -0.289 A  
HETATM    6  C   UNK A   0     -12.068  10.921  70.654  1.00  0.00    -0.468 A  
HETATM    7  C   UNK A   0     -12.090   9.600  71.109  1.00  0.00    -0.448 A  
HETATM    8  C   UNK A   0     -10.973   8.893  69.097  1.00  0.00     0.000 A  
BRANCH   4   9
HETATM    9  C   UNK A   0     -11.396   7.208  70.877  1.00  0.00    -0.286 C  
HETATM   10  O   UNK A   0     -12.116   6.318  70.451  1.00  0.00    -0.188 OA 
ATOM     11  N   GLU A   1     -10.408   7.005  71.834  1.00  0.00    -0.193 N  
ATOM     12  H   GLU A   1      -9.882   7.795  72.207  1.00  0.00     0.000 HD 
BRANCH  11  13
ATOM     13  CA  GLU A   1     -10.127   5.635  72.303  1.00  0.00    -0.187 C  
ATOM     14  OXT GLU A   1     -10.688   4.453  74.372  1.00  0.00    -0.253 OA 
ATOM     15  C   GLU A   1     -10.533   5.514  73.784  1.00  0.00    -0.272 C  
ATOM     16  O   GLU A   1     -10.534   6.707  74.432  1.00  0.00    -0.309 OA 
BRANCH  13  17
ATOM     17  CB  GLU A   1      -8.634   5.313  72.141  1.00  0.00    -0.126 C  
BRANCH  17  18
ATOM     18  CG  GLU A   1      -8.369   4.179  71.145  1.00  0.00    -0.094 C  
ATOM     19  OE2 GLU A   1      -6.615   3.394  72.624  1.00  0.00    -0.020 OA 
ATOM     20  OE1 GLU A   1      -7.053   2.247  70.727  1.00  0.00    -0.032 OA 
ATOM     21  CD  GLU A   1      -7.260   3.263  71.596  1.00  0.00    -0.039 C  
ENDBRANCH  17  18
ENDBRANCH  13  17
ENDBRANCH  11  13
ENDBRANCH   4   9
ENDBRANCH   2   3
BRANCH   2  22
HETATM   22  C   UNK A   0     -10.075  13.027  68.335  1.00  0.00    -0.225 C  
BRANCH  22  23
HETATM   23  C   UNK A   0     -10.286  14.285  67.514  1.00  0.00    -0.248 A  
HETATM   24  N   UNK A   0      -9.031  18.056  68.917  1.00  0.00    -0.194 NA 
HETATM   25  C   UNK A   0     -10.634  16.561  66.009  1.00  0.00    -0.253 A  
HETATM   26  C   UNK A   0     -10.802  14.262  66.230  1.00  0.00    -0.310 A  
HETATM   27  N   UNK A   0     -10.863  17.653  65.285  1.00  0.00    -0.561 NA 
HETATM   28  C   UNK A   0      -9.727  17.871  67.712  1.00  0.00    -0.283 A  
HETATM   29  C   UNK A   0     -10.068  16.591  67.287  1.00  0.00    -0.273 A  
HETATM   30  N   UNK A   0     -10.978  15.381  65.479  1.00  0.00    -0.346 NA 
HETATM   31  C   UNK A   0     -10.546  18.825  65.819  1.00  0.00    -0.271 A  
HETATM   32  H1  UNK A   0      -8.862  17.209  69.460  1.00  0.00     0.000 HD 
HETATM   33  H1  UNK A   0     -10.589  20.861  65.503  1.00  0.00     0.000 HD 
HETATM   34  N   UNK A   0     -10.833  19.960  65.093  1.00  0.00    -0.178 NA 
HETATM   35  N   UNK A   0      -9.948  18.984  66.998  1.00  0.00    -0.324 NA 
HETATM   36  N   UNK A   0      -9.894  15.464  68.050  1.00  0.00    -0.215 NA 
HETATM   37  H2  UNK A   0      -9.505  18.751  69.492  1.00  0.00     0.000 HD 
HETATM   38  H2  UNK A   0     -11.276  19.900  64.175  1.00  0.00     0.000 HD 
ENDBRANCH  22  23
ENDBRANCH   2  22
TORSDOF 7
ENDMDL
MODEL      174
REMARK 921   NORMALIZED FREE ENERGY PREDICTED BY IDOCK:   -4.90 KCAL/MOL
REMARK 922        TOTAL FREE ENERGY PREDICTED BY IDOCK:   -8.65 KCAL/MOL
REMARK 923 INTER-LIGAND FREE ENERGY PREDICTED BY IDOCK:   -7.40 KCAL/MOL
REMARK 924 INTRA-LIGAND FREE ENERGY PREDICTED BY IDOCK:   -1.25 KCAL/MOL
REMARK 927      BINDING AFFINITY PREDICTED BY RF-SCORE:    0.00 PKD
ROOT
HETATM    1  C   UNK A   0     -10.445  14.380  66.973  1.00  0.00    -0.268 C  
HETATM    2  N   UNK A   0     -10.697  12.945  66.890  1.00  0.00    -0.256 NA 
ENDROOT
BRANCH   2   3
HETATM    3  C   UNK A   0     -10.353  12.128  67.961  1.00  0.00    -0.205 A  
HETATM    4  C   UNK A   0      -9.599  10.194  69.889  1.00  0.00    -0.172 A  
HETATM    5  C   UNK A   0     -11.309  11.460  68.746  1.00  0.00    -0.334 A  
HETATM    6  C   UNK A   0      -9.004  11.880  68.261  1.00  0.00    -0.178 A  
HETATM    7  C   UNK A   0      -8.626  10.916  69.199  1.00  0.00    -0.060 A  
HETATM    8  C   UNK A   0     -10.943  10.513  69.712  1.00  0.00    -0.350 A  
BRANCH   4   9
HETATM    9  C   UNK A   0      -9.219   9.080  70.791  1.00  0.00    -0.245 C  
HETATM   10  O   UNK A   0      -8.434   9.253  71.711  1.00  0.00    -0.283 OA 
ATOM     11  N   GLU A   1      -9.852   7.868  70.540  1.00  0.00    -0.185 N  
ATOM     12  H   GLU A   1     -10.445   7.758  69.717  1.00  0.00     0.000 HD 
BRANCH  11  13
ATOM     13  CA  GLU A   1      -9.658   6.744  71.475  1.00  0.00    -0.163 C  
ATOM     14  OXT GLU A   1      -8.689   4.514  71.195  1.00  0.00    -0.110 OA 
ATOM     15  C   GLU A   1      -9.197   5.503  70.687  1.00  0.00    -0.150 C  
ATOM     16  O   GLU A   1      -9.568   5.537  69.382  1.00  0.00    -0.133 OA 
BRANCH  13  17
ATOM     17  CB  GLU A   1     -10.968   6.437  72.216  1.00  0.00    -0.289 C  
BRANCH  17  18
ATOM     18  CG  GLU A   1     -11.700   7.696  72.690  1.00  0.00    -0.323 C  
ATOM     19  OE2 GLU A   1     -13.274   7.371  70.875  1.00  0.00    -0.173 OA 
ATOM     20  OE1 GLU A   1     -13.566   9.110  72.288  1.00  0.00    -0.433 OA 
ATOM     21  CD  GLU A   1     -12.908   8.014  71.845  1.00  0.00    -0.320 C  
ENDBRANCH  17  18
ENDBRANCH  13  17
ENDBRANCH  11  13
ENDBRANCH   4   9
ENDBRANCH   2   3
BRANCH   2  22
HETATM   22  C   UNK A   0     -10.895  12.359  65.552  1.00  0.00    -0.281 C  
BRANCH  22  23
HETATM   23  C   UNK A   0     -10.130  11.071  65.318  1.00  0.00    -0.275 A  
HETATM   24  N   UNK A   0     -10.914   7.609  67.592  1.00  0.00    -0.521 NA 
HETATM   25  C   UNK A   0      -8.770   8.722  64.867  1.00  0.00    -0.125 A  
HETATM   26  C   UNK A   0      -9.214  10.920  64.291  1.00  0.00    -0.197 A  
HETATM   27  N   UNK A   0      -8.060   7.616  64.665  1.00  0.00    -0.225 NA 
HETATM   28  C   UNK A   0      -9.898   7.687  66.625  1.00  0.00    -0.213 A  
HETATM   29  C   UNK A   0      -9.728   8.848  65.877  1.00  0.00    -0.189 A  
HETATM   30  N   UNK A   0      -8.537   9.765  64.060  1.00  0.00    -0.180 NA 
HETATM   31  C   UNK A   0      -8.272   6.590  65.478  1.00  0.00    -0.138 A  
HETATM   32  H1  UNK A   0     -11.449   8.466  67.734  1.00  0.00     0.000 HD 
HETATM   33  H1  UNK A   0      -7.662   4.674  65.931  1.00  0.00     0.000 HD 
HETATM   34  N   UNK A   0      -7.499   5.463  65.305  1.00  0.00    -0.075 NA 
HETATM   35  N   UNK A   0      -9.195   6.561  66.438  1.00  0.00    -0.158 NA 
HETATM   36  N   UNK A   0     -10.409  10.015  66.117  1.00  0.00    -0.196 NA 
HETATM   37  H2  UNK A   0     -10.528   7.286  68.479  1.00  0.00     0.000 HD 
HETATM   38  H2  UNK A   0      -6.787   5.419  64.575  1.00  0.00     0.000 HD 
ENDBRANCH  22  23
ENDBRANCH   2  22
TORSDOF 7
ENDMDL
MODEL      175
REMARK 921   NORMALIZED FREE ENERGY PREDICTED BY IDOCK:   -4.89 KCAL/MOL
REMARK 922        TOTAL FREE ENERGY PREDICTED BY IDOCK:   -8.65 KCAL/MOL
REMARK 923 INTER-LIGAND FREE ENERGY PREDICTED BY IDOCK:   -7.74 KCAL/MOL
REMARK 924 INTRA-LIGAND FREE ENERGY PREDICTED BY IDOCK:   -0.90 KCAL/MOL
REMARK 927      BINDING AFFINITY PREDICTED BY RF-SCORE:    0.00 PKD
ROOT
HETATM    1  C   UNK A   0      -8.266   8.197  65.296  1.00  0.00    -0.149 C  
HETATM    2  N   UNK A   0      -9.531   8.754  65.765  1.00  0.00    -0.412 NA 
ENDROOT
BRANCH   2   3
HETATM    3  C   UNK A   0      -9.716  10.132  65.756  1.00  0.00    -0.245 A  
HETATM    4  C   UNK A   0     -10.207  12.902  66.092  1.00  0.00    -0.286 A  
HETATM    5  C   UNK A   0     -10.880  10.740  65.253  1.00  0.00    -0.064 A  
HETATM    6  C   UNK A   0      -8.755  10.982  66.326  1.00  0.00    -0.178 A  
HETATM    7  C   UNK A   0      -8.998  12.346  66.510  1.00  0.00    -0.145 A  
HETATM    8  C   UNK A   0     -11.123  12.112  65.403  1.00  0.00    -0.362 A  
BRANCH   4   9
HETATM    9  C   UNK A   0     -10.534  14.316  66.394  1.00  0.00    -0.282 C  
HETATM   10  O   UNK A   0     -10.988  15.056  65.534  1.00  0.00    -0.328 OA 
ATOM     11  N   GLU A   1     -10.334  14.705  67.714  1.00  0.00    -0.236 N  
ATOM     12  H   GLU A   1      -9.887  14.071  68.376  1.00  0.00     0.000 HD 
BRANCH  11  13
ATOM     13  CA  GLU A   1     -10.776  16.044  68.147  1.00  0.00    -0.311 C  
ATOM     14  OXT GLU A   1      -9.544  18.059  68.790  1.00  0.00    -0.325 OA 
ATOM     15  C   GLU A   1      -9.555  16.846  68.637  1.00  0.00    -0.265 C  
ATOM     16  O   GLU A   1      -8.534  16.055  69.052  1.00  0.00    -0.218 OA 
BRANCH  13  17
ATOM     17  CB  GLU A   1     -11.810  15.924  69.277  1.00  0.00    -0.328 C  
BRANCH  17  18
ATOM     18  CG  GLU A   1     -11.694  14.612  70.059  1.00  0.00    -0.348 C  
ATOM     19  OE2 GLU A   1     -13.510  15.382  71.469  1.00  0.00    -0.453 OA 
ATOM     20  OE1 GLU A   1     -12.610  13.344  71.846  1.00  0.00    -0.206 OA 
ATOM     21  CD  GLU A   1     -12.698  14.518  71.180  1.00  0.00    -0.338 C  
ENDBRANCH  17  18
ENDBRANCH  13  17
ENDBRANCH  11  13
ENDBRANCH   4   9
ENDBRANCH   2   3
BRANCH   2  22
HETATM   22  C   UNK A   0     -10.381   7.904  66.617  1.00  0.00    -0.200 C  
BRANCH  22  23
HETATM   23  C   UNK A   0      -9.855   7.712  68.027  1.00  0.00    -0.161 A  
HETATM   24  N   UNK A   0      -7.470  10.642  69.895  1.00  0.00    -0.339 NA 
HETATM   25  C   UNK A   0      -8.933   7.382  70.597  1.00  0.00    -0.155 A  
HETATM   26  C   UNK A   0     -10.204   6.629  68.814  1.00  0.00    -0.171 A  
HETATM   27  N   UNK A   0      -8.455   7.173  71.821  1.00  0.00    -0.113 NA 
HETATM   28  C   UNK A   0      -7.778   9.405  70.483  1.00  0.00    -0.161 A  
HETATM   29  C   UNK A   0      -8.612   8.504  69.827  1.00  0.00    -0.131 A  
HETATM   30  N   UNK A   0      -9.753   6.457  70.085  1.00  0.00    -0.166 NA 
HETATM   31  C   UNK A   0      -7.623   8.077  72.320  1.00  0.00    -0.110 A  
HETATM   32  H1  UNK A   0      -7.844  10.787  68.957  1.00  0.00     0.000 HD 
HETATM   33  H1  UNK A   0      -6.444   8.530  73.949  1.00  0.00     0.000 HD 
HETATM   34  N   UNK A   0      -7.084   7.835  73.565  1.00  0.00    -0.089 NA 
HETATM   35  N   UNK A   0      -7.286   9.214  71.715  1.00  0.00    -0.332 NA 
HETATM   36  N   UNK A   0      -9.061   8.678  68.542  1.00  0.00    -0.139 NA 
HETATM   37  H2  UNK A   0      -6.461  10.787  69.895  1.00  0.00     0.000 HD 
HETATM   38  H2  UNK A   0      -7.317   6.988  74.085  1.00  0.00     0.000 HD 
ENDBRANCH  22  23
ENDBRANCH   2  22
TORSDOF 7
ENDMDL
MODEL      176
REMARK 921   NORMALIZED FREE ENERGY PREDICTED BY IDOCK:   -4.89 KCAL/MOL
REMARK 922        TOTAL FREE ENERGY PREDICTED BY IDOCK:   -8.64 KCAL/MOL
REMARK 923 INTER-LIGAND FREE ENERGY PREDICTED BY IDOCK:   -7.92 KCAL/MOL
REMARK 924 INTRA-LIGAND FREE ENERGY PREDICTED BY IDOCK:   -0.73 KCAL/MOL
REMARK 927      BINDING AFFINITY PREDICTED BY RF-SCORE:    0.00 PKD
ROOT
HETATM    1  C   UNK A   0      -8.615   7.965  67.623  1.00  0.00    -0.127 C  
HETATM    2  N   UNK A   0     -10.024   8.150  67.290  1.00  0.00    -0.194 NA 
ENDROOT
BRANCH   2   3
HETATM    3  C   UNK A   0     -10.520   9.435  67.107  1.00  0.00    -0.244 A  
HETATM    4  C   UNK A   0     -11.190  12.174  66.833  1.00  0.00    -0.375 A  
HETATM    5  C   UNK A   0     -11.245  10.119  68.100  1.00  0.00    -0.245 A  
HETATM    6  C   UNK A   0     -10.249  10.140  65.923  1.00  0.00    -0.281 A  
HETATM    7  C   UNK A   0     -10.562  11.496  65.788  1.00  0.00    -0.315 A  
HETATM    8  C   UNK A   0     -11.592  11.470  67.964  1.00  0.00    -0.370 A  
BRANCH   4   9
HETATM    9  C   UNK A   0     -11.412  13.639  66.759  1.00  0.00    -0.346 C  
HETATM   10  O   UNK A   0     -12.529  14.098  66.570  1.00  0.00    -0.447 OA 
ATOM     11  N   GLU A   1     -10.284  14.423  66.966  1.00  0.00    -0.260 N  
ATOM     12  H   GLU A   1      -9.364  13.991  67.049  1.00  0.00     0.000 HD 
BRANCH  11  13
ATOM     13  CA  GLU A   1     -10.431  15.888  67.066  1.00  0.00    -0.306 C  
ATOM     14  OXT GLU A   1     -10.810  17.626  65.385  1.00  0.00    -0.541 OA 
ATOM     15  C   GLU A   1     -10.428  16.495  65.650  1.00  0.00    -0.324 C  
ATOM     16  O   GLU A   1      -9.796  15.712  64.740  1.00  0.00    -0.153 OA 
BRANCH  13  17
ATOM     17  CB  GLU A   1      -9.281  16.483  67.893  1.00  0.00    -0.211 C  
BRANCH  17  18
ATOM     18  CG  GLU A   1      -7.941  15.783  67.648  1.00  0.00    -0.163 C  
ATOM     19  OE2 GLU A   1      -6.894  17.466  69.043  1.00  0.00    -0.227 OA 
ATOM     20  OE1 GLU A   1      -5.623  15.818  68.163  1.00  0.00    -0.101 OA 
ATOM     21  CD  GLU A   1      -6.797  16.460  68.359  1.00  0.00    -0.142 C  
ENDBRANCH  17  18
ENDBRANCH  13  17
ENDBRANCH  11  13
ENDBRANCH   4   9
ENDBRANCH   2   3
BRANCH   2  22
HETATM   22  C   UNK A   0     -10.949   7.039  67.579  1.00  0.00    -0.229 C  
BRANCH  22  23
HETATM   23  C   UNK A   0     -10.837   6.487  68.987  1.00  0.00    -0.306 A  
HETATM   24  N   UNK A   0      -9.129   2.705  69.730  1.00  0.00    -0.109 NA 
HETATM   25  C   UNK A   0     -10.599   5.500  71.544  1.00  0.00    -0.237 A  
HETATM   26  C   UNK A   0     -11.187   7.218  70.108  1.00  0.00    -0.239 A  
HETATM   27  N   UNK A   0     -10.545   5.024  72.784  1.00  0.00    -0.210 NA 
HETATM   28  C   UNK A   0      -9.694   3.510  70.732  1.00  0.00    -0.137 A  
HETATM   29  C   UNK A   0     -10.197   4.769  70.422  1.00  0.00    -0.191 A  
HETATM   30  N   UNK A   0     -11.074   6.740  71.375  1.00  0.00    -0.246 NA 
HETATM   31  C   UNK A   0     -10.097   3.786  72.951  1.00  0.00    -0.157 A  
HETATM   32  H1  UNK A   0      -9.178   3.085  68.784  1.00  0.00     0.000 HD 
HETATM   33  H1  UNK A   0      -9.748   2.321  74.357  1.00  0.00     0.000 HD 
HETATM   34  N   UNK A   0     -10.093   3.272  74.229  1.00  0.00    -0.132 NA 
HETATM   35  N   UNK A   0      -9.630   3.011  71.975  1.00  0.00    -0.135 NA 
HETATM   36  N   UNK A   0     -10.316   5.247  69.141  1.00  0.00    -0.216 NA 
HETATM   37  H2  UNK A   0      -9.543   1.774  69.754  1.00  0.00     0.000 HD 
HETATM   38  H2  UNK A   0     -10.423   3.825  75.021  1.00  0.00     0.000 HD 
ENDBRANCH  22  23
ENDBRANCH   2  22
TORSDOF 7
ENDMDL
MODEL      177
REMARK 921   NORMALIZED FREE ENERGY PREDICTED BY IDOCK:   -4.89 KCAL/MOL
REMARK 922        TOTAL FREE ENERGY PREDICTED BY IDOCK:   -8.64 KCAL/MOL
REMARK 923 INTER-LIGAND FREE ENERGY PREDICTED BY IDOCK:   -7.94 KCAL/MOL
REMARK 924 INTRA-LIGAND FREE ENERGY PREDICTED BY IDOCK:   -0.70 KCAL/MOL
REMARK 927      BINDING AFFINITY PREDICTED BY RF-SCORE:    0.00 PKD
ROOT
HETATM    1  C   UNK A   0     -10.762   6.860  67.102  1.00  0.00    -0.366 C  
HETATM    2  N   UNK A   0      -9.942   8.036  67.382  1.00  0.00    -0.187 NA 
ENDROOT
BRANCH   2   3
HETATM    3  C   UNK A   0     -10.535   9.293  67.401  1.00  0.00    -0.273 A  
HETATM    4  C   UNK A   0     -11.396  11.990  67.482  1.00  0.00    -0.387 A  
HETATM    5  C   UNK A   0     -11.095   9.851  68.563  1.00  0.00    -0.181 A  
HETATM    6  C   UNK A   0     -10.533  10.097  66.250  1.00  0.00    -0.192 A  
HETATM    7  C   UNK A   0     -10.940  11.433  66.287  1.00  0.00    -0.303 A  
HETATM    8  C   UNK A   0     -11.537  11.181  68.606  1.00  0.00    -0.383 A  
BRANCH   4   9
HETATM    9  C   UNK A   0     -11.710  13.437  67.572  1.00  0.00    -0.366 C  
HETATM   10  O   UNK A   0     -12.353  13.998  66.697  1.00  0.00    -0.451 OA 
ATOM     11  N   GLU A   1     -11.267  14.072  68.726  1.00  0.00    -0.256 N  
ATOM     12  H   GLU A   1     -10.674  13.576  69.392  1.00  0.00     0.000 HD 
BRANCH  11  13
ATOM     13  CA  GLU A   1     -11.663  15.470  68.979  1.00  0.00    -0.377 C  
ATOM     14  OXT GLU A   1     -10.381  17.552  69.099  1.00  0.00    -0.349 OA 
ATOM     15  C   GLU A   1     -10.398  16.331  69.158  1.00  0.00    -0.272 C  
ATOM     16  O   GLU A   1      -9.321  15.611  69.564  1.00  0.00    -0.264 OA 
BRANCH  13  17
ATOM     17  CB  GLU A   1     -12.537  15.555  70.240  1.00  0.00    -0.362 C  
BRANCH  17  18
ATOM     18  CG  GLU A   1     -12.861  14.184  70.840  1.00  0.00    -0.404 C  
ATOM     19  OE2 GLU A   1     -13.909  15.330  72.701  1.00  0.00    -0.480 OA 
ATOM     20  OE1 GLU A   1     -13.913  13.071  72.655  1.00  0.00    -0.657 OA 
ATOM     21  CD  GLU A   1     -13.604  14.286  72.148  1.00  0.00    -0.455 C  
ENDBRANCH  17  18
ENDBRANCH  13  17
ENDBRANCH  11  13
ENDBRANCH   4   9
ENDBRANCH   2   3
BRANCH   2  22
HETATM   22  C   UNK A   0      -8.484   7.912  67.206  1.00  0.00    -0.121 C  
BRANCH  22  23
HETATM   23  C   UNK A   0      -8.068   6.957  66.104  1.00  0.00    -0.115 A  
HETATM   24  N   UNK A   0      -7.993   2.789  66.730  1.00  0.00    -0.076 NA 
HETATM   25  C   UNK A   0      -7.351   5.220  64.095  1.00  0.00    -0.056 A  
HETATM   26  C   UNK A   0      -7.791   7.376  64.815  1.00  0.00    -0.126 A  
HETATM   27  N   UNK A   0      -6.948   4.406  63.123  1.00  0.00    -0.039 NA 
HETATM   28  C   UNK A   0      -7.577   3.400  65.536  1.00  0.00    -0.077 A  
HETATM   29  C   UNK A   0      -7.675   4.779  65.382  1.00  0.00    -0.086 A  
HETATM   30  N   UNK A   0      -7.436   6.526  63.816  1.00  0.00    -0.078 NA 
HETATM   31  C   UNK A   0      -6.840   3.114  63.405  1.00  0.00    -0.036 A  
HETATM   32  H1  UNK A   0      -8.299   3.427  67.465  1.00  0.00     0.000 HD 
HETATM   33  H1  UNK A   0      -6.288   1.285  62.634  1.00  0.00     0.000 HD 
HETATM   34  N   UNK A   0      -6.371   2.278  62.416  1.00  0.00    -0.009 NA 
HETATM   35  N   UNK A   0      -7.174   2.562  64.570  1.00  0.00    -0.053 NA 
HETATM   36  N   UNK A   0      -8.028   5.636  66.395  1.00  0.00    -0.101 NA 
HETATM   37  H2  UNK A   0      -7.259   2.176  67.083  1.00  0.00     0.000 HD 
HETATM   38  H2  UNK A   0      -6.114   2.641  61.498  1.00  0.00     0.000 HD 
ENDBRANCH  22  23
ENDBRANCH   2  22
TORSDOF 7
ENDMDL
MODEL      178
REMARK 921   NORMALIZED FREE ENERGY PREDICTED BY IDOCK:   -4.89 KCAL/MOL
REMARK 922        TOTAL FREE ENERGY PREDICTED BY IDOCK:   -8.64 KCAL/MOL
REMARK 923 INTER-LIGAND FREE ENERGY PREDICTED BY IDOCK:   -7.68 KCAL/MOL
REMARK 924 INTRA-LIGAND FREE ENERGY PREDICTED BY IDOCK:   -0.96 KCAL/MOL
REMARK 927      BINDING AFFINITY PREDICTED BY RF-SCORE:    0.00 PKD
ROOT
HETATM    1  C   UNK A   0      -9.126   6.322  69.872  1.00  0.00    -0.144 C  
HETATM    2  N   UNK A   0      -9.831   6.792  68.683  1.00  0.00    -0.141 NA 
ENDROOT
BRANCH   2   3
HETATM    3  C   UNK A   0      -9.923   8.157  68.438  1.00  0.00    -0.190 A  
HETATM    4  C   UNK A   0      -9.758  10.960  68.067  1.00  0.00    -0.176 A  
HETATM    5  C   UNK A   0     -10.503   9.056  69.351  1.00  0.00    -0.229 A  
HETATM    6  C   UNK A   0      -9.364   8.710  67.275  1.00  0.00    -0.186 A  
HETATM    7  C   UNK A   0      -9.264  10.092  67.094  1.00  0.00    -0.161 A  
HETATM    8  C   UNK A   0     -10.438  10.444  69.167  1.00  0.00    -0.248 A  
BRANCH   4   9
HETATM    9  C   UNK A   0      -9.546  12.424  67.953  1.00  0.00    -0.205 C  
HETATM   10  O   UNK A   0      -8.421  12.896  67.897  1.00  0.00    -0.157 OA 
ATOM     11  N   GLU A   1     -10.704  13.188  67.869  1.00  0.00    -0.231 N  
ATOM     12  H   GLU A   1     -11.619  12.753  67.992  1.00  0.00     0.000 HD 
BRANCH  11  13
ATOM     13  CA  GLU A   1     -10.597  14.635  67.598  1.00  0.00    -0.256 C  
ATOM     14  OXT GLU A   1     -11.188  16.608  68.920  1.00  0.00    -0.295 OA 
ATOM     15  C   GLU A   1     -11.332  15.413  68.706  1.00  0.00    -0.320 C  
ATOM     16  O   GLU A   1     -12.295  14.679  69.319  1.00  0.00    -0.238 OA 
BRANCH  13  17
ATOM     17  CB  GLU A   1     -11.211  14.966  66.230  1.00  0.00    -0.331 C  
BRANCH  17  18
ATOM     18  CG  GLU A   1     -11.402  13.733  65.342  1.00  0.00    -0.314 C  
ATOM     19  OE2 GLU A   1     -12.715  15.111  63.841  1.00  0.00    -0.759 OA 
ATOM     20  OE1 GLU A   1     -12.363  12.940  63.320  1.00  0.00    -0.652 OA 
ATOM     21  CD  GLU A   1     -12.226  14.027  64.114  1.00  0.00    -0.396 C  
ENDBRANCH  17  18
ENDBRANCH  13  17
ENDBRANCH  11  13
ENDBRANCH   4   9
ENDBRANCH   2   3
BRANCH   2  22
HETATM   22  C   UNK A   0     -10.772   5.863  68.032  1.00  0.00    -0.252 C  
BRANCH  22  23
HETATM   23  C   UNK A   0     -10.115   4.862  67.101  1.00  0.00    -0.187 A  
HETATM   24  N   UNK A   0      -8.903   5.950  63.214  1.00  0.00    -0.271 NA 
HETATM   25  C   UNK A   0      -8.889   3.057  65.426  1.00  0.00    -0.135 A  
HETATM   26  C   UNK A   0      -9.784   3.578  67.497  1.00  0.00    -0.014 A  
HETATM   27  N   UNK A   0      -8.348   2.151  64.617  1.00  0.00    -0.086 NA 
HETATM   28  C   UNK A   0      -8.801   4.644  63.719  1.00  0.00    -0.130 A  
HETATM   29  C   UNK A   0      -9.177   4.367  65.030  1.00  0.00    -0.157 A  
HETATM   30  N   UNK A   0      -9.179   2.679  66.677  1.00  0.00    -0.319 NA 
HETATM   31  C   UNK A   0      -8.084   2.517  63.370  1.00  0.00    -0.073 A  
HETATM   32  H1  UNK A   0      -9.320   6.633  63.847  1.00  0.00     0.000 HD 
HETATM   33  H1  UNK A   0      -7.371   1.845  61.556  1.00  0.00     0.000 HD 
HETATM   34  N   UNK A   0      -7.574   1.563  62.515  1.00  0.00    -0.040 NA 
HETATM   35  N   UNK A   0      -8.254   3.746  62.888  1.00  0.00    -0.079 NA 
HETATM   36  N   UNK A   0      -9.793   5.275  65.854  1.00  0.00    -0.308 NA 
HETATM   37  H2  UNK A   0      -9.406   5.944  62.327  1.00  0.00     0.000 HD 
HETATM   38  H2  UNK A   0      -7.407   0.608  62.832  1.00  0.00     0.000 HD 
ENDBRANCH  22  23
ENDBRANCH   2  22
TORSDOF 7
ENDMDL
MODEL      179
REMARK 921   NORMALIZED FREE ENERGY PREDICTED BY IDOCK:   -4.88 KCAL/MOL
REMARK 922        TOTAL FREE ENERGY PREDICTED BY IDOCK:   -8.62 KCAL/MOL
REMARK 923 INTER-LIGAND FREE ENERGY PREDICTED BY IDOCK:   -7.98 KCAL/MOL
REMARK 924 INTRA-LIGAND FREE ENERGY PREDICTED BY IDOCK:   -0.64 KCAL/MOL
REMARK 927      BINDING AFFINITY PREDICTED BY RF-SCORE:    0.00 PKD
ROOT
HETATM    1  C   UNK A   0      -5.833  12.568  70.185  1.00  0.00    -0.160 C  
HETATM    2  N   UNK A   0      -6.769  12.619  69.065  1.00  0.00    -0.098 NA 
ENDROOT
BRANCH   2   3
HETATM    3  C   UNK A   0      -7.171  13.853  68.566  1.00  0.00    -0.107 A  
HETATM    4  C   UNK A   0      -7.728  16.515  67.774  1.00  0.00    -0.165 A  
HETATM    5  C   UNK A   0      -8.276  14.556  69.077  1.00  0.00    -0.076 A  
HETATM    6  C   UNK A   0      -6.428  14.488  67.558  1.00  0.00    -0.070 A  
HETATM    7  C   UNK A   0      -6.687  15.806  67.175  1.00  0.00    -0.127 A  
HETATM    8  C   UNK A   0      -8.566  15.869  68.679  1.00  0.00    -0.198 A  
BRANCH   4   9
HETATM    9  C   UNK A   0      -7.937  17.953  67.475  1.00  0.00    -0.213 C  
HETATM   10  O   UNK A   0      -8.800  18.598  68.052  1.00  0.00    -0.291 OA 
ATOM     11  N   GLU A   1      -7.061  18.501  66.546  1.00  0.00    -0.208 N  
ATOM     12  H   GLU A   1      -6.405  17.904  66.041  1.00  0.00     0.000 HD 
BRANCH  11  13
ATOM     13  CA  GLU A   1      -7.088  19.955  66.298  1.00  0.00    -0.255 C  
ATOM     14  OXT GLU A   1      -6.711  21.290  64.281  1.00  0.00    -0.109 OA 
ATOM     15  C   GLU A   1      -6.554  20.236  64.880  1.00  0.00    -0.281 C  
ATOM     16  O   GLU A   1      -5.734  19.257  64.419  1.00  0.00    -0.243 OA 
BRANCH  13  17
ATOM     17  CB  GLU A   1      -6.226  20.688  67.337  1.00  0.00    -0.301 C  
BRANCH  17  18
ATOM     18  CG  GLU A   1      -5.453  19.736  68.255  1.00  0.00    -0.219 C  
ATOM     19  OE2 GLU A   1      -6.656  20.691  70.130  1.00  0.00    -0.217 OA 
ATOM     20  OE1 GLU A   1      -5.174  19.027  70.504  1.00  0.00    -0.196 OA 
ATOM     21  CD  GLU A   1      -5.838  19.892  69.704  1.00  0.00    -0.290 C  
ENDBRANCH  17  18
ENDBRANCH  13  17
ENDBRANCH  11  13
ENDBRANCH   4   9
ENDBRANCH   2   3
BRANCH   2  22
HETATM   22  C   UNK A   0      -7.576  11.417  68.791  1.00  0.00    -0.132 C  
BRANCH  22  23
HETATM   23  C   UNK A   0      -8.388  11.490  67.512  1.00  0.00    -0.143 A  
HETATM   24  N   UNK A   0     -12.284  13.097  67.477  1.00  0.00    -0.220 NA 
HETATM   25  C   UNK A   0      -9.847  11.658  65.186  1.00  0.00    -0.249 A  
HETATM   26  C   UNK A   0      -7.873  11.136  66.278  1.00  0.00    -0.109 A  
HETATM   27  N   UNK A   0     -10.551  11.678  64.058  1.00  0.00    -0.336 NA 
HETATM   28  C   UNK A   0     -11.670  12.532  66.348  1.00  0.00    -0.397 A  
HETATM   29  C   UNK A   0     -10.362  12.064  66.421  1.00  0.00    -0.216 A  
HETATM   30  N   UNK A   0      -8.585  11.215  65.123  1.00  0.00    -0.384 NA 
HETATM   31  C   UNK A   0     -11.809  12.094  64.123  1.00  0.00    -0.404 A  
HETATM   32  H1  UNK A   0     -11.731  13.074  68.334  1.00  0.00     0.000 HD 
HETATM   33  H1  UNK A   0     -13.523  12.383  63.016  1.00  0.00     0.000 HD 
HETATM   34  N   UNK A   0     -12.556  12.063  62.966  1.00  0.00    -0.768 NA 
HETATM   35  N   UNK A   0     -12.397  12.562  65.222  1.00  0.00    -0.612 NA 
HETATM   36  N   UNK A   0      -9.647  11.980  67.589  1.00  0.00    -0.184 NA 
HETATM   37  H2  UNK A   0     -13.192  12.661  67.636  1.00  0.00     0.000 HD 
HETATM   38  H2  UNK A   0     -12.154  11.731  62.088  1.00  0.00     0.000 HD 
ENDBRANCH  22  23
ENDBRANCH   2  22
TORSDOF 7
ENDMDL
MODEL      180
REMARK 921   NORMALIZED FREE ENERGY PREDICTED BY IDOCK:   -4.86 KCAL/MOL
REMARK 922        TOTAL FREE ENERGY PREDICTED BY IDOCK:   -8.60 KCAL/MOL
REMARK 923 INTER-LIGAND FREE ENERGY PREDICTED BY IDOCK:   -7.58 KCAL/MOL
REMARK 924 INTRA-LIGAND FREE ENERGY PREDICTED BY IDOCK:   -1.02 KCAL/MOL
REMARK 927      BINDING AFFINITY PREDICTED BY RF-SCORE:    0.00 PKD
ROOT
HETATM    1  C   UNK A   0      -7.609  11.415  67.865  1.00  0.00    -0.108 C  
HETATM    2  N   UNK A   0      -7.481  10.079  68.440  1.00  0.00    -0.081 NA 
ENDROOT
BRANCH   2   3
HETATM    3  C   UNK A   0      -7.865   8.974  67.691  1.00  0.00    -0.101 A  
HETATM    4  C   UNK A   0      -8.331   6.770  65.973  1.00  0.00    -0.134 A  
HETATM    5  C   UNK A   0      -8.749   9.064  66.601  1.00  0.00    -0.140 A  
HETATM    6  C   UNK A   0      -7.318   7.709  67.958  1.00  0.00    -0.099 A  
HETATM    7  C   UNK A   0      -7.530   6.622  67.105  1.00  0.00    -0.088 A  
HETATM    8  C   UNK A   0      -8.995   7.974  65.755  1.00  0.00    -0.148 A  
BRANCH   4   9
HETATM    9  C   UNK A   0      -8.463   5.667  64.989  1.00  0.00    -0.135 C  
HETATM   10  O   UNK A   0      -7.972   5.756  63.874  1.00  0.00    -0.112 OA 
ATOM     11  N   GLU A   1      -9.129   4.537  65.448  1.00  0.00    -0.140 N  
ATOM     12  H   GLU A   1      -9.581   4.541  66.362  1.00  0.00     0.000 HD 
BRANCH  11  13
ATOM     13  CA  GLU A   1      -9.176   3.332  64.598  1.00  0.00    -0.141 C  
ATOM     14  OXT GLU A   1     -10.744   2.591  62.870  1.00  0.00    -0.158 OA 
ATOM     15  C   GLU A   1     -10.519   3.294  63.845  1.00  0.00    -0.218 C  
ATOM     16  O   GLU A   1     -11.498   3.993  64.474  1.00  0.00    -0.208 OA 
BRANCH  13  17
ATOM     17  CB  GLU A   1      -9.023   2.069  65.459  1.00  0.00    -0.116 C  
BRANCH  17  18
ATOM     18  CG  GLU A   1      -9.092   2.354  66.962  1.00  0.00    -0.148 C  
ATOM     19  OE2 GLU A   1      -6.734   1.807  67.097  1.00  0.00    -0.036 OA 
ATOM     20  OE1 GLU A   1      -7.825   2.449  68.968  1.00  0.00    -0.049 OA 
ATOM     21  CD  GLU A   1      -7.762   2.165  67.647  1.00  0.00    -0.060 C  
ENDBRANCH  17  18
ENDBRANCH  13  17
ENDBRANCH  11  13
ENDBRANCH   4   9
ENDBRANCH   2   3
BRANCH   2  22
HETATM   22  C   UNK A   0      -7.367   9.972  69.905  1.00  0.00    -0.161 C  
BRANCH  22  23
HETATM   23  C   UNK A   0      -8.656   9.579  70.602  1.00  0.00    -0.124 A  
HETATM   24  N   UNK A   0     -12.407  10.832  69.145  1.00  0.00    -0.736 NA 
HETATM   25  C   UNK A   0     -10.995   8.836  71.844  1.00  0.00    -0.365 A  
HETATM   26  C   UNK A   0      -8.689   8.715  71.682  1.00  0.00    -0.203 A  
HETATM   27  N   UNK A   0     -12.108   8.507  72.494  1.00  0.00    -0.405 NA 
HETATM   28  C   UNK A   0     -12.243  10.094  70.328  1.00  0.00    -0.173 A  
HETATM   29  C   UNK A   0     -10.978   9.673  70.724  1.00  0.00    -0.327 A  
HETATM   30  N   UNK A   0      -9.839   8.342  72.302  1.00  0.00    -0.264 NA 
HETATM   31  C   UNK A   0     -13.252   9.015  72.055  1.00  0.00    -0.429 A  
HETATM   32  H1  UNK A   0     -11.544  11.075  68.658  1.00  0.00     0.000 HD 
HETATM   33  H1  UNK A   0     -15.277   9.111  72.423  1.00  0.00     0.000 HD 
HETATM   34  N   UNK A   0     -14.398   8.720  72.761  1.00  0.00    -1.038 NA 
HETATM   35  N   UNK A   0     -13.377   9.774  70.968  1.00  0.00    -0.550 NA 
HETATM   36  N   UNK A   0      -9.818  10.055  70.099  1.00  0.00    -0.386 NA 
HETATM   37  H2  UNK A   0     -12.953  11.672  69.330  1.00  0.00     0.000 HD 
HETATM   38  H2  UNK A   0     -14.367   8.131  73.593  1.00  0.00     0.000 HD 
ENDBRANCH  22  23
ENDBRANCH   2  22
TORSDOF 7
ENDMDL
MODEL      181
REMARK 921   NORMALIZED FREE ENERGY PREDICTED BY IDOCK:   -4.85 KCAL/MOL
REMARK 922        TOTAL FREE ENERGY PREDICTED BY IDOCK:   -8.58 KCAL/MOL
REMARK 923 INTER-LIGAND FREE ENERGY PREDICTED BY IDOCK:   -7.74 KCAL/MOL
REMARK 924 INTRA-LIGAND FREE ENERGY PREDICTED BY IDOCK:   -0.84 KCAL/MOL
REMARK 927      BINDING AFFINITY PREDICTED BY RF-SCORE:    0.00 PKD
ROOT
HETATM    1  C   UNK A   0     -10.804   6.770  73.144  1.00  0.00    -0.284 C  
HETATM    2  N   UNK A   0     -11.425   6.577  71.836  1.00  0.00    -0.285 NA 
ENDROOT
BRANCH   2   3
HETATM    3  C   UNK A   0     -10.624   6.293  70.736  1.00  0.00    -0.243 A  
HETATM    4  C   UNK A   0      -9.299   5.775  68.287  1.00  0.00    -0.123 A  
HETATM    5  C   UNK A   0     -10.371   4.980  70.300  1.00  0.00    -0.299 A  
HETATM    6  C   UNK A   0     -10.085   7.332  69.961  1.00  0.00    -0.192 A  
HETATM    7  C   UNK A   0      -9.445   7.084  68.744  1.00  0.00    -0.136 A  
HETATM    8  C   UNK A   0      -9.703   4.716  69.096  1.00  0.00    -0.255 A  
BRANCH   4   9
HETATM    9  C   UNK A   0      -8.740   5.501  66.940  1.00  0.00    -0.112 C  
HETATM   10  O   UNK A   0      -7.792   6.140  66.509  1.00  0.00    -0.101 OA 
ATOM     11  N   GLU A   1      -9.335   4.452  66.251  1.00  0.00    -0.147 N  
ATOM     12  H   GLU A   1     -10.168   3.996  66.624  1.00  0.00     0.000 HD 
BRANCH  11  13
ATOM     13  CA  GLU A   1      -8.750   4.003  64.972  1.00  0.00    -0.117 C  
ATOM     14  OXT GLU A   1      -9.624   3.952  62.686  1.00  0.00    -0.110 OA 
ATOM     15  C   GLU A   1      -9.845   3.999  63.888  1.00  0.00    -0.150 C  
ATOM     16  O   GLU A   1     -11.096   3.878  64.399  1.00  0.00    -0.331 OA 
BRANCH  13  17
ATOM     17  CB  GLU A   1      -8.159   2.593  65.124  1.00  0.00    -0.083 C  
BRANCH  17  18
ATOM     18  CG  GLU A   1      -6.708   2.600  65.613  1.00  0.00    -0.039 C  
ATOM     19  OE2 GLU A   1      -7.546   2.308  67.868  1.00  0.00    -0.055 OA 
ATOM     20  OE1 GLU A   1      -5.315   2.400  67.526  1.00  0.00    -0.015 OA 
ATOM     21  CD  GLU A   1      -6.600   2.424  67.106  1.00  0.00    -0.039 C  
ENDBRANCH  17  18
ENDBRANCH  13  17
ENDBRANCH  11  13
ENDBRANCH   4   9
ENDBRANCH   2   3
BRANCH   2  22
HETATM   22  C   UNK A   0     -12.786   7.106  71.638  1.00  0.00    -0.379 C  
BRANCH  22  23
HETATM   23  C   UNK A   0     -12.869   8.621  71.618  1.00  0.00    -0.345 A  
HETATM   24  N   UNK A   0     -10.658  10.900  68.847  1.00  0.00    -0.198 NA 
HETATM   25  C   UNK A   0     -13.048  11.365  71.555  1.00  0.00    -0.335 A  
HETATM   26  C   UNK A   0     -13.738   9.333  72.424  1.00  0.00    -0.452 A  
HETATM   27  N   UNK A   0     -13.111  12.693  71.582  1.00  0.00    -0.378 NA 
HETATM   28  C   UNK A   0     -11.459  11.467  69.851  1.00  0.00    -0.273 A  
HETATM   29  C   UNK A   0     -12.199  10.652  70.702  1.00  0.00    -0.365 A  
HETATM   30  N   UNK A   0     -13.834  10.688  72.401  1.00  0.00    -0.289 NA 
HETATM   31  C   UNK A   0     -12.315  13.365  70.761  1.00  0.00    -0.354 A  
HETATM   32  H1  UNK A   0     -10.620   9.881  68.840  1.00  0.00     0.000 HD 
HETATM   33  H1  UNK A   0     -11.727  15.258  70.195  1.00  0.00     0.000 HD 
HETATM   34  N   UNK A   0     -12.340  14.741  70.826  1.00  0.00    -0.306 NA 
HETATM   35  N   UNK A   0     -11.508  12.807  69.861  1.00  0.00    -0.510 NA 
HETATM   36  N   UNK A   0     -12.096   9.284  70.727  1.00  0.00    -0.443 NA 
HETATM   37  H2  UNK A   0      -9.715  11.285  68.893  1.00  0.00     0.000 HD 
HETATM   38  H2  UNK A   0     -12.950  15.226  71.484  1.00  0.00     0.000 HD 
ENDBRANCH  22  23
ENDBRANCH   2  22
TORSDOF 7
ENDMDL
MODEL      182
REMARK 921   NORMALIZED FREE ENERGY PREDICTED BY IDOCK:   -4.85 KCAL/MOL
REMARK 922        TOTAL FREE ENERGY PREDICTED BY IDOCK:   -8.58 KCAL/MOL
REMARK 923 INTER-LIGAND FREE ENERGY PREDICTED BY IDOCK:   -7.28 KCAL/MOL
REMARK 924 INTRA-LIGAND FREE ENERGY PREDICTED BY IDOCK:   -1.30 KCAL/MOL
REMARK 927      BINDING AFFINITY PREDICTED BY RF-SCORE:    0.00 PKD
ROOT
HETATM    1  C   UNK A   0     -13.180  11.283  71.221  1.00  0.00    -0.081 C  
HETATM    2  N   UNK A   0     -11.902  11.156  70.527  1.00  0.00    -0.361 NA 
ENDROOT
BRANCH   2   3
HETATM    3  C   UNK A   0     -11.275   9.916  70.472  1.00  0.00    -0.330 A  
HETATM    4  C   UNK A   0     -10.169   7.346  70.029  1.00  0.00    -0.211 A  
HETATM    5  C   UNK A   0     -11.800   8.771  71.097  1.00  0.00    -0.345 A  
HETATM    6  C   UNK A   0     -10.106   9.743  69.715  1.00  0.00    -0.268 A  
HETATM    7  C   UNK A   0      -9.565   8.477  69.478  1.00  0.00    -0.170 A  
HETATM    8  C   UNK A   0     -11.249   7.498  70.893  1.00  0.00    -0.286 A  
BRANCH   4   9
HETATM    9  C   UNK A   0      -9.686   5.986  69.684  1.00  0.00    -0.152 C  
HETATM   10  O   UNK A   0     -10.401   5.007  69.836  1.00  0.00    -0.279 OA 
ATOM     11  N   GLU A   1      -8.407   5.928  69.144  1.00  0.00    -0.106 N  
ATOM     12  H   GLU A   1      -7.826   6.764  69.104  1.00  0.00     0.000 HD 
BRANCH  11  13
ATOM     13  CA  GLU A   1      -7.900   4.642  68.627  1.00  0.00    -0.079 C  
ATOM     14  OXT GLU A   1      -5.998   3.241  69.271  1.00  0.00    -0.022 OA 
ATOM     15  C   GLU A   1      -6.534   4.340  69.273  1.00  0.00    -0.036 C  
ATOM     16  O   GLU A   1      -5.893   5.457  69.701  1.00  0.00    -0.015 OA 
BRANCH  13  17
ATOM     17  CB  GLU A   1      -7.754   4.704  67.099  1.00  0.00    -0.090 C  
BRANCH  17  18
ATOM     18  CG  GLU A   1      -8.938   4.078  66.357  1.00  0.00    -0.128 C  
ATOM     19  OE2 GLU A   1      -9.978   6.267  66.329  1.00  0.00    -0.098 OA 
ATOM     20  OE1 GLU A   1     -11.040   4.530  65.348  1.00  0.00    -0.204 OA 
ATOM     21  CD  GLU A   1     -10.012   5.084  66.031  1.00  0.00    -0.199 C  
ENDBRANCH  17  18
ENDBRANCH  13  17
ENDBRANCH  11  13
ENDBRANCH   4   9
ENDBRANCH   2   3
BRANCH   2  22
HETATM   22  C   UNK A   0     -11.122  12.384  70.293  1.00  0.00     0.908 C  
BRANCH  22  23
HETATM   23  C   UNK A   0     -11.319  12.995  68.919  1.00  0.00    -0.287 A  
HETATM   24  N   UNK A   0      -9.263  16.486  67.756  1.00  0.00    -0.201 NA 
HETATM   25  C   UNK A   0     -11.647  14.082  66.414  1.00  0.00    -0.369 A  
HETATM   26  C   UNK A   0     -12.093  12.399  67.940  1.00  0.00    -0.019 A  
HETATM   27  N   UNK A   0     -11.865  14.617  65.216  1.00  0.00    -0.347 NA 
HETATM   28  C   UNK A   0     -10.219  15.846  66.951  1.00  0.00    -0.277 A  
HETATM   29  C   UNK A   0     -10.824  14.669  67.380  1.00  0.00    -0.298 A  
HETATM   30  N   UNK A   0     -12.262  12.928  66.699  1.00  0.00    -0.447 NA 
HETATM   31  C   UNK A   0     -11.275  15.773  64.940  1.00  0.00    -0.350 A  
HETATM   32  H1  UNK A   0      -9.108  16.063  68.671  1.00  0.00     0.000 HD 
HETATM   33  H1  UNK A   0     -11.090  17.245  63.509  1.00  0.00     0.000 HD 
HETATM   34  N   UNK A   0     -11.544  16.356  63.721  1.00  0.00    -1.515 NA 
HETATM   35  N   UNK A   0     -10.424  16.402  65.748  1.00  0.00    -0.366 NA 
HETATM   36  N   UNK A   0     -10.656  14.140  68.635  1.00  0.00    -0.244 NA 
HETATM   37  H2  UNK A   0      -9.500  17.472  67.862  1.00  0.00     0.000 HD 
HETATM   38  H2  UNK A   0     -12.175  15.913  63.053  1.00  0.00     0.000 HD 
ENDBRANCH  22  23
ENDBRANCH   2  22
TORSDOF 7
ENDMDL
MODEL      183
REMARK 921   NORMALIZED FREE ENERGY PREDICTED BY IDOCK:   -4.81 KCAL/MOL
REMARK 922        TOTAL FREE ENERGY PREDICTED BY IDOCK:   -8.53 KCAL/MOL
REMARK 923 INTER-LIGAND FREE ENERGY PREDICTED BY IDOCK:   -7.25 KCAL/MOL
REMARK 924 INTRA-LIGAND FREE ENERGY PREDICTED BY IDOCK:   -1.28 KCAL/MOL
REMARK 927      BINDING AFFINITY PREDICTED BY RF-SCORE:    0.00 PKD
ROOT
HETATM    1  C   UNK A   0     -11.900   9.211  70.892  1.00  0.00    -0.270 C  
HETATM    2  N   UNK A   0     -10.772   9.250  69.965  1.00  0.00    -0.224 NA 
ENDROOT
BRANCH   2   3
HETATM    3  C   UNK A   0     -10.076   8.079  69.688  1.00  0.00    -0.198 A  
HETATM    4  C   UNK A   0      -8.494   5.886  68.845  1.00  0.00    -0.105 A  
HETATM    5  C   UNK A   0     -10.613   7.042  68.906  1.00  0.00    -0.233 A  
HETATM    6  C   UNK A   0      -8.753   7.918  70.130  1.00  0.00    -0.136 A  
HETATM    7  C   UNK A   0      -7.962   6.847  69.705  1.00  0.00    -0.125 A  
HETATM    8  C   UNK A   0      -9.840   5.946  68.497  1.00  0.00    -0.166 A  
BRANCH   4   9
HETATM    9  C   UNK A   0      -7.635   4.816  68.280  1.00  0.00    -0.077 C  
HETATM   10  O   UNK A   0      -6.957   4.104  69.006  1.00  0.00    -0.046 OA 
ATOM     11  N   GLU A   1      -7.702   4.664  66.901  1.00  0.00    -0.090 N  
ATOM     12  H   GLU A   1      -8.228   5.329  66.334  1.00  0.00     0.000 HD 
BRANCH  11  13
ATOM     13  CA  GLU A   1      -7.006   3.530  66.264  1.00  0.00    -0.062 C  
ATOM     14  OXT GLU A   1      -5.218   3.419  64.596  1.00  0.00    -0.008 OA 
ATOM     15  C   GLU A   1      -6.119   4.058  65.120  1.00  0.00    -0.023 C  
ATOM     16  O   GLU A   1      -6.546   5.247  64.625  1.00  0.00    -0.041 OA 
BRANCH  13  17
ATOM     17  CB  GLU A   1      -8.025   2.521  65.713  1.00  0.00    -0.082 C  
BRANCH  17  18
ATOM     18  CG  GLU A   1      -9.452   3.075  65.666  1.00  0.00    -0.034 C  
ATOM     19  OE2 GLU A   1      -9.202   3.303  63.265  1.00  0.00    -0.095 OA 
ATOM     20  OE1 GLU A   1     -11.163   3.881  64.228  1.00  0.00    -0.335 OA 
ATOM     21  CD  GLU A   1      -9.891   3.422  64.266  1.00  0.00    -0.173 C  
ENDBRANCH  17  18
ENDBRANCH  13  17
ENDBRANCH  11  13
ENDBRANCH   4   9
ENDBRANCH   2   3
BRANCH   2  22
HETATM   22  C   UNK A   0     -10.148  10.558  69.699  1.00  0.00    -0.139 C  
BRANCH  22  23
HETATM   23  C   UNK A   0     -10.493  11.150  68.346  1.00  0.00    -0.188 A  
HETATM   24  N   UNK A   0     -12.408  14.890  68.014  1.00  0.00    -0.512 NA 
HETATM   25  C   UNK A   0     -11.086  12.242  65.892  1.00  0.00    -0.322 A  
HETATM   26  C   UNK A   0     -10.117  10.559  67.153  1.00  0.00    -0.209 A  
HETATM   27  N   UNK A   0     -11.410  12.721  64.695  1.00  0.00    -0.308 NA 
HETATM   28  C   UNK A   0     -12.108  14.073  66.912  1.00  0.00    -0.430 A  
HETATM   29  C   UNK A   0     -11.431  12.871  67.092  1.00  0.00    -0.336 A  
HETATM   30  N   UNK A   0     -10.405  11.090  65.936  1.00  0.00    -0.255 NA 
HETATM   31  C   UNK A   0     -12.106  13.850  64.650  1.00  0.00    -0.431 A  
HETATM   32  H1  UNK A   0     -12.153  14.508  68.924  1.00  0.00     0.000 HD 
HETATM   33  H1  UNK A   0     -13.025  15.186  63.379  1.00  0.00     0.000 HD 
HETATM   34  N   UNK A   0     -12.490  14.319  63.413  1.00  0.00    -1.101 NA 
HETATM   35  N   UNK A   0     -12.443  14.575  65.715  1.00  0.00    -0.274 NA 
HETATM   36  N   UNK A   0     -11.146  12.335  68.322  1.00  0.00    -0.222 NA 
HETATM   37  H2  UNK A   0     -13.396  15.141  68.004  1.00  0.00     0.000 HD 
HETATM   38  H2  UNK A   0     -12.247  13.815  62.560  1.00  0.00     0.000 HD 
ENDBRANCH  22  23
ENDBRANCH   2  22
TORSDOF 7
ENDMDL
MODEL      184
REMARK 921   NORMALIZED FREE ENERGY PREDICTED BY IDOCK:   -4.81 KCAL/MOL
REMARK 922        TOTAL FREE ENERGY PREDICTED BY IDOCK:   -8.52 KCAL/MOL
REMARK 923 INTER-LIGAND FREE ENERGY PREDICTED BY IDOCK:   -8.55 KCAL/MOL
REMARK 924 INTRA-LIGAND FREE ENERGY PREDICTED BY IDOCK:    0.03 KCAL/MOL
REMARK 927      BINDING AFFINITY PREDICTED BY RF-SCORE:    0.00 PKD
ROOT
HETATM    1  C   UNK A   0     -12.304   6.778  71.536  1.00  0.00    -0.358 C  
HETATM    2  N   UNK A   0     -11.113   7.616  71.439  1.00  0.00    -0.236 NA 
ENDROOT
BRANCH   2   3
HETATM    3  C   UNK A   0     -11.231   8.920  70.972  1.00  0.00    -0.281 A  
HETATM    4  C   UNK A   0     -11.740  11.445  69.793  1.00  0.00    -0.418 A  
HETATM    5  C   UNK A   0     -10.394   9.448  69.972  1.00  0.00    -0.265 A  
HETATM    6  C   UNK A   0     -12.259   9.753  71.441  1.00  0.00    -0.486 A  
HETATM    7  C   UNK A   0     -12.526  10.993  70.854  1.00  0.00    -0.509 A  
HETATM    8  C   UNK A   0     -10.632  10.703  69.395  1.00  0.00    -0.270 A  
BRANCH   4   9
HETATM    9  C   UNK A   0     -12.087  12.695  69.074  1.00  0.00    -0.139 C  
HETATM   10  O   UNK A   0     -12.588  13.642  69.661  1.00  0.00    -0.185 OA 
ATOM     11  N   GLU A   1     -11.758  12.716  67.724  1.00  0.00    -0.350 N  
ATOM     12  H   GLU A   1     -11.406  11.875  67.266  1.00  0.00     0.000 HD 
BRANCH  11  13
ATOM     13  CA  GLU A   1     -11.921  13.967  66.959  1.00  0.00    -0.438 C  
ATOM     14  OXT GLU A   1     -13.139  14.497  64.904  1.00  0.00    -0.515 OA 
ATOM     15  C   GLU A   1     -12.616  13.656  65.621  1.00  0.00    -0.484 C  
ATOM     16  O   GLU A   1     -12.444  12.371  65.220  1.00  0.00    -0.611 OA 
BRANCH  13  17
ATOM     17  CB  GLU A   1     -10.551  14.614  66.700  1.00  0.00    -0.289 C  
BRANCH  17  18
ATOM     18  CG  GLU A   1     -10.221  15.737  67.687  1.00  0.00    -0.266 C  
ATOM     19  OE2 GLU A   1     -10.240  17.280  65.818  1.00  0.00    -0.533 OA 
ATOM     20  OE1 GLU A   1      -9.847  18.073  67.897  1.00  0.00    -0.284 OA 
ATOM     21  CD  GLU A   1     -10.108  17.082  67.014  1.00  0.00    -0.295 C  
ENDBRANCH  17  18
ENDBRANCH  13  17
ENDBRANCH  11  13
ENDBRANCH   4   9
ENDBRANCH   2   3
BRANCH   2  22
HETATM   22  C   UNK A   0      -9.801   6.944  71.420  1.00  0.00    -0.178 C  
BRANCH  22  23
HETATM   23  C   UNK A   0      -9.278   6.639  70.030  1.00  0.00    -0.158 A  
HETATM   24  N   UNK A   0      -6.671   9.287  68.040  1.00  0.00    -0.060 NA 
HETATM   25  C   UNK A   0      -8.296   6.070  67.524  1.00  0.00    -0.108 A  
HETATM   26  C   UNK A   0      -9.534   5.446  69.378  1.00  0.00    -0.133 A  
HETATM   27  N   UNK A   0      -7.880   5.796  66.291  1.00  0.00    -0.099 NA 
HETATM   28  C   UNK A   0      -7.173   8.112  67.458  1.00  0.00    -0.091 A  
HETATM   29  C   UNK A   0      -7.992   7.260  68.192  1.00  0.00    -0.123 A  
HETATM   30  N   UNK A   0      -9.055   5.155  68.141  1.00  0.00    -0.110 NA 
HETATM   31  C   UNK A   0      -7.149   6.711  65.669  1.00  0.00    -0.061 A  
HETATM   32  H1  UNK A   0      -7.000   9.483  68.986  1.00  0.00     0.000 HD 
HETATM   33  H1  UNK A   0      -6.202   7.157  63.894  1.00  0.00     0.000 HD 
HETATM   34  N   UNK A   0      -6.764   6.452  64.372  1.00  0.00    -0.034 NA 
HETATM   35  N   UNK A   0      -6.741   7.855  66.215  1.00  0.00    -0.053 NA 
HETATM   36  N   UNK A   0      -8.479   7.558  69.439  1.00  0.00    -0.132 NA 
HETATM   37  H2  UNK A   0      -6.858  10.085  67.433  1.00  0.00     0.000 HD 
HETATM   38  H2  UNK A   0      -7.032   5.585  63.906  1.00  0.00     0.000 HD 
ENDBRANCH  22  23
ENDBRANCH   2  22
TORSDOF 7
ENDMDL
MODEL      185
REMARK 921   NORMALIZED FREE ENERGY PREDICTED BY IDOCK:   -4.80 KCAL/MOL
REMARK 922        TOTAL FREE ENERGY PREDICTED BY IDOCK:   -8.51 KCAL/MOL
REMARK 923 INTER-LIGAND FREE ENERGY PREDICTED BY IDOCK:   -7.68 KCAL/MOL
REMARK 924 INTRA-LIGAND FREE ENERGY PREDICTED BY IDOCK:   -0.83 KCAL/MOL
REMARK 927      BINDING AFFINITY PREDICTED BY RF-SCORE:    0.00 PKD
ROOT
HETATM    1  C   UNK A   0      -5.646   9.577  69.184  1.00  0.00    -0.036 C  
HETATM    2  N   UNK A   0      -6.665   9.422  68.150  1.00  0.00    -0.059 NA 
ENDROOT
BRANCH   2   3
HETATM    3  C   UNK A   0      -7.338  10.544  67.680  1.00  0.00    -0.087 A  
HETATM    4  C   UNK A   0      -8.924  12.798  67.028  1.00  0.00    -0.221 A  
HETATM    5  C   UNK A   0      -8.361  10.470  66.719  1.00  0.00    -0.128 A  
HETATM    6  C   UNK A   0      -7.061  11.813  68.213  1.00  0.00    -0.079 A  
HETATM    7  C   UNK A   0      -7.850  12.926  67.908  1.00  0.00    -0.151 A  
HETATM    8  C   UNK A   0      -9.141  11.585  66.380  1.00  0.00    -0.206 A  
BRANCH   4   9
HETATM    9  C   UNK A   0      -9.849  13.934  66.792  1.00  0.00    -0.274 C  
HETATM   10  O   UNK A   0     -10.615  13.936  65.840  1.00  0.00    -0.282 OA 
ATOM     11  N   GLU A   1      -9.808  14.943  67.747  1.00  0.00    -0.216 N  
ATOM     12  H   GLU A   1      -9.103  14.927  68.483  1.00  0.00     0.000 HD 
BRANCH  11  13
ATOM     13  CA  GLU A   1     -10.797  16.037  67.685  1.00  0.00    -0.311 C  
ATOM     14  OXT GLU A   1     -10.563  18.455  67.390  1.00  0.00    -0.406 OA 
ATOM     15  C   GLU A   1     -10.058  17.388  67.709  1.00  0.00    -0.323 C  
ATOM     16  O   GLU A   1      -8.832  17.312  68.286  1.00  0.00    -0.242 OA 
BRANCH  13  17
ATOM     17  CB  GLU A   1     -11.763  15.948  68.876  1.00  0.00    -0.376 C  
BRANCH  17  18
ATOM     18  CG  GLU A   1     -11.053  15.687  70.208  1.00  0.00    -0.361 C  
ATOM     19  OE2 GLU A   1     -13.225  15.724  71.285  1.00  0.00    -0.496 OA 
ATOM     20  OE1 GLU A   1     -11.382  15.332  72.533  1.00  0.00    -0.428 OA 
ATOM     21  CD  GLU A   1     -12.014  15.593  71.366  1.00  0.00    -0.418 C  
ENDBRANCH  17  18
ENDBRANCH  13  17
ENDBRANCH  11  13
ENDBRANCH   4   9
ENDBRANCH   2   3
BRANCH   2  22
HETATM   22  C   UNK A   0      -7.246   8.081  67.954  1.00  0.00    -0.091 C  
BRANCH  22  23
HETATM   23  C   UNK A   0      -7.812   7.458  69.215  1.00  0.00    -0.116 A  
HETATM   24  N   UNK A   0     -11.956   7.447  69.985  1.00  0.00    -0.429 NA 
HETATM   25  C   UNK A   0      -8.844   6.293  71.483  1.00  0.00    -0.138 A  
HETATM   26  C   UNK A   0      -7.030   6.773  70.127  1.00  0.00    -0.066 A  
HETATM   27  N   UNK A   0      -9.312   5.771  72.613  1.00  0.00    -0.141 NA 
HETATM   28  C   UNK A   0     -11.000   6.950  70.885  1.00  0.00    -0.253 A  
HETATM   29  C   UNK A   0      -9.651   6.941  70.544  1.00  0.00    -0.169 A  
HETATM   30  N   UNK A   0      -7.529   6.194  71.251  1.00  0.00    -0.091 NA 
HETATM   31  C   UNK A   0     -10.610   5.889  72.856  1.00  0.00    -0.235 A  
HETATM   32  H1  UNK A   0     -11.581   7.844  69.123  1.00  0.00     0.000 HD 
HETATM   33  H1  UNK A   0     -12.086   5.489  74.239  1.00  0.00     0.000 HD 
HETATM   34  N   UNK A   0     -11.087   5.397  74.052  1.00  0.00    -0.417 NA 
HETATM   35  N   UNK A   0     -11.493   6.429  72.018  1.00  0.00    -0.290 NA 
HETATM   36  N   UNK A   0      -9.149   7.532  69.412  1.00  0.00    -0.143 NA 
HETATM   37  H2  UNK A   0     -12.555   8.128  70.452  1.00  0.00     0.000 HD 
HETATM   38  H2  UNK A   0     -10.461   4.958  74.728  1.00  0.00     0.000 HD 
ENDBRANCH  22  23
ENDBRANCH   2  22
TORSDOF 7
ENDMDL
MODEL      186
REMARK 921   NORMALIZED FREE ENERGY PREDICTED BY IDOCK:   -4.79 KCAL/MOL
REMARK 922        TOTAL FREE ENERGY PREDICTED BY IDOCK:   -8.50 KCAL/MOL
REMARK 923 INTER-LIGAND FREE ENERGY PREDICTED BY IDOCK:   -7.92 KCAL/MOL
REMARK 924 INTRA-LIGAND FREE ENERGY PREDICTED BY IDOCK:   -0.58 KCAL/MOL
REMARK 927      BINDING AFFINITY PREDICTED BY RF-SCORE:    0.00 PKD
ROOT
HETATM    1  C   UNK A   0     -12.944  10.225  70.394  1.00  0.00    -0.094 C  
HETATM    2  N   UNK A   0     -11.542  10.116  70.001  1.00  0.00    -0.328 NA 
ENDROOT
BRANCH   2   3
HETATM    3  C   UNK A   0     -11.052  10.932  68.988  1.00  0.00    -0.246 A  
HETATM    4  C   UNK A   0     -10.269  12.863  67.069  1.00  0.00    -0.243 A  
HETATM    5  C   UNK A   0     -11.592  10.941  67.690  1.00  0.00    -0.171 A  
HETATM    6  C   UNK A   0     -10.021  11.848  69.250  1.00  0.00     0.339 A  
HETATM    7  C   UNK A   0      -9.641  12.814  68.314  1.00  0.00    -0.211 A  
HETATM    8  C   UNK A   0     -11.199  11.884  66.731  1.00  0.00    -0.384 A  
BRANCH   4   9
HETATM    9  C   UNK A   0      -9.971  13.958  66.114  1.00  0.00    -0.310 C  
HETATM   10  O   UNK A   0     -10.239  13.849  64.927  1.00  0.00    -0.395 OA 
ATOM     11  N   GLU A   1      -9.424  15.105  66.675  1.00  0.00    -0.247 N  
ATOM     12  H   GLU A   1      -9.154  15.120  67.658  1.00  0.00     0.000 HD 
BRANCH  11  13
ATOM     13  CA  GLU A   1      -9.237  16.303  65.833  1.00  0.00    -0.233 C  
ATOM     14  OXT GLU A   1      -7.356  17.843  65.550  1.00  0.00    -0.522 OA 
ATOM     15  C   GLU A   1      -7.925  17.003  66.233  1.00  0.00    -0.308 C  
ATOM     16  O   GLU A   1      -7.543  16.727  67.506  1.00  0.00    -0.150 OA 
BRANCH  13  17
ATOM     17  CB  GLU A   1     -10.420  17.267  66.012  1.00  0.00    -0.285 C  
BRANCH  17  18
ATOM     18  CG  GLU A   1     -10.413  17.982  67.366  1.00  0.00    -0.399 C  
ATOM     19  OE2 GLU A   1     -10.564  20.085  66.169  1.00  0.00    -0.437 OA 
ATOM     20  OE1 GLU A   1     -10.532  20.103  68.429  1.00  0.00    -0.373 OA 
ATOM     21  CD  GLU A   1     -10.507  19.481  67.228  1.00  0.00    -0.470 C  
ENDBRANCH  17  18
ENDBRANCH  13  17
ENDBRANCH  11  13
ENDBRANCH   4   9
ENDBRANCH   2   3
BRANCH   2  22
HETATM   22  C   UNK A   0     -10.821   8.884  70.367  1.00  0.00    -0.236 C  
BRANCH  22  23
HETATM   23  C   UNK A   0      -9.922   8.340  69.274  1.00  0.00    -0.192 A  
HETATM   24  N   UNK A   0     -11.411   5.758  66.294  1.00  0.00    -0.647 NA 
HETATM   25  C   UNK A   0      -8.301   7.383  67.269  1.00  0.00    -0.119 A  
HETATM   26  C   UNK A   0      -8.603   8.730  69.127  1.00  0.00    -0.128 A  
HETATM   27  N   UNK A   0      -7.483   6.891  66.342  1.00  0.00    -0.073 NA 
HETATM   28  C   UNK A   0     -10.059   6.121  66.398  1.00  0.00    -0.060 A  
HETATM   29  C   UNK A   0      -9.646   7.017  67.380  1.00  0.00    -0.135 A  
HETATM   30  N   UNK A   0      -7.794   8.263  68.140  1.00  0.00    -0.116 NA 
HETATM   31  C   UNK A   0      -7.978   6.000  65.493  1.00  0.00    -0.115 A  
HETATM   32  H1  UNK A   0     -12.025   6.143  67.012  1.00  0.00     0.000 HD 
HETATM   33  H1  UNK A   0      -7.499   4.764  63.915  1.00  0.00     0.000 HD 
HETATM   34  N   UNK A   0      -7.118   5.449  64.568  1.00  0.00    -0.049 NA 
HETATM   35  N   UNK A   0      -9.252   5.614  65.455  1.00  0.00    -0.334 NA 
HETATM   36  N   UNK A   0     -10.464   7.483  68.378  1.00  0.00    -0.249 NA 
HETATM   37  H2  UNK A   0     -11.499   4.742  66.267  1.00  0.00     0.000 HD 
HETATM   38  H2  UNK A   0      -6.135   5.718  64.537  1.00  0.00     0.000 HD 
ENDBRANCH  22  23
ENDBRANCH   2  22
TORSDOF 7
ENDMDL
MODEL      187
REMARK 921   NORMALIZED FREE ENERGY PREDICTED BY IDOCK:   -4.78 KCAL/MOL
REMARK 922        TOTAL FREE ENERGY PREDICTED BY IDOCK:   -8.48 KCAL/MOL
REMARK 923 INTER-LIGAND FREE ENERGY PREDICTED BY IDOCK:   -8.79 KCAL/MOL
REMARK 924 INTRA-LIGAND FREE ENERGY PREDICTED BY IDOCK:    0.30 KCAL/MOL
REMARK 927      BINDING AFFINITY PREDICTED BY RF-SCORE:    0.00 PKD
ROOT
HETATM    1  C   UNK A   0      -8.936  12.663  67.590  1.00  0.00    -0.186 C  
HETATM    2  N   UNK A   0     -10.043  12.429  68.513  1.00  0.00    -0.302 NA 
ENDROOT
BRANCH   2   3
HETATM    3  C   UNK A   0     -10.080  11.251  69.250  1.00  0.00     0.009 A  
HETATM    4  C   UNK A   0     -10.085   9.063  71.050  1.00  0.00    -0.352 A  
HETATM    5  C   UNK A   0      -8.973  10.392  69.367  1.00  0.00    -0.168 A  
HETATM    6  C   UNK A   0     -11.230  10.904  69.977  1.00  0.00    -0.340 A  
HETATM    7  C   UNK A   0     -11.234   9.836  70.879  1.00  0.00    -0.429 A  
HETATM    8  C   UNK A   0      -8.974   9.299  70.245  1.00  0.00    -0.261 A  
BRANCH   4   9
HETATM    9  C   UNK A   0     -10.029   8.011  72.093  1.00  0.00    -0.225 C  
HETATM   10  O   UNK A   0     -10.024   8.300  73.280  1.00  0.00    -0.201 OA 
ATOM     11  N   GLU A   1     -10.033   6.704  71.621  1.00  0.00    -0.174 N  
ATOM     12  H   GLU A   1      -9.967   6.517  70.620  1.00  0.00     0.000 HD 
BRANCH  11  13
ATOM     13  CA  GLU A   1     -10.136   5.589  72.581  1.00  0.00    -0.181 C  
ATOM     14  OXT GLU A   1     -12.014   4.186  73.285  1.00  0.00    -0.035 OA 
ATOM     15  C   GLU A   1     -11.620   5.228  72.782  1.00  0.00    -0.197 C  
ATOM     16  O   GLU A   1     -12.457   6.259  72.505  1.00  0.00    -0.067 OA 
BRANCH  13  17
ATOM     17  CB  GLU A   1      -9.507   5.986  73.926  1.00  0.00    -0.146 C  
BRANCH  17  18
ATOM     18  CG  GLU A   1      -8.200   5.243  74.220  1.00  0.00    -0.108 C  
ATOM     19  OE2 GLU A   1      -7.035   6.951  72.953  1.00  0.00    -0.073 OA 
ATOM     20  OE1 GLU A   1      -5.845   5.285  73.910  1.00  0.00    -0.036 OA 
ATOM     21  CD  GLU A   1      -6.999   5.929  73.619  1.00  0.00    -0.081 C  
ENDBRANCH  17  18
ENDBRANCH  13  17
ENDBRANCH  11  13
ENDBRANCH   4   9
ENDBRANCH   2   3
BRANCH   2  22
HETATM   22  C   UNK A   0     -11.274  13.217  68.321  1.00  0.00    -0.274 C  
BRANCH  22  23
HETATM   23  C   UNK A   0     -11.043  14.709  68.184  1.00  0.00    -0.274 A  
HETATM   24  N   UNK A   0     -11.074  16.594  64.414  1.00  0.00    -1.251 NA 
HETATM   25  C   UNK A   0     -10.664  17.422  67.936  1.00  0.00    -0.351 A  
HETATM   26  C   UNK A   0     -10.914  15.550  69.274  1.00  0.00    -0.268 A  
HETATM   27  N   UNK A   0     -10.424  18.727  67.840  1.00  0.00    -0.400 NA 
HETATM   28  C   UNK A   0     -10.786  17.265  65.613  1.00  0.00    -0.120 A  
HETATM   29  C   UNK A   0     -10.841  16.589  66.827  1.00  0.00    -0.070 A  
HETATM   30  N   UNK A   0     -10.726  16.891  69.163  1.00  0.00    -0.325 NA 
HETATM   31  C   UNK A   0     -10.339  19.250  66.624  1.00  0.00    -0.438 A  
HETATM   32  H1  UNK A   0     -11.256  15.594  64.505  1.00  0.00     0.000 HD 
HETATM   33  H1  UNK A   0      -9.970  20.993  65.587  1.00  0.00     0.000 HD 
HETATM   34  N   UNK A   0     -10.035  20.590  66.522  1.00  0.00    -0.584 NA 
HETATM   35  N   UNK A   0     -10.546  18.579  65.493  1.00  0.00    -0.560 NA 
HETATM   36  N   UNK A   0     -11.026  15.234  66.936  1.00  0.00    -0.322 NA 
HETATM   37  H2  UNK A   0     -10.329  16.753  63.736  1.00  0.00     0.000 HD 
HETATM   38  H2  UNK A   0      -9.882  21.161  67.354  1.00  0.00     0.000 HD 
ENDBRANCH  22  23
ENDBRANCH   2  22
TORSDOF 7
ENDMDL
MODEL      188
REMARK 921   NORMALIZED FREE ENERGY PREDICTED BY IDOCK:   -4.77 KCAL/MOL
REMARK 922        TOTAL FREE ENERGY PREDICTED BY IDOCK:   -8.48 KCAL/MOL
REMARK 923 INTER-LIGAND FREE ENERGY PREDICTED BY IDOCK:   -7.06 KCAL/MOL
REMARK 924 INTRA-LIGAND FREE ENERGY PREDICTED BY IDOCK:   -1.41 KCAL/MOL
REMARK 927      BINDING AFFINITY PREDICTED BY RF-SCORE:    0.00 PKD
ROOT
HETATM    1  C   UNK A   0     -10.226  16.356  66.073  1.00  0.00    -0.356 C  
HETATM    2  N   UNK A   0      -9.286  15.948  67.113  1.00  0.00    -0.205 NA 
ENDROOT
BRANCH   2   3
HETATM    3  C   UNK A   0      -8.655  14.713  67.017  1.00  0.00    -0.224 A  
HETATM    4  C   UNK A   0      -7.521  12.121  67.156  1.00  0.00    -0.129 A  
HETATM    5  C   UNK A   0      -7.310  14.517  67.375  1.00  0.00    -0.183 A  
HETATM    6  C   UNK A   0      -9.375  13.577  66.617  1.00  0.00    -0.254 A  
HETATM    7  C   UNK A   0      -8.827  12.294  66.699  1.00  0.00    -0.167 A  
HETATM    8  C   UNK A   0      -6.738  13.239  67.432  1.00  0.00    -0.086 A  
BRANCH   4   9
HETATM    9  C   UNK A   0      -6.968  10.762  67.373  1.00  0.00    -0.083 C  
HETATM   10  O   UNK A   0      -5.943  10.594  68.017  1.00  0.00    -0.046 OA 
ATOM     11  N   GLU A   1      -7.718   9.722  66.838  1.00  0.00    -0.098 N  
ATOM     12  H   GLU A   1      -8.527   9.919  66.249  1.00  0.00     0.000 HD 
BRANCH  11  13
ATOM     13  CA  GLU A   1      -7.334   8.328  67.133  1.00  0.00    -0.088 C  
ATOM     14  OXT GLU A   1      -6.820   6.419  65.690  1.00  0.00    -0.050 OA 
ATOM     15  C   GLU A   1      -7.353   7.511  65.827  1.00  0.00    -0.070 C  
ATOM     16  O   GLU A   1      -8.171   8.040  64.883  1.00  0.00    -0.147 OA 
BRANCH  13  17
ATOM     17  CB  GLU A   1      -8.306   7.712  68.150  1.00  0.00    -0.124 C  
BRANCH  17  18
ATOM     18  CG  GLU A   1      -7.859   7.907  69.602  1.00  0.00    -0.105 C  
ATOM     19  OE2 GLU A   1      -9.306   9.849  69.706  1.00  0.00    -0.207 OA 
ATOM     20  OE1 GLU A   1      -8.141   9.243  71.545  1.00  0.00    -0.330 OA 
ATOM     21  CD  GLU A   1      -8.517   9.096  70.254  1.00  0.00    -0.191 C  
ENDBRANCH  17  18
ENDBRANCH  13  17
ENDBRANCH  11  13
ENDBRANCH   4   9
ENDBRANCH   2   3
BRANCH   2  22
HETATM   22  C   UNK A   0      -9.360  16.637  68.414  1.00  0.00    -0.224 C  
BRANCH  22  23
HETATM   23  C   UNK A   0     -10.385  16.056  69.368  1.00  0.00    -0.272 A  
HETATM   24  N   UNK A   0     -11.097  11.906  69.561  1.00  0.00    -0.447 NA 
HETATM   25  C   UNK A   0     -12.217  14.998  71.126  1.00  0.00    -0.320 A  
HETATM   26  C   UNK A   0     -11.067  16.826  70.294  1.00  0.00     0.137 A  
HETATM   27  N   UNK A   0     -13.147  14.517  71.947  1.00  0.00    -0.330 NA 
HETATM   28  C   UNK A   0     -11.821  12.851  70.305  1.00  0.00    -0.213 A  
HETATM   29  C   UNK A   0     -11.500  14.203  70.228  1.00  0.00    -0.130 A  
HETATM   30  N   UNK A   0     -11.973  16.313  71.166  1.00  0.00    -0.607 NA 
HETATM   31  C   UNK A   0     -13.406  13.218  71.892  1.00  0.00    -0.451 A  
HETATM   32  H1  UNK A   0     -10.388  12.291  68.937  1.00  0.00     0.000 HD 
HETATM   33  H1  UNK A   0     -14.607  11.729  72.659  1.00  0.00     0.000 HD 
HETATM   34  N   UNK A   0     -14.408  12.728  72.702  1.00  0.00    -0.457 NA 
HETATM   35  N   UNK A   0     -12.754  12.346  71.125  1.00  0.00    -0.313 NA 
HETATM   36  N   UNK A   0     -10.588  14.719  69.342  1.00  0.00    -0.293 NA 
HETATM   37  H2  UNK A   0     -11.737  11.309  69.037  1.00  0.00     0.000 HD 
HETATM   38  H2  UNK A   0     -14.932  13.345  73.323  1.00  0.00     0.000 HD 
ENDBRANCH  22  23
ENDBRANCH   2  22
TORSDOF 7
ENDMDL
MODEL      189
REMARK 921   NORMALIZED FREE ENERGY PREDICTED BY IDOCK:   -4.76 KCAL/MOL
REMARK 922        TOTAL FREE ENERGY PREDICTED BY IDOCK:   -8.46 KCAL/MOL
REMARK 923 INTER-LIGAND FREE ENERGY PREDICTED BY IDOCK:   -7.44 KCAL/MOL
REMARK 924 INTRA-LIGAND FREE ENERGY PREDICTED BY IDOCK:   -1.02 KCAL/MOL
REMARK 927      BINDING AFFINITY PREDICTED BY RF-SCORE:    0.00 PKD
ROOT
HETATM    1  C   UNK A   0      -5.255   9.728  67.662  1.00  0.00    -0.036 C  
HETATM    2  N   UNK A   0      -6.467  10.540  67.608  1.00  0.00    -0.057 NA 
ENDROOT
BRANCH   2   3
HETATM    3  C   UNK A   0      -6.412  11.876  67.987  1.00  0.00    -0.055 A  
HETATM    4  C   UNK A   0      -6.619  14.640  68.571  1.00  0.00    -0.095 A  
HETATM    5  C   UNK A   0      -5.655  12.834  67.290  1.00  0.00     0.010 A  
HETATM    6  C   UNK A   0      -7.183  12.341  69.065  1.00  0.00    -0.023 A  
HETATM    7  C   UNK A   0      -7.302  13.704  69.347  1.00  0.00     0.220 A  
HETATM    8  C   UNK A   0      -5.742  14.202  67.582  1.00  0.00     0.012 A  
BRANCH   4   9
HETATM    9  C   UNK A   0      -6.834  16.093  68.773  1.00  0.00    -0.144 C  
HETATM   10  O   UNK A   0      -5.911  16.830  69.087  1.00  0.00    -0.148 OA 
ATOM     11  N   GLU A   1      -8.127  16.543  68.532  1.00  0.00    -0.206 N  
ATOM     12  H   GLU A   1      -8.876  15.878  68.341  1.00  0.00     0.000 HD 
BRANCH  11  13
ATOM     13  CA  GLU A   1      -8.404  17.992  68.555  1.00  0.00    -0.304 C  
ATOM     14  OXT GLU A   1     -10.307  19.294  69.376  1.00  0.00    -0.112 OA 
ATOM     15  C   GLU A   1      -9.863  18.221  68.992  1.00  0.00    -0.250 C  
ATOM     16  O   GLU A   1     -10.664  17.154  68.745  1.00  0.00    -0.337 OA 
BRANCH  13  17
ATOM     17  CB  GLU A   1      -8.173  18.600  67.163  1.00  0.00    -0.258 C  
BRANCH  17  18
ATOM     18  CG  GLU A   1      -9.472  18.837  66.388  1.00  0.00    -0.336 C  
ATOM     19  OE2 GLU A   1      -9.302  16.566  65.558  1.00  0.00    -0.453 OA 
ATOM     20  OE1 GLU A   1     -11.071  17.833  64.948  1.00  0.00    -0.821 OA 
ATOM     21  CD  GLU A   1      -9.907  17.625  65.605  1.00  0.00     0.222 C  
ENDBRANCH  17  18
ENDBRANCH  13  17
ENDBRANCH  11  13
ENDBRANCH   4   9
ENDBRANCH   2   3
BRANCH   2  22
HETATM   22  C   UNK A   0      -7.762   9.837  67.575  1.00  0.00    -0.095 C  
BRANCH  22  23
HETATM   23  C   UNK A   0      -8.861  10.590  66.850  1.00  0.00    -0.137 A  
HETATM   24  N   UNK A   0      -8.611  11.392  62.719  1.00  0.00    -0.540 NA 
HETATM   25  C   UNK A   0     -10.871  11.921  65.525  1.00  0.00    -0.295 A  
HETATM   26  C   UNK A   0     -10.042  10.965  67.464  1.00  0.00    -0.184 A  
HETATM   27  N   UNK A   0     -11.832  12.614  64.920  1.00  0.00    -0.365 NA 
HETATM   28  C   UNK A   0      -9.658  11.850  63.535  1.00  0.00    -0.173 A  
HETATM   29  C   UNK A   0      -9.701  11.506  64.882  1.00  0.00    -0.234 A  
HETATM   30  N   UNK A   0     -11.041  11.623  66.819  1.00  0.00    -0.298 NA 
HETATM   31  C   UNK A   0     -11.653  12.932  63.645  1.00  0.00    -0.485 A  
HETATM   32  H1  UNK A   0      -7.883  10.862  63.198  1.00  0.00     0.000 HD 
HETATM   33  H1  UNK A   0     -12.484  13.941  62.052  1.00  0.00     0.000 HD 
HETATM   34  N   UNK A   0     -12.622  13.697  63.033  1.00  0.00    -0.884 NA 
HETATM   35  N   UNK A   0     -10.615  12.546  62.905  1.00  0.00    -0.361 NA 
HETATM   36  N   UNK A   0      -8.689  10.846  65.532  1.00  0.00    -0.222 NA 
HETATM   37  H2  UNK A   0      -8.197  12.172  62.210  1.00  0.00     0.000 HD 
HETATM   38  H2  UNK A   0     -13.448  14.008  63.543  1.00  0.00     0.000 HD 
ENDBRANCH  22  23
ENDBRANCH   2  22
TORSDOF 7
ENDMDL
MODEL      190
REMARK 921   NORMALIZED FREE ENERGY PREDICTED BY IDOCK:   -4.73 KCAL/MOL
REMARK 922        TOTAL FREE ENERGY PREDICTED BY IDOCK:   -8.41 KCAL/MOL
REMARK 923 INTER-LIGAND FREE ENERGY PREDICTED BY IDOCK:   -7.43 KCAL/MOL
REMARK 924 INTRA-LIGAND FREE ENERGY PREDICTED BY IDOCK:   -0.98 KCAL/MOL
REMARK 927      BINDING AFFINITY PREDICTED BY RF-SCORE:    0.00 PKD
ROOT
HETATM    1  C   UNK A   0      -5.750   9.076  62.654  1.00  0.00    -0.089 C  
HETATM    2  N   UNK A   0      -7.145   8.880  63.036  1.00  0.00    -0.090 NA 
ENDROOT
BRANCH   2   3
HETATM    3  C   UNK A   0      -7.675   9.619  64.087  1.00  0.00    -0.129 A  
HETATM    4  C   UNK A   0      -8.740  10.809  66.427  1.00  0.00    -0.163 A  
HETATM    5  C   UNK A   0      -9.054   9.856  64.231  1.00  0.00    -0.297 A  
HETATM    6  C   UNK A   0      -6.841  10.109  65.104  1.00  0.00    -0.134 A  
HETATM    7  C   UNK A   0      -7.360  10.682  66.268  1.00  0.00    -0.137 A  
HETATM    8  C   UNK A   0      -9.586  10.457  65.380  1.00  0.00    -0.303 A  
BRANCH   4   9
HETATM    9  C   UNK A   0      -9.313  11.294  67.706  1.00  0.00    -0.163 C  
HETATM   10  O   UNK A   0      -8.779  11.036  68.774  1.00  0.00    -0.157 OA 
ATOM     11  N   GLU A   1     -10.450  12.085  67.587  1.00  0.00    -0.202 N  
ATOM     12  H   GLU A   1     -10.897  12.212  66.680  1.00  0.00     0.000 HD 
BRANCH  11  13
ATOM     13  CA  GLU A   1     -11.002  12.741  68.788  1.00  0.00    -0.250 C  
ATOM     14  OXT GLU A   1     -12.372  11.909  70.639  1.00  0.00    -0.356 OA 
ATOM     15  C   GLU A   1     -11.977  11.775  69.489  1.00  0.00    -0.300 C  
ATOM     16  O   GLU A   1     -12.498  10.846  68.649  1.00  0.00    -0.418 OA 
BRANCH  13  17
ATOM     17  CB  GLU A   1     -11.736  14.033  68.398  1.00  0.00    -0.389 C  
BRANCH  17  18
ATOM     18  CG  GLU A   1     -11.473  15.189  69.368  1.00  0.00    -0.322 C  
ATOM     19  OE2 GLU A   1     -10.636  16.473  67.490  1.00  0.00    -0.316 OA 
ATOM     20  OE1 GLU A   1     -10.694  17.426  69.538  1.00  0.00    -0.147 OA 
ATOM     21  CD  GLU A   1     -10.895  16.399  68.680  1.00  0.00    -0.331 C  
ENDBRANCH  17  18
ENDBRANCH  13  17
ENDBRANCH  11  13
ENDBRANCH   4   9
ENDBRANCH   2   3
BRANCH   2  22
HETATM   22  C   UNK A   0      -7.806   7.635  62.606  1.00  0.00    -0.131 C  
BRANCH  22  23
HETATM   23  C   UNK A   0      -7.724   6.505  63.614  1.00  0.00    -0.114 A  
HETATM   24  N   UNK A   0     -11.191   4.556  65.009  1.00  0.00    -1.039 NA 
HETATM   25  C   UNK A   0      -7.574   4.430  65.413  1.00  0.00    -0.085 A  
HETATM   26  C   UNK A   0      -6.522   5.982  64.054  1.00  0.00    -0.030 A  
HETATM   27  N   UNK A   0      -7.476   3.466  66.324  1.00  0.00    -0.076 NA 
HETATM   28  C   UNK A   0      -9.899   4.270  65.480  1.00  0.00    -0.215 A  
HETATM   29  C   UNK A   0      -8.794   4.920  64.939  1.00  0.00    -0.152 A  
HETATM   30  N   UNK A   0      -6.437   4.958  64.943  1.00  0.00    -0.035 NA 
HETATM   31  C   UNK A   0      -8.602   2.960  66.809  1.00  0.00    -0.108 A  
HETATM   32  H1  UNK A   0     -11.248   5.297  64.311  1.00  0.00     0.000 HD 
HETATM   33  H1  UNK A   0      -9.370   1.611  68.165  1.00  0.00     0.000 HD 
HETATM   34  N   UNK A   0      -8.503   2.000  67.793  1.00  0.00    -0.068 NA 
HETATM   35  N   UNK A   0      -9.824   3.296  66.398  1.00  0.00    -0.395 NA 
HETATM   36  N   UNK A   0      -8.884   5.958  64.046  1.00  0.00    -0.295 NA 
HETATM   37  H2  UNK A   0     -11.810   4.764  65.792  1.00  0.00     0.000 HD 
HETATM   38  H2  UNK A   0      -7.594   1.690  68.136  1.00  0.00     0.000 HD 
ENDBRANCH  22  23
ENDBRANCH   2  22
TORSDOF 7
ENDMDL
MODEL      191
REMARK 921   NORMALIZED FREE ENERGY PREDICTED BY IDOCK:   -4.72 KCAL/MOL
REMARK 922        TOTAL FREE ENERGY PREDICTED BY IDOCK:   -8.40 KCAL/MOL
REMARK 923 INTER-LIGAND FREE ENERGY PREDICTED BY IDOCK:   -7.52 KCAL/MOL
REMARK 924 INTRA-LIGAND FREE ENERGY PREDICTED BY IDOCK:   -0.88 KCAL/MOL
REMARK 927      BINDING AFFINITY PREDICTED BY RF-SCORE:    0.00 PKD
ROOT
HETATM    1  C   UNK A   0      -6.655   6.927  71.567  1.00  0.00    -0.049 C  
HETATM    2  N   UNK A   0      -7.849   6.845  70.731  1.00  0.00    -0.096 NA 
ENDROOT
BRANCH   2   3
HETATM    3  C   UNK A   0      -8.392   8.010  70.201  1.00  0.00    -0.126 A  
HETATM    4  C   UNK A   0      -9.180  10.551  69.227  1.00  0.00    -0.164 A  
HETATM    5  C   UNK A   0      -9.278   8.831  70.920  1.00  0.00    -0.261 A  
HETATM    6  C   UNK A   0      -8.011   8.455  68.925  1.00  0.00    -0.115 A  
HETATM    7  C   UNK A   0      -8.383   9.714  68.446  1.00  0.00    -0.117 A  
HETATM    8  C   UNK A   0      -9.684  10.083  70.438  1.00  0.00    -0.023 A  
BRANCH   4   9
HETATM    9  C   UNK A   0      -9.477  11.937  68.792  1.00  0.00     0.009 C  
HETATM   10  O   UNK A   0      -8.632  12.615  68.227  1.00  0.00    -0.178 OA 
ATOM     11  N   GLU A   1     -10.776  12.371  69.030  1.00  0.00    -0.394 N  
ATOM     12  H   GLU A   1     -11.422  11.793  69.568  1.00  0.00     0.000 HD 
BRANCH  11  13
ATOM     13  CA  GLU A   1     -11.212  13.675  68.495  1.00  0.00    -0.280 C  
ATOM     14  OXT GLU A   1     -12.584  15.468  69.439  1.00  0.00    -0.104 OA 
ATOM     15  C   GLU A   1     -12.250  14.292  69.451  1.00  0.00    -0.278 C  
ATOM     16  O   GLU A   1     -12.895  13.365  70.203  1.00  0.00    -0.035 OA 
BRANCH  13  17
ATOM     17  CB  GLU A   1     -11.826  13.499  67.098  1.00  0.00    -0.430 C  
BRANCH  17  18
ATOM     18  CG  GLU A   1     -11.587  14.703  66.182  1.00  0.00    -0.332 C  
ATOM     19  OE2 GLU A   1     -12.866  13.556  64.471  1.00  0.00    -0.645 OA 
ATOM     20  OE1 GLU A   1     -12.045  15.616  64.038  1.00  0.00    -0.587 OA 
ATOM     21  CD  GLU A   1     -12.234  14.536  64.830  1.00  0.00    -0.431 C  
ENDBRANCH  17  18
ENDBRANCH  13  17
ENDBRANCH  11  13
ENDBRANCH   4   9
ENDBRANCH   2   3
BRANCH   2  22
HETATM   22  C   UNK A   0      -8.673   5.628  70.828  1.00  0.00    -0.132 C  
BRANCH  22  23
HETATM   23  C   UNK A   0      -8.855   4.892  69.515  1.00  0.00    -0.090 A  
HETATM   24  N   UNK A   0     -11.501   6.311  66.556  1.00  0.00    -0.558 NA 
HETATM   25  C   UNK A   0      -9.158   3.579  67.116  1.00  0.00    -0.169 A  
HETATM   26  C   UNK A   0      -8.102   3.785  69.167  1.00  0.00    -0.057 A  
HETATM   27  N   UNK A   0      -9.326   2.896  65.988  1.00  0.00    -0.336 NA 
HETATM   28  C   UNK A   0     -10.785   5.108  66.442  1.00  0.00    -0.210 A  
HETATM   29  C   UNK A   0      -9.892   4.726  67.438  1.00  0.00    -0.175 A  
HETATM   30  N   UNK A   0      -8.244   3.129  67.985  1.00  0.00    -0.077 NA 
HETATM   31  C   UNK A   0     -10.249   3.327  65.137  1.00  0.00     0.285 A  
HETATM   32  H1  UNK A   0     -11.361   6.823  67.427  1.00  0.00     0.000 HD 
HETATM   33  H1  UNK A   0     -11.171   2.920  63.340  1.00  0.00     0.000 HD 
HETATM   34  N   UNK A   0     -10.462   2.589  63.994  1.00  0.00    -0.388 NA 
HETATM   35  N   UNK A   0     -10.969   4.435  65.298  1.00  0.00    -0.846 NA 
HETATM   36  N   UNK A   0      -9.754   5.386  68.633  1.00  0.00    -0.130 NA 
HETATM   37  H2  UNK A   0     -12.495   6.141  66.407  1.00  0.00     0.000 HD 
HETATM   38  H2  UNK A   0      -9.928   1.739  63.808  1.00  0.00     0.000 HD 
ENDBRANCH  22  23
ENDBRANCH   2  22
TORSDOF 7
ENDMDL
MODEL      192
REMARK 921   NORMALIZED FREE ENERGY PREDICTED BY IDOCK:   -4.72 KCAL/MOL
REMARK 922        TOTAL FREE ENERGY PREDICTED BY IDOCK:   -8.40 KCAL/MOL
REMARK 923 INTER-LIGAND FREE ENERGY PREDICTED BY IDOCK:   -7.20 KCAL/MOL
REMARK 924 INTRA-LIGAND FREE ENERGY PREDICTED BY IDOCK:   -1.20 KCAL/MOL
REMARK 927      BINDING AFFINITY PREDICTED BY RF-SCORE:    0.00 PKD
ROOT
HETATM    1  C   UNK A   0      -6.480  14.261  70.454  1.00  0.00    -0.073 C  
HETATM    2  N   UNK A   0      -6.701  13.329  69.352  1.00  0.00    -0.255 NA 
ENDROOT
BRANCH   2   3
HETATM    3  C   UNK A   0      -6.851  11.974  69.623  1.00  0.00     0.085 A  
HETATM    4  C   UNK A   0      -7.426   9.316  70.417  1.00  0.00    -0.124 A  
HETATM    5  C   UNK A   0      -6.036  11.287  70.539  1.00  0.00    -0.112 A  
HETATM    6  C   UNK A   0      -7.893  11.242  69.030  1.00  0.00    -0.079 A  
HETATM    7  C   UNK A   0      -8.192   9.937  69.429  1.00  0.00    -0.147 A  
HETATM    8  C   UNK A   0      -6.306   9.967  70.926  1.00  0.00    -0.056 A  
BRANCH   4   9
HETATM    9  C   UNK A   0      -7.807   7.983  70.944  1.00  0.00    -0.089 C  
HETATM   10  O   UNK A   0      -7.721   7.729  72.136  1.00  0.00    -0.083 OA 
ATOM     11  N   GLU A   1      -8.303   7.090  70.002  1.00  0.00    -0.137 N  
ATOM     12  H   GLU A   1      -8.288   7.326  69.010  1.00  0.00     0.000 HD 
BRANCH  11  13
ATOM     13  CA  GLU A   1      -8.852   5.796  70.452  1.00  0.00    -0.142 C  
ATOM     14  OXT GLU A   1      -7.883   3.552  70.589  1.00  0.00    -0.046 OA 
ATOM     15  C   GLU A   1      -7.854   4.675  70.106  1.00  0.00    -0.060 C  
ATOM     16  O   GLU A   1      -7.033   4.996  69.074  1.00  0.00    -0.050 OA 
BRANCH  13  17
ATOM     17  CB  GLU A   1     -10.201   5.525  69.769  1.00  0.00    -0.336 C  
BRANCH  17  18
ATOM     18  CG  GLU A   1     -10.657   6.672  68.862  1.00  0.00    -0.264 C  
ATOM     19  OE2 GLU A   1     -10.169   5.255  66.956  1.00  0.00    -0.191 OA 
ATOM     20  OE1 GLU A   1     -11.004   7.325  66.606  1.00  0.00    -0.158 OA 
ATOM     21  CD  GLU A   1     -10.571   6.319  67.399  1.00  0.00    -0.291 C  
ENDBRANCH  17  18
ENDBRANCH  13  17
ENDBRANCH  11  13
ENDBRANCH   4   9
ENDBRANCH   2   3
BRANCH   2  22
HETATM   22  C   UNK A   0      -6.330  13.771  67.996  1.00  0.00    -0.141 C  
BRANCH  22  23
HETATM   23  C   UNK A   0      -7.450  14.453  67.235  1.00  0.00    -0.074 A  
HETATM   24  N   UNK A   0     -10.761  12.280  65.792  1.00  0.00    -0.255 NA 
HETATM   25  C   UNK A   0      -9.501  15.696  65.887  1.00  0.00    -0.341 A  
HETATM   26  C   UNK A   0      -7.508  15.824  67.058  1.00  0.00    -0.207 A  
HETATM   27  N   UNK A   0     -10.453  16.312  65.192  1.00  0.00    -0.632 NA 
HETATM   28  C   UNK A   0     -10.571  13.651  65.553  1.00  0.00    -0.296 A  
HETATM   29  C   UNK A   0      -9.478  14.314  66.101  1.00  0.00    -0.222 A  
HETATM   30  N   UNK A   0      -8.516  16.447  66.394  1.00  0.00    -0.302 NA 
HETATM   31  C   UNK A   0     -11.417  15.566  64.669  1.00  0.00    -0.324 A  
HETATM   32  H1  UNK A   0     -10.022  11.822  66.327  1.00  0.00     0.000 HD 
HETATM   33  H1  UNK A   0     -13.113  15.622  63.501  1.00  0.00     0.000 HD 
HETATM   34  N   UNK A   0     -12.372  16.196  63.903  1.00  0.00    -1.001 NA 
HETATM   35  N   UNK A   0     -11.541  14.252  64.850  1.00  0.00    -0.365 NA 
HETATM   36  N   UNK A   0      -8.458  13.681  66.766  1.00  0.00    -0.438 NA 
HETATM   37  H2  UNK A   0     -10.910  11.789  64.911  1.00  0.00     0.000 HD 
HETATM   38  H2  UNK A   0     -12.339  17.203  63.743  1.00  0.00     0.000 HD 
ENDBRANCH  22  23
ENDBRANCH   2  22
TORSDOF 7
ENDMDL
MODEL      193
REMARK 921   NORMALIZED FREE ENERGY PREDICTED BY IDOCK:   -4.72 KCAL/MOL
REMARK 922        TOTAL FREE ENERGY PREDICTED BY IDOCK:   -8.40 KCAL/MOL
REMARK 923 INTER-LIGAND FREE ENERGY PREDICTED BY IDOCK:   -7.42 KCAL/MOL
REMARK 924 INTRA-LIGAND FREE ENERGY PREDICTED BY IDOCK:   -0.97 KCAL/MOL
REMARK 927      BINDING AFFINITY PREDICTED BY RF-SCORE:    0.00 PKD
ROOT
HETATM    1  C   UNK A   0      -8.429   6.573  71.153  1.00  0.00    -0.126 C  
HETATM    2  N   UNK A   0      -7.971   7.262  69.949  1.00  0.00    -0.119 NA 
ENDROOT
BRANCH   2   3
HETATM    3  C   UNK A   0      -8.706   8.332  69.453  1.00  0.00    -0.142 A  
HETATM    4  C   UNK A   0     -10.200  10.646  68.791  1.00  0.00    -0.204 A  
HETATM    5  C   UNK A   0     -10.103   8.287  69.298  1.00  0.00    -0.199 A  
HETATM    6  C   UNK A   0      -8.075   9.548  69.148  1.00  0.00    -0.103 A  
HETATM    7  C   UNK A   0      -8.807  10.697  68.837  1.00  0.00    -0.160 A  
HETATM    8  C   UNK A   0     -10.847   9.425  68.957  1.00  0.00    -0.161 A  
BRANCH   4   9
HETATM    9  C   UNK A   0     -10.997  11.881  68.591  1.00  0.00    -0.228 C  
HETATM   10  O   UNK A   0     -12.172  11.826  68.261  1.00  0.00    -0.486 OA 
ATOM     11  N   GLU A   1     -10.327  13.071  68.852  1.00  0.00    -0.431 N  
ATOM     12  H   GLU A   1      -9.328  13.066  69.055  1.00  0.00     0.000 HD 
BRANCH  11  13
ATOM     13  CA  GLU A   1     -11.077  14.341  68.831  1.00  0.00    -0.262 C  
ATOM     14  OXT GLU A   1     -10.915  16.329  67.412  1.00  0.00    -0.281 OA 
ATOM     15  C   GLU A   1     -10.391  15.319  67.858  1.00  0.00    -0.246 C  
ATOM     16  O   GLU A   1      -9.074  15.045  67.674  1.00  0.00    -0.177 OA 
BRANCH  13  17
ATOM     17  CB  GLU A   1     -11.126  14.952  70.240  1.00  0.00    -0.228 C  
BRANCH  17  18
ATOM     18  CG  GLU A   1     -12.108  14.236  71.172  1.00  0.00    -0.409 C  
ATOM     19  OE2 GLU A   1     -11.713  15.984  72.805  1.00  0.00    -0.456 OA 
ATOM     20  OE1 GLU A   1     -13.179  14.334  73.289  1.00  0.00    -0.614 OA 
ATOM     21  CD  GLU A   1     -12.287  14.956  72.485  1.00  0.00    -0.332 C  
ENDBRANCH  17  18
ENDBRANCH  13  17
ENDBRANCH  11  13
ENDBRANCH   4   9
ENDBRANCH   2   3
BRANCH   2  22
HETATM   22  C   UNK A   0      -7.020   6.554  69.074  1.00  0.00    -0.075 C  
BRANCH  22  23
HETATM   23  C   UNK A   0      -7.595   6.147  67.731  1.00  0.00    -0.097 A  
HETATM   24  N   UNK A   0      -9.792   2.579  67.276  1.00  0.00    -0.179 NA 
HETATM   25  C   UNK A   0      -8.670   5.427  65.303  1.00  0.00    -0.145 A  
HETATM   26  C   UNK A   0      -7.525   6.956  66.611  1.00  0.00    -0.082 A  
HETATM   27  N   UNK A   0      -9.132   5.076  64.107  1.00  0.00    -0.349 NA 
HETATM   28  C   UNK A   0      -9.476   3.435  66.209  1.00  0.00    -0.113 A  
HETATM   29  C   UNK A   0      -8.788   4.622  66.440  1.00  0.00    -0.112 A  
HETATM   30  N   UNK A   0      -8.052   6.610  65.408  1.00  0.00    -0.124 NA 
HETATM   31  C   UNK A   0      -9.723   3.893  63.997  1.00  0.00    -0.167 A  
HETATM   32  H1  UNK A   0      -9.430   2.863  68.186  1.00  0.00     0.000 HD 
HETATM   33  H1  UNK A   0     -10.608   2.595  62.663  1.00  0.00     0.000 HD 
HETATM   34  N   UNK A   0     -10.153   3.505  62.747  1.00  0.00    -0.136 NA 
HETATM   35  N   UNK A   0      -9.951   3.062  65.012  1.00  0.00    -0.376 NA 
HETATM   36  N   UNK A   0      -8.251   4.966  67.655  1.00  0.00    -0.105 NA 
HETATM   37  H2  UNK A   0      -9.492   1.628  67.061  1.00  0.00     0.000 HD 
HETATM   38  H2  UNK A   0     -10.022   4.107  61.933  1.00  0.00     0.000 HD 
ENDBRANCH  22  23
ENDBRANCH   2  22
TORSDOF 7
ENDMDL
MODEL      194
REMARK 921   NORMALIZED FREE ENERGY PREDICTED BY IDOCK:   -4.71 KCAL/MOL
REMARK 922        TOTAL FREE ENERGY PREDICTED BY IDOCK:   -8.39 KCAL/MOL
REMARK 923 INTER-LIGAND FREE ENERGY PREDICTED BY IDOCK:   -7.41 KCAL/MOL
REMARK 924 INTRA-LIGAND FREE ENERGY PREDICTED BY IDOCK:   -0.98 KCAL/MOL
REMARK 927      BINDING AFFINITY PREDICTED BY RF-SCORE:    0.00 PKD
ROOT
HETATM    1  C   UNK A   0      -8.404   7.737  66.399  1.00  0.00    -0.131 C  
HETATM    2  N   UNK A   0      -8.682   8.715  67.447  1.00  0.00    -0.133 NA 
ENDROOT
BRANCH   2   3
HETATM    3  C   UNK A   0      -9.204   9.956  67.102  1.00  0.00    -0.138 A  
HETATM    4  C   UNK A   0     -10.295  12.549  66.766  1.00  0.00    -0.241 A  
HETATM    5  C   UNK A   0     -10.561  10.149  66.787  1.00  0.00    -0.239 A  
HETATM    6  C   UNK A   0      -8.391  11.100  67.123  1.00  0.00    -0.136 A  
HETATM    7  C   UNK A   0      -8.926  12.383  66.975  1.00  0.00    -0.209 A  
HETATM    8  C   UNK A   0     -11.105  11.428  66.606  1.00  0.00    -0.333 A  
BRANCH   4   9
HETATM    9  C   UNK A   0     -10.898  13.903  66.736  1.00  0.00    -0.286 C  
HETATM   10  O   UNK A   0     -11.599  14.260  65.802  1.00  0.00    -0.333 OA 
ATOM     11  N   GLU A   1     -10.646  14.692  67.853  1.00  0.00    -0.242 N  
ATOM     12  H   GLU A   1      -9.997  14.374  68.572  1.00  0.00     0.000 HD 
BRANCH  11  13
ATOM     13  CA  GLU A   1     -11.328  15.994  67.986  1.00  0.00    -0.266 C  
ATOM     14  OXT GLU A   1     -10.570  18.296  67.646  1.00  0.00    -0.406 OA 
ATOM     15  C   GLU A   1     -10.290  17.125  67.860  1.00  0.00    -0.350 C  
ATOM     16  O   GLU A   1      -9.033  16.728  68.182  1.00  0.00    -0.212 OA 
BRANCH  13  17
ATOM     17  CB  GLU A   1     -12.038  16.085  69.346  1.00  0.00    -0.090 C  
BRANCH  17  18
ATOM     18  CG  GLU A   1     -12.070  14.751  70.097  1.00  0.00    -0.382 C  
ATOM     19  OE2 GLU A   1     -14.129  15.479  71.149  1.00  0.00    -0.537 OA 
ATOM     20  OE1 GLU A   1     -13.308  13.431  71.636  1.00  0.00    -0.374 OA 
ATOM     21  CD  GLU A   1     -13.271  14.624  70.999  1.00  0.00    -0.374 C  
ENDBRANCH  17  18
ENDBRANCH  13  17
ENDBRANCH  11  13
ENDBRANCH   4   9
ENDBRANCH   2   3
BRANCH   2  22
HETATM   22  C   UNK A   0      -8.014   8.534  68.748  1.00  0.00    -0.119 C  
BRANCH  22  23
HETATM   23  C   UNK A   0      -8.750   7.615  69.704  1.00  0.00    -0.136 A  
HETATM   24  N   UNK A   0      -6.954   6.268  73.271  1.00  0.00    -0.075 NA 
HETATM   25  C   UNK A   0     -10.098   5.979  71.456  1.00  0.00    -0.192 A  
HETATM   26  C   UNK A   0     -10.071   7.249  69.521  1.00  0.00    -0.182 A  
HETATM   27  N   UNK A   0     -10.752   5.145  72.260  1.00  0.00    -0.218 NA 
HETATM   28  C   UNK A   0      -8.226   5.857  72.842  1.00  0.00    -0.118 A  
HETATM   29  C   UNK A   0      -8.777   6.380  71.676  1.00  0.00    -0.133 A  
HETATM   30  N   UNK A   0     -10.746   6.441  70.380  1.00  0.00    -0.242 NA 
HETATM   31  C   UNK A   0     -10.103   4.667  73.313  1.00  0.00    -0.160 A  
HETATM   32  H1  UNK A   0      -6.466   6.908  72.644  1.00  0.00     0.000 HD 
HETATM   33  H1  UNK A   0     -10.261   3.392  74.925  1.00  0.00     0.000 HD 
HETATM   34  N   UNK A   0     -10.761   3.760  74.115  1.00  0.00    -0.206 NA 
HETATM   35  N   UNK A   0      -8.867   5.016  73.665  1.00  0.00    -0.109 NA 
HETATM   36  N   UNK A   0      -8.091   7.191  70.807  1.00  0.00    -0.107 NA 
HETATM   37  H2  UNK A   0      -6.370   5.455  73.464  1.00  0.00     0.000 HD 
HETATM   38  H2  UNK A   0     -11.715   3.466  73.905  1.00  0.00     0.000 HD 
ENDBRANCH  22  23
ENDBRANCH   2  22
TORSDOF 7
ENDMDL
MODEL      195
REMARK 921   NORMALIZED FREE ENERGY PREDICTED BY IDOCK:   -4.71 KCAL/MOL
REMARK 922        TOTAL FREE ENERGY PREDICTED BY IDOCK:   -8.38 KCAL/MOL
REMARK 923 INTER-LIGAND FREE ENERGY PREDICTED BY IDOCK:   -7.46 KCAL/MOL
REMARK 924 INTRA-LIGAND FREE ENERGY PREDICTED BY IDOCK:   -0.93 KCAL/MOL
REMARK 927      BINDING AFFINITY PREDICTED BY RF-SCORE:    0.00 PKD
ROOT
HETATM    1  C   UNK A   0      -6.149  12.532  70.210  1.00  0.00    -0.066 C  
HETATM    2  N   UNK A   0      -6.983  11.657  69.390  1.00  0.00    -0.266 NA 
ENDROOT
BRANCH   2   3
HETATM    3  C   UNK A   0      -7.536  10.514  69.955  1.00  0.00     0.061 A  
HETATM    4  C   UNK A   0      -8.822   8.415  71.357  1.00  0.00    -0.230 A  
HETATM    5  C   UNK A   0      -6.839   9.704  70.869  1.00  0.00    -0.054 A  
HETATM    6  C   UNK A   0      -8.867  10.159  69.682  1.00  0.00    -0.184 A  
HETATM    7  C   UNK A   0      -9.512   9.135  70.382  1.00  0.00    -0.269 A  
HETATM    8  C   UNK A   0      -7.465   8.655  71.556  1.00  0.00    -0.124 A  
BRANCH   4   9
HETATM    9  C   UNK A   0      -9.524   7.416  72.199  1.00  0.00    -0.139 C  
HETATM   10  O   UNK A   0     -10.591   7.680  72.734  1.00  0.00    -0.263 OA 
ATOM     11  N   GLU A   1      -8.910   6.173  72.284  1.00  0.00    -0.137 N  
ATOM     12  H   GLU A   1      -7.986   6.025  71.878  1.00  0.00     0.000 HD 
BRANCH  11  13
ATOM     13  CA  GLU A   1      -9.607   5.067  72.969  1.00  0.00    -0.142 C  
ATOM     14  OXT GLU A   1      -8.811   3.256  74.410  1.00  0.00    -0.085 OA 
ATOM     15  C   GLU A   1      -8.565   4.099  73.559  1.00  0.00    -0.092 C  
ATOM     16  O   GLU A   1      -7.370   4.151  72.918  1.00  0.00    -0.068 OA 
BRANCH  13  17
ATOM     17  CB  GLU A   1     -10.516   4.319  71.981  1.00  0.00    -0.096 C  
BRANCH  17  18
ATOM     18  CG  GLU A   1     -10.025   4.403  70.533  1.00  0.00    -0.256 C  
ATOM     19  OE2 GLU A   1      -9.458   2.050  70.671  1.00  0.00    -0.120 OA 
ATOM     20  OE1 GLU A   1      -9.107   3.156  68.732  1.00  0.00    -0.121 OA 
ATOM     21  CD  GLU A   1      -9.509   3.082  70.021  1.00  0.00    -0.125 C  
ENDBRANCH  17  18
ENDBRANCH  13  17
ENDBRANCH  11  13
ENDBRANCH   4   9
ENDBRANCH   2   3
BRANCH   2  22
HETATM   22  C   UNK A   0      -6.858  11.767  67.925  1.00  0.00    -0.077 C  
BRANCH  22  23
HETATM   23  C   UNK A   0      -7.724  12.847  67.306  1.00  0.00    -0.117 A  
HETATM   24  N   UNK A   0     -10.698  11.916  64.468  1.00  0.00    -0.294 NA 
HETATM   25  C   UNK A   0      -9.320  14.802  66.211  1.00  0.00    -0.278 A  
HETATM   26  C   UNK A   0      -7.665  14.172  67.701  1.00  0.00    -0.174 A  
HETATM   27  N   UNK A   0     -10.041  15.772  65.656  1.00  0.00    -0.355 NA 
HETATM   28  C   UNK A   0     -10.383  13.228  64.858  1.00  0.00    -0.351 A  
HETATM   29  C   UNK A   0      -9.422  13.458  65.837  1.00  0.00    -0.023 A  
HETATM   30  N   UNK A   0      -8.448  15.144  67.167  1.00  0.00    -0.197 NA 
HETATM   31  C   UNK A   0     -10.888  15.437  64.692  1.00  0.00    -0.258 A  
HETATM   32  H1  UNK A   0     -10.136  11.183  64.903  1.00  0.00     0.000 HD 
HETATM   33  H1  UNK A   0     -12.246  16.190  63.338  1.00  0.00     0.000 HD 
HETATM   34  N   UNK A   0     -11.595  16.448  64.079  1.00  0.00    -1.542 NA 
HETATM   35  N   UNK A   0     -11.121  14.190  64.287  1.00  0.00    -0.598 NA 
HETATM   36  N   UNK A   0      -8.628  12.475  66.371  1.00  0.00    -0.416 NA 
HETATM   37  H2  UNK A   0     -10.656  11.833  63.453  1.00  0.00     0.000 HD 
HETATM   38  H2  UNK A   0     -11.471  17.422  64.358  1.00  0.00     0.000 HD 
ENDBRANCH  22  23
ENDBRANCH   2  22
TORSDOF 7
ENDMDL
MODEL      196
REMARK 921   NORMALIZED FREE ENERGY PREDICTED BY IDOCK:   -4.70 KCAL/MOL
REMARK 922        TOTAL FREE ENERGY PREDICTED BY IDOCK:   -8.38 KCAL/MOL
REMARK 923 INTER-LIGAND FREE ENERGY PREDICTED BY IDOCK:   -8.88 KCAL/MOL
REMARK 924 INTRA-LIGAND FREE ENERGY PREDICTED BY IDOCK:    0.50 KCAL/MOL
REMARK 927      BINDING AFFINITY PREDICTED BY RF-SCORE:    0.00 PKD
ROOT
HETATM    1  C   UNK A   0      -8.817  10.423  63.143  1.00  0.00    -0.218 C  
HETATM    2  N   UNK A   0      -9.497  10.539  64.430  1.00  0.00    -0.254 NA 
ENDROOT
BRANCH   2   3
HETATM    3  C   UNK A   0      -9.398   9.503  65.351  1.00  0.00    -0.261 A  
HETATM    4  C   UNK A   0      -9.321   7.168  66.953  1.00  0.00    -0.189 A  
HETATM    5  C   UNK A   0     -10.406   9.221  66.290  1.00  0.00    -0.192 A  
HETATM    6  C   UNK A   0      -8.293   8.636  65.330  1.00  0.00    -0.177 A  
HETATM    7  C   UNK A   0      -8.257   7.474  66.106  1.00  0.00    -0.125 A  
HETATM    8  C   UNK A   0     -10.368   8.076  67.096  1.00  0.00    -0.395 A  
BRANCH   4   9
HETATM    9  C   UNK A   0      -9.360   5.879  67.685  1.00  0.00    -0.107 C  
HETATM   10  O   UNK A   0     -10.211   5.038  67.436  1.00  0.00    -0.183 OA 
ATOM     11  N   GLU A   1      -8.346   5.692  68.617  1.00  0.00    -0.106 N  
ATOM     12  H   GLU A   1      -7.703   6.453  68.838  1.00  0.00     0.000 HD 
BRANCH  11  13
ATOM     13  CA  GLU A   1      -8.208   4.383  69.283  1.00  0.00    -0.067 C  
ATOM     14  OXT GLU A   1      -7.005   2.341  68.672  1.00  0.00    -0.039 OA 
ATOM     15  C   GLU A   1      -7.510   3.399  68.325  1.00  0.00    -0.053 C  
ATOM     16  O   GLU A   1      -7.659   3.735  67.019  1.00  0.00    -0.078 OA 
BRANCH  13  17
ATOM     17  CB  GLU A   1      -9.590   3.839  69.677  1.00  0.00    -0.242 C  
BRANCH  17  18
ATOM     18  CG  GLU A   1      -9.943   4.103  71.143  1.00  0.00    -0.211 C  
ATOM     19  OE2 GLU A   1     -10.840   6.249  70.460  1.00  0.00    -0.247 OA 
ATOM     20  OE1 GLU A   1     -10.948   5.652  72.637  1.00  0.00    -0.237 OA 
ATOM     21  CD  GLU A   1     -10.611   5.440  71.344  1.00  0.00    -0.212 C  
ENDBRANCH  17  18
ENDBRANCH  13  17
ENDBRANCH  11  13
ENDBRANCH   4   9
ENDBRANCH   2   3
BRANCH   2  22
HETATM   22  C   UNK A   0     -10.591  11.520  64.541  1.00  0.00    -0.329 C  
BRANCH  22  23
HETATM   23  C   UNK A   0     -10.210  12.800  65.258  1.00  0.00    -0.279 A  
HETATM   24  N   UNK A   0     -11.495  16.563  63.861  1.00  0.00    -1.599 NA 
HETATM   25  C   UNK A   0      -9.551  15.121  66.581  1.00  0.00    -0.253 A  
HETATM   26  C   UNK A   0      -9.515  12.809  66.454  1.00  0.00    -0.229 A  
HETATM   27  N   UNK A   0      -9.172  16.231  67.208  1.00  0.00    -0.206 NA 
HETATM   28  C   UNK A   0     -10.639  16.397  64.961  1.00  0.00    -0.193 A  
HETATM   29  C   UNK A   0     -10.295  15.122  65.397  1.00  0.00    -0.388 A  
HETATM   30  N   UNK A   0      -9.184  13.949  67.115  1.00  0.00    -0.229 NA 
HETATM   31  C   UNK A   0      -9.514  17.392  66.667  1.00  0.00    -0.274 A  
HETATM   32  H1  UNK A   0     -11.776  15.702  63.391  1.00  0.00     0.000 HD 
HETATM   33  H1  UNK A   0      -9.339  19.436  66.869  1.00  0.00     0.000 HD 
HETATM   34  N   UNK A   0      -9.076  18.543  67.285  1.00  0.00    -0.274 NA 
HETATM   35  N   UNK A   0     -10.270  17.529  65.579  1.00  0.00    -0.612 NA 
HETATM   36  N   UNK A   0     -10.625  13.972  64.725  1.00  0.00    -0.419 NA 
HETATM   37  H2  UNK A   0     -11.080  17.208  63.189  1.00  0.00     0.000 HD 
HETATM   38  H2  UNK A   0      -8.508  18.502  68.132  1.00  0.00     0.000 HD 
ENDBRANCH  22  23
ENDBRANCH   2  22
TORSDOF 7
ENDMDL
MODEL      197
REMARK 921   NORMALIZED FREE ENERGY PREDICTED BY IDOCK:   -4.70 KCAL/MOL
REMARK 922        TOTAL FREE ENERGY PREDICTED BY IDOCK:   -8.37 KCAL/MOL
REMARK 923 INTER-LIGAND FREE ENERGY PREDICTED BY IDOCK:   -7.34 KCAL/MOL
REMARK 924 INTRA-LIGAND FREE ENERGY PREDICTED BY IDOCK:   -1.03 KCAL/MOL
REMARK 927      BINDING AFFINITY PREDICTED BY RF-SCORE:    0.00 PKD
ROOT
HETATM    1  C   UNK A   0      -6.379  10.611  65.840  1.00  0.00    -0.128 C  
HETATM    2  N   UNK A   0      -6.919  10.626  67.197  1.00  0.00    -0.084 NA 
ENDROOT
BRANCH   2   3
HETATM    3  C   UNK A   0      -7.595  11.752  67.650  1.00  0.00    -0.132 A  
HETATM    4  C   UNK A   0      -8.824  14.225  68.281  1.00  0.00    -0.185 A  
HETATM    5  C   UNK A   0      -7.084  12.593  68.655  1.00  0.00    -0.096 A  
HETATM    6  C   UNK A   0      -8.809  12.138  67.059  1.00  0.00    -0.203 A  
HETATM    7  C   UNK A   0      -9.411  13.365  67.353  1.00  0.00    -0.222 A  
HETATM    8  C   UNK A   0      -7.695  13.812  68.982  1.00  0.00     0.058 A  
BRANCH   4   9
HETATM    9  C   UNK A   0      -9.377  15.582  68.510  1.00  0.00    -0.197 C  
HETATM   10  O   UNK A   0      -9.969  15.855  69.543  1.00  0.00    -0.255 OA 
ATOM     11  N   GLU A   1      -9.129  16.505  67.501  1.00  0.00    -0.197 N  
ATOM     12  H   GLU A   1      -8.692  16.209  66.628  1.00  0.00     0.000 HD 
BRANCH  11  13
ATOM     13  CA  GLU A   1      -9.502  17.918  67.705  1.00  0.00    -0.263 C  
ATOM     14  OXT GLU A   1     -11.122  19.373  66.588  1.00  0.00    -0.314 OA 
ATOM     15  C   GLU A   1     -10.427  18.368  66.559  1.00  0.00    -0.381 C  
ATOM     16  O   GLU A   1     -10.268  17.631  65.430  1.00  0.00    -0.576 OA 
BRANCH  13  17
ATOM     17  CB  GLU A   1      -8.245  18.800  67.741  1.00  0.00    -0.285 C  
BRANCH  17  18
ATOM     18  CG  GLU A   1      -7.007  18.061  68.256  1.00  0.00    -0.228 C  
ATOM     19  OE2 GLU A   1      -6.631  19.909  69.779  1.00  0.00    -0.344 OA 
ATOM     20  OE1 GLU A   1      -5.219  18.145  69.818  1.00  0.00    -0.185 OA 
ATOM     21  CD  GLU A   1      -6.294  18.819  69.347  1.00  0.00    -0.272 C  
ENDBRANCH  17  18
ENDBRANCH  13  17
ENDBRANCH  11  13
ENDBRANCH   4   9
ENDBRANCH   2   3
BRANCH   2  22
HETATM   22  C   UNK A   0      -6.370   9.658  68.164  1.00  0.00    -0.056 C  
BRANCH  22  23
HETATM   23  C   UNK A   0      -7.409   9.026  69.070  1.00  0.00    -0.073 A  
HETATM   24  N   UNK A   0     -10.987   7.427  67.519  1.00  0.00    -0.537 NA 
HETATM   25  C   UNK A   0      -9.277   7.844  70.707  1.00  0.00    -0.157 A  
HETATM   26  C   UNK A   0      -7.208   8.843  70.426  1.00  0.00    -0.060 A  
HETATM   27  N   UNK A   0     -10.188   7.327  71.527  1.00  0.00    -0.194 NA 
HETATM   28  C   UNK A   0     -10.695   7.482  68.891  1.00  0.00    -0.115 A  
HETATM   29  C   UNK A   0      -9.472   7.981  69.329  1.00  0.00    -0.155 A  
HETATM   30  N   UNK A   0      -8.124   8.261  71.243  1.00  0.00    -0.109 NA 
HETATM   31  C   UNK A   0     -11.341   6.936  71.000  1.00  0.00    -0.299 A  
HETATM   32  H1  UNK A   0     -10.279   7.827  66.904  1.00  0.00     0.000 HD 
HETATM   33  H1  UNK A   0     -13.192   6.151  71.451  1.00  0.00     0.000 HD 
HETATM   34  N   UNK A   0     -12.305   6.451  71.856  1.00  0.00    -0.370 NA 
HETATM   35  N   UNK A   0     -11.626   6.957  69.700  1.00  0.00    -0.592 NA 
HETATM   36  N   UNK A   0      -8.551   8.573  68.502  1.00  0.00    -0.137 NA 
HETATM   37  H2  UNK A   0     -11.893   7.858  67.337  1.00  0.00     0.000 HD 
HETATM   38  H2  UNK A   0     -12.138   6.395  72.861  1.00  0.00     0.000 HD 
ENDBRANCH  22  23
ENDBRANCH   2  22
TORSDOF 7
ENDMDL
MODEL      198
REMARK 921   NORMALIZED FREE ENERGY PREDICTED BY IDOCK:   -4.70 KCAL/MOL
REMARK 922        TOTAL FREE ENERGY PREDICTED BY IDOCK:   -8.37 KCAL/MOL
REMARK 923 INTER-LIGAND FREE ENERGY PREDICTED BY IDOCK:   -7.45 KCAL/MOL
REMARK 924 INTRA-LIGAND FREE ENERGY PREDICTED BY IDOCK:   -0.91 KCAL/MOL
REMARK 927      BINDING AFFINITY PREDICTED BY RF-SCORE:    0.00 PKD
ROOT
HETATM    1  C   UNK A   0      -8.408   8.234  63.232  1.00  0.00    -0.039 C  
HETATM    2  N   UNK A   0      -8.372   8.971  64.492  1.00  0.00    -0.167 NA 
ENDROOT
BRANCH   2   3
HETATM    3  C   UNK A   0      -9.133  10.127  64.629  1.00  0.00    -0.227 A  
HETATM    4  C   UNK A   0     -10.358  12.668  64.884  1.00  0.00    -0.330 A  
HETATM    5  C   UNK A   0      -9.540  10.625  65.879  1.00  0.00    -0.253 A  
HETATM    6  C   UNK A   0      -9.469  10.894  63.502  1.00  0.00    -0.322 A  
HETATM    7  C   UNK A   0     -10.058  12.156  63.622  1.00  0.00    -0.410 A  
HETATM    8  C   UNK A   0     -10.160  11.875  66.011  1.00  0.00    -0.261 A  
BRANCH   4   9
HETATM    9  C   UNK A   0     -10.862  14.054  65.038  1.00  0.00    -0.392 C  
HETATM   10  O   UNK A   0     -11.722  14.499  64.292  1.00  0.00    -0.370 OA 
ATOM     11  N   GLU A   1     -10.327  14.768  66.104  1.00  0.00    -0.291 N  
ATOM     12  H   GLU A   1      -9.562  14.377  66.654  1.00  0.00     0.000 HD 
BRANCH  11  13
ATOM     13  CA  GLU A   1     -10.877  16.097  66.433  1.00  0.00    -0.131 C  
ATOM     14  OXT GLU A   1     -10.095  18.368  65.963  1.00  0.00    -0.491 OA 
ATOM     15  C   GLU A   1      -9.840  17.177  66.074  1.00  0.00    -0.219 C  
ATOM     16  O   GLU A   1      -8.567  16.706  66.061  1.00  0.00    -0.429 OA 
BRANCH  13  17
ATOM     17  CB  GLU A   1     -11.219  16.176  67.929  1.00  0.00    -0.245 C  
BRANCH  17  18
ATOM     18  CG  GLU A   1     -11.702  14.841  68.505  1.00  0.00    -0.347 C  
ATOM     19  OE2 GLU A   1     -11.690  15.873  70.699  1.00  0.00    -0.343 OA 
ATOM     20  OE1 GLU A   1     -12.357  13.724  70.496  1.00  0.00    -0.329 OA 
ATOM     21  CD  GLU A   1     -11.901  14.896  69.999  1.00  0.00    -0.307 C  
ENDBRANCH  17  18
ENDBRANCH  13  17
ENDBRANCH  11  13
ENDBRANCH   4   9
ENDBRANCH   2   3
BRANCH   2  22
HETATM   22  C   UNK A   0      -7.235   8.728  65.397  1.00  0.00    -0.084 C  
BRANCH  22  23
HETATM   23  C   UNK A   0      -7.520   7.728  66.501  1.00  0.00    -0.088 A  
HETATM   24  N   UNK A   0     -10.239   8.602  69.601  1.00  0.00    -0.203 NA 
HETATM   25  C   UNK A   0      -8.068   5.901  68.483  1.00  0.00    -0.106 A  
HETATM   26  C   UNK A   0      -6.995   6.448  66.506  1.00  0.00    -0.067 A  
HETATM   27  N   UNK A   0      -8.274   5.020  69.458  1.00  0.00    -0.084 NA 
HETATM   28  C   UNK A   0      -9.486   7.419  69.543  1.00  0.00    -0.155 A  
HETATM   29  C   UNK A   0      -8.642   7.175  68.464  1.00  0.00    -0.124 A  
HETATM   30  N   UNK A   0      -7.259   5.538  67.480  1.00  0.00    -0.074 NA 
HETATM   31  C   UNK A   0      -9.056   5.387  70.465  1.00  0.00    -0.142 A  
HETATM   32  H1  UNK A   0     -10.070   9.266  68.845  1.00  0.00     0.000 HD 
HETATM   33  H1  UNK A   0      -9.827   4.779  72.277  1.00  0.00     0.000 HD 
HETATM   34  N   UNK A   0      -9.225   4.497  71.503  1.00  0.00    -0.130 NA 
HETATM   35  N   UNK A   0      -9.708   6.546  70.536  1.00  0.00    -0.172 NA 
HETATM   36  N   UNK A   0      -8.373   8.098  67.484  1.00  0.00    -0.122 NA 
HETATM   37  H2  UNK A   0     -10.106   9.058  70.503  1.00  0.00     0.000 HD 
HETATM   38  H2  UNK A   0      -8.765   3.587  71.497  1.00  0.00     0.000 HD 
ENDBRANCH  22  23
ENDBRANCH   2  22
TORSDOF 7
ENDMDL
MODEL      199
REMARK 921   NORMALIZED FREE ENERGY PREDICTED BY IDOCK:   -4.69 KCAL/MOL
REMARK 922        TOTAL FREE ENERGY PREDICTED BY IDOCK:   -8.36 KCAL/MOL
REMARK 923 INTER-LIGAND FREE ENERGY PREDICTED BY IDOCK:   -7.25 KCAL/MOL
REMARK 924 INTRA-LIGAND FREE ENERGY PREDICTED BY IDOCK:   -1.11 KCAL/MOL
REMARK 927      BINDING AFFINITY PREDICTED BY RF-SCORE:    0.00 PKD
ROOT
HETATM    1  C   UNK A   0      -6.281   7.944  71.756  1.00  0.00    -0.040 C  
HETATM    2  N   UNK A   0      -7.678   7.634  71.468  1.00  0.00    -0.083 NA 
ENDROOT
BRANCH   2   3
HETATM    3  C   UNK A   0      -8.524   8.642  71.021  1.00  0.00    -0.164 A  
HETATM    4  C   UNK A   0     -10.436  10.426  69.934  1.00  0.00    -0.266 A  
HETATM    5  C   UNK A   0      -8.236   9.431  69.894  1.00  0.00    -0.155 A  
HETATM    6  C   UNK A   0      -9.757   8.867  71.653  1.00  0.00    -0.379 A  
HETATM    7  C   UNK A   0     -10.712   9.733  71.113  1.00  0.00    -0.284 A  
HETATM    8  C   UNK A   0      -9.173  10.327  69.359  1.00  0.00    -0.206 A  
BRANCH   4   9
HETATM    9  C   UNK A   0     -11.482  11.248  69.277  1.00  0.00    -0.301 C  
HETATM   10  O   UNK A   0     -12.606  10.807  69.093  1.00  0.00    -0.312 OA 
ATOM     11  N   GLU A   1     -11.100  12.542  68.944  1.00  0.00    -0.256 N  
ATOM     12  H   GLU A   1     -10.130  12.838  69.055  1.00  0.00     0.000 HD 
BRANCH  11  13
ATOM     13  CA  GLU A   1     -12.112  13.484  68.430  1.00  0.00    -0.258 C  
ATOM     14  OXT GLU A   1     -12.652  14.253  66.170  1.00  0.00    -0.436 OA 
ATOM     15  C   GLU A   1     -11.842  13.752  66.937  1.00  0.00    -0.413 C  
ATOM     16  O   GLU A   1     -10.549  13.538  66.586  1.00  0.00    -0.276 OA 
BRANCH  13  17
ATOM     17  CB  GLU A   1     -12.060  14.803  69.216  1.00  0.00    -0.296 C  
BRANCH  17  18
ATOM     18  CG  GLU A   1     -11.560  14.626  70.653  1.00  0.00    -0.305 C  
ATOM     19  OE2 GLU A   1     -13.469  15.922  71.395  1.00  0.00    -0.481 OA 
ATOM     20  OE1 GLU A   1     -12.028  15.103  72.932  1.00  0.00    -0.379 OA 
ATOM     21  CD  GLU A   1     -12.460  15.291  71.664  1.00  0.00    -0.363 C  
ENDBRANCH  17  18
ENDBRANCH  13  17
ENDBRANCH  11  13
ENDBRANCH   4   9
ENDBRANCH   2   3
BRANCH   2  22
HETATM   22  C   UNK A   0      -8.243   6.407  72.058  1.00  0.00    -0.109 C  
BRANCH  22  23
HETATM   23  C   UNK A   0      -8.604   5.338  71.044  1.00  0.00    -0.123 A  
HETATM   24  N   UNK A   0      -6.450   4.910  67.447  1.00  0.00    -0.044 NA 
HETATM   25  C   UNK A   0      -9.234   3.375  69.223  1.00  0.00    -0.152 A  
HETATM   26  C   UNK A   0      -9.580   4.385  71.277  1.00  0.00    -0.172 A  
HETATM   27  N   UNK A   0      -9.594   2.452  68.335  1.00  0.00    -0.162 NA 
HETATM   28  C   UNK A   0      -7.580   4.141  67.769  1.00  0.00    -0.068 A  
HETATM   29  C   UNK A   0      -8.213   4.304  68.997  1.00  0.00    -0.071 A  
HETATM   30  N   UNK A   0      -9.899   3.412  70.384  1.00  0.00    -0.062 NA 
HETATM   31  C   UNK A   0      -8.952   2.430  67.174  1.00  0.00    -0.145 A  
HETATM   32  H1  UNK A   0      -6.187   5.613  68.138  1.00  0.00     0.000 HD 
HETATM   33  H1  UNK A   0      -8.867   1.495  65.340  1.00  0.00     0.000 HD 
HETATM   34  N   UNK A   0      -9.361   1.511  66.233  1.00  0.00    -0.334 NA 
HETATM   35  N   UNK A   0      -7.926   3.218  66.860  1.00  0.00    -0.079 NA 
HETATM   36  N   UNK A   0      -7.893   5.291  69.894  1.00  0.00    -0.078 NA 
HETATM   37  H2  UNK A   0      -6.573   5.347  66.534  1.00  0.00     0.000 HD 
HETATM   38  H2  UNK A   0     -10.131   0.870  66.422  1.00  0.00     0.000 HD 
ENDBRANCH  22  23
ENDBRANCH   2  22
TORSDOF 7
ENDMDL
MODEL      200
REMARK 921   NORMALIZED FREE ENERGY PREDICTED BY IDOCK:   -4.69 KCAL/MOL
REMARK 922        TOTAL FREE ENERGY PREDICTED BY IDOCK:   -8.35 KCAL/MOL
REMARK 923 INTER-LIGAND FREE ENERGY PREDICTED BY IDOCK:   -7.37 KCAL/MOL
REMARK 924 INTRA-LIGAND FREE ENERGY PREDICTED BY IDOCK:   -0.98 KCAL/MOL
REMARK 927      BINDING AFFINITY PREDICTED BY RF-SCORE:    0.00 PKD
ROOT
HETATM    1  C   UNK A   0      -5.962  13.819  70.187  1.00  0.00    -0.151 C  
HETATM    2  N   UNK A   0      -6.637  13.586  68.913  1.00  0.00    -0.101 NA 
ENDROOT
BRANCH   2   3
HETATM    3  C   UNK A   0      -7.416  12.447  68.751  1.00  0.00    -0.056 A  
HETATM    4  C   UNK A   0      -9.218  10.262  68.693  1.00  0.00    -0.159 A  
HETATM    5  C   UNK A   0      -7.106  11.220  69.366  1.00  0.00    -0.090 A  
HETATM    6  C   UNK A   0      -8.605  12.498  68.007  1.00  0.00    -0.185 A  
HETATM    7  C   UNK A   0      -9.506  11.430  67.988  1.00  0.00    -0.181 A  
HETATM    8  C   UNK A   0      -7.987  10.131  69.329  1.00  0.00    -0.138 A  
BRANCH   4   9
HETATM    9  C   UNK A   0     -10.218   9.171  68.791  1.00  0.00    -0.210 C  
HETATM   10  O   UNK A   0     -10.766   8.727  67.794  1.00  0.00    -0.218 OA 
ATOM     11  N   GLU A   1     -10.436   8.676  70.071  1.00  0.00    -0.218 N  
ATOM     12  H   GLU A   1     -10.007   9.128  70.879  1.00  0.00     0.000 HD 
BRANCH  11  13
ATOM     13  CA  GLU A   1     -11.294   7.489  70.251  1.00  0.00    -0.199 C  
ATOM     14  OXT GLU A   1     -13.124   6.996  71.800  1.00  0.00    -0.361 OA 
ATOM     15  C   GLU A   1     -12.132   7.660  71.532  1.00  0.00    -0.310 C  
ATOM     16  O   GLU A   1     -11.564   8.505  72.428  1.00  0.00    -0.372 OA 
BRANCH  13  17
ATOM     17  CB  GLU A   1     -10.433   6.221  70.354  1.00  0.00    -0.277 C  
BRANCH  17  18
ATOM     18  CG  GLU A   1     -10.322   5.461  69.029  1.00  0.00    -0.282 C  
ATOM     19  OE2 GLU A   1      -8.732   3.978  70.101  1.00  0.00    -0.067 OA 
ATOM     20  OE1 GLU A   1      -9.303   3.610  67.946  1.00  0.00    -0.167 OA 
ATOM     21  CD  GLU A   1      -9.371   4.294  69.110  1.00  0.00    -0.161 C  
ENDBRANCH  17  18
ENDBRANCH  13  17
ENDBRANCH  11  13
ENDBRANCH   4   9
ENDBRANCH   2   3
BRANCH   2  22
HETATM   22  C   UNK A   0      -6.138  14.311  67.731  1.00  0.00    -0.118 C  
BRANCH  22  23
HETATM   23  C   UNK A   0      -6.706  15.708  67.571  1.00  0.00    -0.191 A  
HETATM   24  N   UNK A   0     -10.376  16.373  65.609  1.00  0.00    -0.486 NA 
HETATM   25  C   UNK A   0      -7.755  18.238  67.315  1.00  0.00    -0.219 A  
HETATM   26  C   UNK A   0      -6.117  16.824  68.139  1.00  0.00    -0.129 A  
HETATM   27  N   UNK A   0      -8.212  19.477  67.158  1.00  0.00    -0.269 NA 
HETATM   28  C   UNK A   0      -9.560  17.407  66.096  1.00  0.00    -0.193 A  
HETATM   29  C   UNK A   0      -8.383  17.112  66.776  1.00  0.00    -0.234 A  
HETATM   30  N   UNK A   0      -6.627  18.078  68.019  1.00  0.00    -0.193 NA 
HETATM   31  C   UNK A   0      -9.316  19.640  66.440  1.00  0.00    -0.387 A  
HETATM   32  H1  UNK A   0     -10.011  15.429  65.738  1.00  0.00     0.000 HD 
HETATM   33  H1  UNK A   0     -10.610  21.052  65.678  1.00  0.00     0.000 HD 
HETATM   34  N   UNK A   0      -9.761  20.927  66.230  1.00  0.00    -0.263 NA 
HETATM   35  N   UNK A   0     -10.040  18.647  65.926  1.00  0.00    -0.547 NA 
HETATM   36  N   UNK A   0      -7.868  15.845  66.892  1.00  0.00    -0.235 NA 
HETATM   37  H2  UNK A   0     -10.593  16.533  64.626  1.00  0.00     0.000 HD 
HETATM   38  H2  UNK A   0      -9.258  21.727  66.613  1.00  0.00     0.000 HD 
ENDBRANCH  22  23
ENDBRANCH   2  22
TORSDOF 7
ENDMDL
MODEL      201
REMARK 921   NORMALIZED FREE ENERGY PREDICTED BY IDOCK:   -4.64 KCAL/MOL
REMARK 922        TOTAL FREE ENERGY PREDICTED BY IDOCK:   -8.29 KCAL/MOL
REMARK 923 INTER-LIGAND FREE ENERGY PREDICTED BY IDOCK:   -7.60 KCAL/MOL
REMARK 924 INTRA-LIGAND FREE ENERGY PREDICTED BY IDOCK:   -0.70 KCAL/MOL
REMARK 927      BINDING AFFINITY PREDICTED BY RF-SCORE:    0.00 PKD
ROOT
HETATM    1  C   UNK A   0      -6.180  12.080  66.603  1.00  0.00     0.179 C  
HETATM    2  N   UNK A   0      -7.500  11.881  67.195  1.00  0.00    -0.147 NA 
ENDROOT
BRANCH   2   3
HETATM    3  C   UNK A   0      -7.660  10.940  68.206  1.00  0.00    -0.100 A  
HETATM    4  C   UNK A   0      -8.158   9.295  70.457  1.00  0.00    -0.198 A  
HETATM    5  C   UNK A   0      -6.654  10.657  69.147  1.00  0.00    -0.061 A  
HETATM    6  C   UNK A   0      -8.885  10.274  68.369  1.00  0.00    -0.129 A  
HETATM    7  C   UNK A   0      -9.143   9.474  69.486  1.00  0.00    -0.193 A  
HETATM    8  C   UNK A   0      -6.889   9.832  70.256  1.00  0.00    -0.123 A  
BRANCH   4   9
HETATM    9  C   UNK A   0      -8.455   8.558  71.710  1.00  0.00    -0.175 C  
HETATM   10  O   UNK A   0      -8.234   9.057  72.803  1.00  0.00    -0.297 OA 
ATOM     11  N   GLU A   1      -9.035   7.306  71.541  1.00  0.00    -0.130 N  
ATOM     12  H   GLU A   1      -9.134   6.906  70.608  1.00  0.00     0.000 HD 
BRANCH  11  13
ATOM     13  CA  GLU A   1      -9.509   6.564  72.724  1.00  0.00    -0.142 C  
ATOM     14  OXT GLU A   1      -8.451   4.870  74.140  1.00  0.00    -0.105 OA 
ATOM     15  C   GLU A   1      -8.491   5.460  73.070  1.00  0.00    -0.118 C  
ATOM     16  O   GLU A   1      -7.744   5.076  72.004  1.00  0.00    -0.098 OA 
BRANCH  13  17
ATOM     17  CB  GLU A   1     -10.884   5.939  72.445  1.00  0.00    -0.288 C  
BRANCH  17  18
ATOM     18  CG  GLU A   1     -11.544   6.482  71.174  1.00  0.00    -0.390 C  
ATOM     19  OE2 GLU A   1     -10.104   5.013  69.891  1.00  0.00    -0.236 OA 
ATOM     20  OE1 GLU A   1     -11.600   6.314  68.806  1.00  0.00    -0.167 OA 
ATOM     21  CD  GLU A   1     -10.991   5.851  69.921  1.00  0.00    -0.374 C  
ENDBRANCH  17  18
ENDBRANCH  13  17
ENDBRANCH  11  13
ENDBRANCH   4   9
ENDBRANCH   2   3
BRANCH   2  22
HETATM   22  C   UNK A   0      -8.671  12.348  66.432  1.00  0.00     0.018 C  
BRANCH  22  23
HETATM   23  C   UNK A   0      -8.898  13.846  66.494  1.00  0.00     0.004 A  
HETATM   24  N   UNK A   0     -11.708  15.743  63.990  1.00  0.00    -1.020 NA 
HETATM   25  C   UNK A   0      -9.338  16.558  66.633  1.00  0.00    -0.256 A  
HETATM   26  C   UNK A   0      -8.284  14.658  67.431  1.00  0.00    -0.201 A  
HETATM   27  N   UNK A   0      -9.492  17.878  66.682  1.00  0.00    -0.289 NA 
HETATM   28  C   UNK A   0     -10.872  16.436  64.880  1.00  0.00    -0.250 A  
HETATM   29  C   UNK A   0     -10.001  15.740  65.712  1.00  0.00    -0.358 A  
HETATM   30  N   UNK A   0      -8.494  15.998  67.508  1.00  0.00    -0.160 NA 
HETATM   31  C   UNK A   0     -10.310  18.437  65.800  1.00  0.00    -0.181 A  
HETATM   32  H1  UNK A   0     -11.577  14.732  63.964  1.00  0.00     0.000 HD 
HETATM   33  H1  UNK A   0     -11.057  20.239  65.136  1.00  0.00     0.000 HD 
HETATM   34  N   UNK A   0     -10.428  19.809  65.814  1.00  0.00    -0.503 NA 
HETATM   35  N   UNK A   0     -11.043  17.766  64.914  1.00  0.00    -0.638 NA 
HETATM   36  N   UNK A   0      -9.786  14.387  65.629  1.00  0.00    -0.471 NA 
HETATM   37  H2  UNK A   0     -11.617  16.131  63.051  1.00  0.00     0.000 HD 
HETATM   38  H2  UNK A   0      -9.904  20.377  66.481  1.00  0.00     0.000 HD 
ENDBRANCH  22  23
ENDBRANCH   2  22
TORSDOF 7
ENDMDL
MODEL      202
REMARK 921   NORMALIZED FREE ENERGY PREDICTED BY IDOCK:   -4.61 KCAL/MOL
REMARK 922        TOTAL FREE ENERGY PREDICTED BY IDOCK:   -8.24 KCAL/MOL
REMARK 923 INTER-LIGAND FREE ENERGY PREDICTED BY IDOCK:   -7.27 KCAL/MOL
REMARK 924 INTRA-LIGAND FREE ENERGY PREDICTED BY IDOCK:   -0.98 KCAL/MOL
REMARK 927      BINDING AFFINITY PREDICTED BY RF-SCORE:    0.00 PKD
ROOT
HETATM    1  C   UNK A   0      -5.426  14.874  70.577  1.00  0.00    -0.136 C  
HETATM    2  N   UNK A   0      -5.912  14.239  69.355  1.00  0.00    -0.098 NA 
ENDROOT
BRANCH   2   3
HETATM    3  C   UNK A   0      -6.392  12.936  69.407  1.00  0.00    -0.109 A  
HETATM    4  C   UNK A   0      -7.634  10.412  69.740  1.00  0.00    -0.141 A  
HETATM    5  C   UNK A   0      -5.866  11.966  70.279  1.00  0.00    -0.164 A  
HETATM    6  C   UNK A   0      -7.490  12.551  68.622  1.00  0.00    -0.090 A  
HETATM    7  C   UNK A   0      -8.118  11.314  68.793  1.00  0.00    -0.130 A  
HETATM    8  C   UNK A   0      -6.467  10.710  70.438  1.00  0.00    -0.102 A  
BRANCH   4   9
HETATM    9  C   UNK A   0      -8.362   9.151  70.027  1.00  0.00    -0.150 C  
HETATM   10  O   UNK A   0      -7.760   8.127  70.311  1.00  0.00    -0.081 OA 
ATOM     11  N   GLU A   1      -9.748   9.244  69.995  1.00  0.00    -0.193 N  
ATOM     12  H   GLU A   1     -10.200  10.103  69.683  1.00  0.00     0.000 HD 
BRANCH  11  13
ATOM     13  CA  GLU A   1     -10.559   8.086  70.416  1.00  0.00    -0.224 C  
ATOM     14  OXT GLU A   1     -11.215   6.026  69.269  1.00  0.00    -0.384 OA 
ATOM     15  C   GLU A   1     -10.824   7.182  69.197  1.00  0.00    -0.162 C  
ATOM     16  O   GLU A   1     -10.749   7.849  68.018  1.00  0.00    -0.161 OA 
BRANCH  13  17
ATOM     17  CB  GLU A   1     -11.892   8.561  71.016  1.00  0.00    -0.290 C  
BRANCH  17  18
ATOM     18  CG  GLU A   1     -11.879  10.040  71.414  1.00  0.00    -0.447 C  
ATOM     19  OE2 GLU A   1     -12.566  10.575  69.151  1.00  0.00    -0.171 OA 
ATOM     20  OE1 GLU A   1     -12.293  12.248  70.645  1.00  0.00    -0.354 OA 
ATOM     21  CD  GLU A   1     -12.278  10.947  70.277  1.00  0.00    -0.348 C  
ENDBRANCH  17  18
ENDBRANCH  13  17
ENDBRANCH  11  13
ENDBRANCH   4   9
ENDBRANCH   2   3
BRANCH   2  22
HETATM   22  C   UNK A   0      -5.488  14.817  68.067  1.00  0.00    -0.124 C  
BRANCH  22  23
HETATM   23  C   UNK A   0      -6.378  15.937  67.564  1.00  0.00    -0.168 A  
HETATM   24  N   UNK A   0     -10.210  16.592  69.190  1.00  0.00    -0.296 NA 
HETATM   25  C   UNK A   0      -7.977  17.992  66.677  1.00  0.00    -0.251 A  
HETATM   26  C   UNK A   0      -5.956  16.863  66.626  1.00  0.00    -0.128 A  
HETATM   27  N   UNK A   0      -8.751  18.958  66.193  1.00  0.00    -0.471 NA 
HETATM   28  C   UNK A   0      -9.690  17.329  68.114  1.00  0.00    -0.284 A  
HETATM   29  C   UNK A   0      -8.397  17.090  67.659  1.00  0.00    -0.190 A  
HETATM   30  N   UNK A   0      -6.738  17.881  66.182  1.00  0.00    -0.253 NA 
HETATM   31  C   UNK A   0      -9.987  19.054  66.665  1.00  0.00    -0.374 A  
HETATM   32  H1  UNK A   0      -9.604  15.855  69.550  1.00  0.00     0.000 HD 
HETATM   33  H1  UNK A   0     -11.758  20.092  66.488  1.00  0.00     0.000 HD 
HETATM   34  N   UNK A   0     -10.808  20.019  66.125  1.00  0.00    -0.261 NA 
HETATM   35  N   UNK A   0     -10.487  18.297  67.641  1.00  0.00    -0.398 NA 
HETATM   36  N   UNK A   0      -7.611  16.057  68.106  1.00  0.00    -0.133 NA 
HETATM   37  H2  UNK A   0     -11.121  16.206  68.942  1.00  0.00     0.000 HD 
HETATM   38  H2  UNK A   0     -10.476  20.640  65.386  1.00  0.00     0.000 HD 
ENDBRANCH  22  23
ENDBRANCH   2  22
TORSDOF 7
ENDMDL
MODEL      203
REMARK 921   NORMALIZED FREE ENERGY PREDICTED BY IDOCK:   -4.58 KCAL/MOL
REMARK 922        TOTAL FREE ENERGY PREDICTED BY IDOCK:   -8.21 KCAL/MOL
REMARK 923 INTER-LIGAND FREE ENERGY PREDICTED BY IDOCK:   -7.47 KCAL/MOL
REMARK 924 INTRA-LIGAND FREE ENERGY PREDICTED BY IDOCK:   -0.74 KCAL/MOL
REMARK 927      BINDING AFFINITY PREDICTED BY RF-SCORE:    0.00 PKD
ROOT
HETATM    1  C   UNK A   0     -11.949  14.801  69.742  1.00  0.00    -0.321 C  
HETATM    2  N   UNK A   0     -11.472  14.336  68.443  1.00  0.00    -0.283 NA 
ENDROOT
BRANCH   2   3
HETATM    3  C   UNK A   0     -10.950  13.053  68.326  1.00  0.00    -0.260 A  
HETATM    4  C   UNK A   0     -10.196  10.357  67.893  1.00  0.00    -0.211 A  
HETATM    5  C   UNK A   0     -11.101  12.077  69.327  1.00  0.00    -0.246 A  
HETATM    6  C   UNK A   0     -10.299  12.655  67.147  1.00  0.00    -0.239 A  
HETATM    7  C   UNK A   0      -9.940  11.324  66.921  1.00  0.00    -0.238 A  
HETATM    8  C   UNK A   0     -10.717  10.744  69.125  1.00  0.00    -0.265 A  
BRANCH   4   9
HETATM    9  C   UNK A   0      -9.940   8.922  67.620  1.00  0.00    -0.196 C  
HETATM   10  O   UNK A   0     -10.777   8.071  67.883  1.00  0.00    -0.174 OA 
ATOM     11  N   GLU A   1      -8.724   8.639  67.010  1.00  0.00    -0.126 N  
ATOM     12  H   GLU A   1      -8.032   9.376  66.876  1.00  0.00     0.000 HD 
BRANCH  11  13
ATOM     13  CA  GLU A   1      -8.445   7.262  66.558  1.00  0.00    -0.125 C  
ATOM     14  OXT GLU A   1      -7.489   5.316  67.694  1.00  0.00    -0.081 OA 
ATOM     15  C   GLU A   1      -7.631   6.529  67.641  1.00  0.00    -0.105 C  
ATOM     16  O   GLU A   1      -6.934   7.374  68.442  1.00  0.00    -0.073 OA 
BRANCH  13  17
ATOM     17  CB  GLU A   1      -7.659   7.285  65.238  1.00  0.00    -0.102 C  
BRANCH  17  18
ATOM     18  CG  GLU A   1      -6.766   8.521  65.092  1.00  0.00    -0.064 C  
ATOM     19  OE2 GLU A   1      -7.812   8.928  62.944  1.00  0.00    -0.119 OA 
ATOM     20  OE1 GLU A   1      -6.242  10.369  63.696  1.00  0.00    -0.134 OA 
ATOM     21  CD  GLU A   1      -7.012   9.262  63.803  1.00  0.00    -0.091 C  
ENDBRANCH  17  18
ENDBRANCH  13  17
ENDBRANCH  11  13
ENDBRANCH   4   9
ENDBRANCH   2   3
BRANCH   2  22
HETATM   22  C   UNK A   0     -11.159  15.353  67.423  1.00  0.00    -0.311 C  
BRANCH  22  23
HETATM   23  C   UNK A   0     -10.037  16.297  67.809  1.00  0.00    -0.252 A  
HETATM   24  N   UNK A   0      -9.862  20.229  66.300  1.00  0.00    -0.618 NA 
HETATM   25  C   UNK A   0      -8.022  18.023  68.538  1.00  0.00    -0.303 A  
HETATM   26  C   UNK A   0      -9.072  15.969  68.745  1.00  0.00    -0.222 A  
HETATM   27  N   UNK A   0      -7.008  18.818  68.864  1.00  0.00    -0.300 NA 
HETATM   28  C   UNK A   0      -8.872  19.672  67.125  1.00  0.00    -0.312 A  
HETATM   29  C   UNK A   0      -9.020  18.382  67.626  1.00  0.00    -0.274 A  
HETATM   30  N   UNK A   0      -8.073  16.814  69.111  1.00  0.00    -0.172 NA 
HETATM   31  C   UNK A   0      -6.943  20.007  68.279  1.00  0.00    -0.295 A  
HETATM   32  H1  UNK A   0     -10.634  19.605  66.060  1.00  0.00     0.000 HD 
HETATM   33  H1  UNK A   0      -5.814  21.723  68.123  1.00  0.00     0.000 HD 
HETATM   34  N   UNK A   0      -5.863  20.810  68.574  1.00  0.00    -0.328 NA 
HETATM   35  N   UNK A   0      -7.859  20.490  67.441  1.00  0.00    -0.328 NA 
HETATM   36  N   UNK A   0     -10.026  17.529  67.250  1.00  0.00    -0.301 NA 
HETATM   37  H2  UNK A   0      -9.439  20.605  65.452  1.00  0.00     0.000 HD 
HETATM   38  H2  UNK A   0      -5.138  20.500  69.221  1.00  0.00     0.000 HD 
ENDBRANCH  22  23
ENDBRANCH   2  22
TORSDOF 7
ENDMDL
MODEL      204
REMARK 921   NORMALIZED FREE ENERGY PREDICTED BY IDOCK:   -4.58 KCAL/MOL
REMARK 922        TOTAL FREE ENERGY PREDICTED BY IDOCK:   -8.20 KCAL/MOL
REMARK 923 INTER-LIGAND FREE ENERGY PREDICTED BY IDOCK:   -7.23 KCAL/MOL
REMARK 924 INTRA-LIGAND FREE ENERGY PREDICTED BY IDOCK:   -0.97 KCAL/MOL
REMARK 927      BINDING AFFINITY PREDICTED BY RF-SCORE:    0.00 PKD
ROOT
HETATM    1  C   UNK A   0     -12.114  13.121  68.069  1.00  0.00    -0.197 C  
HETATM    2  N   UNK A   0     -10.678  13.128  67.804  1.00  0.00    -0.236 NA 
ENDROOT
BRANCH   2   3
HETATM    3  C   UNK A   0     -10.101  12.052  67.140  1.00  0.00    -0.201 A  
HETATM    4  C   UNK A   0      -9.207   9.654  65.925  1.00  0.00    -0.246 A  
HETATM    5  C   UNK A   0      -9.045  11.300  67.684  1.00  0.00    -0.149 A  
HETATM    6  C   UNK A   0     -10.611  11.622  65.904  1.00  0.00    -0.318 A  
HETATM    7  C   UNK A   0     -10.186  10.432  65.308  1.00  0.00    -0.332 A  
HETATM    8  C   UNK A   0      -8.587  10.121  67.081  1.00  0.00    -0.125 A  
BRANCH   4   9
HETATM    9  C   UNK A   0      -8.837   8.326  65.376  1.00  0.00    -0.073 C  
HETATM   10  O   UNK A   0      -8.262   8.227  64.303  1.00  0.00    -0.160 OA 
ATOM     11  N   GLU A   1      -9.145   7.240  66.186  1.00  0.00    -0.277 N  
ATOM     12  H   GLU A   1      -9.688   7.371  67.039  1.00  0.00     0.000 HD 
BRANCH  11  13
ATOM     13  CA  GLU A   1      -8.679   5.895  65.798  1.00  0.00    -0.151 C  
ATOM     14  OXT GLU A   1      -9.867   3.801  65.357  1.00  0.00    -0.175 OA 
ATOM     15  C   GLU A   1      -9.859   4.908  65.877  1.00  0.00    -0.191 C  
ATOM     16  O   GLU A   1     -10.833   5.313  66.730  1.00  0.00    -0.232 OA 
BRANCH  13  17
ATOM     17  CB  GLU A   1      -7.549   5.435  66.732  1.00  0.00    -0.088 C  
BRANCH  17  18
ATOM     18  CG  GLU A   1      -6.994   6.564  67.605  1.00  0.00    -0.079 C  
ATOM     19  OE2 GLU A   1      -8.637   5.970  69.284  1.00  0.00    -0.116 OA 
ATOM     20  OE1 GLU A   1      -7.190   7.654  69.706  1.00  0.00    -0.074 OA 
ATOM     21  CD  GLU A   1      -7.707   6.675  68.928  1.00  0.00    -0.109 C  
ENDBRANCH  17  18
ENDBRANCH  13  17
ENDBRANCH  11  13
ENDBRANCH   4   9
ENDBRANCH   2   3
BRANCH   2  22
HETATM   22  C   UNK A   0      -9.837  14.034  68.606  1.00  0.00    -0.191 C  
BRANCH  22  23
HETATM   23  C   UNK A   0      -9.237  15.185  67.822  1.00  0.00    -0.180 A  
HETATM   24  N   UNK A   0     -10.042  19.193  68.850  1.00  0.00    -0.525 NA 
HETATM   25  C   UNK A   0      -8.120  17.274  66.424  1.00  0.00    -0.293 A  
HETATM   26  C   UNK A   0      -8.322  14.999  66.801  1.00  0.00    -0.154 A  
HETATM   27  N   UNK A   0      -7.610  18.265  65.698  1.00  0.00    -0.529 NA 
HETATM   28  C   UNK A   0      -9.273  18.819  67.736  1.00  0.00    -0.289 A  
HETATM   29  C   UNK A   0      -9.008  17.476  67.485  1.00  0.00    -0.230 A  
HETATM   30  N   UNK A   0      -7.765  16.023  66.105  1.00  0.00     0.000 NA 
HETATM   31  C   UNK A   0      -7.980  19.503  65.997  1.00  0.00    -0.303 A  
HETATM   32  H1  UNK A   0     -10.425  18.421  69.396  1.00  0.00     0.000 HD 
HETATM   33  H1  UNK A   0      -7.781  21.477  65.442  1.00  0.00     0.000 HD 
HETATM   34  N   UNK A   0      -7.496  20.525  65.211  1.00  0.00    -0.470 NA 
HETATM   35  N   UNK A   0      -8.769  19.832  67.018  1.00  0.00    -0.311 NA 
HETATM   36  N   UNK A   0      -9.577  16.443  68.186  1.00  0.00    -0.224 NA 
HETATM   37  H2  UNK A   0     -10.790  19.823  68.562  1.00  0.00     0.000 HD 
HETATM   38  H2  UNK A   0      -6.874  20.336  64.425  1.00  0.00     0.000 HD 
ENDBRANCH  22  23
ENDBRANCH   2  22
TORSDOF 7
ENDMDL
MODEL      205
REMARK 921   NORMALIZED FREE ENERGY PREDICTED BY IDOCK:   -4.58 KCAL/MOL
REMARK 922        TOTAL FREE ENERGY PREDICTED BY IDOCK:   -8.20 KCAL/MOL
REMARK 923 INTER-LIGAND FREE ENERGY PREDICTED BY IDOCK:   -8.96 KCAL/MOL
REMARK 924 INTRA-LIGAND FREE ENERGY PREDICTED BY IDOCK:    0.76 KCAL/MOL
REMARK 927      BINDING AFFINITY PREDICTED BY RF-SCORE:    0.00 PKD
ROOT
HETATM    1  C   UNK A   0      -9.533  13.005  65.982  1.00  0.00    -0.096 C  
HETATM    2  N   UNK A   0     -10.438  12.788  67.107  1.00  0.00    -0.232 NA 
ENDROOT
BRANCH   2   3
HETATM    3  C   UNK A   0     -10.362  11.601  67.825  1.00  0.00    -0.182 A  
HETATM    4  C   UNK A   0      -9.937   9.082  69.050  1.00  0.00    -0.191 A  
HETATM    5  C   UNK A   0     -11.220  10.512  67.586  1.00  0.00    -0.338 A  
HETATM    6  C   UNK A   0      -9.359  11.416  68.789  1.00  0.00    -0.115 A  
HETATM    7  C   UNK A   0      -9.133  10.172  69.385  1.00  0.00    -0.217 A  
HETATM    8  C   UNK A   0     -11.024   9.267  68.200  1.00  0.00    -0.060 A  
BRANCH   4   9
HETATM    9  C   UNK A   0      -9.633   7.728  69.573  1.00  0.00    -0.160 C  
HETATM   10  O   UNK A   0     -10.284   6.756  69.221  1.00  0.00    -0.169 OA 
ATOM     11  N   GLU A   1      -8.544   7.652  70.433  1.00  0.00    -0.137 N  
ATOM     12  H   GLU A   1      -8.078   8.502  70.751  1.00  0.00     0.000 HD 
BRANCH  11  13
ATOM     13  CA  GLU A   1      -8.068   6.330  70.882  1.00  0.00    -0.124 C  
ATOM     14  OXT GLU A   1      -6.051   5.042  70.369  1.00  0.00    -0.017 OA 
ATOM     15  C   GLU A   1      -6.831   5.930  70.056  1.00  0.00    -0.057 C  
ATOM     16  O   GLU A   1      -6.780   6.544  68.847  1.00  0.00    -0.052 OA 
BRANCH  13  17
ATOM     17  CB  GLU A   1      -9.175   5.279  70.708  1.00  0.00    -0.191 C  
BRANCH  17  18
ATOM     18  CG  GLU A   1     -10.182   5.271  71.862  1.00  0.00    -0.264 C  
ATOM     19  OE2 GLU A   1      -9.562   2.966  72.285  1.00  0.00    -0.116 OA 
ATOM     20  OE1 GLU A   1     -11.096   3.957  73.617  1.00  0.00    -0.243 OA 
ATOM     21  CD  GLU A   1     -10.227   3.946  72.580  1.00  0.00    -0.164 C  
ENDBRANCH  17  18
ENDBRANCH  13  17
ENDBRANCH  11  13
ENDBRANCH   4   9
ENDBRANCH   2   3
BRANCH   2  22
HETATM   22  C   UNK A   0     -11.658  13.612  67.174  1.00  0.00    -0.361 C  
BRANCH  22  23
HETATM   23  C   UNK A   0     -11.855  14.327  68.497  1.00  0.00    -0.347 A  
HETATM   24  N   UNK A   0     -13.489  12.343  71.838  1.00  0.00    -0.368 NA 
HETATM   25  C   UNK A   0     -12.178  15.611  70.908  1.00  0.00    -0.419 A  
HETATM   26  C   UNK A   0     -11.424  15.622  68.719  1.00  0.00    -0.376 A  
HETATM   27  N   UNK A   0     -12.373  16.271  72.046  1.00  0.00    -0.570 NA 
HETATM   28  C   UNK A   0     -13.156  13.707  71.834  1.00  0.00    -0.387 A  
HETATM   29  C   UNK A   0     -12.575  14.285  70.710  1.00  0.00    -0.356 A  
HETATM   30  N   UNK A   0     -11.578  16.266  69.906  1.00  0.00    -0.354 NA 
HETATM   31  C   UNK A   0     -12.988  15.631  73.032  1.00  0.00    -0.510 A  
HETATM   32  H1  UNK A   0     -13.333  11.852  70.957  1.00  0.00     0.000 HD 
HETATM   33  H1  UNK A   0     -13.714  15.838  74.950  1.00  0.00     0.000 HD 
HETATM   34  N   UNK A   0     -13.240  16.330  74.192  1.00  0.00    -0.916 NA 
HETATM   35  N   UNK A   0     -13.361  14.353  72.991  1.00  0.00    -0.635 NA 
HETATM   36  N   UNK A   0     -12.425  13.635  69.511  1.00  0.00    -0.237 NA 
HETATM   37  H2  UNK A   0     -14.455  12.220  72.140  1.00  0.00     0.000 HD 
HETATM   38  H2  UNK A   0     -12.963  17.307  74.289  1.00  0.00     0.000 HD 
ENDBRANCH  22  23
ENDBRANCH   2  22
TORSDOF 7
ENDMDL
MODEL      206
REMARK 921   NORMALIZED FREE ENERGY PREDICTED BY IDOCK:   -4.55 KCAL/MOL
REMARK 922        TOTAL FREE ENERGY PREDICTED BY IDOCK:   -8.16 KCAL/MOL
REMARK 923 INTER-LIGAND FREE ENERGY PREDICTED BY IDOCK:   -7.94 KCAL/MOL
REMARK 924 INTRA-LIGAND FREE ENERGY PREDICTED BY IDOCK:   -0.22 KCAL/MOL
REMARK 927      BINDING AFFINITY PREDICTED BY RF-SCORE:    0.00 PKD
ROOT
HETATM    1  C   UNK A   0      -7.752  10.951  66.113  1.00  0.00    -0.133 C  
HETATM    2  N   UNK A   0      -7.925  10.817  67.557  1.00  0.00    -0.109 NA 
ENDROOT
BRANCH   2   3
HETATM    3  C   UNK A   0      -8.704   9.781  68.058  1.00  0.00    -0.118 A  
HETATM    4  C   UNK A   0     -10.076   7.689  69.387  1.00  0.00    -0.196 A  
HETATM    5  C   UNK A   0      -8.461   8.430  67.752  1.00  0.00    -0.131 A  
HETATM    6  C   UNK A   0      -9.742  10.047  68.966  1.00  0.00    -0.204 A  
HETATM    7  C   UNK A   0     -10.411   9.020  69.637  1.00  0.00    -0.227 A  
HETATM    8  C   UNK A   0      -9.146   7.390  68.395  1.00  0.00    -0.132 A  
BRANCH   4   9
HETATM    9  C   UNK A   0     -10.683   6.593  70.181  1.00  0.00    -0.239 C  
HETATM   10  O   UNK A   0     -11.882   6.364  70.126  1.00  0.00    -0.409 OA 
ATOM     11  N   GLU A   1      -9.791   5.839  70.934  1.00  0.00    -0.173 N  
ATOM     12  H   GLU A   1      -8.812   6.115  71.001  1.00  0.00     0.000 HD 
BRANCH  11  13
ATOM     13  CA  GLU A   1     -10.275   4.634  71.634  1.00  0.00    -0.163 C  
ATOM     14  OXT GLU A   1     -11.360   4.312  73.804  1.00  0.00    -0.234 OA 
ATOM     15  C   GLU A   1     -10.671   5.010  73.074  1.00  0.00    -0.250 C  
ATOM     16  O   GLU A   1     -10.036   6.121  73.526  1.00  0.00    -0.167 OA 
BRANCH  13  17
ATOM     17  CB  GLU A   1      -9.181   3.556  71.657  1.00  0.00    -0.188 C  
BRANCH  17  18
ATOM     18  CG  GLU A   1      -9.507   2.350  70.771  1.00  0.00    -0.206 C  
ATOM     19  OE2 GLU A   1      -8.871   3.687  68.851  1.00  0.00    -0.090 OA 
ATOM     20  OE1 GLU A   1      -9.524   1.547  68.536  1.00  0.00    -0.164 OA 
ATOM     21  CD  GLU A   1      -9.264   2.626  69.308  1.00  0.00    -0.135 C  
ENDBRANCH  17  18
ENDBRANCH  13  17
ENDBRANCH  11  13
ENDBRANCH   4   9
ENDBRANCH   2   3
BRANCH   2  22
HETATM   22  C   UNK A   0      -7.645  11.998  68.393  1.00  0.00    -0.128 C  
BRANCH  22  23
HETATM   23  C   UNK A   0      -8.277  13.282  67.889  1.00  0.00    -0.163 A  
HETATM   24  N   UNK A   0     -10.257  13.440  64.172  1.00  0.00    -0.757 NA 
HETATM   25  C   UNK A   0      -9.456  15.600  66.992  1.00  0.00    -0.224 A  
HETATM   26  C   UNK A   0      -8.333  14.436  68.650  1.00  0.00    -0.147 A  
HETATM   27  N   UNK A   0      -9.971  16.747  66.558  1.00  0.00    -0.284 NA 
HETATM   28  C   UNK A   0     -10.068  14.560  64.997  1.00  0.00    -0.290 A  
HETATM   29  C   UNK A   0      -9.447  14.425  66.234  1.00  0.00    -0.271 A  
HETATM   30  N   UNK A   0      -8.913  15.586  68.216  1.00  0.00    -0.182 NA 
HETATM   31  C   UNK A   0     -10.488  16.768  65.337  1.00  0.00    -0.193 A  
HETATM   32  H1  UNK A   0      -9.857  12.568  64.519  1.00  0.00     0.000 HD 
HETATM   33  H1  UNK A   0     -11.368  17.984  63.926  1.00  0.00     0.000 HD 
HETATM   34  N   UNK A   0     -10.971  17.968  64.865  1.00  0.00    -0.524 NA 
HETATM   35  N   UNK A   0     -10.594  15.706  64.540  1.00  0.00    -0.682 NA 
HETATM   36  N   UNK A   0      -8.858  13.264  66.667  1.00  0.00    -0.424 NA 
HETATM   37  H2  UNK A   0      -9.910  13.634  63.233  1.00  0.00     0.000 HD 
HETATM   38  H2  UNK A   0     -10.932  18.813  65.436  1.00  0.00     0.000 HD 
ENDBRANCH  22  23
ENDBRANCH   2  22
TORSDOF 7
ENDMDL
MODEL      207
REMARK 921   NORMALIZED FREE ENERGY PREDICTED BY IDOCK:   -4.54 KCAL/MOL
REMARK 922        TOTAL FREE ENERGY PREDICTED BY IDOCK:   -8.15 KCAL/MOL
REMARK 923 INTER-LIGAND FREE ENERGY PREDICTED BY IDOCK:   -7.05 KCAL/MOL
REMARK 924 INTRA-LIGAND FREE ENERGY PREDICTED BY IDOCK:   -1.10 KCAL/MOL
REMARK 927      BINDING AFFINITY PREDICTED BY RF-SCORE:    0.00 PKD
ROOT
HETATM    1  C   UNK A   0      -5.165  13.526  70.570  1.00  0.00    -0.118 C  
HETATM    2  N   UNK A   0      -6.059  13.211  69.459  1.00  0.00    -0.107 NA 
ENDROOT
BRANCH   2   3
HETATM    3  C   UNK A   0      -6.686  11.971  69.419  1.00  0.00    -0.070 A  
HETATM    4  C   UNK A   0      -7.680   9.336  69.119  1.00  0.00    -0.078 A  
HETATM    5  C   UNK A   0      -7.726  11.675  68.520  1.00  0.00    -0.134 A  
HETATM    6  C   UNK A   0      -6.247  10.925  70.246  1.00  0.00    -0.141 A  
HETATM    7  C   UNK A   0      -6.722   9.619  70.092  1.00  0.00    -0.089 A  
HETATM    8  C   UNK A   0      -8.233  10.376  68.376  1.00  0.00    -0.114 A  
BRANCH   4   9
HETATM    9  C   UNK A   0      -8.100   7.938  68.854  1.00  0.00    -0.125 C  
HETATM   10  O   UNK A   0      -7.274   7.054  68.682  1.00  0.00    -0.088 OA 
ATOM     11  N   GLU A   1      -9.472   7.715  68.868  1.00  0.00    -0.149 N  
ATOM     12  H   GLU A   1     -10.120   8.498  68.946  1.00  0.00     0.000 HD 
BRANCH  11  13
ATOM     13  CA  GLU A   1      -9.980   6.334  68.769  1.00  0.00    -0.149 C  
ATOM     14  OXT GLU A   1     -10.789   5.005  66.879  1.00  0.00    -0.111 OA 
ATOM     15  C   GLU A   1     -10.556   6.105  67.359  1.00  0.00    -0.281 C  
ATOM     16  O   GLU A   1     -10.946   7.256  66.754  1.00  0.00    -0.284 OA 
BRANCH  13  17
ATOM     17  CB  GLU A   1     -11.070   6.092  69.825  1.00  0.00    -0.476 C  
BRANCH  17  18
ATOM     18  CG  GLU A   1     -10.732   6.702  71.188  1.00  0.00    -0.274 C  
ATOM     19  OE2 GLU A   1     -12.967   7.640  71.236  1.00  0.00    -0.313 OA 
ATOM     20  OE1 GLU A   1     -11.586   7.990  72.991  1.00  0.00    -0.346 OA 
ATOM     21  CD  GLU A   1     -11.883   7.481  71.774  1.00  0.00    -0.294 C  
ENDBRANCH  17  18
ENDBRANCH  13  17
ENDBRANCH  11  13
ENDBRANCH   4   9
ENDBRANCH   2   3
BRANCH   2  22
HETATM   22  C   UNK A   0      -5.933  14.012  68.229  1.00  0.00    -0.118 C  
BRANCH  22  23
HETATM   23  C   UNK A   0      -6.685  15.328  68.263  1.00  0.00    -0.121 A  
HETATM   24  N   UNK A   0     -10.642  15.555  69.696  1.00  0.00    -0.261 NA 
HETATM   25  C   UNK A   0      -8.038  17.722  68.361  1.00  0.00    -0.297 A  
HETATM   26  C   UNK A   0      -6.097  16.535  67.929  1.00  0.00    -0.129 A  
HETATM   27  N   UNK A   0      -8.687  18.882  68.347  1.00  0.00    -0.334 NA 
HETATM   28  C   UNK A   0      -9.951  16.651  69.156  1.00  0.00    -0.263 A  
HETATM   29  C   UNK A   0      -8.628  16.514  68.746  1.00  0.00    -0.262 A  
HETATM   30  N   UNK A   0      -6.756  17.722  67.974  1.00  0.00    -0.190 NA 
HETATM   31  C   UNK A   0      -9.964  18.879  68.708  1.00  0.00    -0.408 A  
HETATM   32  H1  UNK A   0     -10.130  14.673  69.700  1.00  0.00     0.000 HD 
HETATM   33  H1  UNK A   0     -11.634  20.067  68.918  1.00  0.00     0.000 HD 
HETATM   34  N   UNK A   0     -10.652  20.070  68.641  1.00  0.00    -0.419 NA 
HETATM   35  N   UNK A   0     -10.624  17.811  69.151  1.00  0.00    -0.370 NA 
HETATM   36  N   UNK A   0      -7.967  15.313  68.697  1.00  0.00    -0.140 NA 
HETATM   37  H2  UNK A   0     -11.537  15.438  69.221  1.00  0.00     0.000 HD 
HETATM   38  H2  UNK A   0     -10.196  20.926  68.324  1.00  0.00     0.000 HD 
ENDBRANCH  22  23
ENDBRANCH   2  22
TORSDOF 7
ENDMDL
MODEL      208
REMARK 921   NORMALIZED FREE ENERGY PREDICTED BY IDOCK:   -4.54 KCAL/MOL
REMARK 922        TOTAL FREE ENERGY PREDICTED BY IDOCK:   -8.14 KCAL/MOL
REMARK 923 INTER-LIGAND FREE ENERGY PREDICTED BY IDOCK:   -8.90 KCAL/MOL
REMARK 924 INTRA-LIGAND FREE ENERGY PREDICTED BY IDOCK:    0.76 KCAL/MOL
REMARK 927      BINDING AFFINITY PREDICTED BY RF-SCORE:    0.00 PKD
ROOT
HETATM    1  C   UNK A   0     -14.411   8.205  71.378  1.00  0.00    -0.365 C  
HETATM    2  N   UNK A   0     -13.355   9.004  71.993  1.00  0.00    -0.404 NA 
ENDROOT
BRANCH   2   3
HETATM    3  C   UNK A   0     -13.069  10.266  71.485  1.00  0.00    -0.433 A  
HETATM    4  C   UNK A   0     -12.145  12.792  70.598  1.00  0.00    -0.316 A  
HETATM    5  C   UNK A   0     -13.408  11.452  72.160  1.00  0.00    -0.271 A  
HETATM    6  C   UNK A   0     -12.353  10.403  70.285  1.00  0.00    -0.327 A  
HETATM    7  C   UNK A   0     -11.880  11.645  69.851  1.00  0.00    -0.434 A  
HETATM    8  C   UNK A   0     -12.967  12.707  71.718  1.00  0.00    -0.417 A  
BRANCH   4   9
HETATM    9  C   UNK A   0     -11.544  14.096  70.223  1.00  0.00    -0.201 C  
HETATM   10  O   UNK A   0     -11.513  15.026  71.014  1.00  0.00    -0.299 OA 
ATOM     11  N   GLU A   1     -10.991  14.151  68.949  1.00  0.00    -0.252 N  
ATOM     12  H   GLU A   1     -11.105  13.371  68.303  1.00  0.00     0.000 HD 
BRANCH  11  13
ATOM     13  CA  GLU A   1     -10.234  15.351  68.542  1.00  0.00    -0.219 C  
ATOM     14  OXT GLU A   1     -10.823  17.726  68.469  1.00  0.00    -0.224 OA 
ATOM     15  C   GLU A   1     -11.189  16.559  68.494  1.00  0.00    -0.296 C  
ATOM     16  O   GLU A   1     -12.484  16.203  68.306  1.00  0.00     0.642 OA 
BRANCH  13  17
ATOM     17  CB  GLU A   1      -9.595  15.134  67.162  1.00  0.00    -0.224 C  
BRANCH  17  18
ATOM     18  CG  GLU A   1     -10.580  15.336  66.006  1.00  0.00    -0.327 C  
ATOM     19  OE2 GLU A   1      -9.637  17.547  65.692  1.00  0.00    -0.510 OA 
ATOM     20  OE1 GLU A   1     -11.282  16.844  64.311  1.00  0.00    -1.204 OA 
ATOM     21  CD  GLU A   1     -10.431  16.685  65.350  1.00  0.00    -0.233 C  
ENDBRANCH  17  18
ENDBRANCH  13  17
ENDBRANCH  11  13
ENDBRANCH   4   9
ENDBRANCH   2   3
BRANCH   2  22
HETATM   22  C   UNK A   0     -12.360   8.303  72.823  1.00  0.00    -0.067 C  
BRANCH  22  23
HETATM   23  C   UNK A   0     -11.647   7.167  72.115  1.00  0.00    -0.279 A  
HETATM   24  N   UNK A   0     -10.800   3.540  74.087  1.00  0.00    -0.186 NA 
HETATM   25  C   UNK A   0     -10.387   5.093  70.819  1.00  0.00    -0.224 A  
HETATM   26  C   UNK A   0     -11.326   7.209  70.770  1.00  0.00    -0.289 A  
HETATM   27  N   UNK A   0      -9.729   4.127  70.186  1.00  0.00    -0.206 NA 
HETATM   28  C   UNK A   0     -10.392   3.820  72.773  1.00  0.00    -0.162 A  
HETATM   29  C   UNK A   0     -10.749   5.021  72.168  1.00  0.00    -0.159 A  
HETATM   30  N   UNK A   0     -10.704   6.190  70.121  1.00  0.00    -0.273 NA 
HETATM   31  C   UNK A   0      -9.393   3.049  70.883  1.00  0.00    -0.150 A  
HETATM   32  H1  UNK A   0     -11.304   4.291  74.559  1.00  0.00     0.000 HD 
HETATM   33  H1  UNK A   0      -8.406   1.244  70.779  1.00  0.00     0.000 HD 
HETATM   34  N   UNK A   0      -8.663   2.072  70.242  1.00  0.00    -0.058 NA 
HETATM   35  N   UNK A   0      -9.730   2.833  72.153  1.00  0.00    -0.142 NA 
HETATM   36  N   UNK A   0     -11.372   6.050  72.827  1.00  0.00    -0.397 NA 
HETATM   37  H2  UNK A   0      -9.998   3.251  74.647  1.00  0.00     0.000 HD 
HETATM   38  H2  UNK A   0      -8.390   2.174  69.265  1.00  0.00     0.000 HD 
ENDBRANCH  22  23
ENDBRANCH   2  22
TORSDOF 7
ENDMDL
MODEL      209
REMARK 921   NORMALIZED FREE ENERGY PREDICTED BY IDOCK:   -4.52 KCAL/MOL
REMARK 922        TOTAL FREE ENERGY PREDICTED BY IDOCK:   -8.12 KCAL/MOL
REMARK 923 INTER-LIGAND FREE ENERGY PREDICTED BY IDOCK:   -7.75 KCAL/MOL
REMARK 924 INTRA-LIGAND FREE ENERGY PREDICTED BY IDOCK:   -0.38 KCAL/MOL
REMARK 927      BINDING AFFINITY PREDICTED BY RF-SCORE:    0.00 PKD
ROOT
HETATM    1  C   UNK A   0     -11.179  12.362  63.486  1.00  0.00    -0.469 C  
HETATM    2  N   UNK A   0     -11.082  11.987  64.894  1.00  0.00    -0.309 NA 
ENDROOT
BRANCH   2   3
HETATM    3  C   UNK A   0     -10.513  10.767  65.238  1.00  0.00    -0.212 A  
HETATM    4  C   UNK A   0      -9.115   8.478  66.152  1.00  0.00    -0.245 A  
HETATM    5  C   UNK A   0      -9.552  10.123  64.438  1.00  0.00    -0.366 A  
HETATM    6  C   UNK A   0     -10.832  10.153  66.460  1.00  0.00    -0.043 A  
HETATM    7  C   UNK A   0     -10.135   9.034  66.924  1.00  0.00    -0.338 A  
HETATM    8  C   UNK A   0      -8.867   8.982  64.878  1.00  0.00    -0.190 A  
BRANCH   4   9
HETATM    9  C   UNK A   0      -8.280   7.373  66.683  1.00  0.00    -0.125 C  
HETATM   10  O   UNK A   0      -7.186   7.123  66.200  1.00  0.00    -0.071 OA 
ATOM     11  N   GLU A   1      -8.810   6.699  67.776  1.00  0.00    -0.115 N  
ATOM     12  H   GLU A   1      -9.757   6.900  68.096  1.00  0.00     0.000 HD 
BRANCH  11  13
ATOM     13  CA  GLU A   1      -7.988   5.689  68.470  1.00  0.00    -0.100 C  
ATOM     14  OXT GLU A   1      -7.860   3.252  68.279  1.00  0.00    -0.059 OA 
ATOM     15  C   GLU A   1      -8.494   4.282  68.099  1.00  0.00    -0.094 C  
ATOM     16  O   GLU A   1      -9.793   4.273  67.708  1.00  0.00    -0.151 OA 
BRANCH  13  17
ATOM     17  CB  GLU A   1      -8.070   5.891  69.991  1.00  0.00    -0.109 C  
BRANCH  17  18
ATOM     18  CG  GLU A   1      -7.189   4.912  70.774  1.00  0.00    -0.059 C  
ATOM     19  OE2 GLU A   1      -9.165   4.244  72.010  1.00  0.00    -0.118 OA 
ATOM     20  OE1 GLU A   1      -7.191   3.241  72.461  1.00  0.00    -0.044 OA 
ATOM     21  CD  GLU A   1      -7.970   4.124  71.795  1.00  0.00    -0.083 C  
ENDBRANCH  17  18
ENDBRANCH  13  17
ENDBRANCH  11  13
ENDBRANCH   4   9
ENDBRANCH   2   3
BRANCH   2  22
HETATM   22  C   UNK A   0     -11.956  12.688  65.851  1.00  0.00    -0.438 C  
BRANCH  22  23
HETATM   23  C   UNK A   0     -11.503  14.093  66.196  1.00  0.00    -0.347 A  
HETATM   24  N   UNK A   0     -11.078  15.340  70.200  1.00  0.00    -0.273 NA 
HETATM   25  C   UNK A   0     -10.643  16.630  66.823  1.00  0.00    -0.214 A  
HETATM   26  C   UNK A   0     -11.107  15.008  65.237  1.00  0.00    -0.386 A  
HETATM   27  N   UNK A   0     -10.278  17.879  67.098  1.00  0.00    -0.339 NA 
HETATM   28  C   UNK A   0     -10.886  16.190  69.100  1.00  0.00    -0.298 A  
HETATM   29  C   UNK A   0     -10.996  15.698  67.804  1.00  0.00    -0.316 A  
HETATM   30  N   UNK A   0     -10.681  16.264  65.536  1.00  0.00    -0.348 NA 
HETATM   31  C   UNK A   0     -10.264  18.251  68.371  1.00  0.00    -0.380 A  
HETATM   32  H1  UNK A   0     -11.357  14.385  69.972  1.00  0.00     0.000 HD 
HETATM   33  H1  UNK A   0      -9.928  19.845  69.633  1.00  0.00     0.000 HD 
HETATM   34  N   UNK A   0      -9.939  19.560  68.654  1.00  0.00    -0.431 NA 
HETATM   35  N   UNK A   0     -10.519  17.445  69.400  1.00  0.00    -0.342 NA 
HETATM   36  N   UNK A   0     -11.431  14.432  67.505  1.00  0.00    -0.331 NA 
HETATM   37  H2  UNK A   0     -11.746  15.753  70.850  1.00  0.00     0.000 HD 
HETATM   38  H2  UNK A   0      -9.718  20.221  67.909  1.00  0.00     0.000 HD 
ENDBRANCH  22  23
ENDBRANCH   2  22
TORSDOF 7
ENDMDL
MODEL      210
REMARK 921   NORMALIZED FREE ENERGY PREDICTED BY IDOCK:   -4.52 KCAL/MOL
REMARK 922        TOTAL FREE ENERGY PREDICTED BY IDOCK:   -8.12 KCAL/MOL
REMARK 923 INTER-LIGAND FREE ENERGY PREDICTED BY IDOCK:   -7.87 KCAL/MOL
REMARK 924 INTRA-LIGAND FREE ENERGY PREDICTED BY IDOCK:   -0.25 KCAL/MOL
REMARK 927      BINDING AFFINITY PREDICTED BY RF-SCORE:    0.00 PKD
ROOT
HETATM    1  C   UNK A   0      -8.959   8.949  70.790  1.00  0.00    -0.209 C  
HETATM    2  N   UNK A   0     -10.019   9.125  69.801  1.00  0.00    -0.184 NA 
ENDROOT
BRANCH   2   3
HETATM    3  C   UNK A   0     -10.287  10.397  69.308  1.00  0.00    -0.230 A  
HETATM    4  C   UNK A   0     -11.053  12.817  68.050  1.00  0.00    -0.284 A  
HETATM    5  C   UNK A   0      -9.439  11.055  68.400  1.00  0.00    -0.182 A  
HETATM    6  C   UNK A   0     -11.478  11.056  69.652  1.00  0.00    -0.375 A  
HETATM    7  C   UNK A   0     -11.869  12.241  69.023  1.00  0.00    -0.358 A  
HETATM    8  C   UNK A   0      -9.805  12.260  67.785  1.00  0.00    -0.201 A  
BRANCH   4   9
HETATM    9  C   UNK A   0     -11.510  14.000  67.282  1.00  0.00    -0.348 C  
HETATM   10  O   UNK A   0     -12.483  13.936  66.546  1.00  0.00    -0.424 OA 
ATOM     11  N   GLU A   1     -10.788  15.167  67.501  1.00  0.00    -0.293 N  
ATOM     12  H   GLU A   1      -9.941  15.151  68.070  1.00  0.00     0.000 HD 
BRANCH  11  13
ATOM     13  CA  GLU A   1     -11.259  16.431  66.903  1.00  0.00     0.240 C  
ATOM     14  OXT GLU A   1     -11.117  17.336  64.633  1.00  0.00    -1.052 OA 
ATOM     15  C   GLU A   1     -10.693  16.559  65.476  1.00  0.00    -0.256 C  
ATOM     16  O   GLU A   1      -9.554  15.844  65.293  1.00  0.00    -0.354 OA 
BRANCH  13  17
ATOM     17  CB  GLU A   1     -10.803  17.625  67.756  1.00  0.00    -0.241 C  
BRANCH  17  18
ATOM     18  CG  GLU A   1      -9.282  17.806  67.771  1.00  0.00    -0.256 C  
ATOM     19  OE2 GLU A   1      -9.605  19.751  69.182  1.00  0.00    -0.333 OA 
ATOM     20  OE1 GLU A   1      -7.505  19.126  68.630  1.00  0.00    -0.307 OA 
ATOM     21  CD  GLU A   1      -8.850  18.991  68.596  1.00  0.00    -0.352 C  
ENDBRANCH  17  18
ENDBRANCH  13  17
ENDBRANCH  11  13
ENDBRANCH   4   9
ENDBRANCH   2   3
BRANCH   2  22
HETATM   22  C   UNK A   0     -11.033   8.062  69.686  1.00  0.00    -0.101 C  
BRANCH  22  23
HETATM   23  C   UNK A   0     -10.739   6.828  70.517  1.00  0.00    -0.238 A  
HETATM   24  N   UNK A   0      -7.614   4.190  69.499  1.00  0.00    -0.053 NA 
HETATM   25  C   UNK A   0     -10.181   4.611  72.047  1.00  0.00    -0.190 A  
HETATM   26  C   UNK A   0     -11.399   6.549  71.701  1.00  0.00    -0.285 A  
HETATM   27  N   UNK A   0      -9.967   3.517  72.773  1.00  0.00    -0.147 NA 
HETATM   28  C   UNK A   0      -8.496   3.969  70.569  1.00  0.00    -0.069 A  
HETATM   29  C   UNK A   0      -9.475   4.908  70.877  1.00  0.00    -0.165 A  
HETATM   30  N   UNK A   0     -11.131   5.457  72.463  1.00  0.00    -0.256 NA 
HETATM   31  C   UNK A   0      -9.043   2.666  72.349  1.00  0.00    -0.083 A  
HETATM   32  H1  UNK A   0      -7.791   5.033  68.952  1.00  0.00     0.000 HD 
HETATM   33  H1  UNK A   0      -8.148   0.852  72.742  1.00  0.00     0.000 HD 
HETATM   34  N   UNK A   0      -8.859   1.506  73.069  1.00  0.00    -0.061 NA 
HETATM   35  N   UNK A   0      -8.263   2.861  71.287  1.00  0.00    -0.061 NA 
HETATM   36  N   UNK A   0      -9.747   6.007  70.102  1.00  0.00    -0.164 NA 
HETATM   37  H2  UNK A   0      -7.595   3.374  68.887  1.00  0.00     0.000 HD 
HETATM   38  H2  UNK A   0      -9.416   1.309  73.901  1.00  0.00     0.000 HD 
ENDBRANCH  22  23
ENDBRANCH   2  22
TORSDOF 7
ENDMDL
MODEL      211
REMARK 921   NORMALIZED FREE ENERGY PREDICTED BY IDOCK:   -4.52 KCAL/MOL
REMARK 922        TOTAL FREE ENERGY PREDICTED BY IDOCK:   -8.12 KCAL/MOL
REMARK 923 INTER-LIGAND FREE ENERGY PREDICTED BY IDOCK:   -7.29 KCAL/MOL
REMARK 924 INTRA-LIGAND FREE ENERGY PREDICTED BY IDOCK:   -0.83 KCAL/MOL
REMARK 927      BINDING AFFINITY PREDICTED BY RF-SCORE:    0.00 PKD
ROOT
HETATM    1  C   UNK A   0     -11.795  11.818  68.453  1.00  0.00    -0.282 C  
HETATM    2  N   UNK A   0     -10.409  11.518  68.108  1.00  0.00    -0.188 NA 
ENDROOT
BRANCH   2   3
HETATM    3  C   UNK A   0     -10.006  10.193  67.985  1.00  0.00    -0.148 A  
HETATM    4  C   UNK A   0      -8.948   7.616  67.474  1.00  0.00    -0.128 A  
HETATM    5  C   UNK A   0     -10.693   9.261  67.188  1.00  0.00    -0.222 A  
HETATM    6  C   UNK A   0      -8.832   9.747  68.612  1.00  0.00    -0.126 A  
HETATM    7  C   UNK A   0      -8.296   8.482  68.351  1.00  0.00    -0.124 A  
HETATM    8  C   UNK A   0     -10.183   7.979  66.943  1.00  0.00    -0.385 A  
BRANCH   4   9
HETATM    9  C   UNK A   0      -8.330   6.325  67.085  1.00  0.00    -0.109 C  
HETATM   10  O   UNK A   0      -7.668   5.677  67.883  1.00  0.00    -0.090 OA 
ATOM     11  N   GLU A   1      -8.599   5.902  65.789  1.00  0.00    -0.150 N  
ATOM     12  H   GLU A   1      -9.097   6.512  65.141  1.00  0.00     0.000 HD 
BRANCH  11  13
ATOM     13  CA  GLU A   1      -8.159   4.560  65.361  1.00  0.00    -0.102 C  
ATOM     14  OXT GLU A   1      -6.954   3.775  63.380  1.00  0.00    -0.042 OA 
ATOM     15  C   GLU A   1      -7.638   4.637  63.913  1.00  0.00    -0.071 C  
ATOM     16  O   GLU A   1      -8.158   5.680  63.218  1.00  0.00    -0.098 OA 
BRANCH  13  17
ATOM     17  CB  GLU A   1      -9.326   3.565  65.446  1.00  0.00    -0.158 C  
BRANCH  17  18
ATOM     18  CG  GLU A   1     -10.375   3.776  64.350  1.00  0.00    -0.235 C  
ATOM     19  OE2 GLU A   1      -9.912   1.524  63.581  1.00  0.00    -0.123 OA 
ATOM     20  OE1 GLU A   1     -11.492   2.746  62.524  1.00  0.00    -0.066 OA 
ATOM     21  CD  GLU A   1     -10.542   2.563  63.470  1.00  0.00    -0.188 C  
ENDBRANCH  17  18
ENDBRANCH  13  17
ENDBRANCH  11  13
ENDBRANCH   4   9
ENDBRANCH   2   3
BRANCH   2  22
HETATM   22  C   UNK A   0      -9.404  12.575  68.324  1.00  0.00    -0.193 C  
BRANCH  22  23
HETATM   23  C   UNK A   0      -9.648  13.839  67.523  1.00  0.00    -0.219 A  
HETATM   24  N   UNK A   0     -10.452  17.516  69.420  1.00  0.00    -0.347 NA 
HETATM   25  C   UNK A   0     -10.052  16.141  66.072  1.00  0.00    -0.351 A  
HETATM   26  C   UNK A   0      -9.522  13.889  66.146  1.00  0.00    -0.171 A  
HETATM   27  N   UNK A   0     -10.297  17.228  65.345  1.00  0.00    -0.639 NA 
HETATM   28  C   UNK A   0     -10.458  17.347  68.026  1.00  0.00    -0.383 A  
HETATM   29  C   UNK A   0     -10.136  16.114  67.468  1.00  0.00    -0.256 A  
HETATM   30  N   UNK A   0      -9.720  15.020  65.420  1.00  0.00    -0.421 NA 
HETATM   31  C   UNK A   0     -10.650  18.333  65.988  1.00  0.00    -0.296 A  
HETATM   32  H1  UNK A   0     -10.262  16.674  69.963  1.00  0.00     0.000 HD 
HETATM   33  H1  UNK A   0     -11.230  20.293  65.728  1.00  0.00     0.000 HD 
HETATM   34  N   UNK A   0     -10.958  19.444  65.234  1.00  0.00    -0.368 NA 
HETATM   35  N   UNK A   0     -10.708  18.454  67.313  1.00  0.00    -0.395 NA 
HETATM   36  N   UNK A   0      -9.942  14.972  68.203  1.00  0.00    -0.218 NA 
HETATM   37  H2  UNK A   0     -11.329  17.938  69.725  1.00  0.00     0.000 HD 
HETATM   38  H2  UNK A   0     -10.916  19.417  64.215  1.00  0.00     0.000 HD 
ENDBRANCH  22  23
ENDBRANCH   2  22
TORSDOF 7
ENDMDL
MODEL      212
REMARK 921   NORMALIZED FREE ENERGY PREDICTED BY IDOCK:   -4.50 KCAL/MOL
REMARK 922        TOTAL FREE ENERGY PREDICTED BY IDOCK:   -8.09 KCAL/MOL
REMARK 923 INTER-LIGAND FREE ENERGY PREDICTED BY IDOCK:   -7.21 KCAL/MOL
REMARK 924 INTRA-LIGAND FREE ENERGY PREDICTED BY IDOCK:   -0.87 KCAL/MOL
REMARK 927      BINDING AFFINITY PREDICTED BY RF-SCORE:    0.00 PKD
ROOT
HETATM    1  C   UNK A   0      -8.807  13.329  66.850  1.00  0.00    -0.178 C  
HETATM    2  N   UNK A   0      -7.773  12.944  67.807  1.00  0.00    -0.136 NA 
ENDROOT
BRANCH   2   3
HETATM    3  C   UNK A   0      -7.928  11.777  68.546  1.00  0.00    -0.145 A  
HETATM    4  C   UNK A   0      -8.431   9.609  70.299  1.00  0.00    -0.221 A  
HETATM    5  C   UNK A   0      -6.944  11.303  69.432  1.00  0.00    -0.109 A  
HETATM    6  C   UNK A   0      -9.128  11.051  68.487  1.00  0.00    -0.173 A  
HETATM    7  C   UNK A   0      -9.389   9.992  69.360  1.00  0.00    -0.237 A  
HETATM    8  C   UNK A   0      -7.181  10.222  70.292  1.00  0.00    -0.077 A  
BRANCH   4   9
HETATM    9  C   UNK A   0      -8.739   8.576  71.317  1.00  0.00    -0.181 C  
HETATM   10  O   UNK A   0      -8.520   8.774  72.503  1.00  0.00    -0.403 OA 
ATOM     11  N   GLU A   1      -9.327   7.415  70.828  1.00  0.00    -0.160 N  
ATOM     12  H   GLU A   1      -9.423   7.270  69.823  1.00  0.00     0.000 HD 
BRANCH  11  13
ATOM     13  CA  GLU A   1      -9.811   6.395  71.778  1.00  0.00    -0.162 C  
ATOM     14  OXT GLU A   1      -8.778   4.374  72.695  1.00  0.00    -0.108 OA 
ATOM     15  C   GLU A   1      -8.810   5.224  71.817  1.00  0.00    -0.135 C  
ATOM     16  O   GLU A   1      -8.069   5.123  70.684  1.00  0.00    -0.101 OA 
BRANCH  13  17
ATOM     17  CB  GLU A   1     -11.196   5.885  71.351  1.00  0.00    -0.285 C  
BRANCH  17  18
ATOM     18  CG  GLU A   1     -12.337   6.485  72.177  1.00  0.00    -0.244 C  
ATOM     19  OE2 GLU A   1     -12.239   8.442  70.750  1.00  0.00    -0.168 OA 
ATOM     20  OE1 GLU A   1     -13.779   8.359  72.401  1.00  0.00    -0.292 OA 
ATOM     21  CD  GLU A   1     -12.751   7.849  71.686  1.00  0.00    -0.330 C  
ENDBRANCH  17  18
ENDBRANCH  13  17
ENDBRANCH  11  13
ENDBRANCH   4   9
ENDBRANCH   2   3
BRANCH   2  22
HETATM   22  C   UNK A   0      -6.842  13.989  68.268  1.00  0.00    -0.108 C  
BRANCH  22  23
HETATM   23  C   UNK A   0      -7.252  15.399  67.889  1.00  0.00    -0.145 A  
HETATM   24  N   UNK A   0     -10.593  17.261  69.662  1.00  0.00    -0.290 NA 
HETATM   25  C   UNK A   0      -7.974  17.971  67.233  1.00  0.00    -0.212 A  
HETATM   26  C   UNK A   0      -6.510  16.190  67.030  1.00  0.00    -0.074 A  
HETATM   27  N   UNK A   0      -8.333  19.195  66.857  1.00  0.00    -0.275 NA 
HETATM   28  C   UNK A   0      -9.826  17.852  68.644  1.00  0.00    -0.374 A  
HETATM   29  C   UNK A   0      -8.707  17.199  68.139  1.00  0.00    -0.232 A  
HETATM   30  N   UNK A   0      -6.857  17.461  66.699  1.00  0.00    -0.207 NA 
HETATM   31  C   UNK A   0      -9.452  19.693  67.366  1.00  0.00    -0.329 A  
HETATM   32  H1  UNK A   0     -10.304  16.322  69.938  1.00  0.00     0.000 HD 
HETATM   33  H1  UNK A   0     -10.716  21.321  67.328  1.00  0.00     0.000 HD 
HETATM   34  N   UNK A   0      -9.855  20.939  66.936  1.00  0.00    -0.564 NA 
HETATM   35  N   UNK A   0     -10.206  19.085  68.281  1.00  0.00    -0.386 NA 
HETATM   36  N   UNK A   0      -8.361  15.913  68.471  1.00  0.00    -0.173 NA 
HETATM   37  H2  UNK A   0     -11.579  17.261  69.402  1.00  0.00     0.000 HD 
HETATM   38  H2  UNK A   0      -9.310  21.460  66.249  1.00  0.00     0.000 HD 
ENDBRANCH  22  23
ENDBRANCH   2  22
TORSDOF 7
ENDMDL
MODEL      213
REMARK 921   NORMALIZED FREE ENERGY PREDICTED BY IDOCK:   -4.50 KCAL/MOL
REMARK 922        TOTAL FREE ENERGY PREDICTED BY IDOCK:   -8.09 KCAL/MOL
REMARK 923 INTER-LIGAND FREE ENERGY PREDICTED BY IDOCK:   -7.26 KCAL/MOL
REMARK 924 INTRA-LIGAND FREE ENERGY PREDICTED BY IDOCK:   -0.83 KCAL/MOL
REMARK 927      BINDING AFFINITY PREDICTED BY RF-SCORE:    0.00 PKD
ROOT
HETATM    1  C   UNK A   0      -8.564   8.117  64.603  1.00  0.00     0.062 C  
HETATM    2  N   UNK A   0      -8.583   8.755  65.916  1.00  0.00    -0.144 NA 
ENDROOT
BRANCH   2   3
HETATM    3  C   UNK A   0      -9.399   9.860  66.127  1.00  0.00    -0.181 A  
HETATM    4  C   UNK A   0     -10.806  12.223  66.806  1.00  0.00    -0.291 A  
HETATM    5  C   UNK A   0     -10.504   9.835  66.997  1.00  0.00    -0.295 A  
HETATM    6  C   UNK A   0      -9.101  11.090  65.518  1.00  0.00    -0.225 A  
HETATM    7  C   UNK A   0      -9.780  12.262  65.861  1.00  0.00    -0.247 A  
HETATM    8  C   UNK A   0     -11.213  10.998  67.326  1.00  0.00    -0.330 A  
BRANCH   4   9
HETATM    9  C   UNK A   0     -11.449  13.474  67.277  1.00  0.00    -0.339 C  
HETATM   10  O   UNK A   0     -12.260  14.066  66.581  1.00  0.00    -0.442 OA 
ATOM     11  N   GLU A   1     -11.098  13.877  68.560  1.00  0.00    -0.253 N  
ATOM     12  H   GLU A   1     -10.364  13.388  69.071  1.00  0.00     0.000 HD 
BRANCH  11  13
ATOM     13  CA  GLU A   1     -11.800  15.020  69.175  1.00  0.00    -0.308 C  
ATOM     14  OXT GLU A   1     -10.995  17.090  70.204  1.00  0.00    -0.047 OA 
ATOM     15  C   GLU A   1     -10.769  15.939  69.858  1.00  0.00    -0.334 C  
ATOM     16  O   GLU A   1      -9.628  15.291  70.202  1.00  0.00    -0.100 OA 
BRANCH  13  17
ATOM     17  CB  GLU A   1     -12.823  14.522  70.208  1.00  0.00    -0.249 C  
BRANCH  17  18
ATOM     18  CG  GLU A   1     -12.202  14.239  71.579  1.00  0.00    -0.378 C  
ATOM     19  OE2 GLU A   1     -14.030  15.480  72.577  1.00  0.00    -0.538 OA 
ATOM     20  OE1 GLU A   1     -12.469  14.547  73.919  1.00  0.00    -0.415 OA 
ATOM     21  CD  GLU A   1     -13.007  14.828  72.710  1.00  0.00    -0.459 C  
ENDBRANCH  17  18
ENDBRANCH  13  17
ENDBRANCH  11  13
ENDBRANCH   4   9
ENDBRANCH   2   3
BRANCH   2  22
HETATM   22  C   UNK A   0      -7.450   8.494  66.822  1.00  0.00    -0.083 C  
BRANCH  22  23
HETATM   23  C   UNK A   0      -7.854   8.037  68.210  1.00  0.00    -0.123 A  
HETATM   24  N   UNK A   0      -9.849   4.375  68.820  1.00  0.00    -0.123 NA 
HETATM   25  C   UNK A   0      -8.554   7.190  70.732  1.00  0.00    -0.146 A  
HETATM   26  C   UNK A   0      -7.509   8.732  69.356  1.00  0.00    -0.080 A  
HETATM   27  N   UNK A   0      -8.930   6.831  71.956  1.00  0.00    -0.138 NA 
HETATM   28  C   UNK A   0      -9.573   5.287  69.851  1.00  0.00    -0.177 A  
HETATM   29  C   UNK A   0      -8.868   6.456  69.584  1.00  0.00    -0.137 A  
HETATM   30  N   UNK A   0      -7.850   8.322  70.606  1.00  0.00    -0.087 NA 
HETATM   31  C   UNK A   0      -9.648   5.722  72.080  1.00  0.00    -0.150 A  
HETATM   32  H1  UNK A   0      -9.555   4.666  67.887  1.00  0.00     0.000 HD 
HETATM   33  H1  UNK A   0     -10.637   4.525  73.435  1.00  0.00     0.000 HD 
HETATM   34  N   UNK A   0     -10.084   5.378  73.340  1.00  0.00    -0.173 NA 
HETATM   35  N   UNK A   0      -9.961   4.905  71.076  1.00  0.00    -0.201 NA 
HETATM   36  N   UNK A   0      -8.529   6.870  68.320  1.00  0.00    -0.125 NA 
HETATM   37  H2  UNK A   0     -10.842   4.142  68.816  1.00  0.00     0.000 HD 
HETATM   38  H2  UNK A   0      -9.862   5.956  74.151  1.00  0.00     0.000 HD 
ENDBRANCH  22  23
ENDBRANCH   2  22
TORSDOF 7
ENDMDL
MODEL      214
REMARK 921   NORMALIZED FREE ENERGY PREDICTED BY IDOCK:   -4.49 KCAL/MOL
REMARK 922        TOTAL FREE ENERGY PREDICTED BY IDOCK:   -8.08 KCAL/MOL
REMARK 923 INTER-LIGAND FREE ENERGY PREDICTED BY IDOCK:   -6.99 KCAL/MOL
REMARK 924 INTRA-LIGAND FREE ENERGY PREDICTED BY IDOCK:   -1.09 KCAL/MOL
REMARK 927      BINDING AFFINITY PREDICTED BY RF-SCORE:    0.00 PKD
ROOT
HETATM    1  C   UNK A   0      -8.123   8.251  65.529  1.00  0.00    -0.128 C  
HETATM    2  N   UNK A   0      -9.343   8.749  66.158  1.00  0.00    -0.217 NA 
ENDROOT
BRANCH   2   3
HETATM    3  C   UNK A   0      -9.530  10.120  66.293  1.00  0.00    -0.180 A  
HETATM    4  C   UNK A   0      -9.954  12.846  66.935  1.00  0.00    -0.238 A  
HETATM    5  C   UNK A   0     -10.774  10.741  66.083  1.00  0.00    -0.187 A  
HETATM    6  C   UNK A   0      -8.477  10.943  66.723  1.00  0.00    -0.139 A  
HETATM    7  C   UNK A   0      -8.683  12.284  67.057  1.00  0.00    -0.199 A  
HETATM    8  C   UNK A   0     -10.987  12.093  66.384  1.00  0.00    -0.327 A  
BRANCH   4   9
HETATM    9  C   UNK A   0     -10.219  14.228  67.405  1.00  0.00    -0.247 C  
HETATM   10  O   UNK A   0     -10.967  14.440  68.348  1.00  0.00    -0.235 OA 
ATOM     11  N   GLU A   1      -9.527  15.229  66.734  1.00  0.00    -0.232 N  
ATOM     12  H   GLU A   1      -8.970  15.006  65.909  1.00  0.00     0.000 HD 
BRANCH  11  13
ATOM     13  CA  GLU A   1      -9.604  16.617  67.228  1.00  0.00    -0.243 C  
ATOM     14  OXT GLU A   1     -10.867  18.570  66.466  1.00  0.00    -0.270 OA 
ATOM     15  C   GLU A   1     -10.394  17.470  66.218  1.00  0.00    -0.335 C  
ATOM     16  O   GLU A   1     -10.369  16.961  64.960  1.00  0.00    -0.596 OA 
BRANCH  13  17
ATOM     17  CB  GLU A   1      -8.193  17.195  67.412  1.00  0.00    -0.197 C  
BRANCH  17  18
ATOM     18  CG  GLU A   1      -7.352  17.145  66.133  1.00  0.00    -0.281 C  
ATOM     19  OE2 GLU A   1      -6.654  19.421  66.596  1.00  0.00    -0.187 OA 
ATOM     20  OE1 GLU A   1      -5.838  18.367  64.771  1.00  0.00    -0.186 OA 
ATOM     21  CD  GLU A   1      -6.602  18.429  65.885  1.00  0.00    -0.271 C  
ENDBRANCH  17  18
ENDBRANCH  13  17
ENDBRANCH  11  13
ENDBRANCH   4   9
ENDBRANCH   2   3
BRANCH   2  22
HETATM   22  C   UNK A   0     -10.111   7.815  67.001  1.00  0.00    -0.273 C  
BRANCH  22  23
HETATM   23  C   UNK A   0      -9.885   7.990  68.490  1.00  0.00    -0.174 A  
HETATM   24  N   UNK A   0      -6.019   7.799  70.159  1.00  0.00    -0.023 NA 
HETATM   25  C   UNK A   0      -9.470   8.344  71.186  1.00  0.00    -0.179 A  
HETATM   26  C   UNK A   0     -10.902   8.319  69.367  1.00  0.00    -0.084 A  
HETATM   27  N   UNK A   0      -9.303   8.465  72.500  1.00  0.00    -0.272 NA 
HETATM   28  C   UNK A   0      -7.186   7.954  70.924  1.00  0.00    -0.053 A  
HETATM   29  C   UNK A   0      -8.426   8.057  70.301  1.00  0.00    -0.127 A  
HETATM   30  N   UNK A   0     -10.708   8.496  70.700  1.00  0.00    -0.214 NA 
HETATM   31  C   UNK A   0      -8.081   8.290  72.985  1.00  0.00    -0.149 A  
HETATM   32  H1  UNK A   0      -6.164   7.708  69.153  1.00  0.00     0.000 HD 
HETATM   33  H1  UNK A   0      -6.977   8.226  74.724  1.00  0.00     0.000 HD 
HETATM   34  N   UNK A   0      -7.917   8.361  74.351  1.00  0.00    -0.336 NA 
HETATM   35  N   UNK A   0      -6.995   8.073  72.246  1.00  0.00    -0.076 NA 
HETATM   36  N   UNK A   0      -8.620   7.873  68.956  1.00  0.00    -0.134 NA 
HETATM   37  H2  UNK A   0      -5.475   7.009  70.506  1.00  0.00     0.000 HD 
HETATM   38  H2  UNK A   0      -8.709   8.541  74.969  1.00  0.00     0.000 HD 
ENDBRANCH  22  23
ENDBRANCH   2  22
TORSDOF 7
ENDMDL
MODEL      215
REMARK 921   NORMALIZED FREE ENERGY PREDICTED BY IDOCK:   -4.47 KCAL/MOL
REMARK 922        TOTAL FREE ENERGY PREDICTED BY IDOCK:   -8.04 KCAL/MOL
REMARK 923 INTER-LIGAND FREE ENERGY PREDICTED BY IDOCK:   -6.43 KCAL/MOL
REMARK 924 INTRA-LIGAND FREE ENERGY PREDICTED BY IDOCK:   -1.61 KCAL/MOL
REMARK 927      BINDING AFFINITY PREDICTED BY RF-SCORE:    0.00 PKD
ROOT
HETATM    1  C   UNK A   0      -9.337  10.459  63.518  1.00  0.00    -0.297 C  
HETATM    2  N   UNK A   0      -8.937   9.500  64.544  1.00  0.00    -0.269 NA 
ENDROOT
BRANCH   2   3
HETATM    3  C   UNK A   0      -9.326   9.709  65.862  1.00  0.00    -0.218 A  
HETATM    4  C   UNK A   0      -9.941   9.813  68.626  1.00  0.00    -0.181 A  
HETATM    5  C   UNK A   0     -10.591   9.333  66.350  1.00  0.00    -0.037 A  
HETATM    6  C   UNK A   0      -8.425  10.250  66.793  1.00  0.00    -0.123 A  
HETATM    7  C   UNK A   0      -8.715  10.289  68.159  1.00  0.00    -0.123 A  
HETATM    8  C   UNK A   0     -10.907   9.396  67.714  1.00  0.00    -0.223 A  
BRANCH   4   9
HETATM    9  C   UNK A   0     -10.215   9.727  70.081  1.00  0.00    -0.275 C  
HETATM   10  O   UNK A   0     -11.078  10.418  70.601  1.00  0.00    -0.313 OA 
ATOM     11  N   GLU A   1      -9.465   8.784  70.773  1.00  0.00    -0.189 N  
ATOM     12  H   GLU A   1      -8.709   8.283  70.307  1.00  0.00     0.000 HD 
BRANCH  11  13
ATOM     13  CA  GLU A   1      -9.773   8.515  72.191  1.00  0.00    -0.317 C  
ATOM     14  OXT GLU A   1      -8.362   8.366  74.186  1.00  0.00    -0.266 OA 
ATOM     15  C   GLU A   1      -8.457   8.322  72.967  1.00  0.00    -0.195 C  
ATOM     16  O   GLU A   1      -7.429   7.922  72.176  1.00  0.00    -0.073 OA 
BRANCH  13  17
ATOM     17  CB  GLU A   1     -10.644   7.256  72.316  1.00  0.00    -0.257 C  
BRANCH  17  18
ATOM     18  CG  GLU A   1      -9.839   5.957  72.221  1.00  0.00    -0.182 C  
ATOM     19  OE2 GLU A   1     -10.435   5.851  69.873  1.00  0.00    -0.218 OA 
ATOM     20  OE1 GLU A   1      -9.108   4.244  70.747  1.00  0.00    -0.098 OA 
ATOM     21  CD  GLU A   1      -9.846   5.374  70.830  1.00  0.00    -0.188 C  
ENDBRANCH  17  18
ENDBRANCH  13  17
ENDBRANCH  11  13
ENDBRANCH   4   9
ENDBRANCH   2   3
BRANCH   2  22
HETATM   22  C   UNK A   0      -7.803   8.608  64.245  1.00  0.00    -0.140 C  
BRANCH  22  23
HETATM   23  C   UNK A   0      -7.778   7.334  65.068  1.00  0.00    -0.115 A  
HETATM   24  N   UNK A   0     -10.773   4.398  64.654  1.00  0.00    -0.540 NA 
HETATM   25  C   UNK A   0      -7.713   5.007  66.532  1.00  0.00    -0.092 A  
HETATM   26  C   UNK A   0      -6.734   7.013  65.917  1.00  0.00    -0.052 A  
HETATM   27  N   UNK A   0      -7.687   3.915  67.291  1.00  0.00    -0.079 NA 
HETATM   28  C   UNK A   0      -9.732   4.315  65.593  1.00  0.00    -0.205 A  
HETATM   29  C   UNK A   0      -8.750   5.299  65.641  1.00  0.00    -0.146 A  
HETATM   30  N   UNK A   0      -6.693   5.866  66.645  1.00  0.00    -0.056 NA 
HETATM   31  C   UNK A   0      -8.709   3.075  67.198  1.00  0.00    -0.125 A  
HETATM   32  H1  UNK A   0     -10.778   5.241  64.079  1.00  0.00     0.000 HD 
HETATM   33  H1  UNK A   0      -9.497   1.326  67.953  1.00  0.00     0.000 HD 
HETATM   34  N   UNK A   0      -8.710   1.972  68.024  1.00  0.00    -0.082 NA 
HETATM   35  N   UNK A   0      -9.725   3.208  66.348  1.00  0.00    -0.407 NA 
HETATM   36  N   UNK A   0      -8.797   6.459  64.909  1.00  0.00    -0.345 NA 
HETATM   37  H2  UNK A   0     -11.673   4.286  65.119  1.00  0.00     0.000 HD 
HETATM   38  H2  UNK A   0      -7.950   1.808  68.685  1.00  0.00     0.000 HD 
ENDBRANCH  22  23
ENDBRANCH   2  22
TORSDOF 7
ENDMDL
MODEL      216
REMARK 921   NORMALIZED FREE ENERGY PREDICTED BY IDOCK:   -4.47 KCAL/MOL
REMARK 922        TOTAL FREE ENERGY PREDICTED BY IDOCK:   -8.04 KCAL/MOL
REMARK 923 INTER-LIGAND FREE ENERGY PREDICTED BY IDOCK:   -7.48 KCAL/MOL
REMARK 924 INTRA-LIGAND FREE ENERGY PREDICTED BY IDOCK:   -0.56 KCAL/MOL
REMARK 927      BINDING AFFINITY PREDICTED BY RF-SCORE:    0.00 PKD
ROOT
HETATM    1  C   UNK A   0      -9.173  11.245  65.274  1.00  0.00    -0.172 C  
HETATM    2  N   UNK A   0      -8.548  11.230  66.593  1.00  0.00    -0.162 NA 
ENDROOT
BRANCH   2   3
HETATM    3  C   UNK A   0      -8.325  12.431  67.256  1.00  0.00    -0.184 A  
HETATM    4  C   UNK A   0      -8.000  15.045  68.298  1.00  0.00    -0.128 A  
HETATM    5  C   UNK A   0      -7.068  13.061  67.286  1.00  0.00    -0.055 A  
HETATM    6  C   UNK A   0      -9.387  13.110  67.875  1.00  0.00    -0.215 A  
HETATM    7  C   UNK A   0      -9.237  14.406  68.376  1.00  0.00    -0.195 A  
HETATM    8  C   UNK A   0      -6.897  14.348  67.813  1.00  0.00    -0.194 A  
BRANCH   4   9
HETATM    9  C   UNK A   0      -7.853  16.464  68.706  1.00  0.00    -0.220 C  
HETATM   10  O   UNK A   0      -7.148  16.778  69.652  1.00  0.00    -0.136 OA 
ATOM     11  N   GLU A   1      -8.527  17.384  67.911  1.00  0.00    -0.223 N  
ATOM     12  H   GLU A   1      -9.159  17.065  67.177  1.00  0.00     0.000 HD 
BRANCH  11  13
ATOM     13  CA  GLU A   1      -8.319  18.826  68.141  1.00  0.00    -0.306 C  
ATOM     14  OXT GLU A   1      -9.494  20.813  67.326  1.00  0.00    -0.432 OA 
ATOM     15  C   GLU A   1      -9.228  19.627  67.190  1.00  0.00    -0.332 C  
ATOM     16  O   GLU A   1      -9.573  18.932  66.077  1.00  0.00    -0.468 OA 
BRANCH  13  17
ATOM     17  CB  GLU A   1      -6.849  19.197  67.896  1.00  0.00    -0.247 C  
BRANCH  17  18
ATOM     18  CG  GLU A   1      -6.555  19.553  66.435  1.00  0.00    -0.196 C  
ATOM     19  OE2 GLU A   1      -5.402  17.431  66.230  1.00  0.00    -0.179 OA 
ATOM     20  OE1 GLU A   1      -5.554  18.782  64.425  1.00  0.00    -0.246 OA 
ATOM     21  CD  GLU A   1      -5.782  18.473  65.722  1.00  0.00    -0.187 C  
ENDBRANCH  17  18
ENDBRANCH  13  17
ENDBRANCH  11  13
ENDBRANCH   4   9
ENDBRANCH   2   3
BRANCH   2  22
HETATM   22  C   UNK A   0      -7.796  10.024  66.983  1.00  0.00    -0.102 C  
BRANCH  22  23
HETATM   23  C   UNK A   0      -8.322   9.337  68.228  1.00  0.00    -0.120 A  
HETATM   24  N   UNK A   0     -12.028  10.411  69.925  1.00  0.00    -0.431 NA 
HETATM   25  C   UNK A   0      -9.296   8.065  70.465  1.00  0.00    -0.155 A  
HETATM   26  C   UNK A   0      -7.681   8.262  68.817  1.00  0.00    -0.114 A  
HETATM   27  N   UNK A   0      -9.718   7.471  71.577  1.00  0.00    -0.166 NA 
HETATM   28  C   UNK A   0     -11.164   9.460  70.491  1.00  0.00    -0.275 A  
HETATM   29  C   UNK A   0      -9.977   9.120  69.850  1.00  0.00    -0.197 A  
HETATM   30  N   UNK A   0      -8.153   7.627  69.922  1.00  0.00    -0.122 NA 
HETATM   31  C   UNK A   0     -10.837   7.920  72.129  1.00  0.00    -0.269 A  
HETATM   32  H1  UNK A   0     -11.690  10.857  69.072  1.00  0.00     0.000 HD 
HETATM   33  H1  UNK A   0     -12.107   7.688  73.736  1.00  0.00     0.000 HD 
HETATM   34  N   UNK A   0     -11.246   7.343  73.312  1.00  0.00    -0.596 NA 
HETATM   35  N   UNK A   0     -11.608   8.875  71.612  1.00  0.00    -0.313 NA 
HETATM   36  N   UNK A   0      -9.500   9.766  68.738  1.00  0.00    -0.150 NA 
HETATM   37  H2  UNK A   0     -12.270  11.120  70.617  1.00  0.00     0.000 HD 
HETATM   38  H2  UNK A   0     -10.705   6.595  73.748  1.00  0.00     0.000 HD 
ENDBRANCH  22  23
ENDBRANCH   2  22
TORSDOF 7
ENDMDL
MODEL      217
REMARK 921   NORMALIZED FREE ENERGY PREDICTED BY IDOCK:   -4.46 KCAL/MOL
REMARK 922        TOTAL FREE ENERGY PREDICTED BY IDOCK:   -8.04 KCAL/MOL
REMARK 923 INTER-LIGAND FREE ENERGY PREDICTED BY IDOCK:   -6.91 KCAL/MOL
REMARK 924 INTRA-LIGAND FREE ENERGY PREDICTED BY IDOCK:   -1.12 KCAL/MOL
REMARK 927      BINDING AFFINITY PREDICTED BY RF-SCORE:    0.00 PKD
ROOT
HETATM    1  C   UNK A   0      -5.418   8.373  62.436  1.00  0.00    -0.071 C  
HETATM    2  N   UNK A   0      -6.837   8.293  62.769  1.00  0.00    -0.086 NA 
ENDROOT
BRANCH   2   3
HETATM    3  C   UNK A   0      -7.417   9.298  63.534  1.00  0.00    -0.101 A  
HETATM    4  C   UNK A   0      -8.675  11.078  65.344  1.00  0.00    -0.122 A  
HETATM    5  C   UNK A   0      -8.739   9.737  63.336  1.00  0.00    -0.235 A  
HETATM    6  C   UNK A   0      -6.712   9.876  64.601  1.00  0.00    -0.123 A  
HETATM    7  C   UNK A   0      -7.331  10.741  65.507  1.00  0.00     0.016 A  
HETATM    8  C   UNK A   0      -9.363  10.628  64.220  1.00  0.00    -0.298 A  
BRANCH   4   9
HETATM    9  C   UNK A   0      -9.382  11.889  66.364  1.00  0.00    -0.226 C  
HETATM   10  O   UNK A   0      -9.451  11.519  67.526  1.00  0.00    -0.167 OA 
ATOM     11  N   GLU A   1      -9.901  13.096  65.910  1.00  0.00    -0.379 N  
ATOM     12  H   GLU A   1      -9.879  13.325  64.917  1.00  0.00     0.000 HD 
BRANCH  11  13
ATOM     13  CA  GLU A   1     -10.485  14.042  66.880  1.00  0.00    -0.276 C  
ATOM     14  OXT GLU A   1     -12.784  14.433  67.623  1.00  0.00     0.253 OA 
ATOM     15  C   GLU A   1     -12.021  13.990  66.777  1.00  0.00    -0.444 C  
ATOM     16  O   GLU A   1     -12.456  13.556  65.567  1.00  0.00    -0.449 OA 
BRANCH  13  17
ATOM     17  CB  GLU A   1      -9.990  15.468  66.597  1.00  0.00    -0.272 C  
BRANCH  17  18
ATOM     18  CG  GLU A   1      -8.534  15.692  67.017  1.00  0.00    -0.257 C  
ATOM     19  OE2 GLU A   1      -8.526  17.689  65.643  1.00  0.00    -0.438 OA 
ATOM     20  OE1 GLU A   1      -6.667  17.145  66.806  1.00  0.00    -0.177 OA 
ATOM     21  CD  GLU A   1      -7.942  16.937  66.405  1.00  0.00    -0.317 C  
ENDBRANCH  17  18
ENDBRANCH  13  17
ENDBRANCH  11  13
ENDBRANCH   4   9
ENDBRANCH   2   3
BRANCH   2  22
HETATM   22  C   UNK A   0      -7.493   6.977  62.664  1.00  0.00    -0.086 C  
BRANCH  22  23
HETATM   23  C   UNK A   0      -7.631   6.243  63.984  1.00  0.00    -0.098 A  
HETATM   24  N   UNK A   0     -11.319   4.614  65.211  1.00  0.00    -1.078 NA 
HETATM   25  C   UNK A   0      -7.874   4.878  66.360  1.00  0.00    -0.099 A  
HETATM   26  C   UNK A   0      -6.552   5.975  64.807  1.00  0.00    -0.038 A  
HETATM   27  N   UNK A   0      -7.976   4.270  67.538  1.00  0.00    -0.092 NA 
HETATM   28  C   UNK A   0     -10.160   4.587  66.002  1.00  0.00    -0.259 A  
HETATM   29  C   UNK A   0      -8.964   5.102  65.512  1.00  0.00    -0.155 A  
HETATM   30  N   UNK A   0      -6.662   5.303  65.983  1.00  0.00    -0.052 NA 
HETATM   31  C   UNK A   0      -9.181   3.871  67.923  1.00  0.00    -0.165 A  
HETATM   32  H1  UNK A   0     -11.224   5.083  64.310  1.00  0.00     0.000 HD 
HETATM   33  H1  UNK A   0     -10.224   2.984  69.464  1.00  0.00     0.000 HD 
HETATM   34  N   UNK A   0      -9.297   3.291  69.168  1.00  0.00    -0.161 NA 
HETATM   35  N   UNK A   0     -10.285   3.970  67.185  1.00  0.00    -0.117 NA 
HETATM   36  N   UNK A   0      -8.857   5.786  64.327  1.00  0.00    -0.346 NA 
HETATM   37  H2  UNK A   0     -12.092   5.021  65.737  1.00  0.00     0.000 HD 
HETATM   38  H2  UNK A   0      -8.484   3.173  69.772  1.00  0.00     0.000 HD 
ENDBRANCH  22  23
ENDBRANCH   2  22
TORSDOF 7
ENDMDL
MODEL      218
REMARK 921   NORMALIZED FREE ENERGY PREDICTED BY IDOCK:   -4.43 KCAL/MOL
REMARK 922        TOTAL FREE ENERGY PREDICTED BY IDOCK:   -7.99 KCAL/MOL
REMARK 923 INTER-LIGAND FREE ENERGY PREDICTED BY IDOCK:   -7.61 KCAL/MOL
REMARK 924 INTRA-LIGAND FREE ENERGY PREDICTED BY IDOCK:   -0.38 KCAL/MOL
REMARK 927      BINDING AFFINITY PREDICTED BY RF-SCORE:    0.00 PKD
ROOT
HETATM    1  C   UNK A   0      -8.385   6.147  70.461  1.00  0.00    -0.129 C  
HETATM    2  N   UNK A   0      -8.083   6.826  69.205  1.00  0.00    -0.119 NA 
ENDROOT
BRANCH   2   3
HETATM    3  C   UNK A   0      -8.891   7.875  68.784  1.00  0.00    -0.138 A  
HETATM    4  C   UNK A   0     -10.412  10.200  68.225  1.00  0.00    -0.244 A  
HETATM    5  C   UNK A   0     -10.261   7.951  69.094  1.00  0.00    -0.219 A  
HETATM    6  C   UNK A   0      -8.342   8.957  68.078  1.00  0.00    -0.121 A  
HETATM    7  C   UNK A   0      -9.082  10.113  67.814  1.00  0.00    -0.135 A  
HETATM    8  C   UNK A   0     -11.023   9.092  68.807  1.00  0.00    -0.011 A  
BRANCH   4   9
HETATM    9  C   UNK A   0     -11.172  11.463  68.069  1.00  0.00    -0.281 C  
HETATM   10  O   UNK A   0     -11.857  11.903  68.981  1.00  0.00    -0.294 OA 
ATOM     11  N   GLU A   1     -11.005  12.112  66.852  1.00  0.00    -0.256 N  
ATOM     12  H   GLU A   1     -10.480  11.669  66.099  1.00  0.00     0.000 HD 
BRANCH  11  13
ATOM     13  CA  GLU A   1     -11.596  13.451  66.660  1.00  0.00    -0.362 C  
ATOM     14  OXT GLU A   1     -13.273  14.304  65.095  1.00  0.00    -0.686 OA 
ATOM     15  C   GLU A   1     -12.444  13.451  65.374  1.00  0.00    -0.494 C  
ATOM     16  O   GLU A   1     -12.059  12.499  64.486  1.00  0.00    -0.381 OA 
BRANCH  13  17
ATOM     17  CB  GLU A   1     -10.488  14.511  66.556  1.00  0.00    -0.285 C  
BRANCH  17  18
ATOM     18  CG  GLU A   1      -9.837  14.833  67.905  1.00  0.00    -0.212 C  
ATOM     19  OE2 GLU A   1     -12.009  15.568  68.691  1.00  0.00    -0.335 OA 
ATOM     20  OE1 GLU A   1     -10.247  15.629  70.104  1.00  0.00    -0.302 OA 
ATOM     21  CD  GLU A   1     -10.823  15.376  68.907  1.00  0.00    -0.251 C  
ENDBRANCH  17  18
ENDBRANCH  13  17
ENDBRANCH  11  13
ENDBRANCH   4   9
ENDBRANCH   2   3
BRANCH   2  22
HETATM   22  C   UNK A   0      -7.226   6.123  68.234  1.00  0.00    -0.084 C  
BRANCH  22  23
HETATM   23  C   UNK A   0      -7.960   5.614  67.009  1.00  0.00    -0.102 A  
HETATM   24  N   UNK A   0      -9.214   1.600  66.714  1.00  0.00    -0.312 NA 
HETATM   25  C   UNK A   0      -9.326   4.699  64.804  1.00  0.00    -0.105 A  
HETATM   26  C   UNK A   0      -8.351   6.443  65.972  1.00  0.00    -0.132 A  
HETATM   27  N   UNK A   0      -9.937   4.269  63.703  1.00  0.00    -0.350 NA 
HETATM   28  C   UNK A   0      -9.373   2.539  65.682  1.00  0.00    -0.002 A  
HETATM   29  C   UNK A   0      -8.979   3.860  65.867  1.00  0.00    -0.132 A  
HETATM   30  N   UNK A   0      -9.025   6.001  64.879  1.00  0.00    -0.357 NA 
HETATM   31  C   UNK A   0     -10.215   2.975  63.617  1.00  0.00    -0.188 A  
HETATM   32  H1  UNK A   0      -8.744   1.946  67.551  1.00  0.00     0.000 HD 
HETATM   33  H1  UNK A   0     -11.010   1.524  62.388  1.00  0.00     0.000 HD 
HETATM   34  N   UNK A   0     -10.797   2.520  62.454  1.00  0.00    -0.150 NA 
HETATM   35  N   UNK A   0      -9.990   2.085  64.582  1.00  0.00    -0.341 NA 
HETATM   36  N   UNK A   0      -8.292   4.303  66.970  1.00  0.00    -0.101 NA 
HETATM   37  H2  UNK A   0      -8.736   0.771  66.362  1.00  0.00     0.000 HD 
HETATM   38  H2  UNK A   0     -11.009   3.157  61.686  1.00  0.00     0.000 HD 
ENDBRANCH  22  23
ENDBRANCH   2  22
TORSDOF 7
ENDMDL
MODEL      219
REMARK 921   NORMALIZED FREE ENERGY PREDICTED BY IDOCK:   -4.42 KCAL/MOL
REMARK 922        TOTAL FREE ENERGY PREDICTED BY IDOCK:   -7.98 KCAL/MOL
REMARK 923 INTER-LIGAND FREE ENERGY PREDICTED BY IDOCK:   -6.93 KCAL/MOL
REMARK 924 INTRA-LIGAND FREE ENERGY PREDICTED BY IDOCK:   -1.06 KCAL/MOL
REMARK 927      BINDING AFFINITY PREDICTED BY RF-SCORE:    0.00 PKD
ROOT
HETATM    1  C   UNK A   0      -9.370   6.355  72.870  1.00  0.00    -0.136 C  
HETATM    2  N   UNK A   0      -9.638   7.230  71.732  1.00  0.00    -0.151 NA 
ENDROOT
BRANCH   2   3
HETATM    3  C   UNK A   0      -9.447   6.749  70.442  1.00  0.00    -0.166 A  
HETATM    4  C   UNK A   0      -9.047   6.128  67.707  1.00  0.00    -0.117 A  
HETATM    5  C   UNK A   0     -10.512   6.353  69.613  1.00  0.00    -0.278 A  
HETATM    6  C   UNK A   0      -8.161   6.706  69.882  1.00  0.00    -0.125 A  
HETATM    7  C   UNK A   0      -7.958   6.416  68.530  1.00  0.00    -0.106 A  
HETATM    8  C   UNK A   0     -10.319   6.031  68.263  1.00  0.00    -0.252 A  
BRANCH   4   9
HETATM    9  C   UNK A   0      -8.865   5.946  66.246  1.00  0.00    -0.142 C  
HETATM   10  O   UNK A   0      -8.455   6.858  65.544  1.00  0.00    -0.144 OA 
ATOM     11  N   GLU A   1      -9.144   4.672  65.765  1.00  0.00    -0.132 N  
ATOM     12  H   GLU A   1      -9.550   3.967  66.380  1.00  0.00     0.000 HD 
BRANCH  11  13
ATOM     13  CA  GLU A   1      -8.846   4.351  64.357  1.00  0.00    -0.149 C  
ATOM     14  OXT GLU A   1     -10.260   4.203  62.364  1.00  0.00    -0.170 OA 
ATOM     15  C   GLU A   1     -10.169   4.190  63.583  1.00  0.00    -0.056 C  
ATOM     16  O   GLU A   1     -11.212   3.855  64.384  1.00  0.00    -0.328 OA 
BRANCH  13  17
ATOM     17  CB  GLU A   1      -8.027   3.054  64.269  1.00  0.00    -0.082 C  
BRANCH  17  18
ATOM     18  CG  GLU A   1      -6.797   3.058  65.181  1.00  0.00    -0.045 C  
ATOM     19  OE2 GLU A   1      -8.042   1.680  66.739  1.00  0.00    -0.069 OA 
ATOM     20  OE1 GLU A   1      -5.908   2.242  67.227  1.00  0.00    -0.018 OA 
ATOM     21  CD  GLU A   1      -7.010   2.259  66.442  1.00  0.00    -0.044 C  
ENDBRANCH  17  18
ENDBRANCH  13  17
ENDBRANCH  11  13
ENDBRANCH   4   9
ENDBRANCH   2   3
BRANCH   2  22
HETATM   22  C   UNK A   0      -9.676   8.682  71.977  1.00  0.00    -0.321 C  
BRANCH  22  23
HETATM   23  C   UNK A   0     -10.343   9.483  70.875  1.00  0.00    -0.302 A  
HETATM   24  N   UNK A   0      -8.076  11.433  67.904  1.00  0.00    -0.121 NA 
HETATM   25  C   UNK A   0     -11.552  10.903  68.853  1.00  0.00    -0.309 A  
HETATM   26  C   UNK A   0     -11.716   9.538  70.716  1.00  0.00    -0.298 A  
HETATM   27  N   UNK A   0     -12.159  11.628  67.918  1.00  0.00    -0.585 NA 
HETATM   28  C   UNK A   0      -9.474  11.526  67.997  1.00  0.00    -0.181 A  
HETATM   29  C   UNK A   0     -10.162  10.815  68.975  1.00  0.00    -0.213 A  
HETATM   30  N   UNK A   0     -12.323  10.237  69.721  1.00  0.00    -0.531 NA 
HETATM   31  C   UNK A   0     -11.397  12.308  67.072  1.00  0.00    -0.334 A  
HETATM   32  H1  UNK A   0      -7.625  10.873  68.628  1.00  0.00     0.000 HD 
HETATM   33  H1  UNK A   0     -11.438  13.625  65.488  1.00  0.00     0.000 HD 
HETATM   34  N   UNK A   0     -12.025  13.102  66.138  1.00  0.00    -0.406 NA 
HETATM   35  N   UNK A   0     -10.066  12.261  67.045  1.00  0.00    -0.212 NA 
HETATM   36  N   UNK A   0      -9.546  10.115  69.982  1.00  0.00    -0.403 NA 
HETATM   37  H2  UNK A   0      -7.665  12.365  67.877  1.00  0.00     0.000 HD 
HETATM   38  H2  UNK A   0     -13.042  13.165  66.099  1.00  0.00     0.000 HD 
ENDBRANCH  22  23
ENDBRANCH   2  22
TORSDOF 7
ENDMDL
MODEL      220
REMARK 921   NORMALIZED FREE ENERGY PREDICTED BY IDOCK:   -4.41 KCAL/MOL
REMARK 922        TOTAL FREE ENERGY PREDICTED BY IDOCK:   -7.97 KCAL/MOL
REMARK 923 INTER-LIGAND FREE ENERGY PREDICTED BY IDOCK:   -7.30 KCAL/MOL
REMARK 924 INTRA-LIGAND FREE ENERGY PREDICTED BY IDOCK:   -0.67 KCAL/MOL
REMARK 927      BINDING AFFINITY PREDICTED BY RF-SCORE:    0.00 PKD
ROOT
HETATM    1  C   UNK A   0     -12.088  12.573  70.691  1.00  0.00    -0.221 C  
HETATM    2  N   UNK A   0     -12.032  12.700  69.237  1.00  0.00    -0.278 NA 
ENDROOT
BRANCH   2   3
HETATM    3  C   UNK A   0     -11.596  11.624  68.474  1.00  0.00    -0.317 A  
HETATM    4  C   UNK A   0     -10.363   9.515  67.039  1.00  0.00    -0.319 A  
HETATM    5  C   UNK A   0     -11.334  11.726  67.096  1.00  0.00    -0.387 A  
HETATM    6  C   UNK A   0     -11.328  10.385  69.079  1.00  0.00    -0.279 A  
HETATM    7  C   UNK A   0     -10.705   9.347  68.381  1.00  0.00    -0.213 A  
HETATM    8  C   UNK A   0     -10.737  10.681  66.377  1.00  0.00    -0.198 A  
BRANCH   4   9
HETATM    9  C   UNK A   0      -9.587   8.476  66.320  1.00  0.00    -0.236 C  
HETATM   10  O   UNK A   0      -9.052   8.718  65.248  1.00  0.00    -0.186 OA 
ATOM     11  N   GLU A   1      -9.480   7.254  66.972  1.00  0.00    -0.148 N  
ATOM     12  H   GLU A   1     -10.004   7.080  67.830  1.00  0.00     0.000 HD 
BRANCH  11  13
ATOM     13  CA  GLU A   1      -8.602   6.209  66.412  1.00  0.00    -0.131 C  
ATOM     14  OXT GLU A   1      -9.001   4.405  64.806  1.00  0.00    -0.138 OA 
ATOM     15  C   GLU A   1      -9.454   5.207  65.611  1.00  0.00    -0.115 C  
ATOM     16  O   GLU A   1     -10.750   5.175  66.011  1.00  0.00    -0.264 OA 
BRANCH  13  17
ATOM     17  CB  GLU A   1      -7.857   5.479  67.540  1.00  0.00    -0.101 C  
BRANCH  17  18
ATOM     18  CG  GLU A   1      -8.743   4.488  68.300  1.00  0.00    -0.113 C  
ATOM     19  OE2 GLU A   1      -9.155   6.229  69.936  1.00  0.00    -0.142 OA 
ATOM     20  OE1 GLU A   1     -10.152   4.218  70.193  1.00  0.00    -0.194 OA 
ATOM     21  CD  GLU A   1      -9.347   5.089  69.544  1.00  0.00    -0.128 C  
ENDBRANCH  17  18
ENDBRANCH  13  17
ENDBRANCH  11  13
ENDBRANCH   4   9
ENDBRANCH   2   3
BRANCH   2  22
HETATM   22  C   UNK A   0     -12.018  14.060  68.668  1.00  0.00    -0.354 C  
BRANCH  22  23
HETATM   23  C   UNK A   0     -10.701  14.792  68.838  1.00  0.00    -0.252 A  
HETATM   24  N   UNK A   0     -10.417  18.957  68.255  1.00  0.00    -0.359 NA 
HETATM   25  C   UNK A   0      -8.321  16.128  69.184  1.00  0.00    -0.230 A  
HETATM   26  C   UNK A   0      -9.551  14.169  69.289  1.00  0.00     0.263 A  
HETATM   27  N   UNK A   0      -7.147  16.741  69.305  1.00  0.00    -0.225 NA 
HETATM   28  C   UNK A   0      -9.314  18.139  68.546  1.00  0.00    -0.310 A  
HETATM   29  C   UNK A   0      -9.489  16.778  68.774  1.00  0.00    -0.259 A  
HETATM   30  N   UNK A   0      -8.371  14.819  69.463  1.00  0.00    -0.400 NA 
HETATM   31  C   UNK A   0      -7.091  18.032  69.006  1.00  0.00    -0.236 A  
HETATM   32  H1  UNK A   0     -11.311  18.472  68.166  1.00  0.00     0.000 HD 
HETATM   33  H1  UNK A   0      -5.822  19.648  68.848  1.00  0.00     0.000 HD 
HETATM   34  N   UNK A   0      -5.865  18.655  69.078  1.00  0.00    -0.212 NA 
HETATM   35  N   UNK A   0      -8.140  18.777  68.663  1.00  0.00    -0.338 NA 
HETATM   36  N   UNK A   0     -10.681  16.123  68.592  1.00  0.00    -0.277 NA 
HETATM   37  H2  UNK A   0     -10.233  19.507  67.416  1.00  0.00     0.000 HD 
HETATM   38  H2  UNK A   0      -5.027  18.140  69.352  1.00  0.00     0.000 HD 
ENDBRANCH  22  23
ENDBRANCH   2  22
TORSDOF 7
ENDMDL
MODEL      221
REMARK 921   NORMALIZED FREE ENERGY PREDICTED BY IDOCK:   -4.38 KCAL/MOL
REMARK 922        TOTAL FREE ENERGY PREDICTED BY IDOCK:   -7.92 KCAL/MOL
REMARK 923 INTER-LIGAND FREE ENERGY PREDICTED BY IDOCK:   -6.81 KCAL/MOL
REMARK 924 INTRA-LIGAND FREE ENERGY PREDICTED BY IDOCK:   -1.12 KCAL/MOL
REMARK 927      BINDING AFFINITY PREDICTED BY RF-SCORE:    0.00 PKD
ROOT
HETATM    1  C   UNK A   0      -5.506  13.073  68.076  1.00  0.00    -0.104 C  
HETATM    2  N   UNK A   0      -6.861  12.574  68.293  1.00  0.00    -0.074 NA 
ENDROOT
BRANCH   2   3
HETATM    3  C   UNK A   0      -7.050  11.412  69.031  1.00  0.00    -0.117 A  
HETATM    4  C   UNK A   0      -7.672   9.245  70.747  1.00  0.00    -0.164 A  
HETATM    5  C   UNK A   0      -6.177  11.012  70.058  1.00  0.00    -0.139 A  
HETATM    6  C   UNK A   0      -8.186  10.613  68.820  1.00  0.00    -0.142 A  
HETATM    7  C   UNK A   0      -8.507   9.554  69.673  1.00  0.00    -0.174 A  
HETATM    8  C   UNK A   0      -6.471   9.932  70.902  1.00  0.00    -0.040 A  
BRANCH   4   9
HETATM    9  C   UNK A   0      -8.061   8.211  71.736  1.00  0.00    -0.128 C  
HETATM   10  O   UNK A   0      -8.289   8.505  72.900  1.00  0.00    -0.348 OA 
ATOM     11  N   GLU A   1      -8.189   6.922  71.231  1.00  0.00    -0.114 N  
ATOM     12  H   GLU A   1      -7.919   6.717  70.269  1.00  0.00     0.000 HD 
BRANCH  11  13
ATOM     13  CA  GLU A   1      -8.721   5.855  72.099  1.00  0.00    -0.136 C  
ATOM     14  OXT GLU A   1      -7.844   3.663  72.744  1.00  0.00    -0.063 OA 
ATOM     15  C   GLU A   1      -7.837   4.601  71.960  1.00  0.00    -0.099 C  
ATOM     16  O   GLU A   1      -7.167   4.554  70.781  1.00  0.00    -0.040 OA 
BRANCH  13  17
ATOM     17  CB  GLU A   1     -10.168   5.521  71.706  1.00  0.00    -0.256 C  
BRANCH  17  18
ATOM     18  CG  GLU A   1     -10.333   5.232  70.211  1.00  0.00    -0.350 C  
ATOM     19  OE2 GLU A   1     -11.303   7.441  69.970  1.00  0.00    -0.227 OA 
ATOM     20  OE1 GLU A   1     -11.061   6.138  68.140  1.00  0.00    -0.332 OA 
ATOM     21  CD  GLU A   1     -10.948   6.389  69.464  1.00  0.00    -0.359 C  
ENDBRANCH  17  18
ENDBRANCH  13  17
ENDBRANCH  11  13
ENDBRANCH   4   9
ENDBRANCH   2   3
BRANCH   2  22
HETATM   22  C   UNK A   0      -7.920  13.051  67.387  1.00  0.00    -0.172 C  
BRANCH  22  23
HETATM   23  C   UNK A   0      -8.589  14.338  67.833  1.00  0.00    -0.171 A  
HETATM   24  N   UNK A   0      -7.185  18.098  66.545  1.00  0.00    -0.217 NA 
HETATM   25  C   UNK A   0      -9.823  16.670  68.610  1.00  0.00    -0.252 A  
HETATM   26  C   UNK A   0      -9.744  14.356  68.593  1.00  0.00    -0.216 A  
HETATM   27  N   UNK A   0     -10.405  17.784  69.044  1.00  0.00    -0.392 NA 
HETATM   28  C   UNK A   0      -8.240  17.936  67.458  1.00  0.00    -0.227 A  
HETATM   29  C   UNK A   0      -8.683  16.663  67.801  1.00  0.00    -0.201 A  
HETATM   30  N   UNK A   0     -10.361  15.502  68.983  1.00  0.00    -0.223 NA 
HETATM   31  C   UNK A   0      -9.859  18.941  68.695  1.00  0.00    -0.407 A  
HETATM   32  H1  UNK A   0      -6.750  17.234  66.222  1.00  0.00     0.000 HD 
HETATM   33  H1  UNK A   0     -10.008  20.984  68.921  1.00  0.00     0.000 HD 
HETATM   34  N   UNK A   0     -10.429  20.094  69.190  1.00  0.00    -0.466 NA 
HETATM   35  N   UNK A   0      -8.812  19.072  67.883  1.00  0.00    -0.294 NA 
HETATM   36  N   UNK A   0      -8.054  15.507  67.411  1.00  0.00    -0.162 NA 
HETATM   37  H2  UNK A   0      -6.478  18.721  66.935  1.00  0.00     0.000 HD 
HETATM   38  H2  UNK A   0     -11.243  20.059  69.803  1.00  0.00     0.000 HD 
ENDBRANCH  22  23
ENDBRANCH   2  22
TORSDOF 7
ENDMDL
MODEL      222
REMARK 921   NORMALIZED FREE ENERGY PREDICTED BY IDOCK:   -4.38 KCAL/MOL
REMARK 922        TOTAL FREE ENERGY PREDICTED BY IDOCK:   -7.91 KCAL/MOL
REMARK 923 INTER-LIGAND FREE ENERGY PREDICTED BY IDOCK:   -7.37 KCAL/MOL
REMARK 924 INTRA-LIGAND FREE ENERGY PREDICTED BY IDOCK:   -0.55 KCAL/MOL
REMARK 927      BINDING AFFINITY PREDICTED BY RF-SCORE:    0.00 PKD
ROOT
HETATM    1  C   UNK A   0      -5.145  10.614  67.995  1.00  0.00    -0.037 C  
HETATM    2  N   UNK A   0      -6.370  11.400  68.114  1.00  0.00    -0.049 NA 
ENDROOT
BRANCH   2   3
HETATM    3  C   UNK A   0      -6.284  12.765  68.361  1.00  0.00    -0.073 A  
HETATM    4  C   UNK A   0      -6.484  15.545  68.870  1.00  0.00    -0.110 A  
HETATM    5  C   UNK A   0      -6.124  13.715  67.336  1.00  0.00     0.132 A  
HETATM    6  C   UNK A   0      -6.428  13.262  69.666  1.00  0.00    -0.053 A  
HETATM    7  C   UNK A   0      -6.543  14.631  69.922  1.00  0.00    -0.167 A  
HETATM    8  C   UNK A   0      -6.207  15.092  67.583  1.00  0.00    -0.145 A  
BRANCH   4   9
HETATM    9  C   UNK A   0      -6.733  16.988  69.106  1.00  0.00    -0.241 C  
HETATM   10  O   UNK A   0      -6.009  17.641  69.841  1.00  0.00    -0.248 OA 
ATOM     11  N   GLU A   1      -7.801  17.530  68.400  1.00  0.00    -0.253 N  
ATOM     12  H   GLU A   1      -8.417  16.928  67.854  1.00  0.00     0.000 HD 
BRANCH  11  13
ATOM     13  CA  GLU A   1      -8.033  18.987  68.447  1.00  0.00    -0.340 C  
ATOM     14  OXT GLU A   1      -9.864  20.392  67.632  1.00  0.00    -0.415 OA 
ATOM     15  C   GLU A   1      -9.255  19.333  67.576  1.00  0.00    -0.300 C  
ATOM     16  O   GLU A   1      -9.493  18.413  66.607  1.00  0.00    -0.293 OA 
BRANCH  13  17
ATOM     17  CB  GLU A   1      -6.795  19.739  67.935  1.00  0.00    -0.284 C  
BRANCH  17  18
ATOM     18  CG  GLU A   1      -7.018  20.407  66.575  1.00  0.00    -0.299 C  
ATOM     19  OE2 GLU A   1      -6.234  18.364  65.530  1.00  0.00    -0.228 OA 
ATOM     20  OE1 GLU A   1      -6.897  20.086  64.225  1.00  0.00    -0.195 OA 
ATOM     21  CD  GLU A   1      -6.668  19.500  65.422  1.00  0.00    -0.279 C  
ENDBRANCH  17  18
ENDBRANCH  13  17
ENDBRANCH  11  13
ENDBRANCH   4   9
ENDBRANCH   2   3
BRANCH   2  22
HETATM   22  C   UNK A   0      -7.623  10.679  68.400  1.00  0.00    -0.100 C  
BRANCH  22  23
HETATM   23  C   UNK A   0      -8.879  11.439  68.021  1.00  0.00    -0.155 A  
HETATM   24  N   UNK A   0      -9.687  12.485  64.019  1.00  0.00    -0.607 NA 
HETATM   25  C   UNK A   0     -11.177  12.783  67.328  1.00  0.00    -0.295 A  
HETATM   26  C   UNK A   0      -9.874  11.741  68.934  1.00  0.00    -0.002 A  
HETATM   27  N   UNK A   0     -12.269  13.481  67.028  1.00  0.00    -0.347 NA 
HETATM   28  C   UNK A   0     -10.503  12.863  65.098  1.00  0.00    -0.309 A  
HETATM   29  C   UNK A   0     -10.200  12.441  66.388  1.00  0.00    -0.234 A  
HETATM   30  N   UNK A   0     -11.012  12.405  68.602  1.00  0.00    -0.237 NA 
HETATM   31  C   UNK A   0     -12.422  13.877  65.772  1.00  0.00    -0.495 A  
HETATM   32  H1  UNK A   0      -8.854  11.950  64.266  1.00  0.00     0.000 HD 
HETATM   33  H1  UNK A   0     -13.641  14.951  64.504  1.00  0.00     0.000 HD 
HETATM   34  N   UNK A   0     -13.524  14.647  65.471  1.00  0.00    -0.189 NA 
HETATM   35  N   UNK A   0     -11.597  13.566  64.773  1.00  0.00    -0.335 NA 
HETATM   36  N   UNK A   0      -9.047  11.776  66.721  1.00  0.00    -0.188 NA 
HETATM   37  H2  UNK A   0      -9.426  13.306  63.473  1.00  0.00     0.000 HD 
HETATM   38  H2  UNK A   0     -14.200  14.903  66.191  1.00  0.00     0.000 HD 
ENDBRANCH  22  23
ENDBRANCH   2  22
TORSDOF 7
ENDMDL
MODEL      223
REMARK 921   NORMALIZED FREE ENERGY PREDICTED BY IDOCK:   -4.37 KCAL/MOL
REMARK 922        TOTAL FREE ENERGY PREDICTED BY IDOCK:   -7.91 KCAL/MOL
REMARK 923 INTER-LIGAND FREE ENERGY PREDICTED BY IDOCK:   -7.16 KCAL/MOL
REMARK 924 INTRA-LIGAND FREE ENERGY PREDICTED BY IDOCK:   -0.75 KCAL/MOL
REMARK 927      BINDING AFFINITY PREDICTED BY RF-SCORE:    0.00 PKD
ROOT
HETATM    1  C   UNK A   0      -7.313  11.268  66.472  1.00  0.00    -0.101 C  
HETATM    2  N   UNK A   0      -7.770  11.489  67.841  1.00  0.00    -0.114 NA 
ENDROOT
BRANCH   2   3
HETATM    3  C   UNK A   0      -8.171  12.761  68.230  1.00  0.00    -0.159 A  
HETATM    4  C   UNK A   0      -8.939  15.453  68.666  1.00  0.00    -0.191 A  
HETATM    5  C   UNK A   0      -7.289  13.695  68.803  1.00  0.00    -0.093 A  
HETATM    6  C   UNK A   0      -9.486  13.194  67.996  1.00  0.00    -0.220 A  
HETATM    7  C   UNK A   0      -9.867  14.525  68.193  1.00  0.00    -0.223 A  
HETATM    8  C   UNK A   0      -7.667  15.024  69.035  1.00  0.00    -0.170 A  
BRANCH   4   9
HETATM    9  C   UNK A   0      -9.287  16.892  68.758  1.00  0.00    -0.260 C  
HETATM   10  O   UNK A   0     -10.321  17.257  69.298  1.00  0.00    -0.322 OA 
ATOM     11  N   GLU A   1      -8.342  17.768  68.238  1.00  0.00    -0.268 N  
ATOM     12  H   GLU A   1      -7.530  17.410  67.735  1.00  0.00     0.000 HD 
BRANCH  11  13
ATOM     13  CA  GLU A   1      -8.525  19.220  68.422  1.00  0.00    -0.351 C  
ATOM     14  OXT GLU A   1      -9.600  20.934  67.044  1.00  0.00    -0.361 OA 
ATOM     15  C   GLU A   1      -9.083  19.828  67.121  1.00  0.00    -0.330 C  
ATOM     16  O   GLU A   1      -8.791  19.088  66.022  1.00  0.00    -0.460 OA 
BRANCH  13  17
ATOM     17  CB  GLU A   1      -7.186  19.884  68.777  1.00  0.00    -0.309 C  
BRANCH  17  18
ATOM     18  CG  GLU A   1      -6.246  18.960  69.558  1.00  0.00    -0.290 C  
ATOM     19  OE2 GLU A   1      -6.455  20.469  71.444  1.00  0.00    -0.575 OA 
ATOM     20  OE1 GLU A   1      -5.187  18.610  71.655  1.00  0.00    -0.473 OA 
ATOM     21  CD  GLU A   1      -5.993  19.447  70.962  1.00  0.00    -0.013 C  
ENDBRANCH  17  18
ENDBRANCH  13  17
ENDBRANCH  11  13
ENDBRANCH   4   9
ENDBRANCH   2   3
BRANCH   2  22
HETATM   22  C   UNK A   0      -7.390  10.494  68.859  1.00  0.00    -0.098 C  
BRANCH  22  23
HETATM   23  C   UNK A   0      -7.544   9.053  68.411  1.00  0.00    -0.090 A  
HETATM   24  N   UNK A   0     -11.218   7.022  68.791  1.00  0.00    -0.494 NA 
HETATM   25  C   UNK A   0      -7.837   6.453  67.563  1.00  0.00    -0.105 A  
HETATM   26  C   UNK A   0      -6.538   8.358  67.765  1.00  0.00    -0.062 A  
HETATM   27  N   UNK A   0      -7.937   5.179  67.194  1.00  0.00    -0.100 NA 
HETATM   28  C   UNK A   0     -10.044   6.416  68.317  1.00  0.00    -0.153 A  
HETATM   29  C   UNK A   0      -8.878   7.161  68.172  1.00  0.00    -0.126 A  
HETATM   30  N   UNK A   0      -6.672   7.074  67.342  1.00  0.00    -0.065 NA 
HETATM   31  C   UNK A   0      -9.083   4.555  67.434  1.00  0.00    -0.128 A  
HETATM   32  H1  UNK A   0     -11.125   7.999  69.069  1.00  0.00     0.000 HD 
HETATM   33  H1  UNK A   0     -10.050   2.741  67.288  1.00  0.00     0.000 HD 
HETATM   34  N   UNK A   0      -9.168   3.220  67.104  1.00  0.00    -0.178 NA 
HETATM   35  N   UNK A   0     -10.166   5.131  67.952  1.00  0.00    -0.147 NA 
HETATM   36  N   UNK A   0      -8.743   8.456  68.605  1.00  0.00    -0.132 NA 
HETATM   37  H2  UNK A   0     -11.608   6.476  69.559  1.00  0.00     0.000 HD 
HETATM   38  H2  UNK A   0      -8.377   2.728  66.688  1.00  0.00     0.000 HD 
ENDBRANCH  22  23
ENDBRANCH   2  22
TORSDOF 7
ENDMDL
MODEL      224
REMARK 921   NORMALIZED FREE ENERGY PREDICTED BY IDOCK:   -4.37 KCAL/MOL
REMARK 922        TOTAL FREE ENERGY PREDICTED BY IDOCK:   -7.90 KCAL/MOL
REMARK 923 INTER-LIGAND FREE ENERGY PREDICTED BY IDOCK:   -7.15 KCAL/MOL
REMARK 924 INTRA-LIGAND FREE ENERGY PREDICTED BY IDOCK:   -0.75 KCAL/MOL
REMARK 927      BINDING AFFINITY PREDICTED BY RF-SCORE:    0.00 PKD
ROOT
HETATM    1  C   UNK A   0      -6.449   7.230  70.580  1.00  0.00    -0.043 C  
HETATM    2  N   UNK A   0      -7.632   7.332  69.730  1.00  0.00    -0.096 NA 
ENDROOT
BRANCH   2   3
HETATM    3  C   UNK A   0      -7.922   8.540  69.106  1.00  0.00    -0.112 A  
HETATM    4  C   UNK A   0      -8.267  11.155  68.072  1.00  0.00    -0.125 A  
HETATM    5  C   UNK A   0      -9.031   9.330  69.457  1.00  0.00    -0.154 A  
HETATM    6  C   UNK A   0      -7.059   9.060  68.129  1.00  0.00    -0.078 A  
HETATM    7  C   UNK A   0      -7.214  10.355  67.627  1.00  0.00    -0.086 A  
HETATM    8  C   UNK A   0      -9.216  10.619  68.938  1.00  0.00    -0.189 A  
BRANCH   4   9
HETATM    9  C   UNK A   0      -8.372  12.572  67.649  1.00  0.00    -0.172 C  
HETATM   10  O   UNK A   0      -7.388  13.194  67.277  1.00  0.00    -0.137 OA 
ATOM     11  N   GLU A   1      -9.656  13.104  67.665  1.00  0.00    -0.204 N  
ATOM     12  H   GLU A   1     -10.432  12.567  68.051  1.00  0.00     0.000 HD 
BRANCH  11  13
ATOM     13  CA  GLU A   1      -9.885  14.455  67.116  1.00  0.00    -0.254 C  
ATOM     14  OXT GLU A   1     -11.297  16.315  67.849  1.00  0.00    -0.269 OA 
ATOM     15  C   GLU A   1     -11.052  15.117  67.872  1.00  0.00    -0.321 C  
ATOM     16  O   GLU A   1     -11.898  14.217  68.435  1.00  0.00    -0.324 OA 
BRANCH  13  17
ATOM     17  CB  GLU A   1     -10.213  14.371  65.617  1.00  0.00    -0.371 C  
BRANCH  17  18
ATOM     18  CG  GLU A   1      -9.915  12.995  65.013  1.00  0.00    -0.158 C  
ATOM     19  OE2 GLU A   1     -12.201  12.364  65.518  1.00  0.00    -0.568 OA 
ATOM     20  OE1 GLU A   1     -10.849  10.876  64.486  1.00  0.00    -0.279 OA 
ATOM     21  CD  GLU A   1     -11.111  12.078  65.049  1.00  0.00    -0.316 C  
ENDBRANCH  17  18
ENDBRANCH  13  17
ENDBRANCH  11  13
ENDBRANCH   4   9
ENDBRANCH   2   3
BRANCH   2  22
HETATM   22  C   UNK A   0      -8.691   6.321  69.903  1.00  0.00    -0.141 C  
BRANCH  22  23
HETATM   23  C   UNK A   0      -9.254   5.781  68.603  1.00  0.00    -0.118 A  
HETATM   24  N   UNK A   0      -7.443   2.542  66.605  1.00  0.00    -0.069 NA 
HETATM   25  C   UNK A   0     -10.298   4.776  66.264  1.00  0.00    -0.291 A  
HETATM   26  C   UNK A   0     -10.437   6.241  68.052  1.00  0.00    -0.224 A  
HETATM   27  N   UNK A   0     -10.792   4.345  65.107  1.00  0.00    -0.712 NA 
HETATM   28  C   UNK A   0      -8.550   3.242  66.100  1.00  0.00    -0.121 A  
HETATM   29  C   UNK A   0      -9.126   4.271  66.837  1.00  0.00    -0.135 A  
HETATM   30  N   UNK A   0     -10.961   5.752  66.898  1.00  0.00    -0.526 NA 
HETATM   31  C   UNK A   0     -10.123   3.395  64.467  1.00  0.00    -0.121 A  
HETATM   32  H1  UNK A   0      -7.076   2.885  67.494  1.00  0.00     0.000 HD 
HETATM   33  H1  UNK A   0     -10.089   2.256  62.750  1.00  0.00     0.000 HD 
HETATM   34  N   UNK A   0     -10.603   2.986  63.242  1.00  0.00    -0.209 NA 
HETATM   35  N   UNK A   0      -9.031   2.791  64.932  1.00  0.00    -0.123 NA 
HETATM   36  N   UNK A   0      -8.592   4.767  67.999  1.00  0.00    -0.102 NA 
HETATM   37  H2  UNK A   0      -6.699   2.513  65.908  1.00  0.00     0.000 HD 
HETATM   38  H2  UNK A   0     -11.445   3.401  62.841  1.00  0.00     0.000 HD 
ENDBRANCH  22  23
ENDBRANCH   2  22
TORSDOF 7
ENDMDL
MODEL      225
REMARK 921   NORMALIZED FREE ENERGY PREDICTED BY IDOCK:   -4.35 KCAL/MOL
REMARK 922        TOTAL FREE ENERGY PREDICTED BY IDOCK:   -7.88 KCAL/MOL
REMARK 923 INTER-LIGAND FREE ENERGY PREDICTED BY IDOCK:   -7.22 KCAL/MOL
REMARK 924 INTRA-LIGAND FREE ENERGY PREDICTED BY IDOCK:   -0.66 KCAL/MOL
REMARK 927      BINDING AFFINITY PREDICTED BY RF-SCORE:    0.00 PKD
ROOT
HETATM    1  C   UNK A   0     -12.404   8.903  70.501  1.00  0.00     0.242 C  
HETATM    2  N   UNK A   0     -11.338   9.460  69.674  1.00  0.00    -0.435 NA 
ENDROOT
BRANCH   2   3
HETATM    3  C   UNK A   0     -11.384  10.801  69.313  1.00  0.00    -0.286 A  
HETATM    4  C   UNK A   0     -11.136  13.561  68.724  1.00  0.00    -0.298 A  
HETATM    5  C   UNK A   0     -12.005  11.782  70.107  1.00  0.00    -0.421 A  
HETATM    6  C   UNK A   0     -10.737  11.247  68.149  1.00  0.00    -0.244 A  
HETATM    7  C   UNK A   0     -10.597  12.607  67.862  1.00  0.00    -0.232 A  
HETATM    8  C   UNK A   0     -11.899  13.148  69.813  1.00  0.00    -0.386 A  
BRANCH   4   9
HETATM    9  C   UNK A   0     -10.887  15.007  68.505  1.00  0.00    -0.250 C  
HETATM   10  O   UNK A   0     -11.229  15.838  69.334  1.00  0.00    -0.277 OA 
ATOM     11  N   GLU A   1     -10.207  15.324  67.336  1.00  0.00    -0.241 N  
ATOM     12  H   GLU A   1     -10.007  14.601  66.644  1.00  0.00     0.000 HD 
BRANCH  11  13
ATOM     13  CA  GLU A   1      -9.777  16.716  67.104  1.00  0.00    -0.250 C  
ATOM     14  OXT GLU A   1     -10.398  18.375  65.414  1.00  0.00    -0.493 OA 
ATOM     15  C   GLU A   1     -10.338  17.201  65.754  1.00  0.00    -0.240 C  
ATOM     16  O   GLU A   1     -10.604  16.185  64.895  1.00  0.00    -0.622 OA 
BRANCH  13  17
ATOM     17  CB  GLU A   1      -8.244  16.804  67.096  1.00  0.00    -0.210 C  
BRANCH  17  18
ATOM     18  CG  GLU A   1      -7.563  15.432  67.089  1.00  0.00    -0.238 C  
ATOM     19  OE2 GLU A   1      -5.511  16.532  67.763  1.00  0.00    -0.113 OA 
ATOM     20  OE1 GLU A   1      -5.525  14.287  67.505  1.00  0.00    -0.337 OA 
ATOM     21  CD  GLU A   1      -6.110  15.506  67.484  1.00  0.00    -0.089 C  
ENDBRANCH  17  18
ENDBRANCH  13  17
ENDBRANCH  11  13
ENDBRANCH   4   9
ENDBRANCH   2   3
BRANCH   2  22
HETATM   22  C   UNK A   0     -10.503   8.520  68.906  1.00  0.00    -0.188 C  
BRANCH  22  23
HETATM   23  C   UNK A   0     -10.061   7.297  69.687  1.00  0.00    -0.194 A  
HETATM   24  N   UNK A   0      -6.319   7.167  71.622  1.00  0.00    -0.037 NA 
HETATM   25  C   UNK A   0      -9.275   5.096  71.137  1.00  0.00    -0.145 A  
HETATM   26  C   UNK A   0     -10.885   6.206  69.898  1.00  0.00    -0.353 A  
HETATM   27  N   UNK A   0      -8.897   3.998  71.786  1.00  0.00    -0.110 NA 
HETATM   28  C   UNK A   0      -7.210   6.083  71.587  1.00  0.00    -0.087 A  
HETATM   29  C   UNK A   0      -8.451   6.213  70.970  1.00  0.00    -0.128 A  
HETATM   30  N   UNK A   0     -10.506   5.114  70.612  1.00  0.00    -0.234 NA 
HETATM   31  C   UNK A   0      -7.668   3.969  72.285  1.00  0.00    -0.079 A  
HETATM   32  H1  UNK A   0      -6.624   8.001  71.120  1.00  0.00     0.000 HD 
HETATM   33  H1  UNK A   0      -6.311   2.790  73.293  1.00  0.00     0.000 HD 
HETATM   34  N   UNK A   0      -7.256   2.812  72.909  1.00  0.00    -0.039 NA 
HETATM   35  N   UNK A   0      -6.810   4.986  72.246  1.00  0.00    -0.059 NA 
HETATM   36  N   UNK A   0      -8.828   7.315  70.245  1.00  0.00    -0.147 NA 
HETATM   37  H2  UNK A   0      -5.400   6.875  71.290  1.00  0.00     0.000 HD 
HETATM   38  H2  UNK A   0      -7.875   2.005  72.984  1.00  0.00     0.000 HD 
ENDBRANCH  22  23
ENDBRANCH   2  22
TORSDOF 7
ENDMDL
MODEL      226
REMARK 921   NORMALIZED FREE ENERGY PREDICTED BY IDOCK:   -4.34 KCAL/MOL
REMARK 922        TOTAL FREE ENERGY PREDICTED BY IDOCK:   -7.86 KCAL/MOL
REMARK 923 INTER-LIGAND FREE ENERGY PREDICTED BY IDOCK:   -7.14 KCAL/MOL
REMARK 924 INTRA-LIGAND FREE ENERGY PREDICTED BY IDOCK:   -0.72 KCAL/MOL
REMARK 927      BINDING AFFINITY PREDICTED BY RF-SCORE:    0.00 PKD
ROOT
HETATM    1  C   UNK A   0     -11.072   9.230  69.051  1.00  0.00     0.052 C  
HETATM    2  N   UNK A   0     -11.737  10.370  69.675  1.00  0.00    -0.397 NA 
ENDROOT
BRANCH   2   3
HETATM    3  C   UNK A   0     -11.302  11.658  69.384  1.00  0.00    -0.278 A  
HETATM    4  C   UNK A   0     -10.129  14.211  69.022  1.00  0.00    -0.097 A  
HETATM    5  C   UNK A   0     -11.793  12.795  70.050  1.00  0.00    -0.352 A  
HETATM    6  C   UNK A   0     -10.283  11.868  68.442  1.00  0.00    -0.205 A  
HETATM    7  C   UNK A   0      -9.689  13.122  68.271  1.00  0.00    -0.223 A  
HETATM    8  C   UNK A   0     -11.227  14.064  69.865  1.00  0.00    -0.131 A  
BRANCH   4   9
HETATM    9  C   UNK A   0      -9.427  15.516  68.948  1.00  0.00    -0.223 C  
HETATM   10  O   UNK A   0      -8.325  15.667  69.452  1.00  0.00    -0.243 OA 
ATOM     11  N   GLU A   1     -10.089  16.508  68.235  1.00  0.00    -0.249 N  
ATOM     12  H   GLU A   1     -11.037  16.353  67.894  1.00  0.00     0.000 HD 
BRANCH  11  13
ATOM     13  CA  GLU A   1      -9.404  17.789  67.974  1.00  0.00    -0.276 C  
ATOM     14  OXT GLU A   1      -9.974  20.105  68.522  1.00  0.00    -0.351 OA 
ATOM     15  C   GLU A   1     -10.340  18.951  68.355  1.00  0.00    -0.298 C  
ATOM     16  O   GLU A   1     -11.652  18.606  68.321  1.00  0.00     1.089 OA 
BRANCH  13  17
ATOM     17  CB  GLU A   1      -9.018  17.893  66.491  1.00  0.00    -0.278 C  
BRANCH  17  18
ATOM     18  CG  GLU A   1     -10.225  17.834  65.550  1.00  0.00     0.138 C  
ATOM     19  OE2 GLU A   1      -9.918  15.433  65.430  1.00  0.00    -0.344 OA 
ATOM     20  OE1 GLU A   1     -11.631  16.382  64.303  1.00  0.00    -0.818 OA 
ATOM     21  CD  GLU A   1     -10.545  16.429  65.108  1.00  0.00    -0.264 C  
ENDBRANCH  17  18
ENDBRANCH  13  17
ENDBRANCH  11  13
ENDBRANCH   4   9
ENDBRANCH   2   3
BRANCH   2  22
HETATM   22  C   UNK A   0     -12.532  10.119  70.890  1.00  0.00    -0.360 C  
BRANCH  22  23
HETATM   23  C   UNK A   0     -12.362   8.728  71.469  1.00  0.00    -0.328 A  
HETATM   24  N   UNK A   0      -9.342   7.880  74.286  1.00  0.00    -0.239 NA 
HETATM   25  C   UNK A   0     -12.076   6.214  72.549  1.00  0.00    -0.061 A  
HETATM   26  C   UNK A   0     -13.235   7.691  71.194  1.00  0.00    -0.136 A  
HETATM   27  N   UNK A   0     -11.926   4.977  73.015  1.00  0.00    -0.394 NA 
HETATM   28  C   UNK A   0     -10.209   6.906  73.763  1.00  0.00    -0.363 A  
HETATM   29  C   UNK A   0     -11.215   7.267  72.872  1.00  0.00    -0.292 A  
HETATM   30  N   UNK A   0     -13.103   6.446  71.722  1.00  0.00    -0.117 NA 
HETATM   31  C   UNK A   0     -10.895   4.741  73.815  1.00  0.00    -0.310 A  
HETATM   32  H1  UNK A   0      -9.471   8.823  73.919  1.00  0.00     0.000 HD 
HETATM   33  H1  UNK A   0      -9.914   3.267  74.869  1.00  0.00     0.000 HD 
HETATM   34  N   UNK A   0     -10.707   3.448  74.254  1.00  0.00    -0.189 NA 
HETATM   35  N   UNK A   0     -10.040   5.667  74.245  1.00  0.00    -0.237 NA 
HETATM   36  N   UNK A   0     -11.342   8.524  72.336  1.00  0.00    -0.368 NA 
HETATM   37  H2  UNK A   0      -8.373   7.586  74.164  1.00  0.00     0.000 HD 
HETATM   38  H2  UNK A   0     -11.339   2.699  73.972  1.00  0.00     0.000 HD 
ENDBRANCH  22  23
ENDBRANCH   2  22
TORSDOF 7
ENDMDL
MODEL      227
REMARK 921   NORMALIZED FREE ENERGY PREDICTED BY IDOCK:   -4.34 KCAL/MOL
REMARK 922        TOTAL FREE ENERGY PREDICTED BY IDOCK:   -7.86 KCAL/MOL
REMARK 923 INTER-LIGAND FREE ENERGY PREDICTED BY IDOCK:   -6.86 KCAL/MOL
REMARK 924 INTRA-LIGAND FREE ENERGY PREDICTED BY IDOCK:   -1.00 KCAL/MOL
REMARK 927      BINDING AFFINITY PREDICTED BY RF-SCORE:    0.00 PKD
ROOT
HETATM    1  C   UNK A   0     -11.288  12.888  68.906  1.00  0.00    -0.288 C  
HETATM    2  N   UNK A   0      -9.968  12.622  68.342  1.00  0.00    -0.265 NA 
ENDROOT
BRANCH   2   3
HETATM    3  C   UNK A   0      -9.235  13.669  67.794  1.00  0.00    -0.214 A  
HETATM    4  C   UNK A   0      -7.801  15.980  67.003  1.00  0.00    -0.263 A  
HETATM    5  C   UNK A   0      -9.807  14.636  66.948  1.00  0.00    -0.252 A  
HETATM    6  C   UNK A   0      -7.883  13.842  68.130  1.00  0.00    -0.147 A  
HETATM    7  C   UNK A   0      -7.175  14.988  67.757  1.00  0.00    -0.186 A  
HETATM    8  C   UNK A   0      -9.098  15.775  66.541  1.00  0.00    -0.327 A  
BRANCH   4   9
HETATM    9  C   UNK A   0      -7.108  17.258  66.708  1.00  0.00    -0.212 C  
HETATM   10  O   UNK A   0      -6.682  17.500  65.588  1.00  0.00    -0.167 OA 
ATOM     11  N   GLU A   1      -7.031  18.152  67.769  1.00  0.00    -0.204 N  
ATOM     12  H   GLU A   1      -7.339  17.874  68.700  1.00  0.00     0.000 HD 
BRANCH  11  13
ATOM     13  CA  GLU A   1      -6.499  19.508  67.534  1.00  0.00    -0.203 C  
ATOM     14  OXT GLU A   1      -5.198  21.036  68.935  1.00  0.00    -0.306 OA 
ATOM     15  C   GLU A   1      -5.946  20.072  68.856  1.00  0.00    -0.274 C  
ATOM     16  O   GLU A   1      -6.509  19.501  69.951  1.00  0.00    -0.305 OA 
BRANCH  13  17
ATOM     17  CB  GLU A   1      -7.607  20.427  66.996  1.00  0.00    -0.360 C  
BRANCH  17  18
ATOM     18  CG  GLU A   1      -8.924  20.294  67.765  1.00  0.00    -0.339 C  
ATOM     19  OE2 GLU A   1     -10.027  19.864  65.650  1.00  0.00    -0.354 OA 
ATOM     20  OE1 GLU A   1     -11.245  19.836  67.553  1.00  0.00    -0.212 OA 
ATOM     21  CD  GLU A   1     -10.091  19.983  66.863  1.00  0.00    -0.467 C  
ENDBRANCH  17  18
ENDBRANCH  13  17
ENDBRANCH  11  13
ENDBRANCH   4   9
ENDBRANCH   2   3
BRANCH   2  22
HETATM   22  C   UNK A   0      -9.644  11.230  67.981  1.00  0.00    -0.180 C  
BRANCH  22  23
HETATM   23  C   UNK A   0      -9.007  10.429  69.100  1.00  0.00    -0.179 A  
HETATM   24  N   UNK A   0      -5.360  11.618  70.846  1.00  0.00    -0.185 NA 
HETATM   25  C   UNK A   0      -7.870   8.997  71.155  1.00  0.00    -0.116 A  
HETATM   26  C   UNK A   0      -9.622   9.333  69.679  1.00  0.00    -0.183 A  
HETATM   27  N   UNK A   0      -7.315   8.257  72.110  1.00  0.00    -0.097 NA 
HETATM   28  C   UNK A   0      -6.036  10.437  71.193  1.00  0.00     0.074 A  
HETATM   29  C   UNK A   0      -7.261  10.131  70.609  1.00  0.00     0.191 A  
HETATM   30  N   UNK A   0      -9.069   8.619  70.694  1.00  0.00    -0.158 NA 
HETATM   31  C   UNK A   0      -6.116   8.616  72.551  1.00  0.00    -0.079 A  
HETATM   32  H1  UNK A   0      -5.799  12.174  70.113  1.00  0.00     0.000 HD 
HETATM   33  H1  UNK A   0      -4.594   8.096  73.839  1.00  0.00     0.000 HD 
HETATM   34  N   UNK A   0      -5.516   7.819  73.500  1.00  0.00    -0.045 NA 
HETATM   35  N   UNK A   0      -5.458   9.705  72.157  1.00  0.00    -0.200 NA 
HETATM   36  N   UNK A   0      -7.814  10.851  69.580  1.00  0.00    -0.363 NA 
HETATM   37  H2  UNK A   0      -4.394  11.407  70.595  1.00  0.00     0.000 HD 
HETATM   38  H2  UNK A   0      -5.978   6.981  73.853  1.00  0.00     0.000 HD 
ENDBRANCH  22  23
ENDBRANCH   2  22
TORSDOF 7
ENDMDL
MODEL      228
REMARK 921   NORMALIZED FREE ENERGY PREDICTED BY IDOCK:   -4.32 KCAL/MOL
REMARK 922        TOTAL FREE ENERGY PREDICTED BY IDOCK:   -7.84 KCAL/MOL
REMARK 923 INTER-LIGAND FREE ENERGY PREDICTED BY IDOCK:   -6.79 KCAL/MOL
REMARK 924 INTRA-LIGAND FREE ENERGY PREDICTED BY IDOCK:   -1.05 KCAL/MOL
REMARK 927      BINDING AFFINITY PREDICTED BY RF-SCORE:    0.00 PKD
ROOT
HETATM    1  C   UNK A   0      -7.862   7.148  64.472  1.00  0.00    -0.121 C  
HETATM    2  N   UNK A   0      -8.234   7.315  65.874  1.00  0.00    -0.125 NA 
ENDROOT
BRANCH   2   3
HETATM    3  C   UNK A   0      -8.756   8.529  66.303  1.00  0.00    -0.142 A  
HETATM    4  C   UNK A   0      -9.763  10.878  67.524  1.00  0.00    -0.187 A  
HETATM    5  C   UNK A   0     -10.137   8.764  66.418  1.00  0.00    -0.313 A  
HETATM    6  C   UNK A   0      -7.902   9.565  66.712  1.00  0.00    -0.101 A  
HETATM    7  C   UNK A   0      -8.391  10.719  67.331  1.00  0.00    -0.119 A  
HETATM    8  C   UNK A   0     -10.643   9.931  67.008  1.00  0.00    -0.272 A  
BRANCH   4   9
HETATM    9  C   UNK A   0     -10.291  12.032  68.292  1.00  0.00    -0.204 C  
HETATM   10  O   UNK A   0     -11.055  11.868  69.231  1.00  0.00    -0.240 OA 
ATOM     11  N   GLU A   1      -9.817  13.277  67.896  1.00  0.00    -0.227 N  
ATOM     12  H   GLU A   1      -9.237  13.367  67.062  1.00  0.00     0.000 HD 
BRANCH  11  13
ATOM     13  CA  GLU A   1     -10.162  14.469  68.695  1.00  0.00    -0.243 C  
ATOM     14  OXT GLU A   1     -12.158  15.884  68.769  1.00  0.00    -0.297 OA 
ATOM     15  C   GLU A   1     -11.472  15.077  68.158  1.00  0.00    -0.339 C  
ATOM     16  O   GLU A   1     -11.708  14.763  66.860  1.00  0.00    -0.364 OA 
BRANCH  13  17
ATOM     17  CB  GLU A   1      -9.032  15.507  68.616  1.00  0.00    -0.194 C  
BRANCH  17  18
ATOM     18  CG  GLU A   1      -8.721  15.948  67.183  1.00  0.00    -0.223 C  
ATOM     19  OE2 GLU A   1      -9.512  18.162  67.774  1.00  0.00    -0.262 OA 
ATOM     20  OE1 GLU A   1      -8.733  17.791  65.685  1.00  0.00    -0.370 OA 
ATOM     21  CD  GLU A   1      -9.040  17.402  66.944  1.00  0.00    -0.245 C  
ENDBRANCH  17  18
ENDBRANCH  13  17
ENDBRANCH  11  13
ENDBRANCH   4   9
ENDBRANCH   2   3
BRANCH   2  22
HETATM   22  C   UNK A   0      -7.656   6.376  66.852  1.00  0.00    -0.095 C  
BRANCH  22  23
HETATM   23  C   UNK A   0      -8.519   6.143  68.077  1.00  0.00    -0.116 A  
HETATM   24  N   UNK A   0      -7.567   7.887  71.795  1.00  0.00    -0.080 NA 
HETATM   25  C   UNK A   0     -10.106   5.753  70.290  1.00  0.00    -0.211 A  
HETATM   26  C   UNK A   0      -9.710   5.441  68.031  1.00  0.00    -0.136 A  
HETATM   27  N   UNK A   0     -10.860   5.504  71.357  1.00  0.00    -0.222 NA 
HETATM   28  C   UNK A   0      -8.643   7.005  71.606  1.00  0.00    -0.116 A  
HETATM   29  C   UNK A   0      -8.928   6.505  70.340  1.00  0.00    -0.152 A  
HETATM   30  N   UNK A   0     -10.501   5.242  69.118  1.00  0.00    -0.198 NA 
HETATM   31  C   UNK A   0     -10.457   5.989  72.524  1.00  0.00    -0.202 A  
HETATM   32  H1  UNK A   0      -6.999   8.067  70.967  1.00  0.00     0.000 HD 
HETATM   33  H1  UNK A   0     -10.897   6.058  74.536  1.00  0.00     0.000 HD 
HETATM   34  N   UNK A   0     -11.207   5.685  73.639  1.00  0.00    -0.419 NA 
HETATM   35  N   UNK A   0      -9.390   6.767  72.694  1.00  0.00    -0.139 NA 
HETATM   36  N   UNK A   0      -8.125   6.702  69.245  1.00  0.00    -0.115 NA 
HETATM   37  H2  UNK A   0      -6.977   7.559  72.559  1.00  0.00     0.000 HD 
HETATM   38  H2  UNK A   0     -12.045   5.107  73.569  1.00  0.00     0.000 HD 
ENDBRANCH  22  23
ENDBRANCH   2  22
TORSDOF 7
ENDMDL
MODEL      229
REMARK 921   NORMALIZED FREE ENERGY PREDICTED BY IDOCK:   -4.29 KCAL/MOL
REMARK 922        TOTAL FREE ENERGY PREDICTED BY IDOCK:   -7.79 KCAL/MOL
REMARK 923 INTER-LIGAND FREE ENERGY PREDICTED BY IDOCK:   -7.00 KCAL/MOL
REMARK 924 INTRA-LIGAND FREE ENERGY PREDICTED BY IDOCK:   -0.80 KCAL/MOL
REMARK 927      BINDING AFFINITY PREDICTED BY RF-SCORE:    0.00 PKD
ROOT
HETATM    1  C   UNK A   0     -11.870  12.827  68.817  1.00  0.00    -0.307 C  
HETATM    2  N   UNK A   0     -10.536  12.626  68.257  1.00  0.00    -0.230 NA 
ENDROOT
BRANCH   2   3
HETATM    3  C   UNK A   0     -10.109  11.339  67.956  1.00  0.00    -0.177 A  
HETATM    4  C   UNK A   0      -9.577   8.602  67.455  1.00  0.00    -0.204 A  
HETATM    5  C   UNK A   0      -9.353  10.560  68.851  1.00  0.00    -0.192 A  
HETATM    6  C   UNK A   0     -10.484  10.729  66.748  1.00  0.00    -0.305 A  
HETATM    7  C   UNK A   0     -10.239   9.376  66.502  1.00  0.00    -0.308 A  
HETATM    8  C   UNK A   0      -9.074   9.209  68.603  1.00  0.00    -0.136 A  
BRANCH   4   9
HETATM    9  C   UNK A   0      -9.423   7.138  67.268  1.00  0.00    -0.140 C  
HETATM   10  O   UNK A   0     -10.342   6.372  67.514  1.00  0.00    -0.148 OA 
ATOM     11  N   GLU A   1      -8.197   6.729  66.757  1.00  0.00    -0.112 N  
ATOM     12  H   GLU A   1      -7.440   7.401  66.635  1.00  0.00     0.000 HD 
BRANCH  11  13
ATOM     13  CA  GLU A   1      -8.004   5.313  66.391  1.00  0.00    -0.104 C  
ATOM     14  OXT GLU A   1      -7.113   3.397  67.627  1.00  0.00    -0.050 OA 
ATOM     15  C   GLU A   1      -7.194   4.610  67.497  1.00  0.00    -0.069 C  
ATOM     16  O   GLU A   1      -6.429   5.468  68.219  1.00  0.00    -0.040 OA 
BRANCH  13  17
ATOM     17  CB  GLU A   1      -7.261   5.207  65.050  1.00  0.00    -0.066 C  
BRANCH  17  18
ATOM     18  CG  GLU A   1      -8.184   5.364  63.838  1.00  0.00    -0.127 C  
ATOM     19  OE2 GLU A   1      -9.001   3.123  64.266  1.00  0.00    -0.104 OA 
ATOM     20  OE1 GLU A   1      -9.869   4.303  62.545  1.00  0.00    -0.147 OA 
ATOM     21  CD  GLU A   1      -9.035   4.144  63.598  1.00  0.00    -0.130 C  
ENDBRANCH  17  18
ENDBRANCH  13  17
ENDBRANCH  11  13
ENDBRANCH   4   9
ENDBRANCH   2   3
BRANCH   2  22
HETATM   22  C   UNK A   0      -9.549  13.707  68.432  1.00  0.00    -0.203 C  
BRANCH  22  23
HETATM   23  C   UNK A   0      -9.806  14.930  67.574  1.00  0.00    -0.217 A  
HETATM   24  N   UNK A   0     -10.261  18.755  69.287  1.00  0.00    -0.425 NA 
HETATM   25  C   UNK A   0     -10.235  17.156  66.015  1.00  0.00    -0.321 A  
HETATM   26  C   UNK A   0      -9.805  14.888  66.191  1.00  0.00    -0.308 A  
HETATM   27  N   UNK A   0     -10.495  18.207  65.243  1.00  0.00    -0.367 NA 
HETATM   28  C   UNK A   0     -10.402  18.500  67.914  1.00  0.00    -0.392 A  
HETATM   29  C   UNK A   0     -10.190  17.220  67.411  1.00  0.00    -0.325 A  
HETATM   30  N   UNK A   0     -10.016  15.981  65.412  1.00  0.00    -0.472 NA 
HETATM   31  C   UNK A   0     -10.735  19.367  65.840  1.00  0.00    -0.407 A  
HETATM   32  H1  UNK A   0     -10.061  17.938  69.866  1.00  0.00     0.000 HD 
HETATM   33  H1  UNK A   0     -11.244  21.335  65.503  1.00  0.00     0.000 HD 
HETATM   34  N   UNK A   0     -11.059  20.444  65.043  1.00  0.00     0.254 NA 
HETATM   35  N   UNK A   0     -10.665  19.572  67.154  1.00  0.00    -0.490 NA 
HETATM   36  N   UNK A   0      -9.984  16.117  68.201  1.00  0.00    -0.227 NA 
HETATM   37  H2  UNK A   0     -11.085  19.240  69.640  1.00  0.00     0.000 HD 
HETATM   38  H2  UNK A   0     -11.112  20.351  64.029  1.00  0.00     0.000 HD 
ENDBRANCH  22  23
ENDBRANCH   2  22
TORSDOF 7
ENDMDL
MODEL      230
REMARK 921   NORMALIZED FREE ENERGY PREDICTED BY IDOCK:   -4.24 KCAL/MOL
REMARK 922        TOTAL FREE ENERGY PREDICTED BY IDOCK:   -7.72 KCAL/MOL
REMARK 923 INTER-LIGAND FREE ENERGY PREDICTED BY IDOCK:   -6.73 KCAL/MOL
REMARK 924 INTRA-LIGAND FREE ENERGY PREDICTED BY IDOCK:   -0.99 KCAL/MOL
REMARK 927      BINDING AFFINITY PREDICTED BY RF-SCORE:    0.00 PKD
ROOT
HETATM    1  C   UNK A   0     -12.056  12.697  68.307  1.00  0.00    -0.085 C  
HETATM    2  N   UNK A   0     -10.637  12.560  67.994  1.00  0.00    -0.217 NA 
ENDROOT
BRANCH   2   3
HETATM    3  C   UNK A   0     -10.097  11.292  67.813  1.00  0.00    -0.179 A  
HETATM    4  C   UNK A   0      -9.327   8.577  67.563  1.00  0.00    -0.169 A  
HETATM    5  C   UNK A   0      -9.295  10.662  68.782  1.00  0.00    -0.183 A  
HETATM    6  C   UNK A   0     -10.397  10.549  66.660  1.00  0.00    -0.295 A  
HETATM    7  C   UNK A   0     -10.035   9.205  66.538  1.00  0.00    -0.359 A  
HETATM    8  C   UNK A   0      -8.899   9.323  68.658  1.00  0.00    -0.132 A  
BRANCH   4   9
HETATM    9  C   UNK A   0      -9.047   7.122  67.509  1.00  0.00    -0.123 C  
HETATM   10  O   UNK A   0      -8.901   6.547  66.440  1.00  0.00    -0.133 OA 
ATOM     11  N   GLU A   1      -8.920   6.494  68.742  1.00  0.00    -0.125 N  
ATOM     12  H   GLU A   1      -9.121   7.003  69.603  1.00  0.00     0.000 HD 
BRANCH  11  13
ATOM     13  CA  GLU A   1      -8.489   5.083  68.794  1.00  0.00    -0.086 C  
ATOM     14  OXT GLU A   1      -9.705   3.003  69.223  1.00  0.00    -0.075 OA 
ATOM     15  C   GLU A   1      -9.647   4.220  69.328  1.00  0.00    -0.190 C  
ATOM     16  O   GLU A   1     -10.526   4.922  70.086  1.00  0.00    -0.244 OA 
BRANCH  13  17
ATOM     17  CB  GLU A   1      -7.262   4.935  69.705  1.00  0.00    -0.055 C  
BRANCH  17  18
ATOM     18  CG  GLU A   1      -6.739   6.275  70.231  1.00  0.00    -0.053 C  
ATOM     19  OE2 GLU A   1      -8.242   6.035  72.117  1.00  0.00    -0.110 OA 
ATOM     20  OE1 GLU A   1      -6.894   7.845  72.006  1.00  0.00    -0.058 OA 
ATOM     21  CD  GLU A   1      -7.383   6.676  71.534  1.00  0.00    -0.087 C  
ENDBRANCH  17  18
ENDBRANCH  13  17
ENDBRANCH  11  13
ENDBRANCH   4   9
ENDBRANCH   2   3
BRANCH   2  22
HETATM   22  C   UNK A   0      -9.754  13.698  68.303  1.00  0.00    -0.231 C  
BRANCH  22  23
HETATM   23  C   UNK A   0     -10.002  14.928  67.451  1.00  0.00    -0.223 A  
HETATM   24  N   UNK A   0      -9.950  18.798  69.120  1.00  0.00    -0.404 NA 
HETATM   25  C   UNK A   0     -10.414  17.163  65.900  1.00  0.00    -0.258 A  
HETATM   26  C   UNK A   0     -10.156  14.869  66.077  1.00  0.00    -0.311 A  
HETATM   27  N   UNK A   0     -10.670  18.222  65.138  1.00  0.00    -0.517 NA 
HETATM   28  C   UNK A   0     -10.262  18.539  67.776  1.00  0.00    -0.382 A  
HETATM   29  C   UNK A   0     -10.212  17.240  67.281  1.00  0.00    -0.320 A  
HETATM   30  N   UNK A   0     -10.360  15.966  65.302  1.00  0.00    -0.493 NA 
HETATM   31  C   UNK A   0     -10.747  19.405  65.732  1.00  0.00    -0.365 A  
HETATM   32  H1  UNK A   0      -9.756  17.975  69.691  1.00  0.00     0.000 HD 
HETATM   33  H1  UNK A   0     -11.126  21.405  65.410  1.00  0.00     0.000 HD 
HETATM   34  N   UNK A   0     -11.067  20.495  64.952  1.00  0.00     0.420 NA 
HETATM   35  N   UNK A   0     -10.517  19.621  67.026  1.00  0.00    -0.453 NA 
HETATM   36  N   UNK A   0     -10.011  16.133  68.067  1.00  0.00    -0.235 NA 
HETATM   37  H2  UNK A   0     -10.689  19.355  69.549  1.00  0.00     0.000 HD 
HETATM   38  H2  UNK A   0     -11.238  20.395  63.952  1.00  0.00     0.000 HD 
ENDBRANCH  22  23
ENDBRANCH   2  22
TORSDOF 7
ENDMDL
MODEL      231
REMARK 921   NORMALIZED FREE ENERGY PREDICTED BY IDOCK:   -4.24 KCAL/MOL
REMARK 922        TOTAL FREE ENERGY PREDICTED BY IDOCK:   -7.72 KCAL/MOL
REMARK 923 INTER-LIGAND FREE ENERGY PREDICTED BY IDOCK:   -8.35 KCAL/MOL
REMARK 924 INTRA-LIGAND FREE ENERGY PREDICTED BY IDOCK:    0.63 KCAL/MOL
REMARK 927      BINDING AFFINITY PREDICTED BY RF-SCORE:    0.00 PKD
ROOT
HETATM    1  C   UNK A   0     -10.767   8.751  68.422  1.00  0.00    -0.062 C  
HETATM    2  N   UNK A   0     -10.372   9.894  69.240  1.00  0.00    -0.205 NA 
ENDROOT
BRANCH   2   3
HETATM    3  C   UNK A   0     -10.191  11.134  68.639  1.00  0.00    -0.205 A  
HETATM    4  C   UNK A   0      -9.601  13.743  67.706  1.00  0.00    -0.219 A  
HETATM    5  C   UNK A   0     -11.097  12.197  68.804  1.00  0.00    -0.297 A  
HETATM    6  C   UNK A   0      -9.037  11.398  67.886  1.00  0.00    -0.164 A  
HETATM    7  C   UNK A   0      -8.732  12.686  67.437  1.00  0.00    -0.191 A  
HETATM    8  C   UNK A   0     -10.818  13.487  68.332  1.00  0.00    -0.286 A  
BRANCH   4   9
HETATM    9  C   UNK A   0      -9.234  15.135  67.351  1.00  0.00    -0.193 C  
HETATM   10  O   UNK A   0      -8.163  15.388  66.819  1.00  0.00    -0.232 OA 
ATOM     11  N   GLU A   1     -10.203  16.094  67.621  1.00  0.00    -0.259 N  
ATOM     12  H   GLU A   1     -11.050  15.842  68.130  1.00  0.00     0.000 HD 
BRANCH  11  13
ATOM     13  CA  GLU A   1      -9.994  17.481  67.164  1.00  0.00    -0.314 C  
ATOM     14  OXT GLU A   1     -10.811  18.716  65.214  1.00  0.00    -0.591 OA 
ATOM     15  C   GLU A   1     -10.576  17.640  65.746  1.00  0.00    -0.177 C  
ATOM     16  O   GLU A   1     -10.644  16.467  65.067  1.00  0.00    -0.670 OA 
BRANCH  13  17
ATOM     17  CB  GLU A   1      -8.495  17.818  67.154  1.00  0.00    -0.239 C  
BRANCH  17  18
ATOM     18  CG  GLU A   1      -8.202  19.266  67.559  1.00  0.00    -0.320 C  
ATOM     19  OE2 GLU A   1      -5.952  18.570  68.132  1.00  0.00    -0.188 OA 
ATOM     20  OE1 GLU A   1      -6.528  20.742  68.369  1.00  0.00    -0.300 OA 
ATOM     21  CD  GLU A   1      -6.787  19.456  68.043  1.00  0.00    -0.248 C  
ENDBRANCH  17  18
ENDBRANCH  13  17
ENDBRANCH  11  13
ENDBRANCH   4   9
ENDBRANCH   2   3
BRANCH   2  22
HETATM   22  C   UNK A   0      -9.767   9.619  70.556  1.00  0.00    -0.217 C  
BRANCH  22  23
HETATM   23  C   UNK A   0     -10.302   8.375  71.239  1.00  0.00    -0.214 A  
HETATM   24  N   UNK A   0      -8.097   4.784  71.296  1.00  0.00    -0.098 NA 
HETATM   25  C   UNK A   0     -11.254   6.130  72.512  1.00  0.00    -0.287 A  
HETATM   26  C   UNK A   0     -11.480   8.368  71.964  1.00  0.00    -0.349 A  
HETATM   27  N   UNK A   0     -11.762   5.044  73.088  1.00  0.00    -0.473 NA 
HETATM   28  C   UNK A   0      -9.388   4.908  71.833  1.00  0.00    -0.142 A  
HETATM   29  C   UNK A   0     -10.038   6.138  71.822  1.00  0.00    -0.185 A  
HETATM   30  N   UNK A   0     -11.959   7.265  72.596  1.00  0.00    -0.528 NA 
HETATM   31  C   UNK A   0     -11.076   3.914  72.985  1.00  0.00    -0.048 A  
HETATM   32  H1  UNK A   0      -7.721   5.626  70.859  1.00  0.00     0.000 HD 
HETATM   33  H1  UNK A   0     -11.099   1.907  73.454  1.00  0.00     0.000 HD 
HETATM   34  N   UNK A   0     -11.627   2.776  73.533  1.00  0.00    -0.140 NA 
HETATM   35  N   UNK A   0      -9.881   3.801  72.408  1.00  0.00    -0.151 NA 
HETATM   36  N   UNK A   0      -9.554   7.249  71.178  1.00  0.00    -0.161 NA 
HETATM   37  H2  UNK A   0      -8.064   4.004  70.639  1.00  0.00     0.000 HD 
HETATM   38  H2  UNK A   0     -12.532   2.803  74.003  1.00  0.00     0.000 HD 
ENDBRANCH  22  23
ENDBRANCH   2  22
TORSDOF 7
ENDMDL
MODEL      232
REMARK 921   NORMALIZED FREE ENERGY PREDICTED BY IDOCK:   -4.14 KCAL/MOL
REMARK 922        TOTAL FREE ENERGY PREDICTED BY IDOCK:   -7.58 KCAL/MOL
REMARK 923 INTER-LIGAND FREE ENERGY PREDICTED BY IDOCK:   -7.13 KCAL/MOL
REMARK 924 INTRA-LIGAND FREE ENERGY PREDICTED BY IDOCK:   -0.45 KCAL/MOL
REMARK 927      BINDING AFFINITY PREDICTED BY RF-SCORE:    0.00 PKD
ROOT
HETATM    1  C   UNK A   0      -9.392  11.159  65.505  1.00  0.00    -0.223 C  
HETATM    2  N   UNK A   0      -9.675  11.181  66.937  1.00  0.00    -0.189 NA 
ENDROOT
BRANCH   2   3
HETATM    3  C   UNK A   0      -9.203  10.152  67.743  1.00  0.00    -0.137 A  
HETATM    4  C   UNK A   0      -8.054   8.320  69.573  1.00  0.00    -0.114 A  
HETATM    5  C   UNK A   0      -8.094   9.361  67.394  1.00  0.00    -0.110 A  
HETATM    6  C   UNK A   0      -9.787   9.905  68.996  1.00  0.00    -0.193 A  
HETATM    7  C   UNK A   0      -9.216   9.014  69.909  1.00  0.00    -0.181 A  
HETATM    8  C   UNK A   0      -7.529   8.442  68.289  1.00  0.00    -0.096 A  
BRANCH   4   9
HETATM    9  C   UNK A   0      -7.363   7.471  70.573  1.00  0.00    -0.075 C  
HETATM   10  O   UNK A   0      -6.163   7.586  70.776  1.00  0.00    -0.035 OA 
ATOM     11  N   GLU A   1      -8.180   6.594  71.276  1.00  0.00    -0.119 N  
ATOM     12  H   GLU A   1      -9.161   6.486  71.020  1.00  0.00     0.000 HD 
BRANCH  11  13
ATOM     13  CA  GLU A   1      -7.613   5.820  72.398  1.00  0.00    -0.101 C  
ATOM     14  OXT GLU A   1      -6.948   3.475  72.614  1.00  0.00    -0.039 OA 
ATOM     15  C   GLU A   1      -7.602   4.325  72.027  1.00  0.00    -0.075 C  
ATOM     16  O   GLU A   1      -8.527   4.005  71.088  1.00  0.00    -0.074 OA 
BRANCH  13  17
ATOM     17  CB  GLU A   1      -8.448   6.038  73.669  1.00  0.00    -0.118 C  
BRANCH  17  18
ATOM     18  CG  GLU A   1      -9.610   5.048  73.801  1.00  0.00    -0.135 C  
ATOM     19  OE2 GLU A   1     -10.998   6.638  72.607  1.00  0.00    -0.236 OA 
ATOM     20  OE1 GLU A   1     -11.889   4.664  73.253  1.00  0.00    -0.249 OA 
ATOM     21  CD  GLU A   1     -10.876   5.556  73.160  1.00  0.00    -0.285 C  
ENDBRANCH  17  18
ENDBRANCH  13  17
ENDBRANCH  11  13
ENDBRANCH   4   9
ENDBRANCH   2   3
BRANCH   2  22
HETATM   22  C   UNK A   0     -10.788  12.029  67.403  1.00  0.00    -0.242 C  
BRANCH  22  23
HETATM   23  C   UNK A   0     -10.751  13.450  66.875  1.00  0.00    -0.273 A  
HETATM   24  N   UNK A   0      -9.450  16.652  69.288  1.00  0.00    -0.188 NA 
HETATM   25  C   UNK A   0     -10.647  16.023  65.907  1.00  0.00    -0.328 A  
HETATM   26  C   UNK A   0     -11.038  13.768  65.560  1.00  0.00    -0.298 A  
HETATM   27  N   UNK A   0     -10.658  17.265  65.431  1.00  0.00    -0.631 NA 
HETATM   28  C   UNK A   0      -9.942  16.816  67.984  1.00  0.00    -0.272 A  
HETATM   29  C   UNK A   0     -10.309  15.708  67.227  1.00  0.00    -0.277 A  
HETATM   30  N   UNK A   0     -10.990  15.035  65.072  1.00  0.00    -0.399 NA 
HETATM   31  C   UNK A   0     -10.342  18.247  66.264  1.00  0.00    -0.405 A  
HETATM   32  H1  UNK A   0      -9.448  15.693  69.638  1.00  0.00     0.000 HD 
HETATM   33  H1  UNK A   0     -10.164  20.294  66.429  1.00  0.00     0.000 HD 
HETATM   34  N   UNK A   0     -10.407  19.538  65.788  1.00  0.00    -0.483 NA 
HETATM   35  N   UNK A   0      -9.945  18.075  67.524  1.00  0.00    -0.314 NA 
HETATM   36  N   UNK A   0     -10.362  14.430  67.724  1.00  0.00    -0.236 NA 
HETATM   37  H2  UNK A   0      -9.958  17.258  69.932  1.00  0.00     0.000 HD 
HETATM   38  H2  UNK A   0     -10.688  19.732  64.827  1.00  0.00     0.000 HD 
ENDBRANCH  22  23
ENDBRANCH   2  22
TORSDOF 7
ENDMDL
MODEL      233
REMARK 921   NORMALIZED FREE ENERGY PREDICTED BY IDOCK:   -4.12 KCAL/MOL
REMARK 922        TOTAL FREE ENERGY PREDICTED BY IDOCK:   -7.56 KCAL/MOL
REMARK 923 INTER-LIGAND FREE ENERGY PREDICTED BY IDOCK:   -6.77 KCAL/MOL
REMARK 924 INTRA-LIGAND FREE ENERGY PREDICTED BY IDOCK:   -0.79 KCAL/MOL
REMARK 927      BINDING AFFINITY PREDICTED BY RF-SCORE:    0.00 PKD
ROOT
HETATM    1  C   UNK A   0      -8.899   5.978  73.422  1.00  0.00    -0.126 C  
HETATM    2  N   UNK A   0      -9.730   6.734  72.489  1.00  0.00    -0.154 NA 
ENDROOT
BRANCH   2   3
HETATM    3  C   UNK A   0      -9.679   6.435  71.133  1.00  0.00    -0.175 A  
HETATM    4  C   UNK A   0      -9.580   6.195  68.312  1.00  0.00    -0.122 A  
HETATM    5  C   UNK A   0     -10.824   6.120  70.380  1.00  0.00    -0.374 A  
HETATM    6  C   UNK A   0      -8.463   6.506  70.434  1.00  0.00    -0.131 A  
HETATM    7  C   UNK A   0      -8.410   6.405  69.041  1.00  0.00    -0.118 A  
HETATM    8  C   UNK A   0     -10.780   5.986  68.986  1.00  0.00    -0.393 A  
BRANCH   4   9
HETATM    9  C   UNK A   0      -9.562   6.215  66.829  1.00  0.00    -0.148 C  
HETATM   10  O   UNK A   0      -9.845   7.228  66.209  1.00  0.00    -0.101 OA 
ATOM     11  N   GLU A   1      -9.159   5.031  66.223  1.00  0.00    -0.125 N  
ATOM     12  H   GLU A   1      -9.002   4.193  66.783  1.00  0.00     0.000 HD 
BRANCH  11  13
ATOM     13  CA  GLU A   1      -8.960   4.999  64.761  1.00  0.00    -0.094 C  
ATOM     14  OXT GLU A   1      -9.700   3.435  63.030  1.00  0.00    -0.096 OA 
ATOM     15  C   GLU A   1      -9.468   3.653  64.210  1.00  0.00    -0.152 C  
ATOM     16  O   GLU A   1      -9.469   2.666  65.142  1.00  0.00    -0.131 OA 
BRANCH  13  17
ATOM     17  CB  GLU A   1      -7.472   5.175  64.423  1.00  0.00    -0.065 C  
BRANCH  17  18
ATOM     18  CG  GLU A   1      -7.105   6.616  64.058  1.00  0.00    -0.051 C  
ATOM     19  OE2 GLU A   1      -5.870   6.749  66.139  1.00  0.00    -0.028 OA 
ATOM     20  OE1 GLU A   1      -5.893   8.536  64.756  1.00  0.00    -0.054 OA 
ATOM     21  CD  GLU A   1      -6.238   7.274  65.101  1.00  0.00    -0.038 C  
ENDBRANCH  17  18
ENDBRANCH  13  17
ENDBRANCH  11  13
ENDBRANCH   4   9
ENDBRANCH   2   3
BRANCH   2  22
HETATM   22  C   UNK A   0     -10.248   8.039  72.936  1.00  0.00    -0.314 C  
BRANCH  22  23
HETATM   23  C   UNK A   0     -10.826   8.893  71.823  1.00  0.00    -0.365 A  
HETATM   24  N   UNK A   0      -8.341  11.184  69.304  1.00  0.00    -0.379 NA 
HETATM   25  C   UNK A   0     -11.868  10.413  69.781  1.00  0.00    -0.207 A  
HETATM   26  C   UNK A   0     -12.171   8.896  71.503  1.00  0.00    -0.327 A  
HETATM   27  N   UNK A   0     -12.403  11.181  68.836  1.00  0.00    -0.628 NA 
HETATM   28  C   UNK A   0      -9.743  11.202  69.233  1.00  0.00     0.057 A  
HETATM   29  C   UNK A   0     -10.499  10.383  70.065  1.00  0.00    -0.182 A  
HETATM   30  N   UNK A   0     -12.696   9.643  70.497  1.00  0.00    -0.512 NA 
HETATM   31  C   UNK A   0     -11.586  11.963  68.142  1.00  0.00    -0.334 A  
HETATM   32  H1  UNK A   0      -7.947  10.590  70.034  1.00  0.00     0.000 HD 
HETATM   33  H1  UNK A   0     -11.516  13.401  66.668  1.00  0.00     0.000 HD 
HETATM   34  N   UNK A   0     -12.145  12.800  67.201  1.00  0.00    -0.433 NA 
HETATM   35  N   UNK A   0     -10.261  11.983  68.274  1.00  0.00    -0.202 NA 
HETATM   36  N   UNK A   0      -9.967   9.634  71.084  1.00  0.00    -0.270 NA 
HETATM   37  H2  UNK A   0      -7.984  12.134  69.396  1.00  0.00     0.000 HD 
HETATM   38  H2  UNK A   0     -13.152  12.817  67.043  1.00  0.00     0.000 HD 
ENDBRANCH  22  23
ENDBRANCH   2  22
TORSDOF 7
ENDMDL
MODEL      234
REMARK 921   NORMALIZED FREE ENERGY PREDICTED BY IDOCK:   -4.11 KCAL/MOL
REMARK 922        TOTAL FREE ENERGY PREDICTED BY IDOCK:   -7.53 KCAL/MOL
REMARK 923 INTER-LIGAND FREE ENERGY PREDICTED BY IDOCK:   -7.06 KCAL/MOL
REMARK 924 INTRA-LIGAND FREE ENERGY PREDICTED BY IDOCK:   -0.48 KCAL/MOL
REMARK 927      BINDING AFFINITY PREDICTED BY RF-SCORE:    0.00 PKD
ROOT
HETATM    1  C   UNK A   0     -10.378  12.189  66.497  1.00  0.00    -0.213 C  
HETATM    2  N   UNK A   0      -9.036  11.653  66.709  1.00  0.00    -0.180 NA 
ENDROOT
BRANCH   2   3
HETATM    3  C   UNK A   0      -8.878  10.305  67.007  1.00  0.00    -0.136 A  
HETATM    4  C   UNK A   0      -8.426   7.671  67.946  1.00  0.00    -0.123 A  
HETATM    5  C   UNK A   0      -7.747   9.567  66.614  1.00  0.00    -0.098 A  
HETATM    6  C   UNK A   0      -9.831   9.633  67.789  1.00  0.00    -0.192 A  
HETATM    7  C   UNK A   0      -9.607   8.340  68.269  1.00  0.00    -0.158 A  
HETATM    8  C   UNK A   0      -7.524   8.259  67.063  1.00  0.00    -0.088 A  
BRANCH   4   9
HETATM    9  C   UNK A   0      -8.113   6.353  68.550  1.00  0.00    -0.110 C  
HETATM   10  O   UNK A   0      -6.957   5.988  68.701  1.00  0.00    -0.070 OA 
ATOM     11  N   GLU A   1      -9.213   5.611  68.964  1.00  0.00    -0.121 N  
ATOM     12  H   GLU A   1     -10.158   5.929  68.751  1.00  0.00     0.000 HD 
BRANCH  11  13
ATOM     13  CA  GLU A   1      -8.999   4.359  69.715  1.00  0.00    -0.098 C  
ATOM     14  OXT GLU A   1      -8.693   2.039  68.999  1.00  0.00    -0.063 OA 
ATOM     15  C   GLU A   1      -9.095   3.165  68.746  1.00  0.00    -0.150 C  
ATOM     16  O   GLU A   1      -9.832   3.439  67.640  1.00  0.00    -0.078 OA 
BRANCH  13  17
ATOM     17  CB  GLU A   1     -10.052   4.219  70.825  1.00  0.00    -0.154 C  
BRANCH  17  18
ATOM     18  CG  GLU A   1      -9.878   5.243  71.950  1.00  0.00    -0.227 C  
ATOM     19  OE2 GLU A   1     -11.727   6.488  70.998  1.00  0.00    -0.330 OA 
ATOM     20  OE1 GLU A   1     -10.736   7.253  72.880  1.00  0.00    -0.262 OA 
ATOM     21  CD  GLU A   1     -10.877   6.369  71.865  1.00  0.00    -0.240 C  
ENDBRANCH  17  18
ENDBRANCH  13  17
ENDBRANCH  11  13
ENDBRANCH   4   9
ENDBRANCH   2   3
BRANCH   2  22
HETATM   22  C   UNK A   0      -7.959  12.608  67.027  1.00  0.00    -0.059 C  
BRANCH  22  23
HETATM   23  C   UNK A   0      -8.446  13.997  67.394  1.00  0.00    -0.200 A  
HETATM   24  N   UNK A   0     -10.584  16.370  64.644  1.00  0.00    -0.709 NA 
HETATM   25  C   UNK A   0      -9.363  16.500  68.072  1.00  0.00    -0.218 A  
HETATM   26  C   UNK A   0      -8.313  14.524  68.666  1.00  0.00    -0.164 A  
HETATM   27  N   UNK A   0      -9.747  17.728  68.408  1.00  0.00    -0.316 NA 
HETATM   28  C   UNK A   0     -10.209  16.814  65.922  1.00  0.00    -0.328 A  
HETATM   29  C   UNK A   0      -9.545  15.959  66.796  1.00  0.00    -0.236 A  
HETATM   30  N   UNK A   0      -8.762  15.759  69.011  1.00  0.00    -0.220 NA 
HETATM   31  C   UNK A   0     -10.321  18.472  67.471  1.00  0.00    -0.409 A  
HETATM   32  H1  UNK A   0     -10.281  15.426  64.402  1.00  0.00     0.000 HD 
HETATM   33  H1  UNK A   0     -11.111  20.335  67.082  1.00  0.00     0.000 HD 
HETATM   34  N   UNK A   0     -10.670  19.763  67.802  1.00  0.00    -0.362 NA 
HETATM   35  N   UNK A   0     -10.606  18.054  66.239  1.00  0.00    -0.314 NA 
HETATM   36  N   UNK A   0      -9.088  14.714  66.443  1.00  0.00    -0.435 NA 
HETATM   37  H2  UNK A   0     -10.264  17.031  63.936  1.00  0.00     0.000 HD 
HETATM   38  H2  UNK A   0     -10.493  20.134  68.736  1.00  0.00     0.000 HD 
ENDBRANCH  22  23
ENDBRANCH   2  22
TORSDOF 7
ENDMDL
MODEL      235
REMARK 921   NORMALIZED FREE ENERGY PREDICTED BY IDOCK:   -4.07 KCAL/MOL
REMARK 922        TOTAL FREE ENERGY PREDICTED BY IDOCK:   -7.49 KCAL/MOL
REMARK 923 INTER-LIGAND FREE ENERGY PREDICTED BY IDOCK:   -6.30 KCAL/MOL
REMARK 924 INTRA-LIGAND FREE ENERGY PREDICTED BY IDOCK:   -1.18 KCAL/MOL
REMARK 927      BINDING AFFINITY PREDICTED BY RF-SCORE:    0.00 PKD
ROOT
HETATM    1  C   UNK A   0      -7.741  10.276  62.370  1.00  0.00    -0.143 C  
HETATM    2  N   UNK A   0      -8.562   9.695  63.429  1.00  0.00    -0.193 NA 
ENDROOT
BRANCH   2   3
HETATM    3  C   UNK A   0      -8.902  10.469  64.532  1.00  0.00    -0.200 A  
HETATM    4  C   UNK A   0      -9.591  11.727  66.975  1.00  0.00    -0.196 A  
HETATM    5  C   UNK A   0     -10.227  10.840  64.820  1.00  0.00    -0.403 A  
HETATM    6  C   UNK A   0      -7.921  10.858  65.458  1.00  0.00     0.002 A  
HETATM    7  C   UNK A   0      -8.255  11.463  66.672  1.00  0.00    -0.163 A  
HETATM    8  C   UNK A   0     -10.573  11.476  66.021  1.00  0.00    -0.310 A  
BRANCH   4   9
HETATM    9  C   UNK A   0      -9.976  12.249  68.309  1.00  0.00    -0.216 C  
HETATM   10  O   UNK A   0      -9.261  13.038  68.907  1.00  0.00     0.092 OA 
ATOM     11  N   GLU A   1     -11.208  11.815  68.785  1.00  0.00    -0.230 N  
ATOM     12  H   GLU A   1     -11.734  11.102  68.280  1.00  0.00     0.000 HD 
BRANCH  11  13
ATOM     13  CA  GLU A   1     -11.748  12.398  70.028  1.00  0.00    -0.230 C  
ATOM     14  OXT GLU A   1     -13.048  11.443  71.869  1.00  0.00    -0.492 OA 
ATOM     15  C   GLU A   1     -12.678  11.374  70.705  1.00  0.00    -0.253 C  
ATOM     16  O   GLU A   1     -13.195  10.471  69.834  1.00  0.00    -0.025 OA 
BRANCH  13  17
ATOM     17  CB  GLU A   1     -12.525  13.686  69.718  1.00  0.00    -0.193 C  
BRANCH  17  18
ATOM     18  CG  GLU A   1     -11.739  14.958  70.051  1.00  0.00    -0.338 C  
ATOM     19  OE2 GLU A   1     -11.634  15.424  67.675  1.00  0.00    -0.305 OA 
ATOM     20  OE1 GLU A   1     -10.701  16.883  69.126  1.00  0.00    -0.330 OA 
ATOM     21  CD  GLU A   1     -11.368  15.747  68.821  1.00  0.00    -0.362 C  
ENDBRANCH  17  18
ENDBRANCH  13  17
ENDBRANCH  11  13
ENDBRANCH   4   9
ENDBRANCH   2   3
BRANCH   2  22
HETATM   22  C   UNK A   0      -8.636   8.225  63.511  1.00  0.00     0.183 C  
BRANCH  22  23
HETATM   23  C   UNK A   0      -8.379   7.665  64.896  1.00  0.00    -0.046 A  
HETATM   24  N   UNK A   0     -11.551   6.471  67.401  1.00  0.00    -0.637 NA 
HETATM   25  C   UNK A   0      -7.912   6.612  67.394  1.00  0.00    -0.114 A  
HETATM   26  C   UNK A   0      -7.106   7.417  65.379  1.00  0.00    -0.061 A  
HETATM   27  N   UNK A   0      -7.661   6.157  68.619  1.00  0.00    -0.098 NA 
HETATM   28  C   UNK A   0     -10.204   6.451  67.795  1.00  0.00    -0.162 A  
HETATM   29  C   UNK A   0      -9.204   6.814  66.899  1.00  0.00    -0.144 A  
HETATM   30  N   UNK A   0      -6.865   6.898  66.611  1.00  0.00    -0.062 NA 
HETATM   31  C   UNK A   0      -8.698   5.897  69.404  1.00  0.00    -0.116 A  
HETATM   32  H1  UNK A   0     -11.727   6.822  66.459  1.00  0.00     0.000 HD 
HETATM   33  H1  UNK A   0      -9.236   5.278  71.295  1.00  0.00     0.000 HD 
HETATM   34  N   UNK A   0      -8.439   5.478  70.691  1.00  0.00    -0.119 NA 
HETATM   35  N   UNK A   0      -9.973   5.990  69.033  1.00  0.00    -0.149 NA 
HETATM   36  N   UNK A   0      -9.451   7.343  65.657  1.00  0.00    -0.290 NA 
HETATM   37  H2  UNK A   0     -12.106   6.994  68.078  1.00  0.00     0.000 HD 
HETATM   38  H2  UNK A   0      -7.481   5.372  71.028  1.00  0.00     0.000 HD 
ENDBRANCH  22  23
ENDBRANCH   2  22
TORSDOF 7
ENDMDL
MODEL      236
REMARK 921   NORMALIZED FREE ENERGY PREDICTED BY IDOCK:   -4.07 KCAL/MOL
REMARK 922        TOTAL FREE ENERGY PREDICTED BY IDOCK:   -7.48 KCAL/MOL
REMARK 923 INTER-LIGAND FREE ENERGY PREDICTED BY IDOCK:   -7.94 KCAL/MOL
REMARK 924 INTRA-LIGAND FREE ENERGY PREDICTED BY IDOCK:    0.45 KCAL/MOL
REMARK 927      BINDING AFFINITY PREDICTED BY RF-SCORE:    0.00 PKD
ROOT
HETATM    1  C   UNK A   0     -12.285  16.127  72.303  1.00  0.00    -0.496 C  
HETATM    2  N   UNK A   0     -11.824  15.269  71.216  1.00  0.00    -0.326 NA 
ENDROOT
BRANCH   2   3
HETATM    3  C   UNK A   0     -12.292  13.963  71.130  1.00  0.00    -0.359 A  
HETATM    4  C   UNK A   0     -12.911  11.199  71.088  1.00  0.00    -0.393 A  
HETATM    5  C   UNK A   0     -12.255  13.219  69.938  1.00  0.00    -0.313 A  
HETATM    6  C   UNK A   0     -12.765  13.301  72.274  1.00  0.00    -0.125 A  
HETATM    7  C   UNK A   0     -13.056  11.934  72.264  1.00  0.00    -0.123 A  
HETATM    8  C   UNK A   0     -12.574  11.854  69.906  1.00  0.00     0.081 A  
BRANCH   4   9
HETATM    9  C   UNK A   0     -13.090   9.726  71.088  1.00  0.00    -0.346 C  
HETATM   10  O   UNK A   0     -14.198   9.226  71.214  1.00  0.00    -0.193 OA 
ATOM     11  N   GLU A   1     -11.931   8.986  70.887  1.00  0.00    -0.395 N  
ATOM     12  H   GLU A   1     -11.023   9.448  70.858  1.00  0.00     0.000 HD 
BRANCH  11  13
ATOM     13  CA  GLU A   1     -12.029   7.523  70.717  1.00  0.00    -0.197 C  
ATOM     14  OXT GLU A   1     -12.273   5.689  72.319  1.00  0.00    -0.111 OA 
ATOM     15  C   GLU A   1     -11.945   6.846  72.097  1.00  0.00    -0.267 C  
ATOM     16  O   GLU A   1     -11.304   7.605  73.022  1.00  0.00    -0.372 OA 
BRANCH  13  17
ATOM     17  CB  GLU A   1     -10.893   7.016  69.815  1.00  0.00    -0.276 C  
BRANCH  17  18
ATOM     18  CG  GLU A   1      -9.501   7.285  70.394  1.00  0.00    -0.165 C  
ATOM     19  OE2 GLU A   1      -8.751   7.803  68.148  1.00  0.00    -0.126 OA 
ATOM     20  OE1 GLU A   1      -7.289   7.967  69.864  1.00  0.00    -0.071 OA 
ATOM     21  CD  GLU A   1      -8.507   7.701  69.340  1.00  0.00    -0.132 C  
ENDBRANCH  17  18
ENDBRANCH  13  17
ENDBRANCH  11  13
ENDBRANCH   4   9
ENDBRANCH   2   3
BRANCH   2  22
HETATM   22  C   UNK A   0     -10.582  15.652  70.520  1.00  0.00    -0.193 C  
BRANCH  22  23
HETATM   23  C   UNK A   0     -10.562  15.304  69.044  1.00  0.00    -0.245 A  
HETATM   24  N   UNK A   0      -8.944  11.661  67.673  1.00  0.00    -0.162 NA 
HETATM   25  C   UNK A   0     -10.560  14.653  66.371  1.00  0.00    -0.301 A  
HETATM   26  C   UNK A   0     -11.156  16.098  68.080  1.00  0.00    -0.317 A  
HETATM   27  N   UNK A   0     -10.523  14.388  65.069  1.00  0.00    -0.414 NA 
HETATM   28  C   UNK A   0      -9.433  12.662  66.818  1.00  0.00    -0.237 A  
HETATM   29  C   UNK A   0      -9.998  13.820  67.343  1.00  0.00    -0.237 A  
HETATM   30  N   UNK A   0     -11.161  15.786  66.757  1.00  0.00    -0.192 NA 
HETATM   31  C   UNK A   0      -9.907  13.278  64.683  1.00  0.00     0.031 A  
HETATM   32  H1  UNK A   0      -8.980  11.880  68.669  1.00  0.00     0.000 HD 
HETATM   33  H1  UNK A   0      -9.346  12.177  63.034  1.00  0.00     0.000 HD 
HETATM   34  N   UNK A   0      -9.820  13.030  63.331  1.00  0.00    -0.276 NA 
HETATM   35  N   UNK A   0      -9.386  12.374  65.509  1.00  0.00    -0.439 NA 
HETATM   36  N   UNK A   0      -9.987  14.135  68.678  1.00  0.00    -0.248 NA 
HETATM   37  H2  UNK A   0      -7.993  11.407  67.405  1.00  0.00     0.000 HD 
HETATM   38  H2  UNK A   0     -10.215  13.678  62.649  1.00  0.00     0.000 HD 
ENDBRANCH  22  23
ENDBRANCH   2  22
TORSDOF 7
ENDMDL
MODEL      237
REMARK 921   NORMALIZED FREE ENERGY PREDICTED BY IDOCK:   -4.06 KCAL/MOL
REMARK 922        TOTAL FREE ENERGY PREDICTED BY IDOCK:   -7.47 KCAL/MOL
REMARK 923 INTER-LIGAND FREE ENERGY PREDICTED BY IDOCK:   -7.12 KCAL/MOL
REMARK 924 INTRA-LIGAND FREE ENERGY PREDICTED BY IDOCK:   -0.35 KCAL/MOL
REMARK 927      BINDING AFFINITY PREDICTED BY RF-SCORE:    0.00 PKD
ROOT
HETATM    1  C   UNK A   0     -11.217  15.605  69.368  1.00  0.00    -0.313 C  
HETATM    2  N   UNK A   0     -11.138  15.254  67.953  1.00  0.00    -0.310 NA 
ENDROOT
BRANCH   2   3
HETATM    3  C   UNK A   0     -10.848  13.945  67.589  1.00  0.00    -0.254 A  
HETATM    4  C   UNK A   0      -9.898  11.364  66.908  1.00  0.00    -0.218 A  
HETATM    5  C   UNK A   0     -10.707  13.542  66.249  1.00  0.00    -0.288 A  
HETATM    6  C   UNK A   0     -10.610  12.970  68.571  1.00  0.00    -0.274 A  
HETATM    7  C   UNK A   0     -10.125  11.701  68.243  1.00  0.00    -0.206 A  
HETATM    8  C   UNK A   0     -10.252  12.262  65.905  1.00  0.00    -0.274 A  
BRANCH   4   9
HETATM    9  C   UNK A   0      -9.264  10.072  66.551  1.00  0.00    -0.150 C  
HETATM   10  O   UNK A   0      -8.404  10.010  65.685  1.00  0.00    -0.135 OA 
ATOM     11  N   GLU A   1      -9.682   8.977  67.297  1.00  0.00    -0.168 N  
ATOM     12  H   GLU A   1     -10.453   9.068  67.958  1.00  0.00     0.000 HD 
BRANCH  11  13
ATOM     13  CA  GLU A   1      -9.000   7.680  67.122  1.00  0.00    -0.126 C  
ATOM     14  OXT GLU A   1      -9.722   5.372  67.502  1.00  0.00    -0.124 OA 
ATOM     15  C   GLU A   1      -9.870   6.564  67.732  1.00  0.00    -0.123 C  
ATOM     16  O   GLU A   1     -10.715   7.016  68.692  1.00  0.00    -0.215 OA 
BRANCH  13  17
ATOM     17  CB  GLU A   1      -7.626   7.706  67.808  1.00  0.00    -0.117 C  
BRANCH  17  18
ATOM     18  CG  GLU A   1      -7.588   8.611  69.043  1.00  0.00    -0.090 C  
ATOM     19  OE2 GLU A   1      -5.719   9.780  68.035  1.00  0.00    -0.040 OA 
ATOM     20  OE1 GLU A   1      -6.499  10.471  70.041  1.00  0.00    -0.101 OA 
ATOM     21  CD  GLU A   1      -6.505   9.656  68.960  1.00  0.00    -0.045 C  
ENDBRANCH  17  18
ENDBRANCH  13  17
ENDBRANCH  11  13
ENDBRANCH   4   9
ENDBRANCH   2   3
BRANCH   2  22
HETATM   22  C   UNK A   0     -10.937  16.349  66.986  1.00  0.00    -0.048 C  
BRANCH  22  23
HETATM   23  C   UNK A   0      -9.919  17.385  67.421  1.00  0.00    -0.305 A  
HETATM   24  N   UNK A   0      -6.538  18.262  65.062  1.00  0.00    -0.331 NA 
HETATM   25  C   UNK A   0      -8.092  19.292  68.190  1.00  0.00    -0.314 A  
HETATM   26  C   UNK A   0     -10.085  18.170  68.548  1.00  0.00    -0.400 A  
HETATM   27  N   UNK A   0      -7.196  20.180  68.611  1.00  0.00    -0.219 NA 
HETATM   28  C   UNK A   0      -6.774  18.838  66.320  1.00  0.00    -0.218 A  
HETATM   29  C   UNK A   0      -7.937  18.538  67.022  1.00  0.00    -0.236 A  
HETATM   30  N   UNK A   0      -9.188  19.114  68.937  1.00  0.00    -0.349 NA 
HETATM   31  C   UNK A   0      -6.098  20.341  67.885  1.00  0.00    -0.232 A  
HETATM   32  H1  UNK A   0      -7.234  17.583  64.753  1.00  0.00     0.000 HD 
HETATM   33  H1  UNK A   0      -4.299  21.342  67.790  1.00  0.00     0.000 HD 
HETATM   34  N   UNK A   0      -5.144  21.219  68.349  1.00  0.00    -0.473 NA 
HETATM   35  N   UNK A   0      -5.859  19.730  66.726  1.00  0.00    -0.173 NA 
HETATM   36  N   UNK A   0      -8.838  17.580  66.630  1.00  0.00    -0.252 NA 
HETATM   37  H2  UNK A   0      -5.608  17.844  65.038  1.00  0.00     0.000 HD 
HETATM   38  H2  UNK A   0      -5.278  21.729  69.223  1.00  0.00     0.000 HD 
ENDBRANCH  22  23
ENDBRANCH   2  22
TORSDOF 7
ENDMDL
MODEL      238
REMARK 921   NORMALIZED FREE ENERGY PREDICTED BY IDOCK:   -4.06 KCAL/MOL
REMARK 922        TOTAL FREE ENERGY PREDICTED BY IDOCK:   -7.47 KCAL/MOL
REMARK 923 INTER-LIGAND FREE ENERGY PREDICTED BY IDOCK:   -6.98 KCAL/MOL
REMARK 924 INTRA-LIGAND FREE ENERGY PREDICTED BY IDOCK:   -0.48 KCAL/MOL
REMARK 927      BINDING AFFINITY PREDICTED BY RF-SCORE:    0.00 PKD
ROOT
HETATM    1  C   UNK A   0     -11.767  13.552  68.981  1.00  0.00    -0.327 C  
HETATM    2  N   UNK A   0     -11.654  13.753  67.540  1.00  0.00    -0.334 NA 
ENDROOT
BRANCH   2   3
HETATM    3  C   UNK A   0     -11.241  12.700  66.733  1.00  0.00    -0.300 A  
HETATM    4  C   UNK A   0     -10.089  10.544  65.301  1.00  0.00    -0.369 A  
HETATM    5  C   UNK A   0     -10.608  12.895  65.492  1.00  0.00    -0.298 A  
HETATM    6  C   UNK A   0     -11.380  11.373  67.170  1.00  0.00    -0.327 A  
HETATM    7  C   UNK A   0     -10.799  10.307  66.477  1.00  0.00    -0.066 A  
HETATM    8  C   UNK A   0     -10.049  11.831  64.771  1.00  0.00    -0.302 A  
BRANCH   4   9
HETATM    9  C   UNK A   0      -9.358   9.446  64.623  1.00  0.00    -0.044 C  
HETATM   10  O   UNK A   0      -8.934   9.580  63.485  1.00  0.00    -0.233 OA 
ATOM     11  N   GLU A   1      -9.160   8.302  65.387  1.00  0.00    -0.401 N  
ATOM     12  H   GLU A   1      -9.595   8.214  66.305  1.00  0.00     0.000 HD 
BRANCH  11  13
ATOM     13  CA  GLU A   1      -8.312   7.217  64.856  1.00  0.00    -0.016 C  
ATOM     14  OXT GLU A   1      -8.239   4.812  65.306  1.00  0.00    -0.112 OA 
ATOM     15  C   GLU A   1      -8.566   5.933  65.668  1.00  0.00    -0.155 C  
ATOM     16  O   GLU A   1      -9.039   6.180  66.916  1.00  0.00    -0.121 OA 
BRANCH  13  17
ATOM     17  CB  GLU A   1      -6.829   7.608  64.947  1.00  0.00    -0.051 C  
BRANCH  17  18
ATOM     18  CG  GLU A   1      -6.160   7.130  66.239  1.00  0.00    -0.036 C  
ATOM     19  OE2 GLU A   1      -6.971   9.146  67.314  1.00  0.00    -0.076 OA 
ATOM     20  OE1 GLU A   1      -5.795   7.646  68.528  1.00  0.00    -0.026 OA 
ATOM     21  CD  GLU A   1      -6.363   8.090  67.384  1.00  0.00    -0.056 C  
ENDBRANCH  17  18
ENDBRANCH  13  17
ENDBRANCH  11  13
ENDBRANCH   4   9
ENDBRANCH   2   3
BRANCH   2  22
HETATM   22  C   UNK A   0     -11.559  15.139  67.046  1.00  0.00    -0.174 C  
BRANCH  22  23
HETATM   23  C   UNK A   0     -10.271  15.846  67.421  1.00  0.00    -0.270 A  
HETATM   24  N   UNK A   0     -10.308  19.603  69.332  1.00  0.00    -0.565 NA 
HETATM   25  C   UNK A   0      -7.936  17.113  68.135  1.00  0.00    -0.216 A  
HETATM   26  C   UNK A   0      -9.025  15.268  67.256  1.00  0.00    -0.195 A  
HETATM   27  N   UNK A   0      -6.792  17.728  68.421  1.00  0.00    -0.212 NA 
HETATM   28  C   UNK A   0      -9.132  18.949  68.933  1.00  0.00    -0.240 A  
HETATM   29  C   UNK A   0      -9.192  17.687  68.350  1.00  0.00    -0.288 A  
HETATM   30  N   UNK A   0      -7.866  15.885  67.606  1.00  0.00    -0.138 NA 
HETATM   31  C   UNK A   0      -6.859  18.953  68.924  1.00  0.00    -0.300 A  
HETATM   32  H1  UNK A   0     -11.177  19.118  69.106  1.00  0.00     0.000 HD 
HETATM   33  H1  UNK A   0      -5.727  20.555  69.555  1.00  0.00     0.000 HD 
HETATM   34  N   UNK A   0      -5.675  19.613  69.168  1.00  0.00    -0.210 NA 
HETATM   35  N   UNK A   0      -7.990  19.586  69.230  1.00  0.00    -0.203 NA 
HETATM   36  N   UNK A   0     -10.364  17.069  67.993  1.00  0.00    -0.324 NA 
HETATM   37  H2  UNK A   0     -10.328  20.549  68.953  1.00  0.00     0.000 HD 
HETATM   38  H2  UNK A   0      -4.776  19.173  68.970  1.00  0.00     0.000 HD 
ENDBRANCH  22  23
ENDBRANCH   2  22
TORSDOF 7
ENDMDL
MODEL      239
REMARK 921   NORMALIZED FREE ENERGY PREDICTED BY IDOCK:   -4.02 KCAL/MOL
REMARK 922        TOTAL FREE ENERGY PREDICTED BY IDOCK:   -7.41 KCAL/MOL
REMARK 923 INTER-LIGAND FREE ENERGY PREDICTED BY IDOCK:   -7.98 KCAL/MOL
REMARK 924 INTRA-LIGAND FREE ENERGY PREDICTED BY IDOCK:    0.57 KCAL/MOL
REMARK 927      BINDING AFFINITY PREDICTED BY RF-SCORE:    0.00 PKD
ROOT
HETATM    1  C   UNK A   0     -11.567  10.081  69.127  1.00  0.00     0.045 C  
HETATM    2  N   UNK A   0     -10.767  10.509  67.983  1.00  0.00    -0.224 NA 
ENDROOT
BRANCH   2   3
HETATM    3  C   UNK A   0     -10.401  11.845  67.867  1.00  0.00    -0.198 A  
HETATM    4  C   UNK A   0      -9.645  14.506  67.260  1.00  0.00    -0.226 A  
HETATM    5  C   UNK A   0      -9.075  12.287  68.021  1.00  0.00    -0.191 A  
HETATM    6  C   UNK A   0     -11.354  12.814  67.513  1.00  0.00    -0.361 A  
HETATM    7  C   UNK A   0     -10.985  14.124  67.196  1.00  0.00    -0.304 A  
HETATM    8  C   UNK A   0      -8.696  13.606  67.736  1.00  0.00    -0.184 A  
BRANCH   4   9
HETATM    9  C   UNK A   0      -9.219  15.852  66.804  1.00  0.00    -0.240 C  
HETATM   10  O   UNK A   0      -8.283  15.988  66.030  1.00  0.00    -0.181 OA 
ATOM     11  N   GLU A   1      -9.983  16.911  67.278  1.00  0.00    -0.270 N  
ATOM     12  H   GLU A   1     -10.709  16.751  67.977  1.00  0.00     0.000 HD 
BRANCH  11  13
ATOM     13  CA  GLU A   1      -9.736  18.270  66.760  1.00  0.00    -0.322 C  
ATOM     14  OXT GLU A   1     -10.826  19.594  65.014  1.00  0.00    -0.304 OA 
ATOM     15  C   GLU A   1     -10.594  18.497  65.502  1.00  0.00     0.039 C  
ATOM     16  O   GLU A   1     -10.932  17.341  64.876  1.00  0.00    -0.815 OA 
BRANCH  13  17
ATOM     17  CB  GLU A   1      -8.248  18.446  66.418  1.00  0.00    -0.280 C  
BRANCH  17  18
ATOM     18  CG  GLU A   1      -7.421  18.979  67.592  1.00  0.00    -0.251 C  
ATOM     19  OE2 GLU A   1      -5.929  17.091  67.297  1.00  0.00    -0.126 OA 
ATOM     20  OE1 GLU A   1      -5.480  18.609  68.909  1.00  0.00    -0.193 OA 
ATOM     21  CD  GLU A   1      -6.222  18.115  67.892  1.00  0.00    -0.174 C  
ENDBRANCH  17  18
ENDBRANCH  13  17
ENDBRANCH  11  13
ENDBRANCH   4   9
ENDBRANCH   2   3
BRANCH   2  22
HETATM   22  C   UNK A   0     -10.742   9.633  66.798  1.00  0.00    -0.078 C  
BRANCH  22  23
HETATM   23  C   UNK A   0     -10.035   8.310  67.016  1.00  0.00    -0.255 A  
HETATM   24  N   UNK A   0     -11.320   4.793  65.080  1.00  0.00    -0.999 NA 
HETATM   25  C   UNK A   0      -8.730   5.915  67.381  1.00  0.00    -0.108 A  
HETATM   26  C   UNK A   0      -8.881   8.193  67.770  1.00  0.00    -0.130 A  
HETATM   27  N   UNK A   0      -8.114   4.761  67.617  1.00  0.00    -0.097 NA 
HETATM   28  C   UNK A   0     -10.272   4.824  66.014  1.00  0.00    -0.278 A  
HETATM   29  C   UNK A   0      -9.869   6.030  66.578  1.00  0.00    -0.145 A  
HETATM   30  N   UNK A   0      -8.229   7.016  67.956  1.00  0.00    -0.118 NA 
HETATM   31  C   UNK A   0      -8.624   3.666  67.067  1.00  0.00    -0.109 A  
HETATM   32  H1  UNK A   0     -11.781   5.687  64.910  1.00  0.00     0.000 HD 
HETATM   33  H1  UNK A   0      -8.413   1.621  66.933  1.00  0.00     0.000 HD 
HETATM   34  N   UNK A   0      -8.020   2.462  67.356  1.00  0.00    -0.065 NA 
HETATM   35  N   UNK A   0      -9.666   3.649  66.238  1.00  0.00    -0.385 NA 
HETATM   36  N   UNK A   0     -10.533   7.216  66.392  1.00  0.00    -0.456 NA 
HETATM   37  H2  UNK A   0     -12.008   4.090  65.350  1.00  0.00     0.000 HD 
HETATM   38  H2  UNK A   0      -7.208   2.414  67.972  1.00  0.00     0.000 HD 
ENDBRANCH  22  23
ENDBRANCH   2  22
TORSDOF 7
ENDMDL
MODEL      240
REMARK 921   NORMALIZED FREE ENERGY PREDICTED BY IDOCK:   -3.99 KCAL/MOL
REMARK 922        TOTAL FREE ENERGY PREDICTED BY IDOCK:   -7.37 KCAL/MOL
REMARK 923 INTER-LIGAND FREE ENERGY PREDICTED BY IDOCK:   -7.96 KCAL/MOL
REMARK 924 INTRA-LIGAND FREE ENERGY PREDICTED BY IDOCK:    0.60 KCAL/MOL
REMARK 927      BINDING AFFINITY PREDICTED BY RF-SCORE:    0.00 PKD
ROOT
HETATM    1  C   UNK A   0      -8.260   6.756  70.811  1.00  0.00    -0.123 C  
HETATM    2  N   UNK A   0      -7.856   7.315  69.524  1.00  0.00    -0.116 NA 
ENDROOT
BRANCH   2   3
HETATM    3  C   UNK A   0      -8.604   8.341  68.960  1.00  0.00    -0.135 A  
HETATM    4  C   UNK A   0     -10.139  10.582  68.155  1.00  0.00    -0.180 A  
HETATM    5  C   UNK A   0      -9.993   8.249  68.762  1.00  0.00    -0.193 A  
HETATM    6  C   UNK A   0      -7.997   9.562  68.626  1.00  0.00    -0.092 A  
HETATM    7  C   UNK A   0      -8.751  10.676  68.244  1.00  0.00    -0.135 A  
HETATM    8  C   UNK A   0     -10.757   9.349  68.349  1.00  0.00    -0.213 A  
BRANCH   4   9
HETATM    9  C   UNK A   0     -10.964  11.783  67.878  1.00  0.00    -0.221 C  
HETATM   10  O   UNK A   0     -12.167  11.691  67.685  1.00  0.00    -0.544 OA 
ATOM     11  N   GLU A   1     -10.280  12.993  67.904  1.00  0.00    -0.227 N  
ATOM     12  H   GLU A   1      -9.265  13.009  67.999  1.00  0.00     0.000 HD 
BRANCH  11  13
ATOM     13  CA  GLU A   1     -11.039  14.254  67.795  1.00  0.00    -0.280 C  
ATOM     14  OXT GLU A   1     -12.079  15.704  69.471  1.00  0.00    -0.360 OA 
ATOM     15  C   GLU A   1     -11.644  14.602  69.168  1.00  0.00    -0.301 C  
ATOM     16  O   GLU A   1     -11.811  13.515  69.964  1.00  0.00    -0.308 OA 
BRANCH  13  17
ATOM     17  CB  GLU A   1     -12.157  14.112  66.751  1.00  0.00    -0.474 C  
BRANCH  17  18
ATOM     18  CG  GLU A   1     -11.643  14.158  65.309  1.00  0.00    -0.341 C  
ATOM     19  OE2 GLU A   1     -13.355  12.544  64.728  1.00  0.00    -0.773 OA 
ATOM     20  OE1 GLU A   1     -11.984  13.326  63.111  1.00  0.00    -0.476 OA 
ATOM     21  CD  GLU A   1     -12.425  13.256  64.388  1.00  0.00    -0.290 C  
ENDBRANCH  17  18
ENDBRANCH  13  17
ENDBRANCH  11  13
ENDBRANCH   4   9
ENDBRANCH   2   3
BRANCH   2  22
HETATM   22  C   UNK A   0      -6.958   6.508  68.678  1.00  0.00    -0.080 C  
BRANCH  22  23
HETATM   23  C   UNK A   0      -7.593   6.010  67.394  1.00  0.00    -0.093 A  
HETATM   24  N   UNK A   0      -9.644   2.331  67.246  1.00  0.00    -0.406 NA 
HETATM   25  C   UNK A   0      -8.779   5.123  65.076  1.00  0.00    -0.148 A  
HETATM   26  C   UNK A   0      -7.629   6.765  66.235  1.00  0.00    -0.086 A  
HETATM   27  N   UNK A   0      -9.296   4.693  63.928  1.00  0.00    -0.332 NA 
HETATM   28  C   UNK A   0      -9.434   3.146  66.122  1.00  0.00    -0.034 A  
HETATM   29  C   UNK A   0      -8.790   4.371  66.254  1.00  0.00    -0.114 A  
HETATM   30  N   UNK A   0      -8.212   6.336  65.085  1.00  0.00    -0.140 NA 
HETATM   31  C   UNK A   0      -9.836   3.482  63.911  1.00  0.00    -0.171 A  
HETATM   32  H1  UNK A   0      -9.242   2.675  68.118  1.00  0.00     0.000 HD 
HETATM   33  H1  UNK A   0     -10.738   2.082  62.698  1.00  0.00     0.000 HD 
HETATM   34  N   UNK A   0     -10.323   3.013  62.711  1.00  0.00    -0.129 NA 
HETATM   35  N   UNK A   0      -9.963   2.693  64.977  1.00  0.00    -0.344 NA 
HETATM   36  N   UNK A   0      -8.198   4.799  67.416  1.00  0.00    -0.105 NA 
HETATM   37  H2  UNK A   0      -9.314   1.384  67.059  1.00  0.00     0.000 HD 
HETATM   38  H2  UNK A   0     -10.269   3.579  61.863  1.00  0.00     0.000 HD 
ENDBRANCH  22  23
ENDBRANCH   2  22
TORSDOF 7
ENDMDL
MODEL      241
REMARK 921   NORMALIZED FREE ENERGY PREDICTED BY IDOCK:   -3.98 KCAL/MOL
REMARK 922        TOTAL FREE ENERGY PREDICTED BY IDOCK:   -7.36 KCAL/MOL
REMARK 923 INTER-LIGAND FREE ENERGY PREDICTED BY IDOCK:   -6.55 KCAL/MOL
REMARK 924 INTRA-LIGAND FREE ENERGY PREDICTED BY IDOCK:   -0.80 KCAL/MOL
REMARK 927      BINDING AFFINITY PREDICTED BY RF-SCORE:    0.00 PKD
ROOT
HETATM    1  C   UNK A   0     -12.614  10.392  70.403  1.00  0.00    -0.254 C  
HETATM    2  N   UNK A   0     -11.359  10.738  69.742  1.00  0.00    -0.276 NA 
ENDROOT
BRANCH   2   3
HETATM    3  C   UNK A   0     -11.170  12.032  69.271  1.00  0.00    -0.229 A  
HETATM    4  C   UNK A   0     -10.757  14.770  68.671  1.00  0.00    -0.253 A  
HETATM    5  C   UNK A   0     -12.237  12.879  68.924  1.00  0.00    -0.044 A  
HETATM    6  C   UNK A   0      -9.878  12.577  69.190  1.00  0.00     0.422 A  
HETATM    7  C   UNK A   0      -9.669  13.930  68.910  1.00  0.00    -0.013 A  
HETATM    8  C   UNK A   0     -12.039  14.231  68.612  1.00  0.00    -0.295 A  
BRANCH   4   9
HETATM    9  C   UNK A   0     -10.563  16.231  68.501  1.00  0.00    -0.294 C  
HETATM   10  O   UNK A   0     -11.263  17.033  69.101  1.00  0.00    -0.064 OA 
ATOM     11  N   GLU A   1      -9.517  16.599  67.665  1.00  0.00    -0.225 N  
ATOM     12  H   GLU A   1      -9.009  15.893  67.133  1.00  0.00     0.000 HD 
BRANCH  11  13
ATOM     13  CA  GLU A   1      -9.147  18.024  67.555  1.00  0.00    -0.253 C  
ATOM     14  OXT GLU A   1      -8.268  19.361  65.702  1.00  0.00    -0.397 OA 
ATOM     15  C   GLU A   1      -8.439  18.260  66.207  1.00  0.00    -0.191 C  
ATOM     16  O   GLU A   1      -7.863  17.138  65.707  1.00  0.00    -0.449 OA 
BRANCH  13  17
ATOM     17  CB  GLU A   1      -8.218  18.423  68.711  1.00  0.00    -0.257 C  
BRANCH  17  18
ATOM     18  CG  GLU A   1      -7.193  17.340  69.059  1.00  0.00    -0.227 C  
ATOM     19  OE2 GLU A   1      -5.880  19.048  70.170  1.00  0.00    -0.247 OA 
ATOM     20  OE1 GLU A   1      -5.142  16.912  70.177  1.00  0.00    -0.158 OA 
ATOM     21  CD  GLU A   1      -6.027  17.880  69.848  1.00  0.00    -0.208 C  
ENDBRANCH  17  18
ENDBRANCH  13  17
ENDBRANCH  11  13
ENDBRANCH   4   9
ENDBRANCH   2   3
BRANCH   2  22
HETATM   22  C   UNK A   0     -10.534   9.636  69.217  1.00  0.00    -0.217 C  
BRANCH  22  23
HETATM   23  C   UNK A   0     -10.500   8.406  70.104  1.00  0.00    -0.228 A  
HETATM   24  N   UNK A   0      -8.762   8.518  73.942  1.00  0.00    -0.293 NA 
HETATM   25  C   UNK A   0     -10.471   6.186  71.728  1.00  0.00    -0.216 A  
HETATM   26  C   UNK A   0     -11.117   7.217  69.758  1.00  0.00    -0.182 A  
HETATM   27  N   UNK A   0     -10.423   5.085  72.471  1.00  0.00    -0.208 NA 
HETATM   28  C   UNK A   0      -9.281   7.350  73.361  1.00  0.00    -0.201 A  
HETATM   29  C   UNK A   0      -9.884   7.397  72.108  1.00  0.00    -0.172 A  
HETATM   30  N   UNK A   0     -11.109   6.115  70.553  1.00  0.00    -0.325 NA 
HETATM   31  C   UNK A   0      -9.771   5.147  73.625  1.00  0.00    -0.143 A  
HETATM   32  H1  UNK A   0      -8.807   9.354  73.359  1.00  0.00     0.000 HD 
HETATM   33  H1  UNK A   0      -9.171   4.040  75.256  1.00  0.00     0.000 HD 
HETATM   34  N   UNK A   0      -9.672   3.992  74.369  1.00  0.00    -0.117 NA 
HETATM   35  N   UNK A   0      -9.222   6.251  74.127  1.00  0.00    -0.144 NA 
HETATM   36  N   UNK A   0      -9.886   8.510  71.305  1.00  0.00    -0.197 NA 
HETATM   37  H2  UNK A   0      -7.803   8.358  74.250  1.00  0.00     0.000 HD 
HETATM   38  H2  UNK A   0     -10.087   3.118  74.044  1.00  0.00     0.000 HD 
ENDBRANCH  22  23
ENDBRANCH   2  22
TORSDOF 7
ENDMDL
MODEL      242
REMARK 921   NORMALIZED FREE ENERGY PREDICTED BY IDOCK:   -3.97 KCAL/MOL
REMARK 922        TOTAL FREE ENERGY PREDICTED BY IDOCK:   -7.35 KCAL/MOL
REMARK 923 INTER-LIGAND FREE ENERGY PREDICTED BY IDOCK:   -7.69 KCAL/MOL
REMARK 924 INTRA-LIGAND FREE ENERGY PREDICTED BY IDOCK:    0.35 KCAL/MOL
REMARK 927      BINDING AFFINITY PREDICTED BY RF-SCORE:    0.00 PKD
ROOT
HETATM    1  C   UNK A   0      -7.921  10.108  62.480  1.00  0.00    -0.140 C  
HETATM    2  N   UNK A   0      -7.861   9.611  63.851  1.00  0.00    -0.129 NA 
ENDROOT
BRANCH   2   3
HETATM    3  C   UNK A   0      -8.630  10.224  64.834  1.00  0.00    -0.182 A  
HETATM    4  C   UNK A   0     -10.108  11.797  66.668  1.00  0.00    -0.231 A  
HETATM    5  C   UNK A   0      -8.126  10.536  66.109  1.00  0.00    -0.145 A  
HETATM    6  C   UNK A   0      -9.947  10.626  64.558  1.00  0.00    -0.410 A  
HETATM    7  C   UNK A   0     -10.675  11.416  65.452  1.00  0.00    -0.313 A  
HETATM    8  C   UNK A   0      -8.858  11.302  67.027  1.00  0.00    -0.153 A  
BRANCH   4   9
HETATM    9  C   UNK A   0     -10.814  12.739  67.571  1.00  0.00    -0.239 C  
HETATM   10  O   UNK A   0     -11.314  12.355  68.617  1.00  0.00    -0.243 OA 
ATOM     11  N   GLU A   1     -10.815  14.067  67.161  1.00  0.00    -0.283 N  
ATOM     12  H   GLU A   1     -10.446  14.325  66.246  1.00  0.00     0.000 HD 
BRANCH  11  13
ATOM     13  CA  GLU A   1     -11.355  15.101  68.065  1.00  0.00    -0.337 C  
ATOM     14  OXT GLU A   1     -10.887  17.492  68.302  1.00  0.00    -0.338 OA 
ATOM     15  C   GLU A   1     -10.526  16.391  67.911  1.00  0.00    -0.307 C  
ATOM     16  O   GLU A   1      -9.270  16.162  67.452  1.00  0.00    -0.205 OA 
BRANCH  13  17
ATOM     17  CB  GLU A   1     -11.301  14.615  69.521  1.00  0.00    -0.314 C  
BRANCH  17  18
ATOM     18  CG  GLU A   1     -12.351  15.282  70.416  1.00  0.00    -0.422 C  
ATOM     19  OE2 GLU A   1     -12.889  13.086  71.291  1.00  0.00    -0.353 OA 
ATOM     20  OE1 GLU A   1     -13.982  14.892  72.098  1.00  0.00    -0.408 OA 
ATOM     21  CD  GLU A   1     -13.079  14.291  71.289  1.00  0.00    -0.355 C  
ENDBRANCH  17  18
ENDBRANCH  13  17
ENDBRANCH  11  13
ENDBRANCH   4   9
ENDBRANCH   2   3
BRANCH   2  22
HETATM   22  C   UNK A   0      -6.699   8.789  64.233  1.00  0.00    -0.075 C  
BRANCH  22  23
HETATM   23  C   UNK A   0      -7.039   7.352  64.578  1.00  0.00    -0.061 A  
HETATM   24  N   UNK A   0     -10.691   6.346  66.426  1.00  0.00    -0.503 NA 
HETATM   25  C   UNK A   0      -7.673   4.741  65.170  1.00  0.00    -0.086 A  
HETATM   26  C   UNK A   0      -6.232   6.286  64.222  1.00  0.00    -0.030 A  
HETATM   27  N   UNK A   0      -7.931   3.478  65.494  1.00  0.00    -0.092 NA 
HETATM   28  C   UNK A   0      -9.680   5.411  66.150  1.00  0.00    -0.145 A  
HETATM   29  C   UNK A   0      -8.519   5.807  65.493  1.00  0.00    -0.150 A  
HETATM   30  N   UNK A   0      -6.536   4.993  64.510  1.00  0.00    -0.041 NA 
HETATM   31  C   UNK A   0      -9.046   3.230  66.170  1.00  0.00    -0.153 A  
HETATM   32  H1  UNK A   0     -10.478   7.310  66.171  1.00  0.00     0.000 HD 
HETATM   33  H1  UNK A   0     -10.144   1.739  67.074  1.00  0.00     0.000 HD 
HETATM   34  N   UNK A   0      -9.287   1.929  66.554  1.00  0.00    -0.350 NA 
HETATM   35  N   UNK A   0      -9.961   4.144  66.485  1.00  0.00    -0.349 NA 
HETATM   36  N   UNK A   0      -8.212   7.113  65.209  1.00  0.00    -0.148 NA 
HETATM   37  H2  UNK A   0     -10.955   6.295  67.410  1.00  0.00     0.000 HD 
HETATM   38  H2  UNK A   0      -8.630   1.182  66.327  1.00  0.00     0.000 HD 
ENDBRANCH  22  23
ENDBRANCH   2  22
TORSDOF 7
ENDMDL
MODEL      243
REMARK 921   NORMALIZED FREE ENERGY PREDICTED BY IDOCK:   -3.96 KCAL/MOL
REMARK 922        TOTAL FREE ENERGY PREDICTED BY IDOCK:   -7.34 KCAL/MOL
REMARK 923 INTER-LIGAND FREE ENERGY PREDICTED BY IDOCK:   -7.43 KCAL/MOL
REMARK 924 INTRA-LIGAND FREE ENERGY PREDICTED BY IDOCK:    0.10 KCAL/MOL
REMARK 927      BINDING AFFINITY PREDICTED BY RF-SCORE:    0.00 PKD
ROOT
HETATM    1  C   UNK A   0      -6.193   8.738  65.404  1.00  0.00    -0.059 C  
HETATM    2  N   UNK A   0      -7.157   8.900  66.488  1.00  0.00    -0.083 NA 
ENDROOT
BRANCH   2   3
HETATM    3  C   UNK A   0      -7.842  10.103  66.618  1.00  0.00    -0.110 A  
HETATM    4  C   UNK A   0      -9.360  12.420  67.212  1.00  0.00    -0.184 A  
HETATM    5  C   UNK A   0      -9.104  10.326  66.037  1.00  0.00    -0.189 A  
HETATM    6  C   UNK A   0      -7.319  11.137  67.411  1.00  0.00    -0.108 A  
HETATM    7  C   UNK A   0      -8.069  12.275  67.721  1.00  0.00    -0.155 A  
HETATM    8  C   UNK A   0      -9.854  11.477  66.316  1.00  0.00    -0.245 A  
BRANCH   4   9
HETATM    9  C   UNK A   0     -10.216  13.555  67.633  1.00  0.00    -0.239 C  
HETATM   10  O   UNK A   0     -11.017  14.061  66.861  1.00  0.00    -0.291 OA 
ATOM     11  N   GLU A   1     -10.071  13.951  68.957  1.00  0.00    -0.427 N  
ATOM     12  H   GLU A   1      -9.340  13.544  69.540  1.00  0.00     0.000 HD 
BRANCH  11  13
ATOM     13  CA  GLU A   1     -10.987  14.966  69.513  1.00  0.00    -0.273 C  
ATOM     14  OXT GLU A   1     -13.100  14.788  70.736  1.00  0.00    -0.361 OA 
ATOM     15  C   GLU A   1     -12.280  14.276  69.987  1.00  0.00    -0.359 C  
ATOM     16  O   GLU A   1     -12.515  13.099  69.353  1.00  0.00    -0.090 OA 
BRANCH  13  17
ATOM     17  CB  GLU A   1     -11.318  16.023  68.448  1.00  0.00    -0.355 C  
BRANCH  17  18
ATOM     18  CG  GLU A   1     -10.251  17.116  68.334  1.00  0.00    -0.340 C  
ATOM     19  OE2 GLU A   1     -11.001  17.505  66.062  1.00  0.00    -0.052 OA 
ATOM     20  OE1 GLU A   1      -9.332  18.774  66.904  1.00  0.00    -0.283 OA 
ATOM     21  CD  GLU A   1     -10.256  17.790  66.985  1.00  0.00    -0.346 C  
ENDBRANCH  17  18
ENDBRANCH  13  17
ENDBRANCH  11  13
ENDBRANCH   4   9
ENDBRANCH   2   3
BRANCH   2  22
HETATM   22  C   UNK A   0      -7.060   7.981  67.636  1.00  0.00    -0.083 C  
BRANCH  22  23
HETATM   23  C   UNK A   0      -8.394   7.623  68.263  1.00  0.00    -0.125 A  
HETATM   24  N   UNK A   0      -9.931   9.790  71.535  1.00  0.00    -0.008 NA 
HETATM   25  C   UNK A   0     -10.831   6.999  69.375  1.00  0.00    -0.227 A  
HETATM   26  C   UNK A   0      -9.225   6.646  67.745  1.00  0.00    -0.111 A  
HETATM   27  N   UNK A   0     -11.986   6.642  69.929  1.00  0.00    -0.639 NA 
HETATM   28  C   UNK A   0     -10.560   8.658  70.991  1.00  0.00    -0.221 A  
HETATM   29  C   UNK A   0     -10.020   8.021  69.879  1.00  0.00    -0.189 A  
HETATM   30  N   UNK A   0     -10.430   6.330  68.287  1.00  0.00    -0.201 NA 
HETATM   31  C   UNK A   0     -12.372   7.288  71.021  1.00  0.00    -0.297 A  
HETATM   32  H1  UNK A   0      -9.046  10.050  71.099  1.00  0.00     0.000 HD 
HETATM   33  H1  UNK A   0     -13.838   7.378  72.467  1.00  0.00     0.000 HD 
HETATM   34  N   UNK A   0     -13.541   6.882  71.627  1.00  0.00    -0.359 NA 
HETATM   35  N   UNK A   0     -11.723   8.315  71.564  1.00  0.00    -0.280 NA 
HETATM   36  N   UNK A   0      -8.800   8.338  69.337  1.00  0.00    -0.145 NA 
HETATM   37  H2  UNK A   0      -9.804   9.670  72.540  1.00  0.00     0.000 HD 
HETATM   38  H2  UNK A   0     -14.091   6.111  71.248  1.00  0.00     0.000 HD 
ENDBRANCH  22  23
ENDBRANCH   2  22
TORSDOF 7
ENDMDL
MODEL      244
REMARK 921   NORMALIZED FREE ENERGY PREDICTED BY IDOCK:   -3.96 KCAL/MOL
REMARK 922        TOTAL FREE ENERGY PREDICTED BY IDOCK:   -7.33 KCAL/MOL
REMARK 923 INTER-LIGAND FREE ENERGY PREDICTED BY IDOCK:   -7.61 KCAL/MOL
REMARK 924 INTRA-LIGAND FREE ENERGY PREDICTED BY IDOCK:    0.29 KCAL/MOL
REMARK 927      BINDING AFFINITY PREDICTED BY RF-SCORE:    0.00 PKD
ROOT
HETATM    1  C   UNK A   0      -8.076   6.425  63.780  1.00  0.00    -0.034 C  
HETATM    2  N   UNK A   0      -7.938   6.783  65.189  1.00  0.00    -0.123 NA 
ENDROOT
BRANCH   2   3
HETATM    3  C   UNK A   0      -8.515   7.959  65.654  1.00  0.00    -0.147 A  
HETATM    4  C   UNK A   0      -9.923  10.328  66.309  1.00  0.00    -0.295 A  
HETATM    5  C   UNK A   0      -7.994   9.231  65.357  1.00  0.00    -0.108 A  
HETATM    6  C   UNK A   0      -9.706   7.921  66.396  1.00  0.00    -0.235 A  
HETATM    7  C   UNK A   0     -10.414   9.085  66.708  1.00  0.00    -0.270 A  
HETATM    8  C   UNK A   0      -8.678  10.407  65.691  1.00  0.00    -0.184 A  
BRANCH   4   9
HETATM    9  C   UNK A   0     -10.722  11.560  66.517  1.00  0.00    -0.273 C  
HETATM   10  O   UNK A   0     -11.769  11.742  65.913  1.00  0.00    -0.397 OA 
ATOM     11  N   GLU A   1     -10.219  12.443  67.465  1.00  0.00    -0.207 N  
ATOM     12  H   GLU A   1      -9.306  12.279  67.888  1.00  0.00     0.000 HD 
BRANCH  11  13
ATOM     13  CA  GLU A   1     -11.021  13.619  67.853  1.00  0.00    -0.259 C  
ATOM     14  OXT GLU A   1     -12.392  14.103  69.822  1.00  0.00    -0.336 OA 
ATOM     15  C   GLU A   1     -11.854  13.274  69.102  1.00  0.00    -0.329 C  
ATOM     16  O   GLU A   1     -12.083  11.944  69.235  1.00  0.00    -0.282 OA 
BRANCH  13  17
ATOM     17  CB  GLU A   1     -11.950  14.034  66.702  1.00  0.00    -0.473 C  
BRANCH  17  18
ATOM     18  CG  GLU A   1     -11.422  15.230  65.905  1.00  0.00    -0.092 C  
ATOM     19  OE2 GLU A   1     -12.782  14.489  64.040  1.00  0.00    -0.759 OA 
ATOM     20  OE1 GLU A   1     -11.549  16.371  63.826  1.00  0.00    -1.055 OA 
ATOM     21  CD  GLU A   1     -11.997  15.295  64.513  1.00  0.00    -0.271 C  
ENDBRANCH  17  18
ENDBRANCH  13  17
ENDBRANCH  11  13
ENDBRANCH   4   9
ENDBRANCH   2   3
BRANCH   2  22
HETATM   22  C   UNK A   0      -6.858   6.139  65.958  1.00  0.00    -0.057 C  
BRANCH  22  23
HETATM   23  C   UNK A   0      -7.271   5.672  67.341  1.00  0.00    -0.076 A  
HETATM   24  N   UNK A   0      -9.613   2.209  67.877  1.00  0.00    -0.380 NA 
HETATM   25  C   UNK A   0      -7.988   4.803  69.850  1.00  0.00    -0.069 A  
HETATM   26  C   UNK A   0      -6.827   6.283  68.500  1.00  0.00    -0.074 A  
HETATM   27  N   UNK A   0      -8.365   4.435  71.071  1.00  0.00    -0.087 NA 
HETATM   28  C   UNK A   0      -9.218   3.048  68.932  1.00  0.00    -0.163 A  
HETATM   29  C   UNK A   0      -8.404   4.149  68.686  1.00  0.00    -0.083 A  
HETATM   30  N   UNK A   0      -7.175   5.862  69.744  1.00  0.00    -0.068 NA 
HETATM   31  C   UNK A   0      -9.190   3.401  71.176  1.00  0.00    -0.124 A  
HETATM   32  H1  UNK A   0      -9.314   2.505  66.947  1.00  0.00     0.000 HD 
HETATM   33  H1  UNK A   0     -10.260   2.259  72.517  1.00  0.00     0.000 HD 
HETATM   34  N   UNK A   0      -9.626   3.054  72.436  1.00  0.00    -0.121 NA 
HETATM   35  N   UNK A   0      -9.610   2.660  70.153  1.00  0.00    -0.086 NA 
HETATM   36  N   UNK A   0      -8.058   4.576  67.429  1.00  0.00    -0.100 NA 
HETATM   37  H2  UNK A   0     -10.624   2.078  67.895  1.00  0.00     0.000 HD 
HETATM   38  H2  UNK A   0      -9.324   3.575  73.260  1.00  0.00     0.000 HD 
ENDBRANCH  22  23
ENDBRANCH   2  22
TORSDOF 7
ENDMDL
MODEL      245
REMARK 921   NORMALIZED FREE ENERGY PREDICTED BY IDOCK:   -3.95 KCAL/MOL
REMARK 922        TOTAL FREE ENERGY PREDICTED BY IDOCK:   -7.32 KCAL/MOL
REMARK 923 INTER-LIGAND FREE ENERGY PREDICTED BY IDOCK:   -6.25 KCAL/MOL
REMARK 924 INTRA-LIGAND FREE ENERGY PREDICTED BY IDOCK:   -1.07 KCAL/MOL
REMARK 927      BINDING AFFINITY PREDICTED BY RF-SCORE:    0.00 PKD
ROOT
HETATM    1  C   UNK A   0      -6.149   9.111  64.970  1.00  0.00    -0.064 C  
HETATM    2  N   UNK A   0      -7.602   9.215  64.873  1.00  0.00    -0.105 NA 
ENDROOT
BRANCH   2   3
HETATM    3  C   UNK A   0      -8.215  10.443  65.093  1.00  0.00    -0.158 A  
HETATM    4  C   UNK A   0      -9.661  12.771  65.811  1.00  0.00    -0.102 A  
HETATM    5  C   UNK A   0      -9.309  10.893  64.333  1.00  0.00    -0.256 A  
HETATM    6  C   UNK A   0      -7.800  11.265  66.153  1.00  0.00    -0.016 A  
HETATM    7  C   UNK A   0      -8.518  12.405  66.522  1.00  0.00     0.052 A  
HETATM    8  C   UNK A   0     -10.020  12.052  64.674  1.00  0.00    -0.240 A  
BRANCH   4   9
HETATM    9  C   UNK A   0     -10.507  13.901  66.266  1.00  0.00    -0.287 C  
HETATM   10  O   UNK A   0     -11.537  14.194  65.677  1.00  0.00    -0.325 OA 
ATOM     11  N   GLU A   1     -10.069  14.548  67.415  1.00  0.00    -0.235 N  
ATOM     12  H   GLU A   1      -9.167  14.311  67.828  1.00  0.00     0.000 HD 
BRANCH  11  13
ATOM     13  CA  GLU A   1     -10.922  15.581  68.033  1.00  0.00    -0.311 C  
ATOM     14  OXT GLU A   1     -10.482  17.888  68.721  1.00  0.00    -0.335 OA 
ATOM     15  C   GLU A   1     -10.047  16.779  68.448  1.00  0.00    -0.285 C  
ATOM     16  O   GLU A   1      -8.749  16.440  68.654  1.00  0.00    -0.212 OA 
BRANCH  13  17
ATOM     17  CB  GLU A   1     -11.644  15.009  69.262  1.00  0.00    -0.338 C  
BRANCH  17  18
ATOM     18  CG  GLU A   1     -12.481  13.766  68.943  1.00  0.00     0.158 C  
ATOM     19  OE2 GLU A   1     -10.544  12.416  69.492  1.00  0.00     0.133 OA 
ATOM     20  OE1 GLU A   1     -12.465  11.392  68.885  1.00  0.00    -0.386 OA 
ATOM     21  CD  GLU A   1     -11.710  12.485  69.139  1.00  0.00    -0.321 C  
ENDBRANCH  17  18
ENDBRANCH  13  17
ENDBRANCH  11  13
ENDBRANCH   4   9
ENDBRANCH   2   3
BRANCH   2  22
HETATM   22  C   UNK A   0      -8.386   7.972  64.976  1.00  0.00    -0.113 C  
BRANCH  22  23
HETATM   23  C   UNK A   0      -9.120   7.805  66.292  1.00  0.00    -0.178 A  
HETATM   24  N   UNK A   0      -7.378   5.741  69.528  1.00  0.00    -0.069 NA 
HETATM   25  C   UNK A   0     -10.434   7.536  68.694  1.00  0.00    -0.183 A  
HETATM   26  C   UNK A   0     -10.344   8.398  66.547  1.00  0.00    -0.129 A  
HETATM   27  N   UNK A   0     -11.114   7.373  69.826  1.00  0.00    -0.406 NA 
HETATM   28  C   UNK A   0      -8.683   6.258  69.552  1.00  0.00    -0.132 A  
HETATM   29  C   UNK A   0      -9.176   6.971  68.464  1.00  0.00    -0.137 A  
HETATM   30  N   UNK A   0     -11.001   8.271  67.729  1.00  0.00    -0.491 NA 
HETATM   31  C   UNK A   0     -10.564   6.625  70.773  1.00  0.00    -0.226 A  
HETATM   32  H1  UNK A   0      -6.870   5.874  68.653  1.00  0.00     0.000 HD 
HETATM   33  H1  UNK A   0     -10.867   5.835  72.652  1.00  0.00     0.000 HD 
HETATM   34  N   UNK A   0     -11.290   6.411  71.924  1.00  0.00    -0.278 NA 
HETATM   35  N   UNK A   0      -9.350   6.083  70.702  1.00  0.00    -0.159 NA 
HETATM   36  N   UNK A   0      -8.512   7.093  67.269  1.00  0.00    -0.121 NA 
HETATM   37  H2  UNK A   0      -7.388   4.752  69.779  1.00  0.00     0.000 HD 
HETATM   38  H2  UNK A   0     -12.220   6.814  72.043  1.00  0.00     0.000 HD 
ENDBRANCH  22  23
ENDBRANCH   2  22
TORSDOF 7
ENDMDL
MODEL      246
REMARK 921   NORMALIZED FREE ENERGY PREDICTED BY IDOCK:   -3.93 KCAL/MOL
REMARK 922        TOTAL FREE ENERGY PREDICTED BY IDOCK:   -7.29 KCAL/MOL
REMARK 923 INTER-LIGAND FREE ENERGY PREDICTED BY IDOCK:   -6.72 KCAL/MOL
REMARK 924 INTRA-LIGAND FREE ENERGY PREDICTED BY IDOCK:   -0.57 KCAL/MOL
REMARK 927      BINDING AFFINITY PREDICTED BY RF-SCORE:    0.00 PKD
ROOT
HETATM    1  C   UNK A   0     -10.193   8.306  72.329  1.00  0.00    -0.305 C  
HETATM    2  N   UNK A   0     -11.049   7.699  71.314  1.00  0.00    -0.243 NA 
ENDROOT
BRANCH   2   3
HETATM    3  C   UNK A   0     -10.468   7.041  70.236  1.00  0.00    -0.208 A  
HETATM    4  C   UNK A   0      -9.266   6.038  67.875  1.00  0.00    -0.111 A  
HETATM    5  C   UNK A   0     -11.224   6.393  69.244  1.00  0.00    -0.440 A  
HETATM    6  C   UNK A   0      -9.075   7.062  70.057  1.00  0.00    -0.145 A  
HETATM    7  C   UNK A   0      -8.478   6.583  68.888  1.00  0.00    -0.122 A  
HETATM    8  C   UNK A   0     -10.634   5.881  68.080  1.00  0.00    -0.321 A  
BRANCH   4   9
HETATM    9  C   UNK A   0      -8.666   5.644  66.577  1.00  0.00    -0.121 C  
HETATM   10  O   UNK A   0      -8.651   6.416  65.630  1.00  0.00    -0.150 OA 
ATOM     11  N   GLU A   1      -8.094   4.378  66.545  1.00  0.00    -0.102 N  
ATOM     12  H   GLU A   1      -8.195   3.747  67.339  1.00  0.00     0.000 HD 
BRANCH  11  13
ATOM     13  CA  GLU A   1      -7.337   3.958  65.350  1.00  0.00    -0.072 C  
ATOM     14  OXT GLU A   1      -7.176   1.820  64.168  1.00  0.00    -0.051 OA 
ATOM     15  C   GLU A   1      -7.448   2.429  65.193  1.00  0.00    -0.067 C  
ATOM     16  O   GLU A   1      -7.711   1.794  66.363  1.00  0.00    -0.064 OA 
BRANCH  13  17
ATOM     17  CB  GLU A   1      -5.862   4.365  65.484  1.00  0.00    -0.022 C  
BRANCH  17  18
ATOM     18  CG  GLU A   1      -5.430   5.405  64.446  1.00  0.00    -0.016 C  
ATOM     19  OE2 GLU A   1      -6.000   7.130  66.051  1.00  0.00    -0.034 OA 
ATOM     20  OE1 GLU A   1      -5.160   7.730  64.041  1.00  0.00    -0.029 OA 
ATOM     21  CD  GLU A   1      -5.573   6.819  64.951  1.00  0.00    -0.031 C  
ENDBRANCH  17  18
ENDBRANCH  13  17
ENDBRANCH  11  13
ENDBRANCH   4   9
ENDBRANCH   2   3
BRANCH   2  22
HETATM   22  C   UNK A   0     -12.445   8.162  71.227  1.00  0.00    -0.252 C  
BRANCH  22  23
HETATM   23  C   UNK A   0     -12.598   9.669  71.158  1.00  0.00    -0.322 A  
HETATM   24  N   UNK A   0     -11.137  11.873  67.875  1.00  0.00    -0.226 NA 
HETATM   25  C   UNK A   0     -12.909  12.399  71.013  1.00  0.00    -0.155 A  
HETATM   26  C   UNK A   0     -13.306  10.394  72.101  1.00  0.00    -0.269 A  
HETATM   27  N   UNK A   0     -13.025  13.723  70.994  1.00  0.00    -0.286 NA 
HETATM   28  C   UNK A   0     -11.728  12.465  69.003  1.00  0.00    -0.323 A  
HETATM   29  C   UNK A   0     -12.232  11.671  70.029  1.00  0.00    -0.263 A  
HETATM   30  N   UNK A   0     -13.465  11.741  72.039  1.00  0.00    -0.436 NA 
HETATM   31  C   UNK A   0     -12.454  14.378  69.991  1.00  0.00    -0.301 A  
HETATM   32  H1  UNK A   0     -11.056  10.857  67.906  1.00  0.00     0.000 HD 
HETATM   33  H1  UNK A   0     -12.087  16.257  69.228  1.00  0.00     0.000 HD 
HETATM   34  N   UNK A   0     -12.526  15.754  69.999  1.00  0.00    -0.463 NA 
HETATM   35  N   UNK A   0     -11.834  13.800  68.964  1.00  0.00    -0.338 NA 
HETATM   36  N   UNK A   0     -12.065  10.311  70.092  1.00  0.00    -0.428 NA 
HETATM   37  H2  UNK A   0     -10.224  12.291  67.700  1.00  0.00     0.000 HD 
HETATM   38  H2  UNK A   0     -13.002  16.252  70.752  1.00  0.00     0.000 HD 
ENDBRANCH  22  23
ENDBRANCH   2  22
TORSDOF 7
ENDMDL
MODEL      247
REMARK 921   NORMALIZED FREE ENERGY PREDICTED BY IDOCK:   -3.90 KCAL/MOL
REMARK 922        TOTAL FREE ENERGY PREDICTED BY IDOCK:   -7.24 KCAL/MOL
REMARK 923 INTER-LIGAND FREE ENERGY PREDICTED BY IDOCK:   -6.87 KCAL/MOL
REMARK 924 INTRA-LIGAND FREE ENERGY PREDICTED BY IDOCK:   -0.38 KCAL/MOL
REMARK 927      BINDING AFFINITY PREDICTED BY RF-SCORE:    0.00 PKD
ROOT
HETATM    1  C   UNK A   0      -8.120  10.028  62.599  1.00  0.00    -0.137 C  
HETATM    2  N   UNK A   0      -8.581   9.690  63.943  1.00  0.00    -0.190 NA 
ENDROOT
BRANCH   2   3
HETATM    3  C   UNK A   0      -9.461  10.543  64.598  1.00  0.00    -0.263 A  
HETATM    4  C   UNK A   0     -10.965  12.372  66.153  1.00  0.00    -0.321 A  
HETATM    5  C   UNK A   0     -10.330  10.105  65.613  1.00  0.00    -0.210 A  
HETATM    6  C   UNK A   0      -9.464  11.917  64.311  1.00  0.00     0.064 A  
HETATM    7  C   UNK A   0     -10.191  12.826  65.085  1.00  0.00    -0.297 A  
HETATM    8  C   UNK A   0     -11.088  11.003  66.377  1.00  0.00    -0.137 A  
BRANCH   4   9
HETATM    9  C   UNK A   0     -11.638  13.331  67.062  1.00  0.00    -0.359 C  
HETATM   10  O   UNK A   0     -12.779  13.134  67.452  1.00  0.00     0.182 OA 
ATOM     11  N   GLU A   1     -10.865  14.414  67.462  1.00  0.00    -0.278 N  
ATOM     12  H   GLU A   1      -9.944  14.570  67.053  1.00  0.00     0.000 HD 
BRANCH  11  13
ATOM     13  CA  GLU A   1     -11.392  15.338  68.486  1.00  0.00    -0.327 C  
ATOM     14  OXT GLU A   1     -10.654  17.542  69.253  1.00  0.00    -0.268 OA 
ATOM     15  C   GLU A   1     -10.388  16.488  68.693  1.00  0.00    -0.287 C  
ATOM     16  O   GLU A   1      -9.119  16.153  68.348  1.00  0.00    -0.189 OA 
BRANCH  13  17
ATOM     17  CB  GLU A   1     -11.615  14.592  69.810  1.00  0.00    -0.341 C  
BRANCH  17  18
ATOM     18  CG  GLU A   1     -12.802  15.135  70.612  1.00  0.00    -0.440 C  
ATOM     19  OE2 GLU A   1     -11.374  15.148  72.571  1.00  0.00    -0.392 OA 
ATOM     20  OE1 GLU A   1     -13.503  15.880  72.755  1.00  0.00    -0.519 OA 
ATOM     21  CD  GLU A   1     -12.460  15.372  72.061  1.00  0.00    -0.373 C  
ENDBRANCH  17  18
ENDBRANCH  13  17
ENDBRANCH  11  13
ENDBRANCH   4   9
ENDBRANCH   2   3
BRANCH   2  22
HETATM   22  C   UNK A   0      -7.787   8.717  64.715  1.00  0.00    -0.123 C  
BRANCH  22  23
HETATM   23  C   UNK A   0      -7.486   9.148  66.137  1.00  0.00    -0.095 A  
HETATM   24  N   UNK A   0      -5.980  12.991  66.990  1.00  0.00    -0.440 NA 
HETATM   25  C   UNK A   0      -6.975   9.945  68.720  1.00  0.00    -0.062 A  
HETATM   26  C   UNK A   0      -7.777   8.360  67.236  1.00  0.00    -0.098 A  
HETATM   27  N   UNK A   0      -6.685  10.285  69.973  1.00  0.00    -0.121 NA 
HETATM   28  C   UNK A   0      -6.173  12.001  67.967  1.00  0.00    -0.058 A  
HETATM   29  C   UNK A   0      -6.719  10.770  67.620  1.00  0.00    -0.069 A  
HETATM   30  N   UNK A   0      -7.529   8.743  68.515  1.00  0.00    -0.088 NA 
HETATM   31  C   UNK A   0      -6.114  11.466  70.175  1.00  0.00    -0.154 A  
HETATM   32  H1  UNK A   0      -6.207  12.714  66.035  1.00  0.00     0.000 HD 
HETATM   33  H1  UNK A   0      -5.324  12.704  71.620  1.00  0.00     0.000 HD 
HETATM   34  N   UNK A   0      -5.763  11.796  71.465  1.00  0.00    -0.290 NA 
HETATM   35  N   UNK A   0      -5.874  12.365  69.222  1.00  0.00    -0.078 NA 
HETATM   36  N   UNK A   0      -6.964  10.382  66.327  1.00  0.00    -0.111 NA 
HETATM   37  H2  UNK A   0      -5.024  13.344  67.034  1.00  0.00     0.000 HD 
HETATM   38  H2  UNK A   0      -5.937  11.155  72.239  1.00  0.00     0.000 HD 
ENDBRANCH  22  23
ENDBRANCH   2  22
TORSDOF 7
ENDMDL
MODEL      248
REMARK 921   NORMALIZED FREE ENERGY PREDICTED BY IDOCK:   -3.87 KCAL/MOL
REMARK 922        TOTAL FREE ENERGY PREDICTED BY IDOCK:   -7.20 KCAL/MOL
REMARK 923 INTER-LIGAND FREE ENERGY PREDICTED BY IDOCK:   -8.63 KCAL/MOL
REMARK 924 INTRA-LIGAND FREE ENERGY PREDICTED BY IDOCK:    1.43 KCAL/MOL
REMARK 927      BINDING AFFINITY PREDICTED BY RF-SCORE:    0.00 PKD
ROOT
HETATM    1  C   UNK A   0      -9.596  11.423  65.223  1.00  0.00    -0.228 C  
HETATM    2  N   UNK A   0     -10.559  11.375  66.319  1.00  0.00    -0.256 NA 
ENDROOT
BRANCH   2   3
HETATM    3  C   UNK A   0     -10.633  10.237  67.114  1.00  0.00    -0.260 A  
HETATM    4  C   UNK A   0     -10.422   7.980  68.813  1.00  0.00    -0.196 A  
HETATM    5  C   UNK A   0     -10.484   8.938  66.597  1.00  0.00    -0.231 A  
HETATM    6  C   UNK A   0     -10.792  10.350  68.504  1.00  0.00    -0.278 A  
HETATM    7  C   UNK A   0     -10.673   9.243  69.349  1.00  0.00    -0.222 A  
HETATM    8  C   UNK A   0     -10.394   7.815  67.431  1.00  0.00    -0.354 A  
BRANCH   4   9
HETATM    9  C   UNK A   0     -10.165   6.819  69.699  1.00  0.00    -0.187 C  
HETATM   10  O   UNK A   0      -9.074   6.269  69.716  1.00  0.00    -0.141 OA 
ATOM     11  N   GLU A   1     -11.223   6.451  70.521  1.00  0.00    -0.326 N  
ATOM     12  H   GLU A   1     -12.135   6.896  70.418  1.00  0.00     0.000 HD 
BRANCH  11  13
ATOM     13  CA  GLU A   1     -11.014   5.409  71.545  1.00  0.00    -0.094 C  
ATOM     14  OXT GLU A   1     -10.807   5.511  73.982  1.00  0.00    -0.242 OA 
ATOM     15  C   GLU A   1     -10.740   6.083  72.903  1.00  0.00    -0.247 C  
ATOM     16  O   GLU A   1     -10.242   7.339  72.780  1.00  0.00    -0.191 OA 
BRANCH  13  17
ATOM     17  CB  GLU A   1      -9.829   4.512  71.157  1.00  0.00    -0.263 C  
BRANCH  17  18
ATOM     18  CG  GLU A   1      -9.144   3.866  72.365  1.00  0.00    -0.142 C  
ATOM     19  OE2 GLU A   1      -8.154   2.257  70.846  1.00  0.00    -0.048 OA 
ATOM     20  OE1 GLU A   1      -7.664   2.139  73.049  1.00  0.00    -0.043 OA 
ATOM     21  CD  GLU A   1      -8.289   2.685  71.981  1.00  0.00    -0.058 C  
ENDBRANCH  17  18
ENDBRANCH  13  17
ENDBRANCH  11  13
ENDBRANCH   4   9
ENDBRANCH   2   3
BRANCH   2  22
HETATM   22  C   UNK A   0     -11.689  12.321  66.282  1.00  0.00    -0.366 C  
BRANCH  22  23
HETATM   23  C   UNK A   0     -11.672  13.357  67.389  1.00  0.00    -0.373 A  
HETATM   24  N   UNK A   0     -12.779  12.369  71.334  1.00  0.00    -0.312 NA 
HETATM   25  C   UNK A   0     -11.604  15.226  69.406  1.00  0.00    -0.330 A  
HETATM   26  C   UNK A   0     -11.201  14.644  67.202  1.00  0.00    -0.344 A  
HETATM   27  N   UNK A   0     -11.614  16.162  70.351  1.00  0.00    -0.435 NA 
HETATM   28  C   UNK A   0     -12.440  13.669  70.928  1.00  0.00    -0.371 A  
HETATM   29  C   UNK A   0     -12.037  13.914  69.619  1.00  0.00    -0.349 A  
HETATM   30  N   UNK A   0     -11.163  15.575  68.191  1.00  0.00    -0.330 NA 
HETATM   31  C   UNK A   0     -12.072  15.824  71.549  1.00  0.00    -0.454 A  
HETATM   32  H1  UNK A   0     -12.766  11.663  70.598  1.00  0.00     0.000 HD 
HETATM   33  H1  UNK A   0     -12.488  16.546  73.434  1.00  0.00     0.000 HD 
HETATM   34  N   UNK A   0     -12.135  16.807  72.513  1.00  0.00    -0.377 NA 
HETATM   35  N   UNK A   0     -12.457  14.597  71.895  1.00  0.00    -0.334 NA 
HETATM   36  N   UNK A   0     -12.082  12.973  68.620  1.00  0.00    -0.241 NA 
HETATM   37  H2  UNK A   0     -13.687  12.373  71.798  1.00  0.00     0.000 HD 
HETATM   38  H2  UNK A   0     -11.838  17.762  72.311  1.00  0.00     0.000 HD 
ENDBRANCH  22  23
ENDBRANCH   2  22
TORSDOF 7
ENDMDL
MODEL      249
REMARK 921   NORMALIZED FREE ENERGY PREDICTED BY IDOCK:   -3.85 KCAL/MOL
REMARK 922        TOTAL FREE ENERGY PREDICTED BY IDOCK:   -7.17 KCAL/MOL
REMARK 923 INTER-LIGAND FREE ENERGY PREDICTED BY IDOCK:   -6.20 KCAL/MOL
REMARK 924 INTRA-LIGAND FREE ENERGY PREDICTED BY IDOCK:   -0.97 KCAL/MOL
REMARK 927      BINDING AFFINITY PREDICTED BY RF-SCORE:    0.00 PKD
ROOT
HETATM    1  C   UNK A   0      -8.750  10.153  63.552  1.00  0.00    -0.216 C  
HETATM    2  N   UNK A   0      -8.287   9.851  64.904  1.00  0.00    -0.141 NA 
ENDROOT
BRANCH   2   3
HETATM    3  C   UNK A   0      -8.252  10.863  65.856  1.00  0.00    -0.133 A  
HETATM    4  C   UNK A   0      -8.256  13.160  67.513  1.00  0.00    -0.183 A  
HETATM    5  C   UNK A   0      -7.055  11.465  66.281  1.00  0.00     0.075 A  
HETATM    6  C   UNK A   0      -9.444  11.380  66.387  1.00  0.00    -0.224 A  
HETATM    7  C   UNK A   0      -9.454  12.523  67.192  1.00  0.00    -0.208 A  
HETATM    8  C   UNK A   0      -7.049  12.593  67.113  1.00  0.00    -0.035 A  
BRANCH   4   9
HETATM    9  C   UNK A   0      -8.256  14.444  68.256  1.00  0.00    -0.149 C  
HETATM   10  O   UNK A   0      -7.673  14.554  69.324  1.00  0.00    -0.119 OA 
ATOM     11  N   GLU A   1      -8.915  15.494  67.629  1.00  0.00    -0.182 N  
ATOM     12  H   GLU A   1      -9.446  15.332  66.774  1.00  0.00     0.000 HD 
BRANCH  11  13
ATOM     13  CA  GLU A   1      -8.839  16.847  68.214  1.00  0.00    -0.228 C  
ATOM     14  OXT GLU A   1     -10.443  18.692  68.316  1.00  0.00    -0.353 OA 
ATOM     15  C   GLU A   1     -10.076  17.656  67.781  1.00  0.00    -0.338 C  
ATOM     16  O   GLU A   1     -10.629  17.202  66.628  1.00  0.00    -0.277 OA 
BRANCH  13  17
ATOM     17  CB  GLU A   1      -7.559  17.557  67.746  1.00  0.00    -0.197 C  
BRANCH  17  18
ATOM     18  CG  GLU A   1      -7.098  18.657  68.706  1.00  0.00    -0.326 C  
ATOM     19  OE2 GLU A   1      -5.840  16.971  69.912  1.00  0.00    -0.214 OA 
ATOM     20  OE1 GLU A   1      -5.752  19.119  70.607  1.00  0.00    -0.228 OA 
ATOM     21  CD  GLU A   1      -6.180  18.136  69.782  1.00  0.00    -0.169 C  
ENDBRANCH  17  18
ENDBRANCH  13  17
ENDBRANCH  11  13
ENDBRANCH   4   9
ENDBRANCH   2   3
BRANCH   2  22
HETATM   22  C   UNK A   0      -7.481   8.632  65.096  1.00  0.00    -0.090 C  
BRANCH  22  23
HETATM   23  C   UNK A   0      -7.739   7.916  66.408  1.00  0.00    -0.096 A  
HETATM   24  N   UNK A   0     -11.578   6.499  67.417  1.00  0.00    -0.637 NA 
HETATM   25  C   UNK A   0      -8.198   6.583  68.770  1.00  0.00    -0.119 A  
HETATM   26  C   UNK A   0      -6.728   7.596  67.296  1.00  0.00    -0.068 A  
HETATM   27  N   UNK A   0      -8.404   5.990  69.943  1.00  0.00    -0.121 NA 
HETATM   28  C   UNK A   0     -10.471   6.414  68.276  1.00  0.00    -0.223 A  
HETATM   29  C   UNK A   0      -9.221   6.860  67.858  1.00  0.00    -0.124 A  
HETATM   30  N   UNK A   0      -6.944   6.938  68.466  1.00  0.00    -0.073 NA 
HETATM   31  C   UNK A   0      -9.650   5.660  70.256  1.00  0.00    -0.168 A  
HETATM   32  H1  UNK A   0     -11.403   6.956  66.521  1.00  0.00     0.000 HD 
HETATM   33  H1  UNK A   0     -10.831   4.842  71.734  1.00  0.00     0.000 HD 
HETATM   34  N   UNK A   0      -9.872   5.096  71.493  1.00  0.00    -0.169 NA 
HETATM   35  N   UNK A   0     -10.701   5.814  69.453  1.00  0.00    -0.316 NA 
HETATM   36  N   UNK A   0      -9.006   7.528  66.679  1.00  0.00    -0.146 NA 
HETATM   37  H2  UNK A   0     -12.357   6.951  67.894  1.00  0.00     0.000 HD 
HETATM   38  H2  UNK A   0      -9.104   4.938  72.146  1.00  0.00     0.000 HD 
ENDBRANCH  22  23
ENDBRANCH   2  22
TORSDOF 7
ENDMDL
MODEL      250
REMARK 921   NORMALIZED FREE ENERGY PREDICTED BY IDOCK:   -3.78 KCAL/MOL
REMARK 922        TOTAL FREE ENERGY PREDICTED BY IDOCK:   -7.08 KCAL/MOL
REMARK 923 INTER-LIGAND FREE ENERGY PREDICTED BY IDOCK:   -5.95 KCAL/MOL
REMARK 924 INTRA-LIGAND FREE ENERGY PREDICTED BY IDOCK:   -1.13 KCAL/MOL
REMARK 927      BINDING AFFINITY PREDICTED BY RF-SCORE:    0.00 PKD
ROOT
HETATM    1  C   UNK A   0      -5.965  13.288  71.468  1.00  0.00     0.502 C  
HETATM    2  N   UNK A   0      -5.587  13.359  70.059  1.00  0.00    -0.105 NA 
ENDROOT
BRANCH   2   3
HETATM    3  C   UNK A   0      -6.035  14.424  69.285  1.00  0.00    -0.097 A  
HETATM    4  C   UNK A   0      -7.212  16.358  67.583  1.00  0.00    -0.156 A  
HETATM    5  C   UNK A   0      -5.472  14.747  68.038  1.00  0.00    -0.130 A  
HETATM    6  C   UNK A   0      -7.137  15.189  69.698  1.00  0.00    -0.193 A  
HETATM    7  C   UNK A   0      -7.732  16.133  68.857  1.00  0.00    -0.207 A  
HETATM    8  C   UNK A   0      -6.040  15.713  67.197  1.00  0.00     0.177 A  
BRANCH   4   9
HETATM    9  C   UNK A   0      -7.905  17.259  66.630  1.00  0.00    -0.260 C  
HETATM   10  O   UNK A   0      -7.282  18.079  65.972  1.00  0.00    -0.290 OA 
ATOM     11  N   GLU A   1      -9.276  17.064  66.516  1.00  0.00    -0.259 N  
ATOM     12  H   GLU A   1      -9.758  16.415  67.138  1.00  0.00     0.000 HD 
BRANCH  11  13
ATOM     13  CA  GLU A   1     -10.027  17.803  65.484  1.00  0.00     0.376 C  
ATOM     14  OXT GLU A   1     -10.995  20.051  65.441  1.00  0.00    -0.300 OA 
ATOM     15  C   GLU A   1     -10.580  19.105  66.095  1.00  0.00    -0.439 C  
ATOM     16  O   GLU A   1     -10.728  19.036  67.442  1.00  0.00    -0.461 OA 
BRANCH  13  17
ATOM     17  CB  GLU A   1     -11.183  16.944  64.949  1.00  0.00     0.133 C  
BRANCH  17  18
ATOM     18  CG  GLU A   1     -10.984  15.446  65.201  1.00  0.00    -0.430 C  
ATOM     19  OE2 GLU A   1     -12.910  15.031  63.790  1.00  0.00    -0.651 OA 
ATOM     20  OE1 GLU A   1     -11.803  13.277  64.686  1.00  0.00    -0.347 OA 
ATOM     21  CD  GLU A   1     -12.004  14.599  64.484  1.00  0.00    -0.460 C  
ENDBRANCH  17  18
ENDBRANCH  13  17
ENDBRANCH  11  13
ENDBRANCH   4   9
ENDBRANCH   2   3
BRANCH   2  22
HETATM   22  C   UNK A   0      -5.127  12.119  69.409  1.00  0.00    -0.065 C  
BRANCH  22  23
HETATM   23  C   UNK A   0      -5.971  11.686  68.226  1.00  0.00    -0.045 A  
HETATM   24  N   UNK A   0     -10.182  11.753  68.396  1.00  0.00    -0.201 NA 
HETATM   25  C   UNK A   0      -7.504  10.937  66.068  1.00  0.00    -0.086 A  
HETATM   26  C   UNK A   0      -5.425  11.345  67.001  1.00  0.00    -0.098 A  
HETATM   27  N   UNK A   0      -8.221  10.518  65.029  1.00  0.00    -0.242 NA 
HETATM   28  C   UNK A   0      -9.460  11.272  67.293  1.00  0.00    -0.173 A  
HETATM   29  C   UNK A   0      -8.070  11.325  67.286  1.00  0.00    -0.140 A  
HETATM   30  N   UNK A   0      -6.173  10.973  65.930  1.00  0.00    -0.323 NA 
HETATM   31  C   UNK A   0      -9.538  10.458  65.173  1.00  0.00    -0.271 A  
HETATM   32  H1  UNK A   0      -9.618  12.071  69.185  1.00  0.00     0.000 HD 
HETATM   33  H1  UNK A   0     -11.291   9.925  64.228  1.00  0.00     0.000 HD 
HETATM   34  N   UNK A   0     -10.278   9.971  64.117  1.00  0.00    -0.380 NA 
HETATM   35  N   UNK A   0     -10.202  10.854  66.257  1.00  0.00    -0.240 NA 
HETATM   36  N   UNK A   0      -7.317  11.695  68.372  1.00  0.00    -0.089 NA 
HETATM   37  H2  UNK A   0     -10.854  11.052  68.708  1.00  0.00     0.000 HD 
HETATM   38  H2  UNK A   0      -9.827   9.668  63.253  1.00  0.00     0.000 HD 
ENDBRANCH  22  23
ENDBRANCH   2  22
TORSDOF 7
ENDMDL
MODEL      251
REMARK 921   NORMALIZED FREE ENERGY PREDICTED BY IDOCK:   -3.77 KCAL/MOL
REMARK 922        TOTAL FREE ENERGY PREDICTED BY IDOCK:   -7.07 KCAL/MOL
REMARK 923 INTER-LIGAND FREE ENERGY PREDICTED BY IDOCK:   -6.16 KCAL/MOL
REMARK 924 INTRA-LIGAND FREE ENERGY PREDICTED BY IDOCK:   -0.90 KCAL/MOL
REMARK 927      BINDING AFFINITY PREDICTED BY RF-SCORE:    0.00 PKD
ROOT
HETATM    1  C   UNK A   0      -6.034   9.874  69.470  1.00  0.00    -0.041 C  
HETATM    2  N   UNK A   0      -6.697   9.803  68.171  1.00  0.00    -0.061 NA 
ENDROOT
BRANCH   2   3
HETATM    3  C   UNK A   0      -7.456  10.881  67.732  1.00  0.00    -0.094 A  
HETATM    4  C   UNK A   0      -9.219  13.017  67.136  1.00  0.00    -0.226 A  
HETATM    5  C   UNK A   0      -8.460  10.756  66.754  1.00  0.00    -0.134 A  
HETATM    6  C   UNK A   0      -7.292  12.149  68.311  1.00  0.00    -0.100 A  
HETATM    7  C   UNK A   0      -8.168  13.202  68.034  1.00  0.00    -0.158 A  
HETATM    8  C   UNK A   0      -9.326  11.814  66.444  1.00  0.00    -0.229 A  
BRANCH   4   9
HETATM    9  C   UNK A   0     -10.233  14.079  66.927  1.00  0.00    -0.260 C  
HETATM   10  O   UNK A   0     -11.259  13.857  66.303  1.00  0.00    -0.302 OA 
ATOM     11  N   GLU A   1      -9.948  15.300  67.527  1.00  0.00    -0.225 N  
ATOM     12  H   GLU A   1      -9.046  15.456  67.976  1.00  0.00     0.000 HD 
BRANCH  11  13
ATOM     13  CA  GLU A   1     -10.965  16.369  67.507  1.00  0.00    -0.184 C  
ATOM     14  OXT GLU A   1     -10.800  18.797  67.242  1.00  0.00    -0.443 OA 
ATOM     15  C   GLU A   1     -10.260  17.739  67.531  1.00  0.00    -0.356 C  
ATOM     16  O   GLU A   1      -9.018  17.686  68.074  1.00  0.00    -0.251 OA 
BRANCH  13  17
ATOM     17  CB  GLU A   1     -11.896  16.239  68.722  1.00  0.00    -0.024 C  
BRANCH  17  18
ATOM     18  CG  GLU A   1     -11.149  15.925  70.021  1.00  0.00    -0.356 C  
ATOM     19  OE2 GLU A   1     -13.294  15.857  71.149  1.00  0.00    -0.516 OA 
ATOM     20  OE1 GLU A   1     -11.414  15.441  72.331  1.00  0.00    -0.446 OA 
ATOM     21  CD  GLU A   1     -12.079  15.749  71.194  1.00  0.00    -0.427 C  
ENDBRANCH  17  18
ENDBRANCH  13  17
ENDBRANCH  11  13
ENDBRANCH   4   9
ENDBRANCH   2   3
BRANCH   2  22
HETATM   22  C   UNK A   0      -6.901   8.469  67.578  1.00  0.00    -0.071 C  
BRANCH  22  23
HETATM   23  C   UNK A   0      -7.625   7.489  68.481  1.00  0.00    -0.114 A  
HETATM   24  N   UNK A   0      -6.070   3.645  69.238  1.00  0.00    -0.027 NA 
HETATM   25  C   UNK A   0      -8.916   5.725  70.151  1.00  0.00    -0.140 A  
HETATM   26  C   UNK A   0      -8.768   7.824  69.185  1.00  0.00    -0.139 A  
HETATM   27  N   UNK A   0      -9.589   4.872  70.918  1.00  0.00    -0.164 NA 
HETATM   28  C   UNK A   0      -7.306   4.091  69.731  1.00  0.00    -0.049 A  
HETATM   29  C   UNK A   0      -7.735   5.391  69.481  1.00  0.00    -0.077 A  
HETATM   30  N   UNK A   0      -9.413   6.960  70.012  1.00  0.00    -0.158 NA 
HETATM   31  C   UNK A   0      -9.110   3.640  71.037  1.00  0.00    -0.108 A  
HETATM   32  H1  UNK A   0      -5.567   4.311  68.651  1.00  0.00     0.000 HD 
HETATM   33  H1  UNK A   0      -9.467   1.793  71.879  1.00  0.00     0.000 HD 
HETATM   34  N   UNK A   0      -9.835   2.740  71.788  1.00  0.00    -0.158 NA 
HETATM   35  N   UNK A   0      -7.968   3.216  70.502  1.00  0.00    -0.043 NA 
HETATM   36  N   UNK A   0      -7.084   6.259  68.641  1.00  0.00    -0.080 NA 
HETATM   37  H2  UNK A   0      -6.189   2.763  68.741  1.00  0.00     0.000 HD 
HETATM   38  H2  UNK A   0     -10.710   3.012  72.236  1.00  0.00     0.000 HD 
ENDBRANCH  22  23
ENDBRANCH   2  22
TORSDOF 7
ENDMDL
MODEL      252
REMARK 921   NORMALIZED FREE ENERGY PREDICTED BY IDOCK:   -3.75 KCAL/MOL
REMARK 922        TOTAL FREE ENERGY PREDICTED BY IDOCK:   -7.04 KCAL/MOL
REMARK 923 INTER-LIGAND FREE ENERGY PREDICTED BY IDOCK:   -6.25 KCAL/MOL
REMARK 924 INTRA-LIGAND FREE ENERGY PREDICTED BY IDOCK:   -0.79 KCAL/MOL
REMARK 927      BINDING AFFINITY PREDICTED BY RF-SCORE:    0.00 PKD
ROOT
HETATM    1  C   UNK A   0      -5.610  12.894  67.774  1.00  0.00    -0.130 C  
HETATM    2  N   UNK A   0      -7.029  12.648  68.015  1.00  0.00    -0.086 NA 
ENDROOT
BRANCH   2   3
HETATM    3  C   UNK A   0      -7.411  11.556  68.787  1.00  0.00    -0.115 A  
HETATM    4  C   UNK A   0      -8.317   9.583  70.606  1.00  0.00    -0.159 A  
HETATM    5  C   UNK A   0      -6.524  10.886  69.647  1.00  0.00    -0.114 A  
HETATM    6  C   UNK A   0      -8.744  11.118  68.787  1.00  0.00    -0.130 A  
HETATM    7  C   UNK A   0      -9.201  10.157  69.693  1.00  0.00    -0.206 A  
HETATM    8  C   UNK A   0      -6.962   9.898  70.540  1.00  0.00    -0.118 A  
BRANCH   4   9
HETATM    9  C   UNK A   0      -8.808   8.659  71.657  1.00  0.00    -0.223 C  
HETATM   10  O   UNK A   0      -8.083   8.309  72.577  1.00  0.00    -0.144 OA 
ATOM     11  N   GLU A   1     -10.138   8.276  71.540  1.00  0.00    -0.195 N  
ATOM     12  H   GLU A   1     -10.679   8.539  70.716  1.00  0.00     0.000 HD 
BRANCH  11  13
ATOM     13  CA  GLU A   1     -10.761   7.486  72.619  1.00  0.00    -0.303 C  
ATOM     14  OXT GLU A   1     -10.798   5.085  73.094  1.00  0.00    -0.234 OA 
ATOM     15  C   GLU A   1     -10.639   5.987  72.284  1.00  0.00    -0.216 C  
ATOM     16  O   GLU A   1     -10.507   5.751  70.954  1.00  0.00    -0.226 OA 
BRANCH  13  17
ATOM     17  CB  GLU A   1     -12.241   7.869  72.773  1.00  0.00    -0.081 C  
BRANCH  17  18
ATOM     18  CG  GLU A   1     -12.895   8.281  71.451  1.00  0.00    -0.263 C  
ATOM     19  OE2 GLU A   1     -12.888  10.570  72.248  1.00  0.00    -0.310 OA 
ATOM     20  OE1 GLU A   1     -13.697  10.124  70.186  1.00  0.00     0.282 OA 
ATOM     21  CD  GLU A   1     -13.147   9.765  71.369  1.00  0.00    -0.400 C  
ENDBRANCH  17  18
ENDBRANCH  13  17
ENDBRANCH  11  13
ENDBRANCH   4   9
ENDBRANCH   2   3
BRANCH   2  22
HETATM   22  C   UNK A   0      -7.999  13.281  67.104  1.00  0.00    -0.065 C  
BRANCH  22  23
HETATM   23  C   UNK A   0      -8.120  14.783  67.269  1.00  0.00    -0.207 A  
HETATM   24  N   UNK A   0      -5.200  17.401  65.725  1.00  0.00    -0.285 NA 
HETATM   25  C   UNK A   0      -8.358  17.511  67.535  1.00  0.00    -0.215 A  
HETATM   26  C   UNK A   0      -9.229  15.387  67.836  1.00  0.00    -0.180 A  
HETATM   27  N   UNK A   0      -8.470  18.822  67.724  1.00  0.00    -0.272 NA 
HETATM   28  C   UNK A   0      -6.303  17.831  66.480  1.00  0.00    -0.203 A  
HETATM   29  C   UNK A   0      -7.255  16.915  66.917  1.00  0.00    -0.216 A  
HETATM   30  N   UNK A   0      -9.356  16.733  67.973  1.00  0.00    -0.225 NA 
HETATM   31  C   UNK A   0      -7.472  19.593  67.313  1.00  0.00    -0.246 A  
HETATM   32  H1  UNK A   0      -5.129  16.392  65.589  1.00  0.00     0.000 HD 
HETATM   33  H1  UNK A   0      -6.793  21.537  67.242  1.00  0.00     0.000 HD 
HETATM   34  N   UNK A   0      -7.562  20.945  67.558  1.00  0.00    -0.317 NA 
HETATM   35  N   UNK A   0      -6.397  19.156  66.660  1.00  0.00    -0.185 NA 
HETATM   36  N   UNK A   0      -7.121  15.555  66.784  1.00  0.00    -0.258 NA 
HETATM   37  H2  UNK A   0      -4.337  17.760  66.132  1.00  0.00     0.000 HD 
HETATM   38  H2  UNK A   0      -8.369  21.341  68.040  1.00  0.00     0.000 HD 
ENDBRANCH  22  23
ENDBRANCH   2  22
TORSDOF 7
ENDMDL
MODEL      253
REMARK 921   NORMALIZED FREE ENERGY PREDICTED BY IDOCK:   -3.73 KCAL/MOL
REMARK 922        TOTAL FREE ENERGY PREDICTED BY IDOCK:   -7.01 KCAL/MOL
REMARK 923 INTER-LIGAND FREE ENERGY PREDICTED BY IDOCK:   -7.66 KCAL/MOL
REMARK 924 INTRA-LIGAND FREE ENERGY PREDICTED BY IDOCK:    0.65 KCAL/MOL
REMARK 927      BINDING AFFINITY PREDICTED BY RF-SCORE:    0.00 PKD
ROOT
HETATM    1  C   UNK A   0      -8.893  11.192  62.556  1.00  0.00    -0.281 C  
HETATM    2  N   UNK A   0      -9.373  10.763  63.867  1.00  0.00    -0.233 NA 
ENDROOT
BRANCH   2   3
HETATM    3  C   UNK A   0      -8.961   9.539  64.378  1.00  0.00    -0.212 A  
HETATM    4  C   UNK A   0      -8.413   6.897  65.241  1.00  0.00    -0.062 A  
HETATM    5  C   UNK A   0      -9.303   9.101  65.670  1.00  0.00    -0.300 A  
HETATM    6  C   UNK A   0      -8.229   8.645  63.580  1.00  0.00    -0.148 A  
HETATM    7  C   UNK A   0      -7.970   7.335  63.993  1.00  0.00    -0.087 A  
HETATM    8  C   UNK A   0      -9.022   7.799  66.109  1.00  0.00    -0.201 A  
BRANCH   4   9
HETATM    9  C   UNK A   0      -8.261   5.477  65.643  1.00  0.00    -0.127 C  
HETATM   10  O   UNK A   0      -9.001   4.613  65.196  1.00  0.00    -0.141 OA 
ATOM     11  N   GLU A   1      -7.206   5.212  66.507  1.00  0.00    -0.076 N  
ATOM     12  H   GLU A   1      -6.663   5.977  66.907  1.00  0.00     0.000 HD 
BRANCH  11  13
ATOM     13  CA  GLU A   1      -6.879   3.812  66.841  1.00  0.00    -0.051 C  
ATOM     14  OXT GLU A   1      -5.202   2.258  65.968  1.00  0.00    -0.004 OA 
ATOM     15  C   GLU A   1      -5.872   3.268  65.810  1.00  0.00    -0.019 C  
ATOM     16  O   GLU A   1      -5.922   3.924  64.623  1.00  0.00    -0.021 OA 
BRANCH  13  17
ATOM     17  CB  GLU A   1      -8.152   2.953  66.833  1.00  0.00    -0.080 C  
BRANCH  17  18
ATOM     18  CG  GLU A   1      -8.766   2.775  68.225  1.00  0.00    -0.136 C  
ATOM     19  OE2 GLU A   1      -6.695   1.724  68.919  1.00  0.00    -0.029 OA 
ATOM     20  OE1 GLU A   1      -8.358   1.983  70.426  1.00  0.00    -0.041 OA 
ATOM     21  CD  GLU A   1      -7.820   2.108  69.191  1.00  0.00    -0.045 C  
ENDBRANCH  17  18
ENDBRANCH  13  17
ENDBRANCH  11  13
ENDBRANCH   4   9
ENDBRANCH   2   3
BRANCH   2  22
HETATM   22  C   UNK A   0     -10.585  11.412  64.398  1.00  0.00    -0.341 C  
BRANCH  22  23
HETATM   23  C   UNK A   0     -10.322  12.697  65.158  1.00  0.00    -0.292 A  
HETATM   24  N   UNK A   0     -11.776  16.402  63.771  1.00  0.00    -1.498 NA 
HETATM   25  C   UNK A   0      -9.877  15.025  66.556  1.00  0.00    -0.260 A  
HETATM   26  C   UNK A   0      -9.687  12.723  66.387  1.00  0.00    -0.261 A  
HETATM   27  N   UNK A   0      -9.601  16.142  67.223  1.00  0.00    -0.227 NA 
HETATM   28  C   UNK A   0     -10.966  16.266  64.909  1.00  0.00    -0.307 A  
HETATM   29  C   UNK A   0     -10.561  15.005  65.337  1.00  0.00    -0.380 A  
HETATM   30  N   UNK A   0      -9.462  13.867  67.085  1.00  0.00    -0.237 NA 
HETATM   31  C   UNK A   0      -9.990  17.291  66.687  1.00  0.00    -0.294 A  
HETATM   32  H1  UNK A   0     -11.979  15.536  63.271  1.00  0.00     0.000 HD 
HETATM   33  H1  UNK A   0      -9.956  19.337  66.937  1.00  0.00     0.000 HD 
HETATM   34  N   UNK A   0      -9.657  18.453  67.349  1.00  0.00    -0.282 NA 
HETATM   35  N   UNK A   0     -10.699  17.404  65.566  1.00  0.00    -0.522 NA 
HETATM   36  N   UNK A   0     -10.785  13.853  64.627  1.00  0.00    -0.462 NA 
HETATM   37  H2  UNK A   0     -11.371  17.087  63.133  1.00  0.00     0.000 HD 
HETATM   38  H2  UNK A   0      -9.128  18.429  68.221  1.00  0.00     0.000 HD 
ENDBRANCH  22  23
ENDBRANCH   2  22
TORSDOF 7
ENDMDL
MODEL      254
REMARK 921   NORMALIZED FREE ENERGY PREDICTED BY IDOCK:   -3.73 KCAL/MOL
REMARK 922        TOTAL FREE ENERGY PREDICTED BY IDOCK:   -7.00 KCAL/MOL
REMARK 923 INTER-LIGAND FREE ENERGY PREDICTED BY IDOCK:   -6.31 KCAL/MOL
REMARK 924 INTRA-LIGAND FREE ENERGY PREDICTED BY IDOCK:   -0.69 KCAL/MOL
REMARK 927      BINDING AFFINITY PREDICTED BY RF-SCORE:    0.00 PKD
ROOT
HETATM    1  C   UNK A   0     -11.195  10.352  68.969  1.00  0.00    -0.234 C  
HETATM    2  N   UNK A   0     -10.166  10.440  67.937  1.00  0.00    -0.170 NA 
ENDROOT
BRANCH   2   3
HETATM    3  C   UNK A   0      -9.654  11.684  67.588  1.00  0.00    -0.181 A  
HETATM    4  C   UNK A   0      -8.715  14.331  67.218  1.00  0.00    -0.230 A  
HETATM    5  C   UNK A   0     -10.391  12.630  66.854  1.00  0.00    -0.244 A  
HETATM    6  C   UNK A   0      -8.379  12.076  68.025  1.00  0.00    -0.162 A  
HETATM    7  C   UNK A   0      -7.917  13.385  67.861  1.00  0.00    -0.155 A  
HETATM    8  C   UNK A   0      -9.926  13.937  66.655  1.00  0.00    -0.279 A  
BRANCH   4   9
HETATM    9  C   UNK A   0      -8.298  15.752  67.148  1.00  0.00    -0.202 C  
HETATM   10  O   UNK A   0      -8.563  16.440  66.174  1.00  0.00    -0.319 OA 
ATOM     11  N   GLU A   1      -7.642  16.236  68.274  1.00  0.00    -0.148 N  
ATOM     12  H   GLU A   1      -7.383  15.604  69.031  1.00  0.00     0.000 HD 
BRANCH  11  13
ATOM     13  CA  GLU A   1      -7.326  17.674  68.364  1.00  0.00    -0.243 C  
ATOM     14  OXT GLU A   1      -5.542  18.903  69.503  1.00  0.00    -0.204 OA 
ATOM     15  C   GLU A   1      -6.210  17.884  69.405  1.00  0.00    -0.248 C  
ATOM     16  O   GLU A   1      -6.152  16.888  70.326  1.00  0.00    -0.146 OA 
BRANCH  13  17
ATOM     17  CB  GLU A   1      -8.576  18.470  68.770  1.00  0.00    -0.266 C  
BRANCH  17  18
ATOM     18  CG  GLU A   1      -8.868  19.648  67.836  1.00  0.00    -0.379 C  
ATOM     19  OE2 GLU A   1     -10.919  18.530  67.189  1.00  0.00    -0.333 OA 
ATOM     20  OE1 GLU A   1     -10.435  20.547  66.294  1.00  0.00    -0.185 OA 
ATOM     21  CD  GLU A   1     -10.170  19.488  67.093  1.00  0.00    -0.426 C  
ENDBRANCH  17  18
ENDBRANCH  13  17
ENDBRANCH  11  13
ENDBRANCH   4   9
ENDBRANCH   2   3
BRANCH   2  22
HETATM   22  C   UNK A   0     -10.020   9.299  67.016  1.00  0.00    -0.224 C  
BRANCH  22  23
HETATM   23  C   UNK A   0      -9.626   7.999  67.691  1.00  0.00    -0.151 A  
HETATM   24  N   UNK A   0      -8.124   7.943  71.629  1.00  0.00    -0.100 NA 
HETATM   25  C   UNK A   0      -8.946   5.640  68.931  1.00  0.00    -0.111 A  
HETATM   26  C   UNK A   0      -9.826   6.761  67.107  1.00  0.00    -0.161 A  
HETATM   27  N   UNK A   0      -8.574   4.490  69.488  1.00  0.00    -0.080 NA 
HETATM   28  C   UNK A   0      -8.232   6.797  70.826  1.00  0.00    -0.123 A  
HETATM   29  C   UNK A   0      -8.782   6.882  69.551  1.00  0.00    -0.133 A  
HETATM   30  N   UNK A   0      -9.494   5.590  67.711  1.00  0.00    -0.113 NA 
HETATM   31  C   UNK A   0      -8.009   4.540  70.687  1.00  0.00    -0.061 A  
HETATM   32  H1  UNK A   0      -8.414   8.816  71.188  1.00  0.00     0.000 HD 
HETATM   33  H1  UNK A   0      -7.139   3.394  72.162  1.00  0.00     0.000 HD 
HETATM   34  N   UNK A   0      -7.574   3.356  71.240  1.00  0.00    -0.047 NA 
HETATM   35  N   UNK A   0      -7.851   5.650  71.405  1.00  0.00    -0.109 NA 
HETATM   36  N   UNK A   0      -9.112   8.067  68.941  1.00  0.00    -0.145 NA 
HETATM   37  H2  UNK A   0      -7.174   8.031  71.988  1.00  0.00     0.000 HD 
HETATM   38  H2  UNK A   0      -7.682   2.471  70.744  1.00  0.00     0.000 HD 
ENDBRANCH  22  23
ENDBRANCH   2  22
TORSDOF 7
ENDMDL
MODEL      255
REMARK 921   NORMALIZED FREE ENERGY PREDICTED BY IDOCK:   -3.73 KCAL/MOL
REMARK 922        TOTAL FREE ENERGY PREDICTED BY IDOCK:   -7.00 KCAL/MOL
REMARK 923 INTER-LIGAND FREE ENERGY PREDICTED BY IDOCK:   -7.35 KCAL/MOL
REMARK 924 INTRA-LIGAND FREE ENERGY PREDICTED BY IDOCK:    0.35 KCAL/MOL
REMARK 927      BINDING AFFINITY PREDICTED BY RF-SCORE:    0.00 PKD
ROOT
HETATM    1  C   UNK A   0     -10.058   5.421  73.950  1.00  0.00    -0.215 C  
HETATM    2  N   UNK A   0     -10.452   6.353  72.897  1.00  0.00    -0.208 NA 
ENDROOT
BRANCH   2   3
HETATM    3  C   UNK A   0     -10.123   6.070  71.576  1.00  0.00    -0.192 A  
HETATM    4  C   UNK A   0      -9.432   5.865  68.837  1.00  0.00    -0.146 A  
HETATM    5  C   UNK A   0     -11.092   5.815  70.590  1.00  0.00    -0.272 A  
HETATM    6  C   UNK A   0      -8.784   6.099  71.155  1.00  0.00    -0.132 A  
HETATM    7  C   UNK A   0      -8.438   6.015  69.804  1.00  0.00    -0.126 A  
HETATM    8  C   UNK A   0     -10.756   5.698  69.234  1.00  0.00    -0.350 A  
BRANCH   4   9
HETATM    9  C   UNK A   0      -9.096   5.904  67.393  1.00  0.00    -0.110 C  
HETATM   10  O   UNK A   0      -9.697   5.210  66.587  1.00  0.00    -0.140 OA 
ATOM     11  N   GLU A   1      -8.101   6.807  67.037  1.00  0.00    -0.109 N  
ATOM     12  H   GLU A   1      -7.581   7.310  67.756  1.00  0.00     0.000 HD 
BRANCH  11  13
ATOM     13  CA  GLU A   1      -7.805   7.030  65.609  1.00  0.00    -0.112 C  
ATOM     14  OXT GLU A   1      -8.246   8.913  64.108  1.00  0.00    -0.153 OA 
ATOM     15  C   GLU A   1      -8.516   8.313  65.139  1.00  0.00    -0.146 C  
ATOM     16  O   GLU A   1      -9.599   8.625  65.895  1.00  0.00    -0.220 OA 
BRANCH  13  17
ATOM     17  CB  GLU A   1      -8.280   5.832  64.774  1.00  0.00    -0.135 C  
BRANCH  17  18
ATOM     18  CG  GLU A   1      -7.196   5.281  63.843  1.00  0.00    -0.050 C  
ATOM     19  OE2 GLU A   1      -7.261   3.218  65.113  1.00  0.00    -0.067 OA 
ATOM     20  OE1 GLU A   1      -5.865   3.378  63.344  1.00  0.00    -0.013 OA 
ATOM     21  CD  GLU A   1      -6.801   3.868  64.189  1.00  0.00    -0.045 C  
ENDBRANCH  17  18
ENDBRANCH  13  17
ENDBRANCH  11  13
ENDBRANCH   4   9
ENDBRANCH   2   3
BRANCH   2  22
HETATM   22  C   UNK A   0     -10.786   7.732  73.293  1.00  0.00    -0.272 C  
BRANCH  22  23
HETATM   23  C   UNK A   0     -11.247   8.614  72.149  1.00  0.00    -0.367 A  
HETATM   24  N   UNK A   0      -8.494  10.346  69.468  1.00  0.00    -0.315 NA 
HETATM   25  C   UNK A   0     -12.085  10.183  70.050  1.00  0.00    -0.095 A  
HETATM   26  C   UNK A   0     -12.583   8.820  71.854  1.00  0.00    -0.371 A  
HETATM   27  N   UNK A   0     -12.513  10.981  69.076  1.00  0.00    -0.639 NA 
HETATM   28  C   UNK A   0      -9.876  10.588  69.422  1.00  0.00    -0.182 A  
HETATM   29  C   UNK A   0     -10.732   9.944  70.309  1.00  0.00    -0.310 A  
HETATM   30  N   UNK A   0     -13.007   9.593  70.820  1.00  0.00    -0.559 NA 
HETATM   31  C   UNK A   0     -11.600  11.585  68.328  1.00  0.00    -0.308 A  
HETATM   32  H1  UNK A   0      -8.182   9.732  70.220  1.00  0.00     0.000 HD 
HETATM   33  H1  UNK A   0     -11.339  12.920  66.779  1.00  0.00     0.000 HD 
HETATM   34  N   UNK A   0     -12.041  12.455  67.355  1.00  0.00    -0.484 NA 
HETATM   35  N   UNK A   0     -10.286  11.396  68.434  1.00  0.00    -0.188 NA 
HETATM   36  N   UNK A   0     -10.301   9.169  71.356  1.00  0.00    -0.324 NA 
HETATM   37  H2  UNK A   0      -7.985  11.229  69.504  1.00  0.00     0.000 HD 
HETATM   38  H2  UNK A   0     -13.037  12.628  67.215  1.00  0.00     0.000 HD 
ENDBRANCH  22  23
ENDBRANCH   2  22
TORSDOF 7
ENDMDL
MODEL      256
REMARK 921   NORMALIZED FREE ENERGY PREDICTED BY IDOCK:   -3.69 KCAL/MOL
REMARK 922        TOTAL FREE ENERGY PREDICTED BY IDOCK:   -6.95 KCAL/MOL
REMARK 923 INTER-LIGAND FREE ENERGY PREDICTED BY IDOCK:   -7.16 KCAL/MOL
REMARK 924 INTRA-LIGAND FREE ENERGY PREDICTED BY IDOCK:    0.21 KCAL/MOL
REMARK 927      BINDING AFFINITY PREDICTED BY RF-SCORE:    0.00 PKD
ROOT
HETATM    1  C   UNK A   0     -10.358  12.377  63.994  1.00  0.00    -0.409 C  
HETATM    2  N   UNK A   0     -10.682  12.383  65.418  1.00  0.00    -0.274 NA 
ENDROOT
BRANCH   2   3
HETATM    3  C   UNK A   0     -10.175  11.382  66.238  1.00  0.00    -0.233 A  
HETATM    4  C   UNK A   0      -9.180   9.114  67.613  1.00  0.00    -0.143 A  
HETATM    5  C   UNK A   0     -10.979  10.650  67.130  1.00  0.00    -0.312 A  
HETATM    6  C   UNK A   0      -8.825  11.008  66.152  1.00  0.00    -0.197 A  
HETATM    7  C   UNK A   0      -8.331   9.880  66.815  1.00  0.00    -0.125 A  
HETATM    8  C   UNK A   0     -10.490   9.536  67.825  1.00  0.00    -0.309 A  
BRANCH   4   9
HETATM    9  C   UNK A   0      -8.708   7.845  68.219  1.00  0.00    -0.130 C  
HETATM   10  O   UNK A   0      -9.468   6.900  68.374  1.00  0.00    -0.130 OA 
ATOM     11  N   GLU A   1      -7.357   7.804  68.540  1.00  0.00    -0.089 N  
ATOM     12  H   GLU A   1      -6.782   8.643  68.456  1.00  0.00     0.000 HD 
BRANCH  11  13
ATOM     13  CA  GLU A   1      -6.761   6.536  69.002  1.00  0.00    -0.053 C  
ATOM     14  OXT GLU A   1      -5.375   4.859  67.880  1.00  0.00    -0.010 OA 
ATOM     15  C   GLU A   1      -6.171   5.784  67.794  1.00  0.00    -0.030 C  
ATOM     16  O   GLU A   1      -6.752   6.132  66.618  1.00  0.00    -0.056 OA 
BRANCH  13  17
ATOM     17  CB  GLU A   1      -7.826   5.668  69.689  1.00  0.00    -0.091 C  
BRANCH  17  18
ATOM     18  CG  GLU A   1      -7.670   5.618  71.212  1.00  0.00    -0.109 C  
ATOM     19  OE2 GLU A   1     -10.066   5.937  71.391  1.00  0.00    -0.187 OA 
ATOM     20  OE1 GLU A   1      -8.842   5.696  73.276  1.00  0.00    -0.122 OA 
ATOM     21  CD  GLU A   1      -8.985   5.771  71.933  1.00  0.00    -0.138 C  
ENDBRANCH  17  18
ENDBRANCH  13  17
ENDBRANCH  11  13
ENDBRANCH   4   9
ENDBRANCH   2   3
BRANCH   2  22
HETATM   22  C   UNK A   0     -11.852  13.167  65.851  1.00  0.00    -0.406 C  
BRANCH  22  23
HETATM   23  C   UNK A   0     -11.523  14.312  66.789  1.00  0.00    -0.367 A  
HETATM   24  N   UNK A   0     -10.364  18.087  65.314  1.00  0.00    -0.258 NA 
HETATM   25  C   UNK A   0     -10.961  16.402  68.487  1.00  0.00    -0.350 A  
HETATM   26  C   UNK A   0     -11.678  14.225  68.161  1.00  0.00    -0.350 A  
HETATM   27  N   UNK A   0     -10.643  17.379  69.331  1.00  0.00    -0.361 NA 
HETATM   28  C   UNK A   0     -10.407  17.770  66.681  1.00  0.00    -0.345 A  
HETATM   29  C   UNK A   0     -10.846  16.517  67.098  1.00  0.00    -0.142 A  
HETATM   30  N   UNK A   0     -11.403  15.251  69.008  1.00  0.00    -0.280 NA 
HETATM   31  C   UNK A   0     -10.182  18.512  68.817  1.00  0.00    -0.287 A  
HETATM   32  H1  UNK A   0     -10.612  17.327  64.680  1.00  0.00     0.000 HD 
HETATM   33  H1  UNK A   0      -9.446  20.376  69.297  1.00  0.00     0.000 HD 
HETATM   34  N   UNK A   0      -9.800  19.505  69.693  1.00  0.00    -0.285 NA 
HETATM   35  N   UNK A   0     -10.082  18.769  67.514  1.00  0.00    -0.341 NA 
HETATM   36  N   UNK A   0     -11.117  15.481  66.241  1.00  0.00    -0.240 NA 
HETATM   37  H2  UNK A   0      -9.447  18.461  65.071  1.00  0.00     0.000 HD 
HETATM   38  H2  UNK A   0      -9.870  19.373  70.702  1.00  0.00     0.000 HD 
ENDBRANCH  22  23
ENDBRANCH   2  22
TORSDOF 7
ENDMDL
MODEL      257
REMARK 921   NORMALIZED FREE ENERGY PREDICTED BY IDOCK:   -3.69 KCAL/MOL
REMARK 922        TOTAL FREE ENERGY PREDICTED BY IDOCK:   -6.94 KCAL/MOL
REMARK 923 INTER-LIGAND FREE ENERGY PREDICTED BY IDOCK:   -7.25 KCAL/MOL
REMARK 924 INTRA-LIGAND FREE ENERGY PREDICTED BY IDOCK:    0.31 KCAL/MOL
REMARK 927      BINDING AFFINITY PREDICTED BY RF-SCORE:    0.00 PKD
ROOT
HETATM    1  C   UNK A   0      -9.182   7.732  71.575  1.00  0.00    -0.137 C  
HETATM    2  N   UNK A   0      -8.200   8.113  70.565  1.00  0.00    -0.114 NA 
ENDROOT
BRANCH   2   3
HETATM    3  C   UNK A   0      -8.505   9.127  69.664  1.00  0.00    -0.133 A  
HETATM    4  C   UNK A   0      -9.184  11.409  68.129  1.00  0.00    -0.178 A  
HETATM    5  C   UNK A   0      -9.778   9.273  69.086  1.00  0.00    -0.164 A  
HETATM    6  C   UNK A   0      -7.550  10.106  69.345  1.00  0.00    -0.133 A  
HETATM    7  C   UNK A   0      -7.883  11.242  68.603  1.00  0.00    -0.139 A  
HETATM    8  C   UNK A   0     -10.117  10.392  68.314  1.00  0.00    -0.174 A  
BRANCH   4   9
HETATM    9  C   UNK A   0      -9.588  12.665  67.452  1.00  0.00    -0.194 C  
HETATM   10  O   UNK A   0      -8.776  13.338  66.835  1.00  0.00    -0.207 OA 
ATOM     11  N   GLU A   1     -10.940  12.977  67.534  1.00  0.00    -0.253 N  
ATOM     12  H   GLU A   1     -11.563  12.421  68.119  1.00  0.00     0.000 HD 
BRANCH  11  13
ATOM     13  CA  GLU A   1     -11.465  14.121  66.764  1.00  0.00    -0.369 C  
ATOM     14  OXT GLU A   1     -13.254  14.310  65.103  1.00  0.00    -0.686 OA 
ATOM     15  C   GLU A   1     -12.451  13.605  65.699  1.00  0.00    -0.496 C  
ATOM     16  O   GLU A   1     -12.229  12.312  65.353  1.00  0.00    -0.546 OA 
BRANCH  13  17
ATOM     17  CB  GLU A   1     -10.314  14.880  66.087  1.00  0.00    -0.312 C  
BRANCH  17  18
ATOM     18  CG  GLU A   1     -10.432  16.401  66.228  1.00  0.00    -0.298 C  
ATOM     19  OE2 GLU A   1     -11.192  16.478  63.927  1.00  0.00    -0.908 OA 
ATOM     20  OE1 GLU A   1     -11.058  18.400  65.108  1.00  0.00    -0.499 OA 
ATOM     21  CD  GLU A   1     -10.927  17.061  64.966  1.00  0.00     0.017 C  
ENDBRANCH  17  18
ENDBRANCH  13  17
ENDBRANCH  11  13
ENDBRANCH   4   9
ENDBRANCH   2   3
BRANCH   2  22
HETATM   22  C   UNK A   0      -7.127   7.152  70.254  1.00  0.00    -0.066 C  
BRANCH  22  23
HETATM   23  C   UNK A   0      -7.340   6.374  68.970  1.00  0.00    -0.089 A  
HETATM   24  N   UNK A   0      -9.609   2.822  68.909  1.00  0.00    -0.081 NA 
HETATM   25  C   UNK A   0      -7.760   4.983  66.634  1.00  0.00    -0.092 A  
HETATM   26  C   UNK A   0      -6.899   6.826  67.739  1.00  0.00    -0.081 A  
HETATM   27  N   UNK A   0      -7.902   4.301  65.501  1.00  0.00    -0.089 NA 
HETATM   28  C   UNK A   0      -8.943   3.335  67.784  1.00  0.00    -0.150 A  
HETATM   29  C   UNK A   0      -8.252   4.539  67.866  1.00  0.00    -0.095 A  
HETATM   30  N   UNK A   0      -7.101   6.147  66.580  1.00  0.00    -0.067 NA 
HETATM   31  C   UNK A   0      -8.534   3.136  65.558  1.00  0.00    -0.103 A  
HETATM   32  H1  UNK A   0      -9.490   3.357  69.770  1.00  0.00     0.000 HD 
HETATM   33  H1  UNK A   0      -9.119   1.507  64.439  1.00  0.00     0.000 HD 
HETATM   34  N   UNK A   0      -8.633   2.402  64.396  1.00  0.00    -0.088 NA 
HETATM   35  N   UNK A   0      -9.099   2.632  66.653  1.00  0.00    -0.245 NA 
HETATM   36  N   UNK A   0      -8.045   5.220  69.039  1.00  0.00    -0.085 NA 
HETATM   37  H2  UNK A   0      -9.340   1.850  69.061  1.00  0.00     0.000 HD 
HETATM   38  H2  UNK A   0      -8.235   2.745  63.521  1.00  0.00     0.000 HD 
ENDBRANCH  22  23
ENDBRANCH   2  22
TORSDOF 7
ENDMDL
MODEL      258
REMARK 921   NORMALIZED FREE ENERGY PREDICTED BY IDOCK:   -3.68 KCAL/MOL
REMARK 922        TOTAL FREE ENERGY PREDICTED BY IDOCK:   -6.94 KCAL/MOL
REMARK 923 INTER-LIGAND FREE ENERGY PREDICTED BY IDOCK:   -7.27 KCAL/MOL
REMARK 924 INTRA-LIGAND FREE ENERGY PREDICTED BY IDOCK:    0.34 KCAL/MOL
REMARK 927      BINDING AFFINITY PREDICTED BY RF-SCORE:    0.00 PKD
ROOT
HETATM    1  C   UNK A   0      -9.411  10.353  63.373  1.00  0.00    -0.315 C  
HETATM    2  N   UNK A   0     -10.084  10.603  64.644  1.00  0.00    -0.334 NA 
ENDROOT
BRANCH   2   3
HETATM    3  C   UNK A   0      -9.873   9.736  65.710  1.00  0.00    -0.290 A  
HETATM    4  C   UNK A   0      -9.588   7.703  67.662  1.00  0.00    -0.175 A  
HETATM    5  C   UNK A   0     -10.782   9.606  66.775  1.00  0.00    -0.149 A  
HETATM    6  C   UNK A   0      -8.754   8.889  65.726  1.00  0.00    -0.205 A  
HETATM    7  C   UNK A   0      -8.616   7.873  66.677  1.00  0.00    -0.138 A  
HETATM    8  C   UNK A   0     -10.639   8.612  67.753  1.00  0.00    -0.249 A  
BRANCH   4   9
HETATM    9  C   UNK A   0      -9.525   6.554  68.598  1.00  0.00    -0.123 C  
HETATM   10  O   UNK A   0     -10.434   6.331  69.384  1.00  0.00    -0.198 OA 
ATOM     11  N   GLU A   1      -8.401   5.746  68.474  1.00  0.00    -0.107 N  
ATOM     12  H   GLU A   1      -7.639   6.016  67.852  1.00  0.00     0.000 HD 
BRANCH  11  13
ATOM     13  CA  GLU A   1      -8.322   4.495  69.251  1.00  0.00    -0.078 C  
ATOM     14  OXT GLU A   1      -8.910   2.180  68.715  1.00  0.00    -0.075 OA 
ATOM     15  C   GLU A   1      -9.042   3.373  68.479  1.00  0.00    -0.151 C  
ATOM     16  O   GLU A   1      -9.979   3.841  67.617  1.00  0.00    -0.056 OA 
BRANCH  13  17
ATOM     17  CB  GLU A   1      -8.972   4.683  70.630  1.00  0.00    -0.162 C  
BRANCH  17  18
ATOM     18  CG  GLU A   1      -7.950   4.837  71.760  1.00  0.00    -0.100 C  
ATOM     19  OE2 GLU A   1      -7.653   7.143  71.072  1.00  0.00    -0.083 OA 
ATOM     20  OE1 GLU A   1      -6.494   6.365  72.849  1.00  0.00    -0.061 OA 
ATOM     21  CD  GLU A   1      -7.372   6.228  71.830  1.00  0.00    -0.093 C  
ENDBRANCH  17  18
ENDBRANCH  13  17
ENDBRANCH  11  13
ENDBRANCH   4   9
ENDBRANCH   2   3
BRANCH   2  22
HETATM   22  C   UNK A   0     -11.269  11.479  64.632  1.00  0.00    -0.206 C  
BRANCH  22  23
HETATM   23  C   UNK A   0     -11.047  12.835  65.275  1.00  0.00    -0.287 A  
HETATM   24  N   UNK A   0     -11.997  13.524  69.323  1.00  0.00    -0.331 NA 
HETATM   25  C   UNK A   0     -10.609  15.282  66.452  1.00  0.00    -0.308 A  
HETATM   26  C   UNK A   0     -10.433  13.885  64.615  1.00  0.00    -0.396 A  
HETATM   27  N   UNK A   0     -10.437  16.490  66.982  1.00  0.00    -0.304 NA 
HETATM   28  C   UNK A   0     -11.526  14.524  68.457  1.00  0.00    -0.301 A  
HETATM   29  C   UNK A   0     -11.187  14.214  67.144  1.00  0.00    -0.317 A  
HETATM   30  N   UNK A   0     -10.212  15.097  65.187  1.00  0.00    -0.371 NA 
HETATM   31  C   UNK A   0     -10.852  16.682  68.227  1.00  0.00    -0.356 A  
HETATM   32  H1  UNK A   0     -12.122  12.603  68.902  1.00  0.00     0.000 HD 
HETATM   33  H1  UNK A   0     -11.044  18.094  69.715  1.00  0.00     0.000 HD 
HETATM   34  N   UNK A   0     -10.725  17.947  68.758  1.00  0.00    -0.304 NA 
HETATM   35  N   UNK A   0     -11.362  15.734  69.011  1.00  0.00    -0.329 NA 
HETATM   36  N   UNK A   0     -11.416  12.990  66.567  1.00  0.00    -0.323 NA 
HETATM   37  H2  UNK A   0     -12.863  13.826  69.768  1.00  0.00     0.000 HD 
HETATM   38  H2  UNK A   0     -10.326  18.711  68.211  1.00  0.00     0.000 HD 
ENDBRANCH  22  23
ENDBRANCH   2  22
TORSDOF 7
ENDMDL
MODEL      259
REMARK 921   NORMALIZED FREE ENERGY PREDICTED BY IDOCK:   -3.65 KCAL/MOL
REMARK 922        TOTAL FREE ENERGY PREDICTED BY IDOCK:   -6.90 KCAL/MOL
REMARK 923 INTER-LIGAND FREE ENERGY PREDICTED BY IDOCK:   -5.87 KCAL/MOL
REMARK 924 INTRA-LIGAND FREE ENERGY PREDICTED BY IDOCK:   -1.03 KCAL/MOL
REMARK 927      BINDING AFFINITY PREDICTED BY RF-SCORE:    0.00 PKD
ROOT
HETATM    1  C   UNK A   0      -7.890   6.517  64.072  1.00  0.00    -0.108 C  
HETATM    2  N   UNK A   0      -7.616   6.990  65.426  1.00  0.00    -0.091 NA 
ENDROOT
BRANCH   2   3
HETATM    3  C   UNK A   0      -7.854   8.322  65.746  1.00  0.00    -0.098 A  
HETATM    4  C   UNK A   0      -8.240  10.944  66.746  1.00  0.00    -0.140 A  
HETATM    5  C   UNK A   0      -9.137   8.814  66.045  1.00  0.00    -0.265 A  
HETATM    6  C   UNK A   0      -6.788   9.229  65.852  1.00  0.00    -0.088 A  
HETATM    7  C   UNK A   0      -6.969  10.518  66.361  1.00  0.00    -0.124 A  
HETATM    8  C   UNK A   0      -9.337  10.115  66.527  1.00  0.00    -0.200 A  
BRANCH   4   9
HETATM    9  C   UNK A   0      -8.431  12.258  67.407  1.00  0.00    -0.176 C  
HETATM   10  O   UNK A   0      -7.536  12.769  68.064  1.00  0.00    -0.098 OA 
ATOM     11  N   GLU A   1      -9.660  12.865  67.181  1.00  0.00    -0.219 N  
ATOM     12  H   GLU A   1     -10.398  12.366  66.685  1.00  0.00     0.000 HD 
BRANCH  11  13
ATOM     13  CA  GLU A   1      -9.887  14.240  67.666  1.00  0.00    -0.224 C  
ATOM     14  OXT GLU A   1     -11.702  15.256  68.956  1.00  0.00    -0.319 OA 
ATOM     15  C   GLU A   1     -11.314  14.347  68.235  1.00  0.00    -0.287 C  
ATOM     16  O   GLU A   1     -12.162  13.423  67.717  1.00  0.00    -0.291 OA 
BRANCH  13  17
ATOM     17  CB  GLU A   1      -9.704  15.245  66.519  1.00  0.00    -0.287 C  
BRANCH  17  18
ATOM     18  CG  GLU A   1      -9.135  16.590  66.983  1.00  0.00    -0.228 C  
ATOM     19  OE2 GLU A   1     -10.589  17.673  65.374  1.00  0.00    -0.657 OA 
ATOM     20  OE1 GLU A   1      -9.263  18.943  66.691  1.00  0.00    -0.308 OA 
ATOM     21  CD  GLU A   1      -9.748  17.759  66.254  1.00  0.00    -0.267 C  
ENDBRANCH  17  18
ENDBRANCH  13  17
ENDBRANCH  11  13
ENDBRANCH   4   9
ENDBRANCH   2   3
BRANCH   2  22
HETATM   22  C   UNK A   0      -6.713   6.183  66.265  1.00  0.00    -0.060 C  
BRANCH  22  23
HETATM   23  C   UNK A   0      -7.389   5.517  67.448  1.00  0.00    -0.076 A  
HETATM   24  N   UNK A   0      -8.466   7.715  70.879  1.00  0.00    -0.123 NA 
HETATM   25  C   UNK A   0      -8.652   4.319  69.578  1.00  0.00    -0.076 A  
HETATM   26  C   UNK A   0      -7.783   4.191  67.436  1.00  0.00    -0.084 A  
HETATM   27  N   UNK A   0      -9.212   3.705  70.616  1.00  0.00    -0.119 NA 
HETATM   28  C   UNK A   0      -8.634   6.326  70.765  1.00  0.00    -0.135 A  
HETATM   29  C   UNK A   0      -8.301   5.673  69.583  1.00  0.00    -0.107 A  
HETATM   30  N   UNK A   0      -8.407   3.590  68.482  1.00  0.00    -0.076 NA 
HETATM   31  C   UNK A   0      -9.433   4.420  71.711  1.00  0.00    -0.147 A  
HETATM   32  H1  UNK A   0      -8.036   8.172  70.074  1.00  0.00     0.000 HD 
HETATM   33  H1  UNK A   0     -10.131   4.323  73.647  1.00  0.00     0.000 HD 
HETATM   34  N   UNK A   0      -9.962   3.772  72.805  1.00  0.00    -0.146 NA 
HETATM   35  N   UNK A   0      -9.200   5.727  71.823  1.00  0.00    -0.145 NA 
HETATM   36  N   UNK A   0      -7.666   6.281  68.530  1.00  0.00    -0.099 NA 
HETATM   37  H2  UNK A   0      -7.944   7.936  71.727  1.00  0.00     0.000 HD 
HETATM   38  H2  UNK A   0     -10.177   2.775  72.774  1.00  0.00     0.000 HD 
ENDBRANCH  22  23
ENDBRANCH   2  22
TORSDOF 7
ENDMDL
MODEL      260
REMARK 921   NORMALIZED FREE ENERGY PREDICTED BY IDOCK:   -3.65 KCAL/MOL
REMARK 922        TOTAL FREE ENERGY PREDICTED BY IDOCK:   -6.89 KCAL/MOL
REMARK 923 INTER-LIGAND FREE ENERGY PREDICTED BY IDOCK:   -7.17 KCAL/MOL
REMARK 924 INTRA-LIGAND FREE ENERGY PREDICTED BY IDOCK:    0.28 KCAL/MOL
REMARK 927      BINDING AFFINITY PREDICTED BY RF-SCORE:    0.00 PKD
ROOT
HETATM    1  C   UNK A   0      -9.309   6.192  70.470  1.00  0.00    -0.161 C  
HETATM    2  N   UNK A   0      -9.991   6.788  69.324  1.00  0.00    -0.158 NA 
ENDROOT
BRANCH   2   3
HETATM    3  C   UNK A   0     -10.111   8.171  69.245  1.00  0.00    -0.202 A  
HETATM    4  C   UNK A   0     -10.649  10.925  68.859  1.00  0.00    -0.241 A  
HETATM    5  C   UNK A   0      -9.361   8.948  68.345  1.00  0.00    -0.140 A  
HETATM    6  C   UNK A   0     -11.058   8.849  70.029  1.00  0.00    -0.180 A  
HETATM    7  C   UNK A   0     -11.339  10.203  69.832  1.00  0.00    -0.335 A  
HETATM    8  C   UNK A   0      -9.612  10.315  68.159  1.00  0.00    -0.151 A  
BRANCH   4   9
HETATM    9  C   UNK A   0     -11.023  12.326  68.547  1.00  0.00    -0.240 C  
HETATM   10  O   UNK A   0     -11.635  12.603  67.526  1.00  0.00    -0.317 OA 
ATOM     11  N   GLU A   1     -10.673  13.264  69.511  1.00  0.00    -0.425 N  
ATOM     12  H   GLU A   1     -10.101  12.993  70.310  1.00  0.00     0.000 HD 
BRANCH  11  13
ATOM     13  CA  GLU A   1     -11.137  14.657  69.365  1.00  0.00    -0.268 C  
ATOM     14  OXT GLU A   1     -12.896  15.935  70.490  1.00  0.00    -0.422 OA 
ATOM     15  C   GLU A   1     -12.430  14.848  70.181  1.00  0.00    -0.306 C  
ATOM     16  O   GLU A   1     -13.106  13.688  70.381  1.00  0.00    -0.045 OA 
BRANCH  13  17
ATOM     17  CB  GLU A   1     -11.399  14.979  67.886  1.00  0.00    -0.344 C  
BRANCH  17  18
ATOM     18  CG  GLU A   1     -10.751  16.290  67.433  1.00  0.00    -0.287 C  
ATOM     19  OE2 GLU A   1     -10.294  15.237  65.298  1.00  0.00    -0.369 OA 
ATOM     20  OE1 GLU A   1      -9.692  17.392  65.615  1.00  0.00    -0.533 OA 
ATOM     21  CD  GLU A   1     -10.234  16.220  66.018  1.00  0.00    -0.358 C  
ENDBRANCH  17  18
ENDBRANCH  13  17
ENDBRANCH  11  13
ENDBRANCH   4   9
ENDBRANCH   2   3
BRANCH   2  22
HETATM   22  C   UNK A   0     -10.888   5.925  68.535  1.00  0.00    -0.248 C  
BRANCH  22  23
HETATM   23  C   UNK A   0     -10.188   5.118  67.459  1.00  0.00    -0.156 A  
HETATM   24  N   UNK A   0      -8.508   6.975  64.068  1.00  0.00    -0.336 NA 
HETATM   25  C   UNK A   0      -8.884   3.659  65.525  1.00  0.00    -0.125 A  
HETATM   26  C   UNK A   0      -9.968   3.757  67.569  1.00  0.00     0.200 A  
HETATM   27  N   UNK A   0      -8.307   2.924  64.579  1.00  0.00    -0.086 NA 
HETATM   28  C   UNK A   0      -8.530   5.584  64.258  1.00  0.00    -0.069 A  
HETATM   29  C   UNK A   0      -9.059   5.043  65.426  1.00  0.00    -0.154 A  
HETATM   30  N   UNK A   0      -9.326   3.027  66.620  1.00  0.00    -0.335 NA 
HETATM   31  C   UNK A   0      -7.891   3.546  63.484  1.00  0.00    -0.076 A  
HETATM   32  H1  UNK A   0      -8.955   7.524  64.803  1.00  0.00     0.000 HD 
HETATM   33  H1  UNK A   0      -7.023   3.256  61.637  1.00  0.00     0.000 HD 
HETATM   34  N   UNK A   0      -7.343   2.778  62.479  1.00  0.00    -0.040 NA 
HETATM   35  N   UNK A   0      -7.944   4.862  63.292  1.00  0.00    -0.083 NA 
HETATM   36  N   UNK A   0      -9.712   5.781  66.380  1.00  0.00    -0.178 NA 
HETATM   37  H2  UNK A   0      -8.912   7.211  63.162  1.00  0.00     0.000 HD 
HETATM   38  H2  UNK A   0      -7.260   1.766  62.575  1.00  0.00     0.000 HD 
ENDBRANCH  22  23
ENDBRANCH   2  22
TORSDOF 7
ENDMDL
MODEL      261
REMARK 921   NORMALIZED FREE ENERGY PREDICTED BY IDOCK:   -3.64 KCAL/MOL
REMARK 922        TOTAL FREE ENERGY PREDICTED BY IDOCK:   -6.88 KCAL/MOL
REMARK 923 INTER-LIGAND FREE ENERGY PREDICTED BY IDOCK:   -6.70 KCAL/MOL
REMARK 924 INTRA-LIGAND FREE ENERGY PREDICTED BY IDOCK:   -0.18 KCAL/MOL
REMARK 927      BINDING AFFINITY PREDICTED BY RF-SCORE:    0.00 PKD
ROOT
HETATM    1  C   UNK A   0      -6.711  13.542  69.725  1.00  0.00     0.084 C  
HETATM    2  N   UNK A   0      -7.411  12.695  68.764  1.00  0.00    -0.198 NA 
ENDROOT
BRANCH   2   3
HETATM    3  C   UNK A   0      -7.669  11.367  69.085  1.00  0.00    -0.008 A  
HETATM    4  C   UNK A   0      -7.944   8.575  69.477  1.00  0.00    -0.106 A  
HETATM    5  C   UNK A   0      -8.751  10.651  68.542  1.00  0.00    -0.141 A  
HETATM    6  C   UNK A   0      -6.800  10.658  69.928  1.00  0.00    -0.149 A  
HETATM    7  C   UNK A   0      -6.920   9.277  70.113  1.00  0.00    -0.067 A  
HETATM    8  C   UNK A   0      -8.901   9.272  68.744  1.00  0.00    -0.132 A  
BRANCH   4   9
HETATM    9  C   UNK A   0      -8.011   7.096  69.557  1.00  0.00    -0.128 C  
HETATM   10  O   UNK A   0      -6.993   6.421  69.611  1.00  0.00    -0.066 OA 
ATOM     11  N   GLU A   1      -9.292   6.559  69.613  1.00  0.00    -0.143 N  
ATOM     12  H   GLU A   1     -10.107   7.160  69.493  1.00  0.00     0.000 HD 
BRANCH  11  13
ATOM     13  CA  GLU A   1      -9.459   5.113  69.849  1.00  0.00    -0.160 C  
ATOM     14  OXT GLU A   1      -9.631   3.203  68.328  1.00  0.00    -0.176 OA 
ATOM     15  C   GLU A   1      -9.729   4.409  68.506  1.00  0.00    -0.113 C  
ATOM     16  O   GLU A   1     -10.258   5.237  67.570  1.00  0.00    -0.183 OA 
BRANCH  13  17
ATOM     17  CB  GLU A   1     -10.628   4.863  70.814  1.00  0.00    -0.072 C  
BRANCH  17  18
ATOM     18  CG  GLU A   1     -10.355   3.730  71.807  1.00  0.00     0.003 C  
ATOM     19  OE2 GLU A   1     -11.309   5.126  73.545  1.00  0.00    -0.296 OA 
ATOM     20  OE1 GLU A   1     -10.586   3.051  74.072  1.00  0.00    -0.160 OA 
ATOM     21  CD  GLU A   1     -10.802   4.068  73.207  1.00  0.00    -0.210 C  
ENDBRANCH  17  18
ENDBRANCH  13  17
ENDBRANCH  11  13
ENDBRANCH   4   9
ENDBRANCH   2   3
BRANCH   2  22
HETATM   22  C   UNK A   0      -7.431  13.128  67.355  1.00  0.00    -0.124 C  
BRANCH  22  23
HETATM   23  C   UNK A   0      -8.038  14.501  67.135  1.00  0.00    -0.168 A  
HETATM   24  N   UNK A   0     -11.162  15.099  64.369  1.00  0.00    -0.676 NA 
HETATM   25  C   UNK A   0      -9.164  16.982  66.762  1.00  0.00    -0.252 A  
HETATM   26  C   UNK A   0      -7.682  15.605  67.887  1.00  0.00    -0.131 A  
HETATM   27  N   UNK A   0      -9.654  18.202  66.561  1.00  0.00    -0.310 NA 
HETATM   28  C   UNK A   0     -10.560  16.140  65.094  1.00  0.00    -0.343 A  
HETATM   29  C   UNK A   0      -9.565  15.862  66.027  1.00  0.00    -0.350 A  
HETATM   30  N   UNK A   0      -8.232  16.835  67.711  1.00  0.00    -0.181 NA 
HETATM   31  C   UNK A   0     -10.560  18.354  65.605  1.00  0.00    -0.103 A  
HETATM   32  H1  UNK A   0     -10.775  14.169  64.535  1.00  0.00     0.000 HD 
HETATM   33  H1  UNK A   0     -11.724  19.743  64.623  1.00  0.00     0.000 HD 
HETATM   34  N   UNK A   0     -11.027  19.626  65.359  1.00  0.00    -0.339 NA 
HETATM   35  N   UNK A   0     -11.068  17.361  64.877  1.00  0.00    -0.810 NA 
HETATM   36  N   UNK A   0      -9.008  14.620  66.199  1.00  0.00    -0.491 NA 
HETATM   37  H2  UNK A   0     -11.145  15.312  63.372  1.00  0.00     0.000 HD 
HETATM   38  H2  UNK A   0     -10.688  20.425  65.896  1.00  0.00     0.000 HD 
ENDBRANCH  22  23
ENDBRANCH   2  22
TORSDOF 7
ENDMDL
MODEL      262
REMARK 921   NORMALIZED FREE ENERGY PREDICTED BY IDOCK:   -3.62 KCAL/MOL
REMARK 922        TOTAL FREE ENERGY PREDICTED BY IDOCK:   -6.85 KCAL/MOL
REMARK 923 INTER-LIGAND FREE ENERGY PREDICTED BY IDOCK:   -6.02 KCAL/MOL
REMARK 924 INTRA-LIGAND FREE ENERGY PREDICTED BY IDOCK:   -0.83 KCAL/MOL
REMARK 927      BINDING AFFINITY PREDICTED BY RF-SCORE:    0.00 PKD
ROOT
HETATM    1  C   UNK A   0      -7.410   6.945  64.743  1.00  0.00    -0.088 C  
HETATM    2  N   UNK A   0      -7.913   7.611  65.941  1.00  0.00    -0.109 NA 
ENDROOT
BRANCH   2   3
HETATM    3  C   UNK A   0      -8.691   8.756  65.810  1.00  0.00    -0.179 A  
HETATM    4  C   UNK A   0     -10.203  11.149  65.906  1.00  0.00    -0.303 A  
HETATM    5  C   UNK A   0     -10.093   8.737  65.909  1.00  0.00     0.123 A  
HETATM    6  C   UNK A   0      -8.086  10.011  65.641  1.00  0.00    -0.138 A  
HETATM    7  C   UNK A   0      -8.824  11.196  65.704  1.00  0.00    -0.165 A  
HETATM    8  C   UNK A   0     -10.849   9.916  65.942  1.00  0.00     0.426 A  
BRANCH   4   9
HETATM    9  C   UNK A   0     -10.982  12.395  66.104  1.00  0.00    -0.286 C  
HETATM   10  O   UNK A   0     -12.140  12.359  66.493  1.00  0.00    -0.599 OA 
ATOM     11  N   GLU A   1     -10.289  13.576  65.865  1.00  0.00    -0.293 N  
ATOM     12  H   GLU A   1      -9.347  13.550  65.474  1.00  0.00     0.000 HD 
BRANCH  11  13
ATOM     13  CA  GLU A   1     -10.929  14.867  66.183  1.00  0.00    -0.334 C  
ATOM     14  OXT GLU A   1     -10.286  17.183  65.722  1.00  0.00    -0.504 OA 
ATOM     15  C   GLU A   1      -9.957  16.011  65.839  1.00  0.00    -0.352 C  
ATOM     16  O   GLU A   1      -8.657  15.623  65.848  1.00  0.00    -0.138 OA 
BRANCH  13  17
ATOM     17  CB  GLU A   1     -11.299  14.924  67.673  1.00  0.00    -0.348 C  
BRANCH  17  18
ATOM     18  CG  GLU A   1     -10.124  14.588  68.597  1.00  0.00    -0.244 C  
ATOM     19  OE2 GLU A   1      -9.992  16.943  69.157  1.00  0.00    -0.269 OA 
ATOM     20  OE1 GLU A   1      -8.562  15.494  70.139  1.00  0.00     0.165 OA 
ATOM     21  CD  GLU A   1      -9.578  15.804  69.301  1.00  0.00    -0.270 C  
ENDBRANCH  17  18
ENDBRANCH  13  17
ENDBRANCH  11  13
ENDBRANCH   4   9
ENDBRANCH   2   3
BRANCH   2  22
HETATM   22  C   UNK A   0      -7.241   7.320  67.220  1.00  0.00    -0.093 C  
BRANCH  22  23
HETATM   23  C   UNK A   0      -8.188   7.072  68.378  1.00  0.00    -0.124 A  
HETATM   24  N   UNK A   0      -9.326  10.183  70.986  1.00  0.00     0.145 NA 
HETATM   25  C   UNK A   0      -9.936   6.632  70.456  1.00  0.00    -0.179 A  
HETATM   26  C   UNK A   0      -8.811   5.855  68.589  1.00  0.00    -0.111 A  
HETATM   27  N   UNK A   0     -10.740   6.380  71.485  1.00  0.00    -0.231 NA 
HETATM   28  C   UNK A   0      -9.725   8.847  71.154  1.00  0.00    -0.274 A  
HETATM   29  C   UNK A   0      -9.350   7.881  70.226  1.00  0.00    -0.159 A  
HETATM   30  N   UNK A   0      -9.675   5.627  69.612  1.00  0.00    -0.159 NA 
HETATM   31  C   UNK A   0     -10.981   7.369  72.337  1.00  0.00    -0.275 A  
HETATM   32  H1  UNK A   0      -8.710  10.359  70.192  1.00  0.00     0.000 HD 
HETATM   33  H1  UNK A   0     -11.954   7.855  74.087  1.00  0.00     0.000 HD 
HETATM   34  N   UNK A   0     -11.769   7.094  73.433  1.00  0.00    -0.181 NA 
HETATM   35  N   UNK A   0     -10.534   8.615  72.197  1.00  0.00    -0.342 NA 
HETATM   36  N   UNK A   0      -8.473   8.112  69.197  1.00  0.00    -0.134 NA 
HETATM   37  H2  UNK A   0      -8.898  10.531  71.844  1.00  0.00     0.000 HD 
HETATM   38  H2  UNK A   0     -12.154   6.162  73.585  1.00  0.00     0.000 HD 
ENDBRANCH  22  23
ENDBRANCH   2  22
TORSDOF 7
ENDMDL
MODEL      263
REMARK 921   NORMALIZED FREE ENERGY PREDICTED BY IDOCK:   -3.57 KCAL/MOL
REMARK 922        TOTAL FREE ENERGY PREDICTED BY IDOCK:   -6.77 KCAL/MOL
REMARK 923 INTER-LIGAND FREE ENERGY PREDICTED BY IDOCK:   -7.25 KCAL/MOL
REMARK 924 INTRA-LIGAND FREE ENERGY PREDICTED BY IDOCK:    0.47 KCAL/MOL
REMARK 927      BINDING AFFINITY PREDICTED BY RF-SCORE:    0.00 PKD
ROOT
HETATM    1  C   UNK A   0     -11.453  10.703  68.268  1.00  0.00    -0.245 C  
HETATM    2  N   UNK A   0     -10.170  10.922  67.607  1.00  0.00    -0.178 NA 
ENDROOT
BRANCH   2   3
HETATM    3  C   UNK A   0      -9.810  12.207  67.221  1.00  0.00    -0.196 A  
HETATM    4  C   UNK A   0      -9.263  14.945  66.738  1.00  0.00    -0.281 A  
HETATM    5  C   UNK A   0     -10.538  12.947  66.272  1.00  0.00    -0.281 A  
HETATM    6  C   UNK A   0      -8.724  12.855  67.830  1.00  0.00    -0.186 A  
HETATM    7  C   UNK A   0      -8.459  14.210  67.609  1.00  0.00    -0.189 A  
HETATM    8  C   UNK A   0     -10.263  14.298  66.017  1.00  0.00    -0.327 A  
BRANCH   4   9
HETATM    9  C   UNK A   0      -9.078  16.409  66.590  1.00  0.00    -0.250 C  
HETATM   10  O   UNK A   0      -9.520  17.005  65.619  1.00  0.00    -0.526 OA 
ATOM     11  N   GLU A   1      -8.422  17.035  67.643  1.00  0.00    -0.203 N  
ATOM     12  H   GLU A   1      -8.011  16.483  68.396  1.00  0.00     0.000 HD 
BRANCH  11  13
ATOM     13  CA  GLU A   1      -8.327  18.508  67.661  1.00  0.00    -0.255 C  
ATOM     14  OXT GLU A   1      -9.430  20.215  69.025  1.00  0.00    -0.039 OA 
ATOM     15  C   GLU A   1      -9.423  19.074  68.584  1.00  0.00    -0.405 C  
ATOM     16  O   GLU A   1     -10.481  18.237  68.725  1.00  0.00    -0.292 OA 
BRANCH  13  17
ATOM     17  CB  GLU A   1      -8.497  19.069  66.241  1.00  0.00    -0.289 C  
BRANCH  17  18
ATOM     18  CG  GLU A   1      -7.547  20.232  65.938  1.00  0.00    -0.201 C  
ATOM     19  OE2 GLU A   1      -6.278  18.726  64.524  1.00  0.00    -0.459 OA 
ATOM     20  OE1 GLU A   1      -5.622  20.881  64.707  1.00  0.00    -0.212 OA 
ATOM     21  CD  GLU A   1      -6.438  19.841  64.994  1.00  0.00    -0.276 C  
ENDBRANCH  17  18
ENDBRANCH  13  17
ENDBRANCH  11  13
ENDBRANCH   4   9
ENDBRANCH   2   3
BRANCH   2  22
HETATM   22  C   UNK A   0      -9.508   9.757  66.992  1.00  0.00    -0.157 C  
BRANCH  22  23
HETATM   23  C   UNK A   0      -9.449   8.532  67.884  1.00  0.00    -0.139 A  
HETATM   24  N   UNK A   0      -7.996   8.763  71.833  1.00  0.00    -0.326 NA 
HETATM   25  C   UNK A   0      -9.375   6.318  69.515  1.00  0.00    -0.142 A  
HETATM   26  C   UNK A   0      -9.954   7.302  67.501  1.00  0.00    -0.169 A  
HETATM   27  N   UNK A   0      -9.300   5.221  70.264  1.00  0.00    -0.152 NA 
HETATM   28  C   UNK A   0      -8.389   7.562  71.222  1.00  0.00    -0.111 A  
HETATM   29  C   UNK A   0      -8.904   7.567  69.930  1.00  0.00    -0.141 A  
HETATM   30  N   UNK A   0      -9.922   6.203  68.298  1.00  0.00    -0.135 NA 
HETATM   31  C   UNK A   0      -8.737   5.329  71.460  1.00  0.00    -0.134 A  
HETATM   32  H1  UNK A   0      -8.060   9.595  71.246  1.00  0.00     0.000 HD 
HETATM   33  H1  UNK A   0      -8.175   4.266  73.133  1.00  0.00     0.000 HD 
HETATM   34  N   UNK A   0      -8.608   4.183  72.214  1.00  0.00    -0.105 NA 
HETATM   35  N   UNK A   0      -8.304   6.469  71.994  1.00  0.00    -0.108 NA 
HETATM   36  N   UNK A   0      -8.930   8.677  69.125  1.00  0.00    -0.141 NA 
HETATM   37  H2  UNK A   0      -7.052   8.672  72.209  1.00  0.00     0.000 HD 
HETATM   38  H2  UNK A   0      -8.936   3.282  71.864  1.00  0.00     0.000 HD 
ENDBRANCH  22  23
ENDBRANCH   2  22
TORSDOF 7
ENDMDL
MODEL      264
REMARK 921   NORMALIZED FREE ENERGY PREDICTED BY IDOCK:   -3.56 KCAL/MOL
REMARK 922        TOTAL FREE ENERGY PREDICTED BY IDOCK:   -6.77 KCAL/MOL
REMARK 923 INTER-LIGAND FREE ENERGY PREDICTED BY IDOCK:   -5.84 KCAL/MOL
REMARK 924 INTRA-LIGAND FREE ENERGY PREDICTED BY IDOCK:   -0.93 KCAL/MOL
REMARK 927      BINDING AFFINITY PREDICTED BY RF-SCORE:    0.00 PKD
ROOT
HETATM    1  C   UNK A   0      -6.442  10.662  65.838  1.00  0.00    -0.121 C  
HETATM    2  N   UNK A   0      -7.057  10.663  67.162  1.00  0.00    -0.089 NA 
ENDROOT
BRANCH   2   3
HETATM    3  C   UNK A   0      -7.714  11.804  67.609  1.00  0.00    -0.137 A  
HETATM    4  C   UNK A   0      -8.896  14.303  68.229  1.00  0.00    -0.185 A  
HETATM    5  C   UNK A   0      -7.196  12.632  68.620  1.00  0.00    -0.108 A  
HETATM    6  C   UNK A   0      -8.912  12.217  67.005  1.00  0.00    -0.201 A  
HETATM    7  C   UNK A   0      -9.491  13.456  67.294  1.00  0.00    -0.234 A  
HETATM    8  C   UNK A   0      -7.784  13.864  68.942  1.00  0.00    -0.041 A  
BRANCH   4   9
HETATM    9  C   UNK A   0      -9.421  15.671  68.453  1.00  0.00    -0.196 C  
HETATM   10  O   UNK A   0      -9.999  15.962  69.490  1.00  0.00    -0.255 OA 
ATOM     11  N   GLU A   1      -9.166  16.582  67.435  1.00  0.00    -0.215 N  
ATOM     12  H   GLU A   1      -8.743  16.271  66.560  1.00  0.00     0.000 HD 
BRANCH  11  13
ATOM     13  CA  GLU A   1      -9.512  18.003  67.632  1.00  0.00    -0.264 C  
ATOM     14  OXT GLU A   1     -11.184  19.454  66.588  1.00  0.00    -0.187 OA 
ATOM     15  C   GLU A   1     -10.502  18.440  66.536  1.00  0.00    -0.381 C  
ATOM     16  O   GLU A   1     -10.422  17.679  65.416  1.00  0.00    -0.648 OA 
BRANCH  13  17
ATOM     17  CB  GLU A   1      -8.246  18.871  67.571  1.00  0.00    -0.289 C  
BRANCH  17  18
ATOM     18  CG  GLU A   1      -6.993  18.144  68.068  1.00  0.00    -0.217 C  
ATOM     19  OE2 GLU A   1      -6.563  20.037  69.519  1.00  0.00    -0.335 OA 
ATOM     20  OE1 GLU A   1      -5.156  18.270  69.568  1.00  0.00    -0.174 OA 
ATOM     21  CD  GLU A   1      -6.243  18.932  69.111  1.00  0.00    -0.263 C  
ENDBRANCH  17  18
ENDBRANCH  13  17
ENDBRANCH  11  13
ENDBRANCH   4   9
ENDBRANCH   2   3
BRANCH   2  22
HETATM   22  C   UNK A   0      -6.602   9.649  68.131  1.00  0.00    -0.061 C  
BRANCH  22  23
HETATM   23  C   UNK A   0      -7.381   8.349  68.083  1.00  0.00    -0.096 A  
HETATM   24  N   UNK A   0      -5.623   4.697  69.241  1.00  0.00    -0.015 NA 
HETATM   25  C   UNK A   0      -8.804   5.995  68.033  1.00  0.00    -0.110 A  
HETATM   26  C   UNK A   0      -8.725   8.293  67.761  1.00  0.00    -0.134 A  
HETATM   27  N   UNK A   0      -9.498   4.864  67.948  1.00  0.00    -0.132 NA 
HETATM   28  C   UNK A   0      -6.924   4.800  68.723  1.00  0.00    -0.052 A  
HETATM   29  C   UNK A   0      -7.457   6.046  68.407  1.00  0.00    -0.086 A  
HETATM   30  N   UNK A   0      -9.437   7.136  67.733  1.00  0.00    -0.126 NA 
HETATM   31  C   UNK A   0      -8.865   3.731  68.222  1.00  0.00    -0.112 A  
HETATM   32  H1  UNK A   0      -5.105   5.574  69.300  1.00  0.00     0.000 HD 
HETATM   33  H1  UNK A   0      -9.080   1.682  68.291  1.00  0.00     0.000 HD 
HETATM   34  N   UNK A   0      -9.567   2.554  68.081  1.00  0.00    -0.263 NA 
HETATM   35  N   UNK A   0      -7.605   3.648  68.645  1.00  0.00    -0.053 NA 
HETATM   36  N   UNK A   0      -6.735   7.212  68.430  1.00  0.00    -0.055 NA 
HETATM   37  H2  UNK A   0      -5.089   4.010  68.710  1.00  0.00     0.000 HD 
HETATM   38  H2  UNK A   0     -10.541   2.554  67.776  1.00  0.00     0.000 HD 
ENDBRANCH  22  23
ENDBRANCH   2  22
TORSDOF 7
ENDMDL
MODEL      265
REMARK 921   NORMALIZED FREE ENERGY PREDICTED BY IDOCK:   -3.52 KCAL/MOL
REMARK 922        TOTAL FREE ENERGY PREDICTED BY IDOCK:   -6.70 KCAL/MOL
REMARK 923 INTER-LIGAND FREE ENERGY PREDICTED BY IDOCK:   -5.84 KCAL/MOL
REMARK 924 INTRA-LIGAND FREE ENERGY PREDICTED BY IDOCK:   -0.86 KCAL/MOL
REMARK 927      BINDING AFFINITY PREDICTED BY RF-SCORE:    0.00 PKD
ROOT
HETATM    1  C   UNK A   0      -5.806  13.793  69.795  1.00  0.00    -0.115 C  
HETATM    2  N   UNK A   0      -6.772  13.065  68.976  1.00  0.00    -0.101 NA 
ENDROOT
BRANCH   2   3
HETATM    3  C   UNK A   0      -7.061  11.739  69.278  1.00  0.00    -0.032 A  
HETATM    4  C   UNK A   0      -7.452   8.950  69.587  1.00  0.00    -0.071 A  
HETATM    5  C   UNK A   0      -8.264  11.118  68.897  1.00  0.00    -0.104 A  
HETATM    6  C   UNK A   0      -6.111  10.934  69.927  1.00  0.00    -0.105 A  
HETATM    7  C   UNK A   0      -6.291   9.555  70.068  1.00  0.00    -0.054 A  
HETATM    8  C   UNK A   0      -8.470   9.741  69.060  1.00  0.00    -0.137 A  
BRANCH   4   9
HETATM    9  C   UNK A   0      -7.603   7.475  69.611  1.00  0.00    -0.094 C  
HETATM   10  O   UNK A   0      -6.632   6.741  69.502  1.00  0.00    -0.045 OA 
ATOM     11  N   GLU A   1      -8.898   7.012  69.811  1.00  0.00    -0.142 N  
ATOM     12  H   GLU A   1      -9.682   7.664  69.824  1.00  0.00     0.000 HD 
BRANCH  11  13
ATOM     13  CA  GLU A   1      -9.127   5.567  70.004  1.00  0.00    -0.135 C  
ATOM     14  OXT GLU A   1      -9.557   3.741  68.432  1.00  0.00    -0.162 OA 
ATOM     15  C   GLU A   1      -9.566   4.941  68.667  1.00  0.00    -0.154 C  
ATOM     16  O   GLU A   1     -10.133   5.839  67.823  1.00  0.00    -0.137 OA 
BRANCH  13  17
ATOM     17  CB  GLU A   1     -10.209   5.339  71.070  1.00  0.00    -0.299 C  
BRANCH  17  18
ATOM     18  CG  GLU A   1      -9.907   4.150  71.988  1.00  0.00    -0.242 C  
ATOM     19  OE2 GLU A   1     -10.599   5.521  73.863  1.00  0.00    -0.261 OA 
ATOM     20  OE1 GLU A   1      -9.951   3.389  74.237  1.00  0.00    -0.109 OA 
ATOM     21  CD  GLU A   1     -10.192   4.453  73.437  1.00  0.00    -0.165 C  
ENDBRANCH  17  18
ENDBRANCH  13  17
ENDBRANCH  11  13
ENDBRANCH   4   9
ENDBRANCH   2   3
BRANCH   2  22
HETATM   22  C   UNK A   0      -7.072  13.596  67.635  1.00  0.00    -0.170 C  
BRANCH  22  23
HETATM   23  C   UNK A   0      -7.594  15.020  67.632  1.00  0.00    -0.178 A  
HETATM   24  N   UNK A   0      -5.598  18.083  65.533  1.00  0.00    -0.169 NA 
HETATM   25  C   UNK A   0      -8.561  17.595  67.594  1.00  0.00    -0.224 A  
HETATM   26  C   UNK A   0      -8.794  15.379  68.221  1.00  0.00    -0.176 A  
HETATM   27  N   UNK A   0      -9.021  18.842  67.637  1.00  0.00    -0.285 NA 
HETATM   28  C   UNK A   0      -6.735  18.302  66.328  1.00  0.00    -0.234 A  
HETATM   29  C   UNK A   0      -7.371  17.235  66.954  1.00  0.00    -0.205 A  
HETATM   30  N   UNK A   0      -9.280  16.647  68.208  1.00  0.00    -0.211 NA 
HETATM   31  C   UNK A   0      -8.297  19.787  67.049  1.00  0.00    -0.309 A  
HETATM   32  H1  UNK A   0      -5.259  17.121  65.511  1.00  0.00     0.000 HD 
HETATM   33  H1  UNK A   0      -8.187  21.812  66.688  1.00  0.00     0.000 HD 
HETATM   34  N   UNK A   0      -8.743  21.087  67.140  1.00  0.00    -0.527 NA 
HETATM   35  N   UNK A   0      -7.181  19.566  66.358  1.00  0.00    -0.229 NA 
HETATM   36  N   UNK A   0      -6.875  15.956  66.970  1.00  0.00    -0.256 NA 
HETATM   37  H2  UNK A   0      -4.847  18.712  65.816  1.00  0.00     0.000 HD 
HETATM   38  H2  UNK A   0      -9.602  21.316  67.642  1.00  0.00     0.000 HD 
ENDBRANCH  22  23
ENDBRANCH   2  22
TORSDOF 7
ENDMDL
MODEL      266
REMARK 921   NORMALIZED FREE ENERGY PREDICTED BY IDOCK:   -3.41 KCAL/MOL
REMARK 922        TOTAL FREE ENERGY PREDICTED BY IDOCK:   -6.55 KCAL/MOL
REMARK 923 INTER-LIGAND FREE ENERGY PREDICTED BY IDOCK:   -5.86 KCAL/MOL
REMARK 924 INTRA-LIGAND FREE ENERGY PREDICTED BY IDOCK:   -0.69 KCAL/MOL
REMARK 927      BINDING AFFINITY PREDICTED BY RF-SCORE:    0.00 PKD
ROOT
HETATM    1  C   UNK A   0      -7.513  11.568  66.127  1.00  0.00     0.210 C  
HETATM    2  N   UNK A   0      -7.642  11.496  67.580  1.00  0.00    -0.113 NA 
ENDROOT
BRANCH   2   3
HETATM    3  C   UNK A   0      -8.301  10.416  68.154  1.00  0.00    -0.117 A  
HETATM    4  C   UNK A   0      -9.394   8.240  69.601  1.00  0.00    -0.158 A  
HETATM    5  C   UNK A   0      -8.039   9.084  67.789  1.00  0.00    -0.109 A  
HETATM    6  C   UNK A   0      -9.224  10.617  69.193  1.00  0.00    -0.162 A  
HETATM    7  C   UNK A   0      -9.753   9.548  69.922  1.00  0.00    -0.252 A  
HETATM    8  C   UNK A   0      -8.587   8.002  68.492  1.00  0.00    -0.128 A  
BRANCH   4   9
HETATM    9  C   UNK A   0      -9.842   7.103  70.443  1.00  0.00    -0.176 C  
HETATM   10  O   UNK A   0     -10.612   7.276  71.376  1.00  0.00    -0.212 OA 
ATOM     11  N   GLU A   1      -9.366   5.855  70.060  1.00  0.00    -0.146 N  
ATOM     12  H   GLU A   1      -8.671   5.774  69.318  1.00  0.00     0.000 HD 
BRANCH  11  13
ATOM     13  CA  GLU A   1      -9.878   4.648  70.737  1.00  0.00    -0.214 C  
ATOM     14  OXT GLU A   1      -9.556   3.763  72.997  1.00  0.00    -0.115 OA 
ATOM     15  C   GLU A   1      -9.163   4.486  72.092  1.00  0.00    -0.130 C  
ATOM     16  O   GLU A   1      -7.950   5.094  72.127  1.00  0.00    -0.108 OA 
BRANCH  13  17
ATOM     17  CB  GLU A   1      -9.635   3.406  69.866  1.00  0.00    -0.198 C  
BRANCH  17  18
ATOM     18  CG  GLU A   1      -8.181   3.270  69.406  1.00  0.00    -0.074 C  
ATOM     19  OE2 GLU A   1      -8.995   3.136  67.127  1.00  0.00    -0.133 OA 
ATOM     20  OE1 GLU A   1      -6.769   3.060  67.508  1.00  0.00    -0.043 OA 
ATOM     21  CD  GLU A   1      -8.058   3.148  67.908  1.00  0.00    -0.078 C  
ENDBRANCH  17  18
ENDBRANCH  13  17
ENDBRANCH  11  13
ENDBRANCH   4   9
ENDBRANCH   2   3
BRANCH   2  22
HETATM   22  C   UNK A   0      -7.466  12.743  68.347  1.00  0.00    -0.124 C  
BRANCH  22  23
HETATM   23  C   UNK A   0      -8.275  13.914  67.825  1.00  0.00    -0.173 A  
HETATM   24  N   UNK A   0      -6.409  17.266  66.080  1.00  0.00    -0.151 NA 
HETATM   25  C   UNK A   0      -9.745  16.023  66.845  1.00  0.00    -0.235 A  
HETATM   26  C   UNK A   0      -9.658  13.914  67.796  1.00  0.00    -0.222 A  
HETATM   27  N   UNK A   0     -10.476  17.053  66.428  1.00  0.00    -0.289 NA 
HETATM   28  C   UNK A   0      -7.794  17.173  66.288  1.00  0.00    -0.316 A  
HETATM   29  C   UNK A   0      -8.347  16.015  66.826  1.00  0.00    -0.270 A  
HETATM   30  N   UNK A   0     -10.393  14.950  67.314  1.00  0.00    -0.250 NA 
HETATM   31  C   UNK A   0      -9.834  18.126  65.986  1.00  0.00    -0.165 A  
HETATM   32  H1  UNK A   0      -5.862  16.468  66.404  1.00  0.00     0.000 HD 
HETATM   33  H1  UNK A   0     -10.096  20.039  65.266  1.00  0.00     0.000 HD 
HETATM   34  N   UNK A   0     -10.590  19.214  65.606  1.00  0.00    -0.526 NA 
HETATM   35  N   UNK A   0      -8.512  18.221  65.861  1.00  0.00    -0.482 NA 
HETATM   36  N   UNK A   0      -7.602  14.973  67.317  1.00  0.00    -0.204 NA 
HETATM   37  H2  UNK A   0      -6.050  18.127  66.492  1.00  0.00     0.000 HD 
HETATM   38  H2  UNK A   0     -11.608  19.194  65.662  1.00  0.00     0.000 HD 
ENDBRANCH  22  23
ENDBRANCH   2  22
TORSDOF 7
ENDMDL
MODEL      267
REMARK 921   NORMALIZED FREE ENERGY PREDICTED BY IDOCK:   -3.40 KCAL/MOL
REMARK 922        TOTAL FREE ENERGY PREDICTED BY IDOCK:   -6.55 KCAL/MOL
REMARK 923 INTER-LIGAND FREE ENERGY PREDICTED BY IDOCK:   -6.90 KCAL/MOL
REMARK 924 INTRA-LIGAND FREE ENERGY PREDICTED BY IDOCK:    0.36 KCAL/MOL
REMARK 927      BINDING AFFINITY PREDICTED BY RF-SCORE:    0.00 PKD
ROOT
HETATM    1  C   UNK A   0      -8.267   6.228  64.978  1.00  0.00    -0.132 C  
HETATM    2  N   UNK A   0      -8.283   6.945  66.250  1.00  0.00    -0.112 NA 
ENDROOT
BRANCH   2   3
HETATM    3  C   UNK A   0      -8.814   8.229  66.303  1.00  0.00    -0.161 A  
HETATM    4  C   UNK A   0      -9.698  10.886  66.727  1.00  0.00    -0.221 A  
HETATM    5  C   UNK A   0     -10.082   8.505  66.844  1.00  0.00    -0.364 A  
HETATM    6  C   UNK A   0      -8.057   9.330  65.873  1.00  0.00    -0.111 A  
HETATM    7  C   UNK A   0      -8.480  10.643  66.094  1.00  0.00    -0.159 A  
HETATM    8  C   UNK A   0     -10.532   9.817  67.043  1.00  0.00    -0.295 A  
BRANCH   4   9
HETATM    9  C   UNK A   0     -10.104  12.267  67.086  1.00  0.00    -0.208 C  
HETATM   10  O   UNK A   0      -9.528  12.883  67.971  1.00  0.00    -0.201 OA 
ATOM     11  N   GLU A   1     -11.131  12.805  66.319  1.00  0.00    -0.280 N  
ATOM     12  H   GLU A   1     -11.625  12.225  65.641  1.00  0.00     0.000 HD 
BRANCH  11  13
ATOM     13  CA  GLU A   1     -11.498  14.222  66.496  1.00  0.00    -0.360 C  
ATOM     14  OXT GLU A   1     -11.326  16.168  65.021  1.00  0.00    -0.233 OA 
ATOM     15  C   GLU A   1     -10.955  15.039  65.309  1.00  0.00    -0.382 C  
ATOM     16  O   GLU A   1      -9.890  14.452  64.706  1.00  0.00    -0.147 OA 
BRANCH  13  17
ATOM     17  CB  GLU A   1     -10.917  14.762  67.812  1.00  0.00    -0.294 C  
BRANCH  17  18
ATOM     18  CG  GLU A   1     -11.928  15.576  68.626  1.00  0.00    -0.231 C  
ATOM     19  OE2 GLU A   1     -12.042  13.727  70.189  1.00  0.00    -0.319 OA 
ATOM     20  OE1 GLU A   1     -13.264  15.586  70.589  1.00  0.00    -0.432 OA 
ATOM     21  CD  GLU A   1     -12.396  14.848  69.860  1.00  0.00    -0.280 C  
ENDBRANCH  17  18
ENDBRANCH  13  17
ENDBRANCH  11  13
ENDBRANCH   4   9
ENDBRANCH   2   3
BRANCH   2  22
HETATM   22  C   UNK A   0      -7.369   6.483  67.310  1.00  0.00    -0.087 C  
BRANCH  22  23
HETATM   23  C   UNK A   0      -7.838   6.797  68.717  1.00  0.00    -0.111 A  
HETATM   24  N   UNK A   0     -10.044   3.999  70.969  1.00  0.00    -0.100 NA 
HETATM   25  C   UNK A   0      -8.656   7.351  71.284  1.00  0.00    -0.118 A  
HETATM   26  C   UNK A   0      -7.490   7.960  69.380  1.00  0.00    -0.091 A  
HETATM   27  N   UNK A   0      -9.086   7.665  72.503  1.00  0.00    -0.144 NA 
HETATM   28  C   UNK A   0      -9.750   5.295  71.419  1.00  0.00    -0.164 A  
HETATM   29  C   UNK A   0      -8.975   6.150  70.642  1.00  0.00    -0.147 A  
HETATM   30  N   UNK A   0      -7.889   8.244  70.647  1.00  0.00    -0.087 NA 
HETATM   31  C   UNK A   0      -9.866   6.791  73.126  1.00  0.00    -0.179 A  
HETATM   32  H1  UNK A   0      -9.707   3.774  70.032  1.00  0.00     0.000 HD 
HETATM   33  H1  UNK A   0     -10.957   6.467  74.844  1.00  0.00     0.000 HD 
HETATM   34  N   UNK A   0     -10.357   7.139  74.365  1.00  0.00    -0.458 NA 
HETATM   35  N   UNK A   0     -10.193   5.591  72.650  1.00  0.00    -0.181 NA 
HETATM   36  N   UNK A   0      -8.578   5.864  69.360  1.00  0.00    -0.113 NA 
HETATM   37  H2  UNK A   0     -11.048   3.827  71.030  1.00  0.00     0.000 HD 
HETATM   38  H2  UNK A   0     -10.128   8.038  74.790  1.00  0.00     0.000 HD 
ENDBRANCH  22  23
ENDBRANCH   2  22
TORSDOF 7
ENDMDL
MODEL      268
REMARK 921   NORMALIZED FREE ENERGY PREDICTED BY IDOCK:   -3.37 KCAL/MOL
REMARK 922        TOTAL FREE ENERGY PREDICTED BY IDOCK:   -6.50 KCAL/MOL
REMARK 923 INTER-LIGAND FREE ENERGY PREDICTED BY IDOCK:   -5.84 KCAL/MOL
REMARK 924 INTRA-LIGAND FREE ENERGY PREDICTED BY IDOCK:   -0.66 KCAL/MOL
REMARK 927      BINDING AFFINITY PREDICTED BY RF-SCORE:    0.00 PKD
ROOT
HETATM    1  C   UNK A   0      -5.732  12.953  71.387  1.00  0.00     0.189 C  
HETATM    2  N   UNK A   0      -6.209  12.127  70.281  1.00  0.00    -0.391 NA 
ENDROOT
BRANCH   2   3
HETATM    3  C   UNK A   0      -6.587  10.812  70.525  1.00  0.00     0.093 A  
HETATM    4  C   UNK A   0      -7.129   8.040  70.741  1.00  0.00    -0.048 A  
HETATM    5  C   UNK A   0      -7.761  10.248  69.994  1.00  0.00    -0.090 A  
HETATM    6  C   UNK A   0      -5.757   9.960  71.270  1.00  0.00    -0.054 A  
HETATM    7  C   UNK A   0      -6.010   8.588  71.366  1.00  0.00    -0.043 A  
HETATM    8  C   UNK A   0      -8.043   8.880  70.109  1.00  0.00    -0.122 A  
BRANCH   4   9
HETATM    9  C   UNK A   0      -7.344   6.572  70.723  1.00  0.00    -0.076 C  
HETATM   10  O   UNK A   0      -6.409   5.797  70.861  1.00  0.00    -0.033 OA 
ATOM     11  N   GLU A   1      -8.666   6.165  70.590  1.00  0.00    -0.138 N  
ATOM     12  H   GLU A   1      -9.400   6.850  70.408  1.00  0.00     0.000 HD 
BRANCH  11  13
ATOM     13  CA  GLU A   1      -8.997   4.733  70.717  1.00  0.00    -0.123 C  
ATOM     14  OXT GLU A   1      -9.540   3.013  69.062  1.00  0.00    -0.147 OA 
ATOM     15  C   GLU A   1      -9.467   4.199  69.351  1.00  0.00    -0.190 C  
ATOM     16  O   GLU A   1      -9.963   5.172  68.544  1.00  0.00    -0.155 OA 
BRANCH  13  17
ATOM     17  CB  GLU A   1     -10.103   4.534  71.765  1.00  0.00    -0.254 C  
BRANCH  17  18
ATOM     18  CG  GLU A   1     -10.041   5.555  72.905  1.00  0.00    -0.202 C  
ATOM     19  OE2 GLU A   1     -11.373   7.048  71.537  1.00  0.00    -0.243 OA 
ATOM     20  OE1 GLU A   1     -10.757   7.708  73.608  1.00  0.00    -0.292 OA 
ATOM     21  CD  GLU A   1     -10.790   6.824  72.585  1.00  0.00    -0.250 C  
ENDBRANCH  17  18
ENDBRANCH  13  17
ENDBRANCH  11  13
ENDBRANCH   4   9
ENDBRANCH   2   3
BRANCH   2  22
HETATM   22  C   UNK A   0      -5.870  12.553  68.911  1.00  0.00    -0.070 C  
BRANCH  22  23
HETATM   23  C   UNK A   0      -6.963  13.341  68.216  1.00  0.00    -0.107 A  
HETATM   24  N   UNK A   0      -6.229  17.176  66.629  1.00  0.00    -0.203 NA 
HETATM   25  C   UNK A   0      -8.935  14.756  66.921  1.00  0.00    -0.253 A  
HETATM   26  C   UNK A   0      -8.221  12.820  67.971  1.00  0.00    -0.168 A  
HETATM   27  N   UNK A   0      -9.920  15.441  66.348  1.00  0.00    -0.263 NA 
HETATM   28  C   UNK A   0      -7.493  16.565  66.623  1.00  0.00    -0.261 A  
HETATM   29  C   UNK A   0      -7.652  15.276  67.121  1.00  0.00    -0.189 A  
HETATM   30  N   UNK A   0      -9.202  13.511  67.333  1.00  0.00    -0.213 NA 
HETATM   31  C   UNK A   0      -9.664  16.684  65.961  1.00  0.00    -0.278 A  
HETATM   32  H1  UNK A   0      -5.485  16.638  67.072  1.00  0.00     0.000 HD 
HETATM   33  H1  UNK A   0     -10.501  18.369  65.121  1.00  0.00     0.000 HD 
HETATM   34  N   UNK A   0     -10.699  17.413  65.418  1.00  0.00    -0.576 NA 
HETATM   35  N   UNK A   0      -8.472  17.272  66.041  1.00  0.00    -0.529 NA 
HETATM   36  N   UNK A   0      -6.662  14.583  67.771  1.00  0.00    -0.164 NA 
HETATM   37  H2  UNK A   0      -6.291  18.102  67.052  1.00  0.00     0.000 HD 
HETATM   38  H2  UNK A   0     -11.631  17.011  65.316  1.00  0.00     0.000 HD 
ENDBRANCH  22  23
ENDBRANCH   2  22
TORSDOF 7
ENDMDL
MODEL      269
REMARK 921   NORMALIZED FREE ENERGY PREDICTED BY IDOCK:   -3.36 KCAL/MOL
REMARK 922        TOTAL FREE ENERGY PREDICTED BY IDOCK:   -6.49 KCAL/MOL
REMARK 923 INTER-LIGAND FREE ENERGY PREDICTED BY IDOCK:   -8.03 KCAL/MOL
REMARK 924 INTRA-LIGAND FREE ENERGY PREDICTED BY IDOCK:    1.55 KCAL/MOL
REMARK 927      BINDING AFFINITY PREDICTED BY RF-SCORE:    0.00 PKD
ROOT
HETATM    1  C   UNK A   0     -10.392  10.737  64.553  1.00  0.00    -0.331 C  
HETATM    2  N   UNK A   0      -9.426  10.990  65.618  1.00  0.00    -0.208 NA 
ENDROOT
BRANCH   2   3
HETATM    3  C   UNK A   0      -9.497  12.177  66.338  1.00  0.00    -0.233 A  
HETATM    4  C   UNK A   0      -9.550  14.767  67.484  1.00  0.00    -0.208 A  
HETATM    5  C   UNK A   0      -8.431  12.658  67.118  1.00  0.00    -0.186 A  
HETATM    6  C   UNK A   0     -10.637  12.991  66.254  1.00  0.00    -0.283 A  
HETATM    7  C   UNK A   0     -10.664  14.277  66.803  1.00  0.00    -0.287 A  
HETATM    8  C   UNK A   0      -8.456  13.933  67.700  1.00  0.00    -0.193 A  
BRANCH   4   9
HETATM    9  C   UNK A   0      -9.511  16.171  67.960  1.00  0.00    -0.211 C  
HETATM   10  O   UNK A   0     -10.087  16.506  68.984  1.00  0.00    -0.250 OA 
ATOM     11  N   GLU A   1      -8.744  17.039  67.192  1.00  0.00    -0.205 N  
ATOM     12  H   GLU A   1      -8.342  16.727  66.308  1.00  0.00     0.000 HD 
BRANCH  11  13
ATOM     13  CA  GLU A   1      -8.518  18.417  67.668  1.00  0.00    -0.255 C  
ATOM     14  OXT GLU A   1      -6.734  19.428  69.005  1.00  0.00    -0.294 OA 
ATOM     15  C   GLU A   1      -7.339  18.423  68.659  1.00  0.00    -0.295 C  
ATOM     16  O   GLU A   1      -7.142  17.220  69.255  1.00  0.00    -0.237 OA 
BRANCH  13  17
ATOM     17  CB  GLU A   1      -9.782  18.957  68.354  1.00  0.00    -0.432 C  
BRANCH  17  18
ATOM     18  CG  GLU A   1     -10.892  19.324  67.365  1.00  0.00    -0.554 C  
ATOM     19  OE2 GLU A   1      -9.168  19.877  65.753  1.00  0.00    -0.333 OA 
ATOM     20  OE1 GLU A   1     -11.338  20.073  65.156  1.00  0.00    -0.150 OA 
ATOM     21  CD  GLU A   1     -10.352  19.781  66.034  1.00  0.00    -0.511 C  
ENDBRANCH  17  18
ENDBRANCH  13  17
ENDBRANCH  11  13
ENDBRANCH   4   9
ENDBRANCH   2   3
BRANCH   2  22
HETATM   22  C   UNK A   0      -8.175  10.209  65.609  1.00  0.00    -0.150 C  
BRANCH  22  23
HETATM   23  C   UNK A   0      -8.376   8.713  65.465  1.00  0.00    -0.150 A  
HETATM   24  N   UNK A   0     -11.052   6.611  67.953  1.00  0.00    -0.518 NA 
HETATM   25  C   UNK A   0      -8.770   6.006  65.180  1.00  0.00    -0.009 A  
HETATM   26  C   UNK A   0      -7.783   7.972  64.459  1.00  0.00    -0.125 A  
HETATM   27  N   UNK A   0      -8.901   4.688  65.056  1.00  0.00    -0.145 NA 
HETATM   28  C   UNK A   0     -10.238   5.990  66.992  1.00  0.00    -0.205 A  
HETATM   29  C   UNK A   0      -9.412   6.753  66.172  1.00  0.00    -0.006 A  
HETATM   30  N   UNK A   0      -7.971   6.635  64.309  1.00  0.00    -0.182 NA 
HETATM   31  C   UNK A   0      -9.674   4.060  65.933  1.00  0.00    -0.188 A  
HETATM   32  H1  UNK A   0     -10.939   7.621  68.035  1.00  0.00     0.000 HD 
HETATM   33  H1  UNK A   0     -10.360   2.206  66.514  1.00  0.00     0.000 HD 
HETATM   34  N   UNK A   0      -9.766   2.689  65.840  1.00  0.00    -0.348 NA 
HETATM   35  N   UNK A   0     -10.385   4.662  66.884  1.00  0.00    -0.166 NA 
HETATM   36  N   UNK A   0      -9.220   8.102  66.329  1.00  0.00    -0.187 NA 
HETATM   37  H2  UNK A   0     -10.918   6.169  68.862  1.00  0.00     0.000 HD 
HETATM   38  H2  UNK A   0      -9.258   2.174  65.121  1.00  0.00     0.000 HD 
ENDBRANCH  22  23
ENDBRANCH   2  22
TORSDOF 7
ENDMDL
MODEL      270
REMARK 921   NORMALIZED FREE ENERGY PREDICTED BY IDOCK:   -3.28 KCAL/MOL
REMARK 922        TOTAL FREE ENERGY PREDICTED BY IDOCK:   -6.37 KCAL/MOL
REMARK 923 INTER-LIGAND FREE ENERGY PREDICTED BY IDOCK:   -5.67 KCAL/MOL
REMARK 924 INTRA-LIGAND FREE ENERGY PREDICTED BY IDOCK:   -0.70 KCAL/MOL
REMARK 927      BINDING AFFINITY PREDICTED BY RF-SCORE:    0.00 PKD
ROOT
HETATM    1  C   UNK A   0      -9.036  12.507  67.018  1.00  0.00    -0.213 C  
HETATM    2  N   UNK A   0      -8.076  11.929  67.954  1.00  0.00    -0.138 NA 
ENDROOT
BRANCH   2   3
HETATM    3  C   UNK A   0      -8.246  10.619  68.384  1.00  0.00    -0.125 A  
HETATM    4  C   UNK A   0      -8.949   8.041  69.326  1.00  0.00    -0.148 A  
HETATM    5  C   UNK A   0      -7.930  10.200  69.689  1.00  0.00    -0.181 A  
HETATM    6  C   UNK A   0      -8.818   9.660  67.534  1.00  0.00    -0.129 A  
HETATM    7  C   UNK A   0      -9.183   8.392  67.996  1.00  0.00    -0.143 A  
HETATM    8  C   UNK A   0      -8.262   8.921  70.157  1.00  0.00    -0.126 A  
BRANCH   4   9
HETATM    9  C   UNK A   0      -9.445   6.752  69.867  1.00  0.00    -0.156 C  
HETATM   10  O   UNK A   0     -10.176   6.719  70.845  1.00  0.00    -0.194 OA 
ATOM     11  N   GLU A   1      -9.058   5.621  69.158  1.00  0.00    -0.112 N  
ATOM     12  H   GLU A   1      -8.390   5.697  68.391  1.00  0.00     0.000 HD 
BRANCH  11  13
ATOM     13  CA  GLU A   1      -9.625   4.309  69.525  1.00  0.00    -0.204 C  
ATOM     14  OXT GLU A   1      -8.927   2.603  71.136  1.00  0.00    -0.077 OA 
ATOM     15  C   GLU A   1      -8.636   3.570  70.446  1.00  0.00    -0.062 C  
ATOM     16  O   GLU A   1      -7.354   3.986  70.288  1.00  0.00    -0.041 OA 
BRANCH  13  17
ATOM     17  CB  GLU A   1      -9.892   3.473  68.264  1.00  0.00     0.088 C  
BRANCH  17  18
ATOM     18  CG  GLU A   1      -8.913   3.775  67.126  1.00  0.00    -0.159 C  
ATOM     19  OE2 GLU A   1     -10.825   4.124  65.677  1.00  0.00     0.013 OA 
ATOM     20  OE1 GLU A   1      -8.743   4.403  64.842  1.00  0.00    -0.124 OA 
ATOM     21  CD  GLU A   1      -9.614   4.108  65.834  1.00  0.00    -0.191 C  
ENDBRANCH  17  18
ENDBRANCH  13  17
ENDBRANCH  11  13
ENDBRANCH   4   9
ENDBRANCH   2   3
BRANCH   2  22
HETATM   22  C   UNK A   0      -7.235  12.856  68.732  1.00  0.00    -0.081 C  
BRANCH  22  23
HETATM   23  C   UNK A   0      -7.652  14.310  68.631  1.00  0.00    -0.126 A  
HETATM   24  N   UNK A   0     -11.146  15.724  70.519  1.00  0.00    -0.343 NA 
HETATM   25  C   UNK A   0      -8.390  16.956  68.482  1.00  0.00    -0.257 A  
HETATM   26  C   UNK A   0      -6.874  15.271  68.012  1.00  0.00    -0.140 A  
HETATM   27  N   UNK A   0      -8.753  18.229  68.348  1.00  0.00    -0.305 NA 
HETATM   28  C   UNK A   0     -10.328  16.524  69.704  1.00  0.00    -0.221 A  
HETATM   29  C   UNK A   0      -9.163  16.003  69.152  1.00  0.00    -0.247 A  
HETATM   30  N   UNK A   0      -7.229  16.580  67.932  1.00  0.00    -0.136 NA 
HETATM   31  C   UNK A   0      -9.915  18.597  68.871  1.00  0.00    -0.354 A  
HETATM   32  H1  UNK A   0     -10.854  14.751  70.611  1.00  0.00     0.000 HD 
HETATM   33  H1  UNK A   0     -11.211  20.185  69.088  1.00  0.00     0.000 HD 
HETATM   34  N   UNK A   0     -10.317  19.902  68.686  1.00  0.00    -0.538 NA 
HETATM   35  N   UNK A   0     -10.712  17.803  69.582  1.00  0.00    -0.103 NA 
HETATM   36  N   UNK A   0      -8.809  14.679  69.229  1.00  0.00    -0.397 NA 
HETATM   37  H2  UNK A   0     -12.112  15.770  70.196  1.00  0.00     0.000 HD 
HETATM   38  H2  UNK A   0      -9.741  20.562  68.164  1.00  0.00     0.000 HD 
ENDBRANCH  22  23
ENDBRANCH   2  22
TORSDOF 7
ENDMDL
MODEL      271
REMARK 921   NORMALIZED FREE ENERGY PREDICTED BY IDOCK:   -3.28 KCAL/MOL
REMARK 922        TOTAL FREE ENERGY PREDICTED BY IDOCK:   -6.37 KCAL/MOL
REMARK 923 INTER-LIGAND FREE ENERGY PREDICTED BY IDOCK:   -6.34 KCAL/MOL
REMARK 924 INTRA-LIGAND FREE ENERGY PREDICTED BY IDOCK:   -0.04 KCAL/MOL
REMARK 927      BINDING AFFINITY PREDICTED BY RF-SCORE:    0.00 PKD
ROOT
HETATM    1  C   UNK A   0      -9.794   5.277  72.714  1.00  0.00    -0.158 C  
HETATM    2  N   UNK A   0      -9.749   5.558  71.282  1.00  0.00    -0.161 NA 
ENDROOT
BRANCH   2   3
HETATM    3  C   UNK A   0      -9.800   6.876  70.843  1.00  0.00    -0.185 A  
HETATM    4  C   UNK A   0     -10.234   9.582  70.126  1.00  0.00    -0.291 A  
HETATM    5  C   UNK A   0     -10.261   7.234  69.564  1.00  0.00    -0.200 A  
HETATM    6  C   UNK A   0      -9.452   7.927  71.706  1.00  0.00    -0.205 A  
HETATM    7  C   UNK A   0      -9.678   9.263  71.365  1.00  0.00    -0.269 A  
HETATM    8  C   UNK A   0     -10.465   8.571  69.197  1.00  0.00    -0.217 A  
BRANCH   4   9
HETATM    9  C   UNK A   0     -10.601  10.981  69.799  1.00  0.00    -0.001 C  
HETATM   10  O   UNK A   0     -11.481  11.563  70.415  1.00  0.00    -0.218 OA 
ATOM     11  N   GLU A   1      -9.847  11.575  68.793  1.00  0.00    -0.339 N  
ATOM     12  H   GLU A   1      -9.173  11.024  68.262  1.00  0.00     0.000 HD 
BRANCH  11  13
ATOM     13  CA  GLU A   1     -10.032  13.010  68.503  1.00  0.00    -0.172 C  
ATOM     14  OXT GLU A   1     -11.658  14.218  67.127  1.00  0.00    -0.342 OA 
ATOM     15  C   GLU A   1     -11.086  13.169  67.390  1.00  0.00    -0.275 C  
ATOM     16  O   GLU A   1     -11.197  12.068  66.604  1.00  0.00    -0.293 OA 
BRANCH  13  17
ATOM     17  CB  GLU A   1      -8.703  13.638  68.059  1.00  0.00    -0.176 C  
BRANCH  17  18
ATOM     18  CG  GLU A   1      -8.743  15.169  68.026  1.00  0.00    -0.165 C  
ATOM     19  OE2 GLU A   1      -6.327  15.160  68.225  1.00  0.00    -0.099 OA 
ATOM     20  OE1 GLU A   1      -7.412  17.135  68.056  1.00  0.00    -0.184 OA 
ATOM     21  CD  GLU A   1      -7.370  15.785  68.117  1.00  0.00    -0.124 C  
ENDBRANCH  17  18
ENDBRANCH  13  17
ENDBRANCH  11  13
ENDBRANCH   4   9
ENDBRANCH   2   3
BRANCH   2  22
HETATM   22  C   UNK A   0     -10.084   4.461  70.357  1.00  0.00    -0.104 C  
BRANCH  22  23
HETATM   23  C   UNK A   0      -9.286   4.468  69.068  1.00  0.00    -0.134 A  
HETATM   24  N   UNK A   0     -11.191   4.487  65.308  1.00  0.00    -1.016 NA 
HETATM   25  C   UNK A   0      -7.838   4.518  66.729  1.00  0.00    -0.098 A  
HETATM   26  C   UNK A   0      -7.906   4.570  69.043  1.00  0.00    -0.070 A  
HETATM   27  N   UNK A   0      -7.115   4.487  65.614  1.00  0.00    -0.066 NA 
HETATM   28  C   UNK A   0      -9.798   4.415  65.470  1.00  0.00    -0.216 A  
HETATM   29  C   UNK A   0      -9.235   4.462  66.741  1.00  0.00    -0.139 A  
HETATM   30  N   UNK A   0      -7.182   4.595  67.893  1.00  0.00    -0.065 NA 
HETATM   31  C   UNK A   0      -7.763   4.386  64.461  1.00  0.00    -0.081 A  
HETATM   32  H1  UNK A   0     -11.732   4.510  66.173  1.00  0.00     0.000 HD 
HETATM   33  H1  UNK A   0      -7.511   4.220  62.422  1.00  0.00     0.000 HD 
HETATM   34  N   UNK A   0      -7.012   4.298  63.308  1.00  0.00    -0.043 NA 
HETATM   35  N   UNK A   0      -9.088   4.384  64.333  1.00  0.00    -0.150 NA 
HETATM   36  N   UNK A   0      -9.969   4.430  67.900  1.00  0.00    -0.079 NA 
HETATM   37  H2  UNK A   0     -11.514   3.723  64.715  1.00  0.00     0.000 HD 
HETATM   38  H2  UNK A   0      -5.993   4.311  63.341  1.00  0.00     0.000 HD 
ENDBRANCH  22  23
ENDBRANCH   2  22
TORSDOF 7
ENDMDL
MODEL      272
REMARK 921   NORMALIZED FREE ENERGY PREDICTED BY IDOCK:   -3.26 KCAL/MOL
REMARK 922        TOTAL FREE ENERGY PREDICTED BY IDOCK:   -6.34 KCAL/MOL
REMARK 923 INTER-LIGAND FREE ENERGY PREDICTED BY IDOCK:   -4.84 KCAL/MOL
REMARK 924 INTRA-LIGAND FREE ENERGY PREDICTED BY IDOCK:   -1.50 KCAL/MOL
REMARK 927      BINDING AFFINITY PREDICTED BY RF-SCORE:    0.00 PKD
ROOT
HETATM    1  C   UNK A   0      -9.135   8.762  71.849  1.00  0.00    -0.220 C  
HETATM    2  N   UNK A   0      -8.694   8.502  70.482  1.00  0.00    -0.143 NA 
ENDROOT
BRANCH   2   3
HETATM    3  C   UNK A   0      -8.422   7.197  70.088  1.00  0.00    -0.139 A  
HETATM    4  C   UNK A   0      -7.717   4.688  68.978  1.00  0.00    -0.071 A  
HETATM    5  C   UNK A   0      -9.372   6.383  69.447  1.00  0.00    -0.143 A  
HETATM    6  C   UNK A   0      -7.137   6.657  70.258  1.00  0.00    -0.072 A  
HETATM    7  C   UNK A   0      -6.778   5.427  69.698  1.00  0.00    -0.055 A  
HETATM    8  C   UNK A   0      -9.034   5.134  68.908  1.00  0.00    -0.122 A  
BRANCH   4   9
HETATM    9  C   UNK A   0      -7.320   3.447  68.269  1.00  0.00    -0.050 C  
HETATM   10  O   UNK A   0      -7.093   2.416  68.884  1.00  0.00    -0.043 OA 
ATOM     11  N   GLU A   1      -7.280   3.540  66.883  1.00  0.00    -0.062 N  
ATOM     12  H   GLU A   1      -7.409   4.441  66.423  1.00  0.00     0.000 HD 
BRANCH  11  13
ATOM     13  CA  GLU A   1      -7.048   2.322  66.084  1.00  0.00    -0.059 C  
ATOM     14  OXT GLU A   1      -5.478   1.808  64.278  1.00  0.00    -0.007 OA 
ATOM     15  C   GLU A   1      -6.078   2.648  64.933  1.00  0.00    -0.019 C  
ATOM     16  O   GLU A   1      -6.083   3.962  64.593  1.00  0.00    -0.022 OA 
BRANCH  13  17
ATOM     17  CB  GLU A   1      -8.376   1.797  65.517  1.00  0.00    -0.092 C  
BRANCH  17  18
ATOM     18  CG  GLU A   1      -9.309   2.915  65.041  1.00  0.00    -0.133 C  
ATOM     19  OE2 GLU A   1      -9.226   1.935  62.825  1.00  0.00    -0.089 OA 
ATOM     20  OE1 GLU A   1     -10.496   3.772  63.171  1.00  0.00    -0.199 OA 
ATOM     21  CD  GLU A   1      -9.648   2.800  63.576  1.00  0.00    -0.103 C  
ENDBRANCH  17  18
ENDBRANCH  13  17
ENDBRANCH  11  13
ENDBRANCH   4   9
ENDBRANCH   2   3
BRANCH   2  22
HETATM   22  C   UNK A   0      -8.144   9.633  69.712  1.00  0.00    -0.155 C  
BRANCH  22  23
HETATM   23  C   UNK A   0      -8.731   9.784  68.322  1.00  0.00    -0.119 A  
HETATM   24  N   UNK A   0      -6.260  10.092  64.921  1.00  0.00    -0.118 NA 
HETATM   25  C   UNK A   0      -9.794  10.021  65.797  1.00  0.00    -0.278 A  
HETATM   26  C   UNK A   0     -10.090   9.728  68.074  1.00  0.00    -0.171 A  
HETATM   27  N   UNK A   0     -10.334  10.189  64.593  1.00  0.00    -0.282 NA 
HETATM   28  C   UNK A   0      -7.660  10.191  64.873  1.00  0.00    -0.138 A  
HETATM   29  C   UNK A   0      -8.416  10.031  66.030  1.00  0.00    -0.131 A  
HETATM   30  N   UNK A   0     -10.626   9.844  66.831  1.00  0.00    -0.209 NA 
HETATM   31  C   UNK A   0      -9.512  10.388  63.571  1.00  0.00    -0.312 A  
HETATM   32  H1  UNK A   0      -5.862   9.963  65.852  1.00  0.00     0.000 HD 
HETATM   33  H1  UNK A   0      -9.439  10.770  61.547  1.00  0.00     0.000 HD 
HETATM   34  N   UNK A   0     -10.071  10.617  62.333  1.00  0.00    -0.744 NA 
HETATM   35  N   UNK A   0      -8.183  10.361  63.650  1.00  0.00    -0.235 NA 
HETATM   36  N   UNK A   0      -7.873   9.920  67.285  1.00  0.00    -0.102 NA 
HETATM   37  H2  UNK A   0      -5.837  10.902  64.469  1.00  0.00     0.000 HD 
HETATM   38  H2  UNK A   0     -11.084  10.633  62.206  1.00  0.00     0.000 HD 
ENDBRANCH  22  23
ENDBRANCH   2  22
TORSDOF 7
ENDMDL
MODEL      273
REMARK 921   NORMALIZED FREE ENERGY PREDICTED BY IDOCK:   -3.25 KCAL/MOL
REMARK 922        TOTAL FREE ENERGY PREDICTED BY IDOCK:   -6.32 KCAL/MOL
REMARK 923 INTER-LIGAND FREE ENERGY PREDICTED BY IDOCK:   -6.86 KCAL/MOL
REMARK 924 INTRA-LIGAND FREE ENERGY PREDICTED BY IDOCK:    0.53 KCAL/MOL
REMARK 927      BINDING AFFINITY PREDICTED BY RF-SCORE:    0.00 PKD
ROOT
HETATM    1  C   UNK A   0      -7.770   5.751  64.045  1.00  0.00    -0.101 C  
HETATM    2  N   UNK A   0      -7.798   6.522  65.285  1.00  0.00    -0.102 NA 
ENDROOT
BRANCH   2   3
HETATM    3  C   UNK A   0      -8.510   7.715  65.332  1.00  0.00    -0.098 A  
HETATM    4  C   UNK A   0      -9.675  10.279  65.632  1.00  0.00    -0.308 A  
HETATM    5  C   UNK A   0      -9.533   7.953  66.266  1.00  0.00    -0.220 A  
HETATM    6  C   UNK A   0      -8.177   8.775  64.474  1.00  0.00    -0.168 A  
HETATM    7  C   UNK A   0      -8.736  10.047  64.628  1.00  0.00    -0.210 A  
HETATM    8  C   UNK A   0     -10.124   9.216  66.411  1.00  0.00    -0.345 A  
BRANCH   4   9
HETATM    9  C   UNK A   0     -10.182  11.649  65.893  1.00  0.00    -0.238 C  
HETATM   10  O   UNK A   0      -9.416  12.565  66.154  1.00  0.00    -0.237 OA 
ATOM     11  N   GLU A   1     -11.557  11.808  65.770  1.00  0.00    -0.222 N  
ATOM     12  H   GLU A   1     -12.158  10.998  65.620  1.00  0.00     0.000 HD 
BRANCH  11  13
ATOM     13  CA  GLU A   1     -12.138  13.162  65.857  1.00  0.00    -0.444 C  
ATOM     14  OXT GLU A   1     -12.671  14.841  64.158  1.00  0.00    -0.758 OA 
ATOM     15  C   GLU A   1     -12.038  13.846  64.481  1.00  0.00    -0.443 C  
ATOM     16  O   GLU A   1     -11.043  13.340  63.709  1.00  0.00    -0.320 OA 
BRANCH  13  17
ATOM     17  CB  GLU A   1     -11.391  13.994  66.911  1.00  0.00    -0.343 C  
BRANCH  17  18
ATOM     18  CG  GLU A   1     -12.247  14.316  68.139  1.00  0.00    -0.164 C  
ATOM     19  OE2 GLU A   1     -10.276  15.289  69.162  1.00  0.00    -0.220 OA 
ATOM     20  OE1 GLU A   1     -12.234  15.323  70.290  1.00  0.00    -0.318 OA 
ATOM     21  CD  GLU A   1     -11.464  15.015  69.221  1.00  0.00    -0.307 C  
ENDBRANCH  17  18
ENDBRANCH  13  17
ENDBRANCH  11  13
ENDBRANCH   4   9
ENDBRANCH   2   3
BRANCH   2  22
HETATM   22  C   UNK A   0      -6.749   6.251  66.284  1.00  0.00    -0.056 C  
BRANCH  22  23
HETATM   23  C   UNK A   0      -7.116   5.186  67.300  1.00  0.00    -0.069 A  
HETATM   24  N   UNK A   0     -10.483   5.609  69.800  1.00  0.00    -0.280 NA 
HETATM   25  C   UNK A   0      -7.805   3.238  69.116  1.00  0.00    -0.050 A  
HETATM   26  C   UNK A   0      -6.442   3.982  67.399  1.00  0.00    -0.038 A  
HETATM   27  N   UNK A   0      -8.084   2.306  70.023  1.00  0.00    -0.041 NA 
HETATM   28  C   UNK A   0      -9.587   4.531  69.884  1.00  0.00    -0.199 A  
HETATM   29  C   UNK A   0      -8.523   4.432  68.993  1.00  0.00    -0.082 A  
HETATM   30  N   UNK A   0      -6.774   3.014  68.292  1.00  0.00    -0.040 NA 
HETATM   31  C   UNK A   0      -9.090   2.538  70.856  1.00  0.00    -0.112 A  
HETATM   32  H1  UNK A   0     -10.255   6.315  69.100  1.00  0.00     0.000 HD 
HETATM   33  H1  UNK A   0     -10.119   1.778  72.471  1.00  0.00     0.000 HD 
HETATM   34  N   UNK A   0      -9.345   1.599  71.831  1.00  0.00    -0.083 NA 
HETATM   35  N   UNK A   0      -9.886   3.604  70.805  1.00  0.00    -0.142 NA 
HETATM   36  N   UNK A   0      -8.187   5.414  68.096  1.00  0.00    -0.099 NA 
HETATM   37  H2  UNK A   0     -10.590   6.047  70.715  1.00  0.00     0.000 HD 
HETATM   38  H2  UNK A   0      -8.779   0.754  71.909  1.00  0.00     0.000 HD 
ENDBRANCH  22  23
ENDBRANCH   2  22
TORSDOF 7
ENDMDL
MODEL      274
REMARK 921   NORMALIZED FREE ENERGY PREDICTED BY IDOCK:   -3.23 KCAL/MOL
REMARK 922        TOTAL FREE ENERGY PREDICTED BY IDOCK:   -6.30 KCAL/MOL
REMARK 923 INTER-LIGAND FREE ENERGY PREDICTED BY IDOCK:   -5.77 KCAL/MOL
REMARK 924 INTRA-LIGAND FREE ENERGY PREDICTED BY IDOCK:   -0.53 KCAL/MOL
REMARK 927      BINDING AFFINITY PREDICTED BY RF-SCORE:    0.00 PKD
ROOT
HETATM    1  C   UNK A   0      -8.808  13.105  67.283  1.00  0.00    -0.208 C  
HETATM    2  N   UNK A   0      -7.641  12.257  67.058  1.00  0.00    -0.326 NA 
ENDROOT
BRANCH   2   3
HETATM    3  C   UNK A   0      -7.785  10.875  67.090  1.00  0.00    -0.123 A  
HETATM    4  C   UNK A   0      -7.819   8.063  67.428  1.00  0.00    -0.117 A  
HETATM    5  C   UNK A   0      -7.104  10.019  66.206  1.00  0.00    -0.105 A  
HETATM    6  C   UNK A   0      -8.578  10.266  68.075  1.00  0.00    -0.118 A  
HETATM    7  C   UNK A   0      -8.586   8.880  68.257  1.00  0.00    -0.134 A  
HETATM    8  C   UNK A   0      -7.128   8.626  66.358  1.00  0.00    -0.079 A  
BRANCH   4   9
HETATM    9  C   UNK A   0      -7.714   6.606  67.687  1.00  0.00    -0.107 C  
HETATM   10  O   UNK A   0      -6.644   6.024  67.590  1.00  0.00    -0.051 OA 
ATOM     11  N   GLU A   1      -8.892   5.986  68.086  1.00  0.00    -0.112 N  
ATOM     12  H   GLU A   1      -9.772   6.501  68.083  1.00  0.00     0.000 HD 
BRANCH  11  13
ATOM     13  CA  GLU A   1      -8.855   4.575  68.515  1.00  0.00    -0.103 C  
ATOM     14  OXT GLU A   1      -9.154   2.472  67.298  1.00  0.00    -0.150 OA 
ATOM     15  C   GLU A   1      -9.334   3.680  67.356  1.00  0.00    -0.203 C  
ATOM     16  O   GLU A   1     -10.135   4.335  66.478  1.00  0.00    -0.227 OA 
BRANCH  13  17
ATOM     17  CB  GLU A   1      -9.757   4.369  69.742  1.00  0.00    -0.291 C  
BRANCH  17  18
ATOM     18  CG  GLU A   1      -9.570   5.449  70.812  1.00  0.00    -0.228 C  
ATOM     19  OE2 GLU A   1      -8.757   3.721  72.305  1.00  0.00    -0.094 OA 
ATOM     20  OE1 GLU A   1      -8.827   5.860  73.030  1.00  0.00    -0.124 OA 
ATOM     21  CD  GLU A   1      -9.018   4.895  72.101  1.00  0.00    -0.131 C  
ENDBRANCH  17  18
ENDBRANCH  13  17
ENDBRANCH  11  13
ENDBRANCH   4   9
ENDBRANCH   2   3
BRANCH   2  22
HETATM   22  C   UNK A   0      -6.309  12.863  67.234  1.00  0.00    -0.008 C  
BRANCH  22  23
HETATM   23  C   UNK A   0      -6.328  14.229  67.891  1.00  0.00    -0.163 A  
HETATM   24  N   UNK A   0      -7.708  17.636  65.827  1.00  0.00    -0.535 NA 
HETATM   25  C   UNK A   0      -6.400  16.702  69.095  1.00  0.00    -0.196 A  
HETATM   26  C   UNK A   0      -5.998  14.425  69.220  1.00  0.00    -0.097 A  
HETATM   27  N   UNK A   0      -6.373  17.895  69.682  1.00  0.00    -0.216 NA 
HETATM   28  C   UNK A   0      -7.173  17.681  67.125  1.00  0.00    -0.180 A  
HETATM   29  C   UNK A   0      -6.782  16.509  67.764  1.00  0.00    -0.139 A  
HETATM   30  N   UNK A   0      -6.029  15.642  69.824  1.00  0.00    -0.144 NA 
HETATM   31  C   UNK A   0      -6.716  18.949  68.954  1.00  0.00    -0.284 A  
HETATM   32  H1  UNK A   0      -7.722  16.713  65.391  1.00  0.00     0.000 HD 
HETATM   33  H1  UNK A   0      -6.900  21.001  68.984  1.00  0.00     0.000 HD 
HETATM   34  N   UNK A   0      -6.636  20.191  69.545  1.00  0.00    -0.295 NA 
HETATM   35  N   UNK A   0      -7.155  18.892  67.698  1.00  0.00    -0.214 NA 
HETATM   36  N   UNK A   0      -6.745  15.282  67.150  1.00  0.00    -0.266 NA 
HETATM   37  H2  UNK A   0      -7.221  18.300  65.225  1.00  0.00     0.000 HD 
HETATM   38  H2  UNK A   0      -6.322  20.296  70.510  1.00  0.00     0.000 HD 
ENDBRANCH  22  23
ENDBRANCH   2  22
TORSDOF 7
ENDMDL
MODEL      275
REMARK 921   NORMALIZED FREE ENERGY PREDICTED BY IDOCK:   -3.08 KCAL/MOL
REMARK 922        TOTAL FREE ENERGY PREDICTED BY IDOCK:   -6.09 KCAL/MOL
REMARK 923 INTER-LIGAND FREE ENERGY PREDICTED BY IDOCK:   -4.87 KCAL/MOL
REMARK 924 INTRA-LIGAND FREE ENERGY PREDICTED BY IDOCK:   -1.21 KCAL/MOL
REMARK 927      BINDING AFFINITY PREDICTED BY RF-SCORE:    0.00 PKD
ROOT
HETATM    1  C   UNK A   0      -8.757   8.376  71.774  1.00  0.00    -0.180 C  
HETATM    2  N   UNK A   0      -8.021   8.443  70.515  1.00  0.00    -0.093 NA 
ENDROOT
BRANCH   2   3
HETATM    3  C   UNK A   0      -7.767   7.272  69.810  1.00  0.00    -0.107 A  
HETATM    4  C   UNK A   0      -7.061   5.102  68.131  1.00  0.00    -0.062 A  
HETATM    5  C   UNK A   0      -8.680   6.725  68.891  1.00  0.00    -0.129 A  
HETATM    6  C   UNK A   0      -6.532   6.618  69.940  1.00  0.00    -0.044 A  
HETATM    7  C   UNK A   0      -6.171   5.558  69.104  1.00  0.00    -0.029 A  
HETATM    8  C   UNK A   0      -8.342   5.642  68.067  1.00  0.00    -0.100 A  
BRANCH   4   9
HETATM    9  C   UNK A   0      -6.648   4.068  67.152  1.00  0.00    -0.046 C  
HETATM   10  O   UNK A   0      -6.176   3.003  67.521  1.00  0.00    -0.030 OA 
ATOM     11  N   GLU A   1      -6.882   4.383  65.818  1.00  0.00    -0.056 N  
ATOM     12  H   GLU A   1      -7.212   5.312  65.559  1.00  0.00     0.000 HD 
BRANCH  11  13
ATOM     13  CA  GLU A   1      -6.649   3.358  64.783  1.00  0.00    -0.039 C  
ATOM     14  OXT GLU A   1      -5.957   3.509  62.439  1.00  0.00    -0.012 OA 
ATOM     15  C   GLU A   1      -6.443   4.051  63.422  1.00  0.00    -0.030 C  
ATOM     16  O   GLU A   1      -7.013   5.281  63.362  1.00  0.00    -0.040 OA 
BRANCH  13  17
ATOM     17  CB  GLU A   1      -7.847   2.399  64.705  1.00  0.00    -0.074 C  
BRANCH  17  18
ATOM     18  CG  GLU A   1      -9.191   3.097  64.935  1.00  0.00    -0.147 C  
ATOM     19  OE2 GLU A   1      -9.751   2.613  62.627  1.00  0.00    -0.092 OA 
ATOM     20  OE1 GLU A   1     -11.259   3.683  63.925  1.00  0.00    -0.297 OA 
ATOM     21  CD  GLU A   1     -10.062   3.093  63.705  1.00  0.00    -0.174 C  
ENDBRANCH  17  18
ENDBRANCH  13  17
ENDBRANCH  11  13
ENDBRANCH   4   9
ENDBRANCH   2   3
BRANCH   2  22
HETATM   22  C   UNK A   0      -7.213   9.648  70.255  1.00  0.00    -0.135 C  
BRANCH  22  23
HETATM   23  C   UNK A   0      -7.671  10.459  69.059  1.00  0.00    -0.116 A  
HETATM   24  N   UNK A   0     -10.745  13.323  69.399  1.00  0.00    -0.438 NA 
HETATM   25  C   UNK A   0      -8.477  11.959  66.898  1.00  0.00    -0.174 A  
HETATM   26  C   UNK A   0      -7.051  10.387  67.824  1.00  0.00    -0.084 A  
HETATM   27  N   UNK A   0      -8.884  12.631  65.825  1.00  0.00    -0.175 NA 
HETATM   28  C   UNK A   0     -10.123  12.996  68.184  1.00  0.00    -0.237 A  
HETATM   29  C   UNK A   0      -9.081  12.075  68.154  1.00  0.00    -0.191 A  
HETATM   30  N   UNK A   0      -7.442  11.123  66.751  1.00  0.00    -0.140 NA 
HETATM   31  C   UNK A   0      -9.925  13.442  65.964  1.00  0.00    -0.293 A  
HETATM   32  H1  UNK A   0     -10.421  12.799  70.212  1.00  0.00     0.000 HD 
HETATM   33  H1  UNK A   0     -11.183  14.720  64.949  1.00  0.00     0.000 HD 
HETATM   34  N   UNK A   0     -10.383  14.097  64.842  1.00  0.00    -0.468 NA 
HETATM   35  N   UNK A   0     -10.548  13.685  67.115  1.00  0.00    -0.271 NA 
HETATM   36  N   UNK A   0      -8.692  11.329  69.238  1.00  0.00    -0.370 NA 
HETATM   37  H2  UNK A   0     -11.757  13.237  69.308  1.00  0.00     0.000 HD 
HETATM   38  H2  UNK A   0      -9.935  13.963  63.935  1.00  0.00     0.000 HD 
ENDBRANCH  22  23
ENDBRANCH   2  22
TORSDOF 7
ENDMDL
MODEL      276
REMARK 921   NORMALIZED FREE ENERGY PREDICTED BY IDOCK:   -3.04 KCAL/MOL
REMARK 922        TOTAL FREE ENERGY PREDICTED BY IDOCK:   -6.04 KCAL/MOL
REMARK 923 INTER-LIGAND FREE ENERGY PREDICTED BY IDOCK:   -5.16 KCAL/MOL
REMARK 924 INTRA-LIGAND FREE ENERGY PREDICTED BY IDOCK:   -0.88 KCAL/MOL
REMARK 927      BINDING AFFINITY PREDICTED BY RF-SCORE:    0.00 PKD
ROOT
HETATM    1  C   UNK A   0      -6.011   7.725  67.968  1.00  0.00    -0.041 C  
HETATM    2  N   UNK A   0      -6.524   8.611  69.009  1.00  0.00    -0.047 NA 
ENDROOT
BRANCH   2   3
HETATM    3  C   UNK A   0      -6.943   9.892  68.670  1.00  0.00    -0.062 A  
HETATM    4  C   UNK A   0      -7.582  12.467  67.676  1.00  0.00    -0.141 A  
HETATM    5  C   UNK A   0      -6.341  11.052  69.189  1.00  0.00    -0.057 A  
HETATM    6  C   UNK A   0      -7.962  10.079  67.722  1.00  0.00    -0.105 A  
HETATM    7  C   UNK A   0      -8.270  11.344  67.215  1.00  0.00    -0.150 A  
HETATM    8  C   UNK A   0      -6.662  12.330  68.712  1.00  0.00    -0.089 A  
BRANCH   4   9
HETATM    9  C   UNK A   0      -7.804  13.797  67.059  1.00  0.00     0.130 C  
HETATM   10  O   UNK A   0      -6.864  14.505  66.733  1.00  0.00     0.310 OA 
ATOM     11  N   GLU A   1      -9.134  14.139  66.843  1.00  0.00    -0.241 N  
ATOM     12  H   GLU A   1      -9.883  13.544  67.198  1.00  0.00     0.000 HD 
BRANCH  11  13
ATOM     13  CA  GLU A   1      -9.451  15.371  66.096  1.00  0.00    -0.336 C  
ATOM     14  OXT GLU A   1     -10.737  17.370  66.681  1.00  0.00    -0.225 OA 
ATOM     15  C   GLU A   1     -10.488  16.191  66.888  1.00  0.00    -0.300 C  
ATOM     16  O   GLU A   1     -11.231  15.431  67.731  1.00  0.00    -0.316 OA 
BRANCH  13  17
ATOM     17  CB  GLU A   1     -10.009  15.022  64.708  1.00  0.00     0.140 C  
BRANCH  17  18
ATOM     18  CG  GLU A   1     -11.485  14.613  64.740  1.00  0.00    -0.410 C  
ATOM     19  OE2 GLU A   1     -10.813  12.412  63.979  1.00  0.00    -0.332 OA 
ATOM     20  OE1 GLU A   1     -12.998  12.817  64.385  1.00  0.00    -0.723 OA 
ATOM     21  CD  GLU A   1     -11.696  13.179  64.325  1.00  0.00    -0.395 C  
ENDBRANCH  17  18
ENDBRANCH  13  17
ENDBRANCH  11  13
ENDBRANCH   4   9
ENDBRANCH   2   3
BRANCH   2  22
HETATM   22  C   UNK A   0      -6.183   8.295  70.407  1.00  0.00    -0.035 C  
BRANCH  22  23
HETATM   23  C   UNK A   0      -7.323   7.691  71.205  1.00  0.00    -0.074 A  
HETATM   24  N   UNK A   0      -8.715   3.788  70.433  1.00  0.00    -0.075 NA 
HETATM   25  C   UNK A   0      -9.366   6.582  72.676  1.00  0.00    -0.140 A  
HETATM   26  C   UNK A   0      -7.901   8.332  72.286  1.00  0.00    -0.130 A  
HETATM   27  N   UNK A   0     -10.390   6.090  73.367  1.00  0.00    -0.218 NA 
HETATM   28  C   UNK A   0      -9.299   4.646  71.379  1.00  0.00    -0.149 A  
HETATM   29  C   UNK A   0      -8.757   5.905  71.615  1.00  0.00    -0.136 A  
HETATM   30  N   UNK A   0      -8.910   7.794  73.019  1.00  0.00    -0.170 NA 
HETATM   31  C   UNK A   0     -10.858   4.900  73.013  1.00  0.00    -0.265 A  
HETATM   32  H1  UNK A   0      -7.929   4.181  69.913  1.00  0.00     0.000 HD 
HETATM   33  H1  UNK A   0     -12.314   3.499  73.418  1.00  0.00     0.000 HD 
HETATM   34  N   UNK A   0     -11.954   4.414  73.690  1.00  0.00    -0.152 NA 
HETATM   35  N   UNK A   0     -10.331   4.131  72.062  1.00  0.00    -0.127 NA 
HETATM   36  N   UNK A   0      -7.742   6.449  70.870  1.00  0.00    -0.100 NA 
HETATM   37  H2  UNK A   0      -9.424   3.443  69.788  1.00  0.00     0.000 HD 
HETATM   38  H2  UNK A   0     -12.392   4.951  74.440  1.00  0.00     0.000 HD 
ENDBRANCH  22  23
ENDBRANCH   2  22
TORSDOF 7
ENDMDL
MODEL      277
REMARK 921   NORMALIZED FREE ENERGY PREDICTED BY IDOCK:   -2.97 KCAL/MOL
REMARK 922        TOTAL FREE ENERGY PREDICTED BY IDOCK:   -5.93 KCAL/MOL
REMARK 923 INTER-LIGAND FREE ENERGY PREDICTED BY IDOCK:   -4.84 KCAL/MOL
REMARK 924 INTRA-LIGAND FREE ENERGY PREDICTED BY IDOCK:   -1.09 KCAL/MOL
REMARK 927      BINDING AFFINITY PREDICTED BY RF-SCORE:    0.00 PKD
ROOT
HETATM    1  C   UNK A   0     -10.328  12.399  63.950  1.00  0.00    -0.423 C  
HETATM    2  N   UNK A   0     -10.887  12.296  65.294  1.00  0.00    -0.284 NA 
ENDROOT
BRANCH   2   3
HETATM    3  C   UNK A   0     -10.585  11.188  66.076  1.00  0.00    -0.239 A  
HETATM    4  C   UNK A   0      -9.870   8.761  67.351  1.00  0.00    -0.250 A  
HETATM    5  C   UNK A   0     -11.556  10.250  66.472  1.00  0.00     1.414 A  
HETATM    6  C   UNK A   0      -9.259  10.920  66.449  1.00  0.00    -0.193 A  
HETATM    7  C   UNK A   0      -8.897   9.718  67.063  1.00  0.00    -0.145 A  
HETATM    8  C   UNK A   0     -11.210   9.054  67.116  1.00  0.00     0.712 A  
BRANCH   4   9
HETATM    9  C   UNK A   0      -9.489   7.429  67.882  1.00  0.00    -0.140 C  
HETATM   10  O   UNK A   0     -10.304   6.522  67.951  1.00  0.00    -0.153 OA 
ATOM     11  N   GLU A   1      -8.153   7.290  68.238  1.00  0.00    -0.123 N  
ATOM     12  H   GLU A   1      -7.530   8.098  68.227  1.00  0.00     0.000 HD 
BRANCH  11  13
ATOM     13  CA  GLU A   1      -7.644   5.962  68.629  1.00  0.00    -0.090 C  
ATOM     14  OXT GLU A   1      -6.941   5.034  70.783  1.00  0.00    -0.045 OA 
ATOM     15  C   GLU A   1      -7.151   6.018  70.088  1.00  0.00    -0.071 C  
ATOM     16  O   GLU A   1      -6.803   7.269  70.481  1.00  0.00    -0.051 OA 
BRANCH  13  17
ATOM     17  CB  GLU A   1      -6.493   5.539  67.704  1.00  0.00    -0.051 C  
BRANCH  17  18
ATOM     18  CG  GLU A   1      -6.800   4.270  66.905  1.00  0.00    -0.052 C  
ATOM     19  OE2 GLU A   1      -5.218   3.092  68.314  1.00  0.00    -0.011 OA 
ATOM     20  OE1 GLU A   1      -6.323   1.952  66.706  1.00  0.00    -0.023 OA 
ATOM     21  CD  GLU A   1      -6.023   3.075  67.397  1.00  0.00    -0.024 C  
ENDBRANCH  17  18
ENDBRANCH  13  17
ENDBRANCH  11  13
ENDBRANCH   4   9
ENDBRANCH   2   3
BRANCH   2  22
HETATM   22  C   UNK A   0     -12.066  13.122  65.612  1.00  0.00    -0.449 C  
BRANCH  22  23
HETATM   23  C   UNK A   0     -11.902  13.996  66.840  1.00  0.00    -0.430 A  
HETATM   24  N   UNK A   0     -12.556  12.473  70.716  1.00  0.00    -0.267 NA 
HETATM   25  C   UNK A   0     -11.568  15.569  69.072  1.00  0.00    -0.365 A  
HETATM   26  C   UNK A   0     -11.436  15.296  66.777  1.00  0.00    -0.123 A  
HETATM   27  N   UNK A   0     -11.453  16.365  70.131  1.00  0.00    -0.423 NA 
HETATM   28  C   UNK A   0     -12.246  13.817  70.454  1.00  0.00    -0.363 A  
HETATM   29  C   UNK A   0     -11.995  14.240  69.153  1.00  0.00    -0.335 A  
HETATM   30  N   UNK A   0     -11.268  16.082  67.873  1.00  0.00    -0.316 NA 
HETATM   31  C   UNK A   0     -11.773  15.866  71.317  1.00  0.00    -0.448 A  
HETATM   32  H1  UNK A   0     -12.641  11.875  69.893  1.00  0.00     0.000 HD 
HETATM   33  H1  UNK A   0     -11.954  16.321  73.318  1.00  0.00     0.000 HD 
HETATM   34  N   UNK A   0     -11.707  16.706  72.407  1.00  0.00    -0.501 NA 
HETATM   35  N   UNK A   0     -12.135  14.603  71.535  1.00  0.00    -0.344 NA 
HETATM   36  N   UNK A   0     -12.171  13.446  68.047  1.00  0.00    -0.235 NA 
HETATM   37  H2  UNK A   0     -13.403  12.413  71.280  1.00  0.00     0.000 HD 
HETATM   38  H2  UNK A   0     -11.420  17.680  72.304  1.00  0.00     0.000 HD 
ENDBRANCH  22  23
ENDBRANCH   2  22
TORSDOF 7
ENDMDL
MODEL      278
REMARK 921   NORMALIZED FREE ENERGY PREDICTED BY IDOCK:   -2.95 KCAL/MOL
REMARK 922        TOTAL FREE ENERGY PREDICTED BY IDOCK:   -5.91 KCAL/MOL
REMARK 923 INTER-LIGAND FREE ENERGY PREDICTED BY IDOCK:   -5.62 KCAL/MOL
REMARK 924 INTRA-LIGAND FREE ENERGY PREDICTED BY IDOCK:   -0.29 KCAL/MOL
REMARK 927      BINDING AFFINITY PREDICTED BY RF-SCORE:    0.00 PKD
ROOT
HETATM    1  C   UNK A   0      -9.071   7.569  74.000  1.00  0.00    -0.245 C  
HETATM    2  N   UNK A   0      -9.674   7.013  72.792  1.00  0.00    -0.149 NA 
ENDROOT
BRANCH   2   3
HETATM    3  C   UNK A   0      -8.858   6.655  71.725  1.00  0.00    -0.130 A  
HETATM    4  C   UNK A   0      -7.312   6.242  69.387  1.00  0.00    -0.091 A  
HETATM    5  C   UNK A   0      -9.274   5.770  70.714  1.00  0.00    -0.171 A  
HETATM    6  C   UNK A   0      -7.587   7.231  71.577  1.00  0.00    -0.086 A  
HETATM    7  C   UNK A   0      -6.826   7.045  70.419  1.00  0.00    -0.057 A  
HETATM    8  C   UNK A   0      -8.508   5.550  69.561  1.00  0.00    -0.105 A  
BRANCH   4   9
HETATM    9  C   UNK A   0      -6.581   6.137  68.101  1.00  0.00    -0.058 C  
HETATM   10  O   UNK A   0      -5.621   6.854  67.862  1.00  0.00    -0.015 OA 
ATOM     11  N   GLU A   1      -7.036   5.149  67.237  1.00  0.00    -0.068 N  
ATOM     12  H   GLU A   1      -7.885   4.626  67.453  1.00  0.00     0.000 HD 
BRANCH  11  13
ATOM     13  CA  GLU A   1      -6.279   4.863  66.003  1.00  0.00    -0.031 C  
ATOM     14  OXT GLU A   1      -6.305   5.884  63.778  1.00  0.00    -0.028 OA 
ATOM     15  C   GLU A   1      -6.873   5.685  64.843  1.00  0.00    -0.051 C  
ATOM     16  O   GLU A   1      -8.170   6.027  65.046  1.00  0.00    -0.132 OA 
BRANCH  13  17
ATOM     17  CB  GLU A   1      -6.347   3.365  65.672  1.00  0.00    -0.032 C  
BRANCH  17  18
ATOM     18  CG  GLU A   1      -7.457   3.021  64.673  1.00  0.00    -0.075 C  
ATOM     19  OE2 GLU A   1      -8.817   2.307  66.549  1.00  0.00    -0.120 OA 
ATOM     20  OE1 GLU A   1      -9.678   2.208  64.462  1.00  0.00    -0.117 OA 
ATOM     21  CD  GLU A   1      -8.692   2.480  65.347  1.00  0.00    -0.118 C  
ENDBRANCH  17  18
ENDBRANCH  13  17
ENDBRANCH  11  13
ENDBRANCH   4   9
ENDBRANCH   2   3
BRANCH   2  22
HETATM   22  C   UNK A   0     -11.112   7.248  72.573  1.00  0.00    -0.293 C  
BRANCH  22  23
HETATM   23  C   UNK A   0     -11.418   8.382  71.614  1.00  0.00    -0.287 A  
HETATM   24  N   UNK A   0      -8.524   9.797  68.896  1.00  0.00    -0.123 NA 
HETATM   25  C   UNK A   0     -11.984  10.414  69.847  1.00  0.00    -0.215 A  
HETATM   26  C   UNK A   0     -12.676   8.946  71.499  1.00  0.00    -0.335 A  
HETATM   27  N   UNK A   0     -12.268  11.433  69.041  1.00  0.00    -0.424 NA 
HETATM   28  C   UNK A   0      -9.799  10.369  69.036  1.00  0.00    -0.212 A  
HETATM   29  C   UNK A   0     -10.721   9.819  69.920  1.00  0.00    -0.268 A  
HETATM   30  N   UNK A   0     -12.966   9.950  70.630  1.00  0.00    -0.573 NA 
HETATM   31  C   UNK A   0     -11.289  11.909  68.282  1.00  0.00    -0.277 A  
HETATM   32  H1  UNK A   0      -8.323   9.016  69.520  1.00  0.00     0.000 HD 
HETATM   33  H1  UNK A   0     -10.814  13.366  66.904  1.00  0.00     0.000 HD 
HETATM   34  N   UNK A   0     -11.566  13.000  67.488  1.00  0.00    -0.334 NA 
HETATM   35  N   UNK A   0     -10.063  11.395  68.215  1.00  0.00    -0.189 NA 
HETATM   36  N   UNK A   0     -10.424   8.809  70.801  1.00  0.00    -0.208 NA 
HETATM   37  H2  UNK A   0      -7.806  10.515  68.991  1.00  0.00     0.000 HD 
HETATM   38  H2  UNK A   0     -12.493  13.427  67.484  1.00  0.00     0.000 HD 
ENDBRANCH  22  23
ENDBRANCH   2  22
TORSDOF 7
ENDMDL
MODEL      279
REMARK 921   NORMALIZED FREE ENERGY PREDICTED BY IDOCK:   -2.94 KCAL/MOL
REMARK 922        TOTAL FREE ENERGY PREDICTED BY IDOCK:   -5.89 KCAL/MOL
REMARK 923 INTER-LIGAND FREE ENERGY PREDICTED BY IDOCK:   -6.18 KCAL/MOL
REMARK 924 INTRA-LIGAND FREE ENERGY PREDICTED BY IDOCK:    0.29 KCAL/MOL
REMARK 927      BINDING AFFINITY PREDICTED BY RF-SCORE:    0.00 PKD
ROOT
HETATM    1  C   UNK A   0      -7.823   9.767  62.967  1.00  0.00    -0.133 C  
HETATM    2  N   UNK A   0      -8.244   8.948  64.101  1.00  0.00    -0.161 NA 
ENDROOT
BRANCH   2   3
HETATM    3  C   UNK A   0      -8.607   9.566  65.292  1.00  0.00    -0.157 A  
HETATM    4  C   UNK A   0      -9.540  11.067  67.506  1.00  0.00    -0.178 A  
HETATM    5  C   UNK A   0      -7.789  10.509  65.939  1.00  0.00    -0.151 A  
HETATM    6  C   UNK A   0      -9.863   9.318  65.867  1.00  0.00    -0.335 A  
HETATM    7  C   UNK A   0     -10.336  10.066  66.949  1.00  0.00    -0.297 A  
HETATM    8  C   UNK A   0      -8.239  11.245  67.044  1.00  0.00    -0.151 A  
BRANCH   4   9
HETATM    9  C   UNK A   0     -10.073  11.955  68.567  1.00  0.00    -0.206 C  
HETATM   10  O   UNK A   0      -9.730  13.125  68.640  1.00  0.00    -0.171 OA 
ATOM     11  N   GLU A   1     -11.007  11.374  69.417  1.00  0.00    -0.363 N  
ATOM     12  H   GLU A   1     -11.206  10.375  69.358  1.00  0.00     0.000 HD 
BRANCH  11  13
ATOM     13  CA  GLU A   1     -11.708  12.217  70.404  1.00  0.00    -0.059 C  
ATOM     14  OXT GLU A   1     -13.294  11.689  72.192  1.00  0.00    -0.491 OA 
ATOM     15  C   GLU A   1     -12.758  11.365  71.142  1.00  0.00    -0.377 C  
ATOM     16  O   GLU A   1     -13.166  10.288  70.424  1.00  0.00    -0.226 OA 
BRANCH  13  17
ATOM     17  CB  GLU A   1     -12.393  13.400  69.703  1.00  0.00    -0.187 C  
BRANCH  17  18
ATOM     18  CG  GLU A   1     -13.027  14.392  70.682  1.00  0.00    -0.348 C  
ATOM     19  OE2 GLU A   1     -10.824  15.346  71.022  1.00  0.00    -0.317 OA 
ATOM     20  OE1 GLU A   1     -12.592  16.243  72.106  1.00  0.00    -0.409 OA 
ATOM     21  CD  GLU A   1     -12.020  15.350  71.267  1.00  0.00    -0.374 C  
ENDBRANCH  17  18
ENDBRANCH  13  17
ENDBRANCH  11  13
ENDBRANCH   4   9
ENDBRANCH   2   3
BRANCH   2  22
HETATM   22  C   UNK A   0      -7.863   7.524  64.097  1.00  0.00    -0.130 C  
BRANCH  22  23
HETATM   23  C   UNK A   0      -7.999   6.840  65.443  1.00  0.00    -0.121 A  
HETATM   24  N   UNK A   0      -5.568   7.925  68.711  1.00  0.00    -0.027 NA 
HETATM   25  C   UNK A   0      -8.271   5.626  67.897  1.00  0.00    -0.101 A  
HETATM   26  C   UNK A   0      -8.982   5.904  65.711  1.00  0.00    -0.120 A  
HETATM   27  N   UNK A   0      -8.387   4.985  69.056  1.00  0.00    -0.086 NA 
HETATM   28  C   UNK A   0      -6.500   6.876  68.755  1.00  0.00    -0.036 A  
HETATM   29  C   UNK A   0      -7.304   6.605  67.652  1.00  0.00    -0.096 A  
HETATM   30  N   UNK A   0      -9.125   5.298  66.919  1.00  0.00    -0.113 NA 
HETATM   31  C   UNK A   0      -7.527   5.291  70.018  1.00  0.00    -0.064 A  
HETATM   32  H1  UNK A   0      -5.492   8.407  67.815  1.00  0.00     0.000 HD 
HETATM   33  H1  UNK A   0      -6.948   4.825  71.941  1.00  0.00     0.000 HD 
HETATM   34  N   UNK A   0      -7.610   4.589  71.201  1.00  0.00    -0.069 NA 
HETATM   35  N   UNK A   0      -6.600   6.244  69.932  1.00  0.00    -0.046 NA 
HETATM   36  N   UNK A   0      -7.154   7.214  66.432  1.00  0.00    -0.075 NA 
HETATM   37  H2  UNK A   0      -4.651   7.591  69.007  1.00  0.00     0.000 HD 
HETATM   38  H2  UNK A   0      -8.310   3.859  71.332  1.00  0.00     0.000 HD 
ENDBRANCH  22  23
ENDBRANCH   2  22
TORSDOF 7
ENDMDL
MODEL      280
REMARK 921   NORMALIZED FREE ENERGY PREDICTED BY IDOCK:   -2.93 KCAL/MOL
REMARK 922        TOTAL FREE ENERGY PREDICTED BY IDOCK:   -5.87 KCAL/MOL
REMARK 923 INTER-LIGAND FREE ENERGY PREDICTED BY IDOCK:   -5.30 KCAL/MOL
REMARK 924 INTRA-LIGAND FREE ENERGY PREDICTED BY IDOCK:   -0.57 KCAL/MOL
REMARK 927      BINDING AFFINITY PREDICTED BY RF-SCORE:    0.00 PKD
ROOT
HETATM    1  C   UNK A   0      -8.708  11.996  66.332  1.00  0.00    -0.088 C  
HETATM    2  N   UNK A   0      -8.262  11.835  67.712  1.00  0.00    -0.136 NA 
ENDROOT
BRANCH   2   3
HETATM    3  C   UNK A   0      -8.621  10.692  68.417  1.00  0.00    -0.134 A  
HETATM    4  C   UNK A   0      -9.418   8.592  70.143  1.00  0.00    -0.172 A  
HETATM    5  C   UNK A   0      -7.679   9.863  69.052  1.00  0.00    -0.089 A  
HETATM    6  C   UNK A   0      -9.974  10.356  68.584  1.00  0.00    -0.186 A  
HETATM    7  C   UNK A   0     -10.374   9.332  69.447  1.00  0.00    -0.223 A  
HETATM    8  C   UNK A   0      -8.066   8.814  69.896  1.00  0.00    -0.109 A  
BRANCH   4   9
HETATM    9  C   UNK A   0      -9.827   7.591  71.158  1.00  0.00    -0.173 C  
HETATM   10  O   UNK A   0     -11.006   7.399  71.415  1.00  0.00    -0.233 OA 
ATOM     11  N   GLU A   1      -8.788   6.875  71.740  1.00  0.00    -0.131 N  
ATOM     12  H   GLU A   1      -7.818   7.122  71.543  1.00  0.00     0.000 HD 
BRANCH  11  13
ATOM     13  CA  GLU A   1      -9.102   5.752  72.645  1.00  0.00    -0.131 C  
ATOM     14  OXT GLU A   1      -7.767   4.553  74.310  1.00  0.00    -0.086 OA 
ATOM     15  C   GLU A   1      -7.804   5.264  73.316  1.00  0.00    -0.104 C  
ATOM     16  O   GLU A   1      -6.693   5.557  72.594  1.00  0.00    -0.067 OA 
BRANCH  13  17
ATOM     17  CB  GLU A   1      -9.750   4.602  71.860  1.00  0.00    -0.224 C  
BRANCH  17  18
ATOM     18  CG  GLU A   1     -11.158   4.255  72.355  1.00  0.00     0.180 C  
ATOM     19  OE2 GLU A   1     -10.156   2.570  73.782  1.00  0.00    -0.099 OA 
ATOM     20  OE1 GLU A   1     -12.395   2.873  73.839  1.00  0.00     0.601 OA 
ATOM     21  CD  GLU A   1     -11.152   3.152  73.384  1.00  0.00    -0.179 C  
ENDBRANCH  17  18
ENDBRANCH  13  17
ENDBRANCH  11  13
ENDBRANCH   4   9
ENDBRANCH   2   3
BRANCH   2  22
HETATM   22  C   UNK A   0      -7.832  13.043  68.439  1.00  0.00    -0.134 C  
BRANCH  22  23
HETATM   23  C   UNK A   0      -8.626  14.290  68.100  1.00  0.00    -0.172 A  
HETATM   24  N   UNK A   0      -6.960  17.384  65.773  1.00  0.00    -0.235 NA 
HETATM   25  C   UNK A   0     -10.078  16.535  67.451  1.00  0.00    -0.279 A  
HETATM   26  C   UNK A   0      -9.958  14.444  68.438  1.00  0.00    -0.241 A  
HETATM   27  N   UNK A   0     -10.783  17.633  67.197  1.00  0.00    -0.262 NA 
HETATM   28  C   UNK A   0      -8.240  17.450  66.345  1.00  0.00    -0.271 A  
HETATM   29  C   UNK A   0      -8.745  16.370  67.062  1.00  0.00    -0.199 A  
HETATM   30  N   UNK A   0     -10.684  15.548  68.123  1.00  0.00    -0.273 NA 
HETATM   31  C   UNK A   0     -10.176  18.621  66.553  1.00  0.00    -0.412 A  
HETATM   32  H1  UNK A   0      -6.432  16.535  65.976  1.00  0.00     0.000 HD 
HETATM   33  H1  UNK A   0     -10.421  20.540  65.843  1.00  0.00     0.000 HD 
HETATM   34  N   UNK A   0     -10.888  19.781  66.338  1.00  0.00    -0.388 NA 
HETATM   35  N   UNK A   0      -8.933  18.566  66.078  1.00  0.00    -0.484 NA 
HETATM   36  N   UNK A   0      -8.008  15.258  67.384  1.00  0.00    -0.169 NA 
HETATM   37  H2  UNK A   0      -6.416  18.205  66.037  1.00  0.00     0.000 HD 
HETATM   38  H2  UNK A   0     -11.850  19.876  66.664  1.00  0.00     0.000 HD 
ENDBRANCH  22  23
ENDBRANCH   2  22
TORSDOF 7
ENDMDL
MODEL      281
REMARK 921   NORMALIZED FREE ENERGY PREDICTED BY IDOCK:   -2.92 KCAL/MOL
REMARK 922        TOTAL FREE ENERGY PREDICTED BY IDOCK:   -5.87 KCAL/MOL
REMARK 923 INTER-LIGAND FREE ENERGY PREDICTED BY IDOCK:   -6.65 KCAL/MOL
REMARK 924 INTRA-LIGAND FREE ENERGY PREDICTED BY IDOCK:    0.79 KCAL/MOL
REMARK 927      BINDING AFFINITY PREDICTED BY RF-SCORE:    0.00 PKD
ROOT
HETATM    1  C   UNK A   0      -8.594  11.637  62.491  1.00  0.00     0.471 C  
HETATM    2  N   UNK A   0      -9.208  10.930  63.611  1.00  0.00    -0.248 NA 
ENDROOT
BRANCH   2   3
HETATM    3  C   UNK A   0      -9.842  11.657  64.612  1.00  0.00    -0.227 A  
HETATM    4  C   UNK A   0     -10.882  12.992  66.884  1.00  0.00    -0.282 A  
HETATM    5  C   UNK A   0     -10.991  11.193  65.277  1.00  0.00    -0.153 A  
HETATM    6  C   UNK A   0      -9.306  12.877  65.053  1.00  0.00     0.539 A  
HETATM    7  C   UNK A   0      -9.804  13.532  66.183  1.00  0.00    -0.292 A  
HETATM    8  C   UNK A   0     -11.519  11.856  66.393  1.00  0.00    -0.371 A  
BRANCH   4   9
HETATM    9  C   UNK A   0     -11.340  13.602  68.156  1.00  0.00    -0.288 C  
HETATM   10  O   UNK A   0     -12.073  14.579  68.159  1.00  0.00    -0.294 OA 
ATOM     11  N   GLU A   1     -10.917  12.956  69.312  1.00  0.00    -0.436 N  
ATOM     12  H   GLU A   1     -10.249  12.188  69.258  1.00  0.00     0.000 HD 
BRANCH  11  13
ATOM     13  CA  GLU A   1     -11.445  13.393  70.618  1.00  0.00     0.505 C  
ATOM     14  OXT GLU A   1     -12.952  12.330  72.227  1.00  0.00    -0.302 OA 
ATOM     15  C   GLU A   1     -12.532  12.405  71.082  1.00  0.00    -0.222 C  
ATOM     16  O   GLU A   1     -13.110  11.734  70.054  1.00  0.00     0.421 OA 
BRANCH  13  17
ATOM     17  CB  GLU A   1     -12.037  14.807  70.506  1.00  0.00    -0.378 C  
BRANCH  17  18
ATOM     18  CG  GLU A   1     -11.977  15.588  71.822  1.00  0.00    -0.494 C  
ATOM     19  OE2 GLU A   1     -14.392  15.414  71.946  1.00  0.00    -0.526 OA 
ATOM     20  OE1 GLU A   1     -13.276  16.460  73.609  1.00  0.00    -0.626 OA 
ATOM     21  CD  GLU A   1     -13.340  15.797  72.432  1.00  0.00    -0.462 C  
ENDBRANCH  17  18
ENDBRANCH  13  17
ENDBRANCH  11  13
ENDBRANCH   4   9
ENDBRANCH   2   3
BRANCH   2  22
HETATM   22  C   UNK A   0      -8.773   9.546  63.871  1.00  0.00    -0.216 C  
BRANCH  22  23
HETATM   23  C   UNK A   0      -8.794   9.151  65.335  1.00  0.00    -0.196 A  
HETATM   24  N   UNK A   0     -11.192   5.969  66.711  1.00  0.00    -0.696 NA 
HETATM   25  C   UNK A   0      -8.806   8.408  67.983  1.00  0.00    -0.142 A  
HETATM   26  C   UNK A   0      -7.966   9.731  66.279  1.00  0.00    -0.109 A  
HETATM   27  N   UNK A   0      -8.833   8.104  69.278  1.00  0.00    -0.143 NA 
HETATM   28  C   UNK A   0     -10.419   6.779  67.558  1.00  0.00    -0.239 A  
HETATM   29  C   UNK A   0      -9.613   7.782  67.029  1.00  0.00    -0.184 A  
HETATM   30  N   UNK A   0      -7.964   9.371  67.589  1.00  0.00    -0.099 NA 
HETATM   31  C   UNK A   0      -9.684   7.167  69.673  1.00  0.00    -0.158 A  
HETATM   32  H1  UNK A   0     -11.159   6.214  65.721  1.00  0.00     0.000 HD 
HETATM   33  H1  UNK A   0     -10.408   6.169  71.325  1.00  0.00     0.000 HD 
HETATM   34  N   UNK A   0      -9.753   6.890  71.021  1.00  0.00    -0.174 NA 
HETATM   35  N   UNK A   0     -10.462   6.456  68.859  1.00  0.00    -0.199 NA 
HETATM   36  N   UNK A   0      -9.622   8.147  65.706  1.00  0.00    -0.432 NA 
HETATM   37  H2  UNK A   0     -12.159   5.947  67.034  1.00  0.00     0.000 HD 
HETATM   38  H2  UNK A   0      -9.170   7.390  71.692  1.00  0.00     0.000 HD 
ENDBRANCH  22  23
ENDBRANCH   2  22
TORSDOF 7
ENDMDL
MODEL      282
REMARK 921   NORMALIZED FREE ENERGY PREDICTED BY IDOCK:   -2.90 KCAL/MOL
REMARK 922        TOTAL FREE ENERGY PREDICTED BY IDOCK:   -5.84 KCAL/MOL
REMARK 923 INTER-LIGAND FREE ENERGY PREDICTED BY IDOCK:   -7.01 KCAL/MOL
REMARK 924 INTRA-LIGAND FREE ENERGY PREDICTED BY IDOCK:    1.17 KCAL/MOL
REMARK 927      BINDING AFFINITY PREDICTED BY RF-SCORE:    0.00 PKD
ROOT
HETATM    1  C   UNK A   0      -6.654   9.004  65.807  1.00  0.00    -0.064 C  
HETATM    2  N   UNK A   0      -7.229   9.395  67.091  1.00  0.00    -0.086 NA 
ENDROOT
BRANCH   2   3
HETATM    3  C   UNK A   0      -7.635  10.710  67.286  1.00  0.00    -0.100 A  
HETATM    4  C   UNK A   0      -8.275  13.468  67.367  1.00  0.00    -0.187 A  
HETATM    5  C   UNK A   0      -6.946  11.601  68.128  1.00  0.00    -0.071 A  
HETATM    6  C   UNK A   0      -8.731  11.228  66.578  1.00  0.00    -0.178 A  
HETATM    7  C   UNK A   0      -9.042  12.590  66.601  1.00  0.00    -0.203 A  
HETATM    8  C   UNK A   0      -7.267  12.964  68.184  1.00  0.00    -0.114 A  
BRANCH   4   9
HETATM    9  C   UNK A   0      -8.509  14.931  67.303  1.00  0.00    -0.208 C  
HETATM   10  O   UNK A   0      -8.983  15.451  66.303  1.00  0.00    -0.297 OA 
ATOM     11  N   GLU A   1      -8.199  15.635  68.460  1.00  0.00    -0.146 N  
ATOM     12  H   GLU A   1      -7.740  15.166  69.241  1.00  0.00     0.000 HD 
BRANCH  11  13
ATOM     13  CA  GLU A   1      -8.540  17.068  68.548  1.00  0.00    -0.257 C  
ATOM     14  OXT GLU A   1     -10.534  18.242  69.347  1.00  0.00    -0.019 OA 
ATOM     15  C   GLU A   1     -10.026  17.212  68.927  1.00  0.00    -0.304 C  
ATOM     16  O   GLU A   1     -10.767  16.127  68.585  1.00  0.00    -0.261 OA 
BRANCH  13  17
ATOM     17  CB  GLU A   1      -8.273  17.762  67.204  1.00  0.00    -0.233 C  
BRANCH  17  18
ATOM     18  CG  GLU A   1      -6.802  18.135  67.002  1.00  0.00    -0.207 C  
ATOM     19  OE2 GLU A   1      -7.403  20.438  67.463  1.00  0.00    -0.288 OA 
ATOM     20  OE1 GLU A   1      -5.242  19.926  67.047  1.00  0.00    -0.160 OA 
ATOM     21  CD  GLU A   1      -6.548  19.609  67.196  1.00  0.00    -0.197 C  
ENDBRANCH  17  18
ENDBRANCH  13  17
ENDBRANCH  11  13
ENDBRANCH   4   9
ENDBRANCH   2   3
BRANCH   2  22
HETATM   22  C   UNK A   0      -6.968   8.526  68.252  1.00  0.00    -0.070 C  
BRANCH  22  23
HETATM   23  C   UNK A   0      -8.136   8.398  69.211  1.00  0.00    -0.115 A  
HETATM   24  N   UNK A   0     -11.788  10.376  68.490  1.00  0.00    -0.735 NA 
HETATM   25  C   UNK A   0     -10.270   8.138  70.928  1.00  0.00    -0.189 A  
HETATM   26  C   UNK A   0      -8.115   7.558  70.309  1.00  0.00    -0.112 A  
HETATM   27  N   UNK A   0     -11.267   8.038  71.802  1.00  0.00    -0.255 NA 
HETATM   28  C   UNK A   0     -11.532   9.620  69.645  1.00  0.00    -0.001 A  
HETATM   29  C   UNK A   0     -10.320   8.954  69.794  1.00  0.00    -0.207 A  
HETATM   30  N   UNK A   0      -9.163   7.422  71.163  1.00  0.00    -0.154 NA 
HETATM   31  C   UNK A   0     -12.355   8.764  71.583  1.00  0.00    -0.337 A  
HETATM   32  H1  UNK A   0     -11.014  10.442  67.829  1.00  0.00     0.000 HD 
HETATM   33  H1  UNK A   0     -14.202   9.263  72.347  1.00  0.00     0.000 HD 
HETATM   34  N   UNK A   0     -13.366   8.704  72.517  1.00  0.00    -0.615 NA 
HETATM   35  N   UNK A   0     -12.550   9.533  70.513  1.00  0.00    -0.497 NA 
HETATM   36  N   UNK A   0      -9.261   9.098  68.933  1.00  0.00    -0.139 NA 
HETATM   37  H2  UNK A   0     -12.110  11.309  68.746  1.00  0.00     0.000 HD 
HETATM   38  H2  UNK A   0     -13.280   8.120  73.349  1.00  0.00     0.000 HD 
ENDBRANCH  22  23
ENDBRANCH   2  22
TORSDOF 7
ENDMDL
MODEL      283
REMARK 921   NORMALIZED FREE ENERGY PREDICTED BY IDOCK:   -2.88 KCAL/MOL
REMARK 922        TOTAL FREE ENERGY PREDICTED BY IDOCK:   -5.80 KCAL/MOL
REMARK 923 INTER-LIGAND FREE ENERGY PREDICTED BY IDOCK:   -5.73 KCAL/MOL
REMARK 924 INTRA-LIGAND FREE ENERGY PREDICTED BY IDOCK:   -0.07 KCAL/MOL
REMARK 927      BINDING AFFINITY PREDICTED BY RF-SCORE:    0.00 PKD
ROOT
HETATM    1  C   UNK A   0      -6.255  13.602  70.392  1.00  0.00    -0.053 C  
HETATM    2  N   UNK A   0      -6.691  12.632  69.391  1.00  0.00    -0.274 NA 
ENDROOT
BRANCH   2   3
HETATM    3  C   UNK A   0      -6.990  11.333  69.785  1.00  0.00    -0.004 A  
HETATM    4  C   UNK A   0      -7.316   8.579  70.362  1.00  0.00    -0.054 A  
HETATM    5  C   UNK A   0      -8.002  10.568  69.178  1.00  0.00    -0.145 A  
HETATM    6  C   UNK A   0      -6.227  10.698  70.777  1.00  0.00     0.012 A  
HETATM    7  C   UNK A   0      -6.371   9.336  71.056  1.00  0.00    -0.076 A  
HETATM    8  C   UNK A   0      -8.178   9.209  69.469  1.00  0.00    -0.120 A  
BRANCH   4   9
HETATM    9  C   UNK A   0      -7.395   7.110  70.551  1.00  0.00    -0.075 C  
HETATM   10  O   UNK A   0      -6.706   6.543  71.386  1.00  0.00    -0.056 OA 
ATOM     11  N   GLU A   1      -8.328   6.457  69.754  1.00  0.00    -0.125 N  
ATOM     12  H   GLU A   1      -8.827   6.964  69.023  1.00  0.00     0.000 HD 
BRANCH  11  13
ATOM     13  CA  GLU A   1      -8.590   5.022  69.977  1.00  0.00    -0.098 C  
ATOM     14  OXT GLU A   1      -7.952   3.016  68.728  1.00  0.00    -0.056 OA 
ATOM     15  C   GLU A   1      -8.130   4.226  68.741  1.00  0.00    -0.072 C  
ATOM     16  O   GLU A   1      -8.105   4.973  67.609  1.00  0.00    -0.098 OA 
BRANCH  13  17
ATOM     17  CB  GLU A   1     -10.088   4.787  70.223  1.00  0.00    -0.304 C  
BRANCH  17  18
ATOM     18  CG  GLU A   1     -10.409   4.428  71.677  1.00  0.00    -0.118 C  
ATOM     19  OE2 GLU A   1     -11.432   6.614  71.909  1.00  0.00    -0.262 OA 
ATOM     20  OE1 GLU A   1     -11.443   5.199  73.671  1.00  0.00    -0.169 OA 
ATOM     21  CD  GLU A   1     -11.136   5.535  72.397  1.00  0.00    -0.256 C  
ENDBRANCH  17  18
ENDBRANCH  13  17
ENDBRANCH  11  13
ENDBRANCH   4   9
ENDBRANCH   2   3
BRANCH   2  22
HETATM   22  C   UNK A   0      -6.391  12.923  67.978  1.00  0.00    -0.109 C  
BRANCH  22  23
HETATM   23  C   UNK A   0      -7.459  12.458  67.006  1.00  0.00    -0.034 A  
HETATM   24  N   UNK A   0     -10.761  14.896  66.048  1.00  0.00    -0.312 NA 
HETATM   25  C   UNK A   0      -9.376  11.632  65.215  1.00  0.00    -0.096 A  
HETATM   26  C   UNK A   0      -7.367  11.269  66.306  1.00  0.00     0.000 A  
HETATM   27  N   UNK A   0     -10.317  11.187  64.387  1.00  0.00    -0.321 NA 
HETATM   28  C   UNK A   0     -10.597  13.589  65.562  1.00  0.00    -0.296 A  
HETATM   29  C   UNK A   0      -9.457  12.859  65.882  1.00  0.00    -0.049 A  
HETATM   30  N   UNK A   0      -8.308  10.852  65.419  1.00  0.00    -0.323 NA 
HETATM   31  C   UNK A   0     -11.387  11.948  64.203  1.00  0.00    -0.380 A  
HETATM   32  H1  UNK A   0     -10.031  15.223  66.681  1.00  0.00     0.000 HD 
HETATM   33  H1  UNK A   0     -13.210  12.049  63.247  1.00  0.00     0.000 HD 
HETATM   34  N   UNK A   0     -12.387  11.463  63.389  1.00  0.00    -0.661 NA 
HETATM   35  N   UNK A   0     -11.556  13.159  64.730  1.00  0.00    -0.320 NA 
HETATM   36  N   UNK A   0      -8.510  13.280  66.782  1.00  0.00    -0.428 NA 
HETATM   37  H2  UNK A   0     -11.675  14.993  66.489  1.00  0.00     0.000 HD 
HETATM   38  H2  UNK A   0     -12.307  10.549  62.943  1.00  0.00     0.000 HD 
ENDBRANCH  22  23
ENDBRANCH   2  22
TORSDOF 7
ENDMDL
MODEL      284
REMARK 921   NORMALIZED FREE ENERGY PREDICTED BY IDOCK:   -2.86 KCAL/MOL
REMARK 922        TOTAL FREE ENERGY PREDICTED BY IDOCK:   -5.77 KCAL/MOL
REMARK 923 INTER-LIGAND FREE ENERGY PREDICTED BY IDOCK:   -4.48 KCAL/MOL
REMARK 924 INTRA-LIGAND FREE ENERGY PREDICTED BY IDOCK:   -1.29 KCAL/MOL
REMARK 927      BINDING AFFINITY PREDICTED BY RF-SCORE:    0.00 PKD
ROOT
HETATM    1  C   UNK A   0      -7.713  16.259  66.057  1.00  0.00     0.458 C  
HETATM    2  N   UNK A   0      -7.363  16.050  67.459  1.00  0.00    -0.147 NA 
ENDROOT
BRANCH   2   3
HETATM    3  C   UNK A   0      -7.014  14.777  67.893  1.00  0.00    -0.160 A  
HETATM    4  C   UNK A   0      -6.633  12.177  68.952  1.00  0.00    -0.090 A  
HETATM    5  C   UNK A   0      -6.212  14.554  69.027  1.00  0.00    -0.092 A  
HETATM    6  C   UNK A   0      -7.518  13.640  67.242  1.00  0.00    -0.052 A  
HETATM    7  C   UNK A   0      -7.348  12.356  67.768  1.00  0.00    -0.123 A  
HETATM    8  C   UNK A   0      -6.008  13.268  69.548  1.00  0.00    -0.107 A  
BRANCH   4   9
HETATM    9  C   UNK A   0      -6.553  10.842  69.593  1.00  0.00    -0.114 C  
HETATM   10  O   UNK A   0      -6.335  10.729  70.790  1.00  0.00    -0.338 OA 
ATOM     11  N   GLU A   1      -6.789   9.762  68.751  1.00  0.00    -0.051 N  
ATOM     12  H   GLU A   1      -6.897   9.905  67.746  1.00  0.00     0.000 HD 
BRANCH  11  13
ATOM     13  CA  GLU A   1      -6.884   8.406  69.324  1.00  0.00    -0.047 C  
ATOM     14  OXT GLU A   1      -6.073   6.229  68.553  1.00  0.00    -0.028 OA 
ATOM     15  C   GLU A   1      -6.382   7.382  68.288  1.00  0.00    -0.040 C  
ATOM     16  O   GLU A   1      -6.479   7.830  67.011  1.00  0.00    -0.052 OA 
BRANCH  13  17
ATOM     17  CB  GLU A   1      -8.338   8.091  69.708  1.00  0.00    -0.122 C  
BRANCH  17  18
ATOM     18  CG  GLU A   1      -9.350   8.543  68.650  1.00  0.00    -0.142 C  
ATOM     19  OE2 GLU A   1     -10.393   9.923  70.349  1.00  0.00    -0.273 OA 
ATOM     20  OE1 GLU A   1     -11.224   9.945  68.248  1.00  0.00    -0.195 OA 
ATOM     21  CD  GLU A   1     -10.354   9.527  69.195  1.00  0.00    -0.207 C  
ENDBRANCH  17  18
ENDBRANCH  13  17
ENDBRANCH  11  13
ENDBRANCH   4   9
ENDBRANCH   2   3
BRANCH   2  22
HETATM   22  C   UNK A   0      -7.800  17.065  68.434  1.00  0.00    -0.233 C  
BRANCH  22  23
HETATM   23  C   UNK A   0      -9.119  16.749  69.114  1.00  0.00    -0.120 A  
HETATM   24  N   UNK A   0     -10.633  12.818  69.239  1.00  0.00    -0.435 NA 
HETATM   25  C   UNK A   0     -11.490  16.168  70.380  1.00  0.00    -0.328 A  
HETATM   26  C   UNK A   0      -9.845  17.695  69.814  1.00  0.00     0.575 A  
HETATM   27  N   UNK A   0     -12.666  15.923  70.952  1.00  0.00    -0.551 NA 
HETATM   28  C   UNK A   0     -11.323  13.929  69.748  1.00  0.00    -0.156 A  
HETATM   29  C   UNK A   0     -10.740  15.192  69.716  1.00  0.00    -0.274 A  
HETATM   30  N   UNK A   0     -11.018  17.419  70.442  1.00  0.00     0.201 NA 
HETATM   31  C   UNK A   0     -13.147  14.689  70.870  1.00  0.00    -0.358 A  
HETATM   32  H1  UNK A   0      -9.733  13.022  68.804  1.00  0.00     0.000 HD 
HETATM   33  H1  UNK A   0     -14.759  13.499  71.350  1.00  0.00     0.000 HD 
HETATM   34  N   UNK A   0     -14.389  14.448  71.413  1.00  0.00    -0.360 NA 
HETATM   35  N   UNK A   0     -12.506  13.661  70.319  1.00  0.00    -0.299 NA 
HETATM   36  N   UNK A   0      -9.559  15.470  69.075  1.00  0.00    -0.221 NA 
HETATM   37  H2  UNK A   0     -11.227  12.305  68.588  1.00  0.00     0.000 HD 
HETATM   38  H2  UNK A   0     -14.922  15.193  71.864  1.00  0.00     0.000 HD 
ENDBRANCH  22  23
ENDBRANCH   2  22
TORSDOF 7
ENDMDL
MODEL      285
REMARK 921   NORMALIZED FREE ENERGY PREDICTED BY IDOCK:   -2.81 KCAL/MOL
REMARK 922        TOTAL FREE ENERGY PREDICTED BY IDOCK:   -5.71 KCAL/MOL
REMARK 923 INTER-LIGAND FREE ENERGY PREDICTED BY IDOCK:   -5.24 KCAL/MOL
REMARK 924 INTRA-LIGAND FREE ENERGY PREDICTED BY IDOCK:   -0.47 KCAL/MOL
REMARK 927      BINDING AFFINITY PREDICTED BY RF-SCORE:    0.00 PKD
ROOT
HETATM    1  C   UNK A   0      -7.111  17.591  66.038  1.00  0.00    -0.264 C  
HETATM    2  N   UNK A   0      -7.493  16.622  67.062  1.00  0.00    -0.181 NA 
ENDROOT
BRANCH   2   3
HETATM    3  C   UNK A   0      -8.081  15.422  66.681  1.00  0.00    -0.098 A  
HETATM    4  C   UNK A   0      -9.517  13.030  66.188  1.00  0.00    -0.159 A  
HETATM    5  C   UNK A   0      -7.592  14.170  67.096  1.00  0.00     0.024 A  
HETATM    6  C   UNK A   0      -9.252  15.418  65.908  1.00  0.00    -0.274 A  
HETATM    7  C   UNK A   0      -9.974  14.244  65.675  1.00  0.00    -0.346 A  
HETATM    8  C   UNK A   0      -8.290  12.982  66.844  1.00  0.00    -0.033 A  
BRANCH   4   9
HETATM    9  C   UNK A   0     -10.335  11.799  66.063  1.00  0.00    -0.239 C  
HETATM   10  O   UNK A   0     -11.313  11.764  65.332  1.00  0.00    -0.299 OA 
ATOM     11  N   GLU A   1      -9.877  10.705  66.787  1.00  0.00    -0.192 N  
ATOM     12  H   GLU A   1      -9.097  10.806  67.436  1.00  0.00     0.000 HD 
BRANCH  11  13
ATOM     13  CA  GLU A   1     -10.531   9.394  66.607  1.00  0.00    -0.168 C  
ATOM     14  OXT GLU A   1     -11.026   7.570  68.162  1.00  0.00    -0.059 OA 
ATOM     15  C   GLU A   1     -10.368   8.565  67.894  1.00  0.00    -0.223 C  
ATOM     16  O   GLU A   1      -9.295   8.943  68.635  1.00  0.00    -0.140 OA 
BRANCH  13  17
ATOM     17  CB  GLU A   1      -9.906   8.647  65.419  1.00  0.00     0.552 C  
BRANCH  17  18
ATOM     18  CG  GLU A   1      -8.446   9.035  65.167  1.00  0.00    -0.183 C  
ATOM     19  OE2 GLU A   1      -9.132   9.917  63.016  1.00  0.00    -0.245 OA 
ATOM     20  OE1 GLU A   1      -6.964  10.076  63.631  1.00  0.00    -0.125 OA 
ATOM     21  CD  GLU A   1      -8.250   9.709  63.833  1.00  0.00    -0.159 C  
ENDBRANCH  17  18
ENDBRANCH  13  17
ENDBRANCH  11  13
ENDBRANCH   4   9
ENDBRANCH   2   3
BRANCH   2  22
HETATM   22  C   UNK A   0      -7.646  17.110  68.444  1.00  0.00    -0.231 C  
BRANCH  22  23
HETATM   23  C   UNK A   0      -9.004  16.831  69.057  1.00  0.00    -0.188 A  
HETATM   24  N   UNK A   0     -10.431  12.892  69.522  1.00  0.00    -0.196 NA 
HETATM   25  C   UNK A   0     -11.452  16.320  70.203  1.00  0.00    -0.216 A  
HETATM   26  C   UNK A   0      -9.805  17.826  69.588  1.00  0.00     0.402 A  
HETATM   27  N   UNK A   0     -12.662  16.104  70.711  1.00  0.00    -0.454 NA 
HETATM   28  C   UNK A   0     -11.184  14.031  69.847  1.00  0.00    -0.071 A  
HETATM   29  C   UNK A   0     -10.631  15.301  69.713  1.00  0.00    -0.282 A  
HETATM   30  N   UNK A   0     -11.015  17.585  70.156  1.00  0.00     0.268 NA 
HETATM   31  C   UNK A   0     -13.106  14.855  70.736  1.00  0.00    -0.348 A  
HETATM   32  H1  UNK A   0      -9.505  13.075  69.134  1.00  0.00     0.000 HD 
HETATM   33  H1  UNK A   0     -14.722  13.675  71.230  1.00  0.00     0.000 HD 
HETATM   34  N   UNK A   0     -14.381  14.636  71.211  1.00  0.00    -0.526 NA 
HETATM   35  N   UNK A   0     -12.401  13.791  70.356  1.00  0.00    -0.351 NA 
HETATM   36  N   UNK A   0      -9.410  15.542  69.133  1.00  0.00    -0.233 NA 
HETATM   37  H2  UNK A   0     -10.961  12.290  68.892  1.00  0.00     0.000 HD 
HETATM   38  H2  UNK A   0     -14.964  15.410  71.532  1.00  0.00     0.000 HD 
ENDBRANCH  22  23
ENDBRANCH   2  22
TORSDOF 7
ENDMDL
MODEL      286
REMARK 921   NORMALIZED FREE ENERGY PREDICTED BY IDOCK:   -2.77 KCAL/MOL
REMARK 922        TOTAL FREE ENERGY PREDICTED BY IDOCK:   -5.65 KCAL/MOL
REMARK 923 INTER-LIGAND FREE ENERGY PREDICTED BY IDOCK:   -4.94 KCAL/MOL
REMARK 924 INTRA-LIGAND FREE ENERGY PREDICTED BY IDOCK:   -0.71 KCAL/MOL
REMARK 927      BINDING AFFINITY PREDICTED BY RF-SCORE:    0.00 PKD
ROOT
HETATM    1  C   UNK A   0      -7.384  17.603  66.119  1.00  0.00    -0.309 C  
HETATM    2  N   UNK A   0      -7.317  16.728  67.286  1.00  0.00    -0.161 NA 
ENDROOT
BRANCH   2   3
HETATM    3  C   UNK A   0      -7.396  15.351  67.112  1.00  0.00    -0.168 A  
HETATM    4  C   UNK A   0      -7.784  12.546  67.057  1.00  0.00    -0.044 A  
HETATM    5  C   UNK A   0      -6.428  14.464  67.615  1.00  0.00    -0.151 A  
HETATM    6  C   UNK A   0      -8.508  14.778  66.474  1.00  0.00     0.024 A  
HETATM    7  C   UNK A   0      -8.714  13.396  66.458  1.00  0.00     0.083 A  
HETATM    8  C   UNK A   0      -6.607  13.075  67.578  1.00  0.00    -0.160 A  
BRANCH   4   9
HETATM    9  C   UNK A   0      -8.048  11.090  67.163  1.00  0.00    -0.134 C  
HETATM   10  O   UNK A   0      -7.821  10.338  66.227  1.00  0.00    -0.109 OA 
ATOM     11  N   GLU A   1      -8.515  10.658  68.399  1.00  0.00    -0.126 N  
ATOM     12  H   GLU A   1      -8.755  11.334  69.124  1.00  0.00     0.000 HD 
BRANCH  11  13
ATOM     13  CA  GLU A   1      -8.659   9.212  68.652  1.00  0.00    -0.128 C  
ATOM     14  OXT GLU A   1     -10.541   7.853  69.429  1.00  0.00    -0.225 OA 
ATOM     15  C   GLU A   1     -10.009   8.951  69.346  1.00  0.00    -0.192 C  
ATOM     16  O   GLU A   1     -10.479  10.035  70.014  1.00  0.00    -0.256 OA 
BRANCH  13  17
ATOM     17  CB  GLU A   1      -7.509   8.710  69.538  1.00  0.00    -0.072 C  
BRANCH  17  18
ATOM     18  CG  GLU A   1      -7.149   9.685  70.663  1.00  0.00    -0.117 C  
ATOM     19  OE2 GLU A   1      -5.445  10.612  69.209  1.00  0.00    -0.038 OA 
ATOM     20  OE1 GLU A   1      -5.739  11.498  71.267  1.00  0.00    -0.376 OA 
ATOM     21  CD  GLU A   1      -6.030  10.620  70.280  1.00  0.00    -0.111 C  
ENDBRANCH  17  18
ENDBRANCH  13  17
ENDBRANCH  11  13
ENDBRANCH   4   9
ENDBRANCH   2   3
BRANCH   2  22
HETATM   22  C   UNK A   0      -7.601  17.320  68.605  1.00  0.00    -0.260 C  
BRANCH  22  23
HETATM   23  C   UNK A   0      -8.964  16.965  69.167  1.00  0.00    -0.080 A  
HETATM   24  N   UNK A   0     -10.322  12.976  69.266  1.00  0.00    -0.388 NA 
HETATM   25  C   UNK A   0     -11.420  16.314  70.221  1.00  0.00    -0.230 A  
HETATM   26  C   UNK A   0      -9.792  17.896  69.767  1.00  0.00     0.622 A  
HETATM   27  N   UNK A   0     -12.634  16.034  70.687  1.00  0.00    -0.527 NA 
HETATM   28  C   UNK A   0     -11.102  14.070  69.675  1.00  0.00    -0.104 A  
HETATM   29  C   UNK A   0     -10.571  15.356  69.660  1.00  0.00    -0.279 A  
HETATM   30  N   UNK A   0     -11.007  17.586  70.291  1.00  0.00     0.335 NA 
HETATM   31  C   UNK A   0     -13.054  14.779  70.597  1.00  0.00    -0.293 A  
HETATM   32  H1  UNK A   0      -9.394  13.208  68.912  1.00  0.00     0.000 HD 
HETATM   33  H1  UNK A   0     -14.655  13.532  70.959  1.00  0.00     0.000 HD 
HETATM   34  N   UNK A   0     -14.332  14.498  71.028  1.00  0.00    -0.390 NA 
HETATM   35  N   UNK A   0     -12.322  13.765  70.140  1.00  0.00    -0.338 NA 
HETATM   36  N   UNK A   0      -9.346  15.668  69.125  1.00  0.00    -0.234 NA 
HETATM   37  H2  UNK A   0     -10.830  12.422  68.578  1.00  0.00     0.000 HD 
HETATM   38  H2  UNK A   0     -14.934  15.230  71.404  1.00  0.00     0.000 HD 
ENDBRANCH  22  23
ENDBRANCH   2  22
TORSDOF 7
ENDMDL
MODEL      287
REMARK 921   NORMALIZED FREE ENERGY PREDICTED BY IDOCK:   -2.71 KCAL/MOL
REMARK 922        TOTAL FREE ENERGY PREDICTED BY IDOCK:   -5.57 KCAL/MOL
REMARK 923 INTER-LIGAND FREE ENERGY PREDICTED BY IDOCK:   -4.81 KCAL/MOL
REMARK 924 INTRA-LIGAND FREE ENERGY PREDICTED BY IDOCK:   -0.76 KCAL/MOL
REMARK 927      BINDING AFFINITY PREDICTED BY RF-SCORE:    0.00 PKD
ROOT
HETATM    1  C   UNK A   0      -5.934   7.802  68.104  1.00  0.00    -0.040 C  
HETATM    2  N   UNK A   0      -6.083   8.380  69.436  1.00  0.00    -0.037 NA 
ENDROOT
BRANCH   2   3
HETATM    3  C   UNK A   0      -6.375   9.733  69.565  1.00  0.00    -0.045 A  
HETATM    4  C   UNK A   0      -6.750  12.541  69.527  1.00  0.00     0.019 A  
HETATM    5  C   UNK A   0      -5.681  10.580  70.446  1.00  0.00    -0.087 A  
HETATM    6  C   UNK A   0      -7.349  10.330  68.749  1.00  0.00    -0.086 A  
HETATM    7  C   UNK A   0      -7.528  11.716  68.714  1.00  0.00    -0.114 A  
HETATM    8  C   UNK A   0      -5.872  11.969  70.443  1.00  0.00    -0.157 A  
BRANCH   4   9
HETATM    9  C   UNK A   0      -6.835  14.017  69.410  1.00  0.00    -0.083 C  
HETATM   10  O   UNK A   0      -5.829  14.710  69.446  1.00  0.00    -0.093 OA 
ATOM     11  N   GLU A   1      -8.112  14.526  69.211  1.00  0.00    -0.354 N  
ATOM     12  H   GLU A   1      -8.925  13.912  69.259  1.00  0.00     0.000 HD 
BRANCH  11  13
ATOM     13  CA  GLU A   1      -8.280  15.965  68.928  1.00  0.00    -0.213 C  
ATOM     14  OXT GLU A   1     -10.169  17.494  69.225  1.00  0.00    -0.303 OA 
ATOM     15  C   GLU A   1      -9.762  16.346  69.110  1.00  0.00    -0.260 C  
ATOM     16  O   GLU A   1     -10.603  15.293  68.955  1.00  0.00    -0.227 OA 
BRANCH  13  17
ATOM     17  CB  GLU A   1      -7.830  16.281  67.494  1.00  0.00    -0.168 C  
BRANCH  17  18
ATOM     18  CG  GLU A   1      -7.464  17.754  67.291  1.00  0.00    -0.214 C  
ATOM     19  OE2 GLU A   1      -9.529  18.017  66.049  1.00  0.00    -0.504 OA 
ATOM     20  OE1 GLU A   1      -8.191  19.812  66.355  1.00  0.00    -0.317 OA 
ATOM     21  CD  GLU A   1      -8.507  18.505  66.503  1.00  0.00    -0.277 C  
ENDBRANCH  17  18
ENDBRANCH  13  17
ENDBRANCH  11  13
ENDBRANCH   4   9
ENDBRANCH   2   3
BRANCH   2  22
HETATM   22  C   UNK A   0      -5.505   7.641  70.573  1.00  0.00    -0.023 C  
BRANCH  22  23
HETATM   23  C   UNK A   0      -6.524   6.902  71.418  1.00  0.00    -0.042 A  
HETATM   24  N   UNK A   0      -8.367   3.371  70.040  1.00  0.00    -0.051 NA 
HETATM   25  C   UNK A   0      -8.345   5.539  72.966  1.00  0.00    -0.119 A  
HETATM   26  C   UNK A   0      -6.833   7.274  72.715  1.00  0.00    -0.068 A  
HETATM   27  N   UNK A   0      -9.261   4.929  73.712  1.00  0.00    -0.118 NA 
HETATM   28  C   UNK A   0      -8.689   3.987  71.260  1.00  0.00    -0.090 A  
HETATM   29  C   UNK A   0      -8.006   5.125  71.674  1.00  0.00    -0.114 A  
HETATM   30  N   UNK A   0      -7.730   6.608  73.487  1.00  0.00    -0.090 NA 
HETATM   31  C   UNK A   0      -9.888   3.884  73.188  1.00  0.00    -0.127 A  
HETATM   32  H1  UNK A   0      -7.662   3.851  69.480  1.00  0.00     0.000 HD 
HETATM   33  H1  UNK A   0     -11.358   2.483  73.534  1.00  0.00     0.000 HD 
HETATM   34  N   UNK A   0     -10.877   3.286  73.938  1.00  0.00    -0.210 NA 
HETATM   35  N   UNK A   0      -9.616   3.357  71.996  1.00  0.00    -0.134 NA 
HETATM   36  N   UNK A   0      -7.104   5.799  70.889  1.00  0.00    -0.068 NA 
HETATM   37  H2  UNK A   0      -9.212   3.225  69.488  1.00  0.00     0.000 HD 
HETATM   38  H2  UNK A   0     -11.118   3.635  74.866  1.00  0.00     0.000 HD 
ENDBRANCH  22  23
ENDBRANCH   2  22
TORSDOF 7
ENDMDL
MODEL      288
REMARK 921   NORMALIZED FREE ENERGY PREDICTED BY IDOCK:   -2.62 KCAL/MOL
REMARK 922        TOTAL FREE ENERGY PREDICTED BY IDOCK:   -5.44 KCAL/MOL
REMARK 923 INTER-LIGAND FREE ENERGY PREDICTED BY IDOCK:   -4.69 KCAL/MOL
REMARK 924 INTRA-LIGAND FREE ENERGY PREDICTED BY IDOCK:   -0.75 KCAL/MOL
REMARK 927      BINDING AFFINITY PREDICTED BY RF-SCORE:    0.00 PKD
ROOT
HETATM    1  C   UNK A   0      -7.745  16.946  66.101  1.00  0.00    -0.224 C  
HETATM    2  N   UNK A   0      -7.544  16.216  67.349  1.00  0.00    -0.147 NA 
ENDROOT
BRANCH   2   3
HETATM    3  C   UNK A   0      -7.583  14.826  67.341  1.00  0.00    -0.202 A  
HETATM    4  C   UNK A   0      -7.916  12.025  67.599  1.00  0.00    -0.150 A  
HETATM    5  C   UNK A   0      -6.654  14.036  68.041  1.00  0.00    -0.150 A  
HETATM    6  C   UNK A   0      -8.617  14.148  66.676  1.00  0.00     0.003 A  
HETATM    7  C   UNK A   0      -8.796  12.768  66.813  1.00  0.00    -0.161 A  
HETATM    8  C   UNK A   0      -6.805  12.647  68.161  1.00  0.00    -0.090 A  
BRANCH   4   9
HETATM    9  C   UNK A   0      -8.165  10.586  67.860  1.00  0.00    -0.107 C  
HETATM   10  O   UNK A   0      -7.240   9.793  67.953  1.00  0.00    -0.083 OA 
ATOM     11  N   GLU A   1      -9.498  10.235  68.036  1.00  0.00    -0.145 N  
ATOM     12  H   GLU A   1     -10.237  10.920  67.878  1.00  0.00     0.000 HD 
BRANCH  11  13
ATOM     13  CA  GLU A   1      -9.834   8.860  68.452  1.00  0.00    -0.174 C  
ATOM     14  OXT GLU A   1     -10.165   6.788  67.191  1.00  0.00    -0.179 OA 
ATOM     15  C   GLU A   1     -10.134   8.011  67.202  1.00  0.00    -0.263 C  
ATOM     16  O   GLU A   1     -10.535   8.755  66.141  1.00  0.00    -0.038 OA 
BRANCH  13  17
ATOM     17  CB  GLU A   1     -11.056   8.870  69.383  1.00  0.00     0.026 C  
BRANCH  17  18
ATOM     18  CG  GLU A   1     -10.723   8.445  70.817  1.00  0.00    -0.244 C  
ATOM     19  OE2 GLU A   1     -12.751   7.117  70.812  1.00  0.00    -0.260 OA 
ATOM     20  OE1 GLU A   1     -11.431   7.106  72.646  1.00  0.00    -0.280 OA 
ATOM     21  CD  GLU A   1     -11.748   7.501  71.392  1.00  0.00    -0.283 C  
ENDBRANCH  17  18
ENDBRANCH  13  17
ENDBRANCH  11  13
ENDBRANCH   4   9
ENDBRANCH   2   3
BRANCH   2  22
HETATM   22  C   UNK A   0      -7.738  16.950  68.612  1.00  0.00    -0.235 C  
BRANCH  22  23
HETATM   23  C   UNK A   0      -9.071  16.687  69.286  1.00  0.00    -0.066 A  
HETATM   24  N   UNK A   0     -10.536  12.768  69.795  1.00  0.00     0.190 NA 
HETATM   25  C   UNK A   0     -11.470  16.207  70.543  1.00  0.00    -0.343 A  
HETATM   26  C   UNK A   0      -9.830  17.691  69.860  1.00  0.00     0.806 A  
HETATM   27  N   UNK A   0     -12.658  16.006  71.106  1.00  0.00    -0.539 NA 
HETATM   28  C   UNK A   0     -11.255  13.917  70.162  1.00  0.00     0.104 A  
HETATM   29  C   UNK A   0     -10.689  15.178  70.009  1.00  0.00    -0.238 A  
HETATM   30  N   UNK A   0     -11.016  17.465  70.483  1.00  0.00     0.264 NA 
HETATM   31  C   UNK A   0     -13.120  14.763  71.145  1.00  0.00    -0.382 A  
HETATM   32  H1  UNK A   0      -9.626  12.939  69.365  1.00  0.00     0.000 HD 
HETATM   33  H1  UNK A   0     -14.729  13.606  71.708  1.00  0.00     0.000 HD 
HETATM   34  N   UNK A   0     -14.375  14.561  71.678  1.00  0.00    -0.474 NA 
HETATM   35  N   UNK A   0     -12.450  13.692  70.726  1.00  0.00    -0.359 NA 
HETATM   36  N   UNK A   0      -9.493  15.405  69.374  1.00  0.00    -0.262 NA 
HETATM   37  H2  UNK A   0     -11.104  12.179  69.187  1.00  0.00     0.000 HD 
HETATM   38  H2  UNK A   0     -14.929  15.342  72.030  1.00  0.00     0.000 HD 
ENDBRANCH  22  23
ENDBRANCH   2  22
TORSDOF 7
ENDMDL
MODEL      289
REMARK 921   NORMALIZED FREE ENERGY PREDICTED BY IDOCK:   -2.60 KCAL/MOL
REMARK 922        TOTAL FREE ENERGY PREDICTED BY IDOCK:   -5.42 KCAL/MOL
REMARK 923 INTER-LIGAND FREE ENERGY PREDICTED BY IDOCK:   -5.87 KCAL/MOL
REMARK 924 INTRA-LIGAND FREE ENERGY PREDICTED BY IDOCK:    0.45 KCAL/MOL
REMARK 927      BINDING AFFINITY PREDICTED BY RF-SCORE:    0.00 PKD
ROOT
HETATM    1  C   UNK A   0      -5.436  10.772  68.318  1.00  0.00    -0.039 C  
HETATM    2  N   UNK A   0      -6.608  11.597  68.598  1.00  0.00    -0.061 NA 
ENDROOT
BRANCH   2   3
HETATM    3  C   UNK A   0      -6.538  12.971  68.400  1.00  0.00    -0.090 A  
HETATM    4  C   UNK A   0      -6.708  15.792  68.204  1.00  0.00    -0.130 A  
HETATM    5  C   UNK A   0      -7.045  13.600  67.249  1.00  0.00     0.041 A  
HETATM    6  C   UNK A   0      -6.011  13.807  69.397  1.00  0.00    -0.101 A  
HETATM    7  C   UNK A   0      -6.106  15.199  69.314  1.00  0.00    -0.109 A  
HETATM    8  C   UNK A   0      -7.119  14.995  67.139  1.00  0.00     0.010 A  
BRANCH   4   9
HETATM    9  C   UNK A   0      -6.934  17.257  68.158  1.00  0.00    -0.181 C  
HETATM   10  O   UNK A   0      -6.309  17.967  67.385  1.00  0.00    -0.157 OA 
ATOM     11  N   GLU A   1      -7.925  17.733  69.009  1.00  0.00    -0.149 N  
ATOM     12  H   GLU A   1      -8.367  17.111  69.685  1.00  0.00     0.000 HD 
BRANCH  11  13
ATOM     13  CA  GLU A   1      -8.330  19.150  68.925  1.00  0.00    -0.290 C  
ATOM     14  OXT GLU A   1     -10.358  20.330  69.623  1.00  0.00    -0.104 OA 
ATOM     15  C   GLU A   1      -9.812  19.277  69.323  1.00  0.00    -0.240 C  
ATOM     16  O   GLU A   1     -10.510  18.127  69.141  1.00  0.00    -0.205 OA 
BRANCH  13  17
ATOM     17  CB  GLU A   1      -8.124  19.677  67.496  1.00  0.00    -0.333 C  
BRANCH  17  18
ATOM     18  CG  GLU A   1      -9.425  20.139  66.834  1.00  0.00    -0.543 C  
ATOM     19  OE2 GLU A   1      -9.471  18.033  65.633  1.00  0.00    -0.396 OA 
ATOM     20  OE1 GLU A   1     -11.150  19.514  65.325  1.00  0.00    -0.406 OA 
ATOM     21  CD  GLU A   1      -9.985  19.112  65.882  1.00  0.00    -0.190 C  
ENDBRANCH  17  18
ENDBRANCH  13  17
ENDBRANCH  11  13
ENDBRANCH   4   9
ENDBRANCH   2   3
BRANCH   2  22
HETATM   22  C   UNK A   0      -7.653  11.031  69.470  1.00  0.00     0.007 C  
BRANCH  22  23
HETATM   23  C   UNK A   0      -8.089   9.629  69.091  1.00  0.00    -0.104 A  
HETATM   24  N   UNK A   0      -9.554   8.755  65.236  1.00  0.00    -0.383 NA 
HETATM   25  C   UNK A   0      -8.843   7.078  68.390  1.00  0.00    -0.123 A  
HETATM   26  C   UNK A   0      -7.939   8.544  69.937  1.00  0.00    -0.106 A  
HETATM   27  N   UNK A   0      -9.252   5.848  68.094  1.00  0.00    -0.116 NA 
HETATM   28  C   UNK A   0      -9.496   7.812  66.275  1.00  0.00    -0.133 A  
HETATM   29  C   UNK A   0      -8.955   8.158  67.509  1.00  0.00    -0.137 A  
HETATM   30  N   UNK A   0      -8.309   7.281  69.600  1.00  0.00    -0.131 NA 
HETATM   31  C   UNK A   0      -9.804   5.650  66.904  1.00  0.00    -0.159 A  
HETATM   32  H1  UNK A   0      -9.236   9.694  65.479  1.00  0.00     0.000 HD 
HETATM   33  H1  UNK A   0     -10.702   4.237  65.703  1.00  0.00     0.000 HD 
HETATM   34  N   UNK A   0     -10.278   4.389  66.618  1.00  0.00    -0.307 NA 
HETATM   35  N   UNK A   0      -9.914   6.579  65.956  1.00  0.00    -0.387 NA 
HETATM   36  N   UNK A   0      -8.588   9.436  67.848  1.00  0.00    -0.120 NA 
HETATM   37  H2  UNK A   0     -10.497   8.794  64.851  1.00  0.00     0.000 HD 
HETATM   38  H2  UNK A   0     -10.207   3.632  67.298  1.00  0.00     0.000 HD 
ENDBRANCH  22  23
ENDBRANCH   2  22
TORSDOF 7
ENDMDL
MODEL      290
REMARK 921   NORMALIZED FREE ENERGY PREDICTED BY IDOCK:   -2.59 KCAL/MOL
REMARK 922        TOTAL FREE ENERGY PREDICTED BY IDOCK:   -5.40 KCAL/MOL
REMARK 923 INTER-LIGAND FREE ENERGY PREDICTED BY IDOCK:   -5.37 KCAL/MOL
REMARK 924 INTRA-LIGAND FREE ENERGY PREDICTED BY IDOCK:   -0.03 KCAL/MOL
REMARK 927      BINDING AFFINITY PREDICTED BY RF-SCORE:    0.00 PKD
ROOT
HETATM    1  C   UNK A   0      -9.223  11.998  66.573  1.00  0.00    -0.216 C  
HETATM    2  N   UNK A   0      -8.233  11.548  67.548  1.00  0.00    -0.135 NA 
ENDROOT
BRANCH   2   3
HETATM    3  C   UNK A   0      -8.278  10.239  68.012  1.00  0.00    -0.113 A  
HETATM    4  C   UNK A   0      -8.507   7.482  68.621  1.00  0.00    -0.129 A  
HETATM    5  C   UNK A   0      -9.344   9.741  68.782  1.00  0.00    -0.150 A  
HETATM    6  C   UNK A   0      -7.271   9.325  67.661  1.00  0.00    -0.083 A  
HETATM    7  C   UNK A   0      -7.386   7.961  67.944  1.00  0.00    -0.092 A  
HETATM    8  C   UNK A   0      -9.456   8.380  69.099  1.00  0.00    -0.155 A  
BRANCH   4   9
HETATM    9  C   UNK A   0      -8.708   6.025  68.815  1.00  0.00    -0.111 C  
HETATM   10  O   UNK A   0      -9.757   5.588  69.265  1.00  0.00    -0.139 OA 
ATOM     11  N   GLU A   1      -7.653   5.218  68.407  1.00  0.00    -0.079 N  
ATOM     12  H   GLU A   1      -6.773   5.635  68.105  1.00  0.00     0.000 HD 
BRANCH  11  13
ATOM     13  CA  GLU A   1      -7.818   3.752  68.416  1.00  0.00    -0.068 C  
ATOM     14  OXT GLU A   1      -7.099   2.021  69.990  1.00  0.00    -0.033 OA 
ATOM     15  C   GLU A   1      -6.963   3.153  69.548  1.00  0.00    -0.041 C  
ATOM     16  O   GLU A   1      -5.917   3.944  69.898  1.00  0.00    -0.017 OA 
BRANCH  13  17
ATOM     17  CB  GLU A   1      -7.388   3.160  67.066  1.00  0.00    -0.062 C  
BRANCH  17  18
ATOM     18  CG  GLU A   1      -8.402   3.419  65.947  1.00  0.00    -0.103 C  
ATOM     19  OE2 GLU A   1      -7.086   5.352  65.307  1.00  0.00    -0.063 OA 
ATOM     20  OE1 GLU A   1      -8.933   4.832  64.114  1.00  0.00    -0.147 OA 
ATOM     21  CD  GLU A   1      -8.051   4.629  65.119  1.00  0.00    -0.104 C  
ENDBRANCH  17  18
ENDBRANCH  13  17
ENDBRANCH  11  13
ENDBRANCH   4   9
ENDBRANCH   2   3
BRANCH   2  22
HETATM   22  C   UNK A   0      -7.512  12.577  68.318  1.00  0.00    -0.122 C  
BRANCH  22  23
HETATM   23  C   UNK A   0      -8.122  13.963  68.228  1.00  0.00    -0.150 A  
HETATM   24  N   UNK A   0      -9.670  15.447  64.600  1.00  0.00    -0.159 NA 
HETATM   25  C   UNK A   0      -9.262  16.462  68.073  1.00  0.00    -0.204 A  
HETATM   26  C   UNK A   0      -8.300  14.775  69.334  1.00  0.00     0.014 A  
HETATM   27  N   UNK A   0      -9.759  17.694  68.014  1.00  0.00    -0.289 NA 
HETATM   28  C   UNK A   0      -9.611  16.202  65.782  1.00  0.00    -0.257 A  
HETATM   29  C   UNK A   0      -9.131  15.631  66.957  1.00  0.00    -0.219 A  
HETATM   30  N   UNK A   0      -8.861  16.010  69.268  1.00  0.00    -0.249 NA 
HETATM   31  C   UNK A   0     -10.134  18.151  66.827  1.00  0.00    -0.362 A  
HETATM   32  H1  UNK A   0      -9.286  14.504  64.662  1.00  0.00     0.000 HD 
HETATM   33  H1  UNK A   0     -10.885  19.798  65.841  1.00  0.00     0.000 HD 
HETATM   34  N   UNK A   0     -10.597  19.447  66.755  1.00  0.00    -0.458 NA 
HETATM   35  N   UNK A   0     -10.116  17.441  65.700  1.00  0.00    -0.586 NA 
HETATM   36  N   UNK A   0      -8.559  14.385  67.019  1.00  0.00    -0.283 NA 
HETATM   37  H2  UNK A   0      -9.225  15.956  63.837  1.00  0.00     0.000 HD 
HETATM   38  H2  UNK A   0     -10.650  20.034  67.587  1.00  0.00     0.000 HD 
ENDBRANCH  22  23
ENDBRANCH   2  22
TORSDOF 7
ENDMDL
MODEL      291
REMARK 921   NORMALIZED FREE ENERGY PREDICTED BY IDOCK:   -2.56 KCAL/MOL
REMARK 922        TOTAL FREE ENERGY PREDICTED BY IDOCK:   -5.36 KCAL/MOL
REMARK 923 INTER-LIGAND FREE ENERGY PREDICTED BY IDOCK:   -6.42 KCAL/MOL
REMARK 924 INTRA-LIGAND FREE ENERGY PREDICTED BY IDOCK:    1.07 KCAL/MOL
REMARK 927      BINDING AFFINITY PREDICTED BY RF-SCORE:    0.00 PKD
ROOT
HETATM    1  C   UNK A   0      -6.148   8.078  70.176  1.00  0.00    -0.032 C  
HETATM    2  N   UNK A   0      -7.480   8.173  69.588  1.00  0.00    -0.084 NA 
ENDROOT
BRANCH   2   3
HETATM    3  C   UNK A   0      -7.903   9.382  69.048  1.00  0.00    -0.079 A  
HETATM    4  C   UNK A   0      -8.757  11.977  68.299  1.00  0.00    -0.178 A  
HETATM    5  C   UNK A   0      -9.255   9.664  68.780  1.00  0.00    -0.141 A  
HETATM    6  C   UNK A   0      -6.983  10.416  68.811  1.00  0.00    -0.068 A  
HETATM    7  C   UNK A   0      -7.399  11.702  68.457  1.00  0.00    -0.102 A  
HETATM    8  C   UNK A   0      -9.683  10.942  68.395  1.00  0.00    -0.179 A  
BRANCH   4   9
HETATM    9  C   UNK A   0      -9.226  13.363  68.052  1.00  0.00    -0.209 C  
HETATM   10  O   UNK A   0      -9.926  13.629  67.086  1.00  0.00    -0.239 OA 
ATOM     11  N   GLU A   1      -8.853  14.297  69.011  1.00  0.00    -0.377 N  
ATOM     12  H   GLU A   1      -8.210  14.039  69.759  1.00  0.00     0.000 HD 
BRANCH  11  13
ATOM     13  CA  GLU A   1      -9.399  15.666  68.936  1.00  0.00    -0.223 C  
ATOM     14  OXT GLU A   1     -11.366  16.715  69.946  1.00  0.00    -0.154 OA 
ATOM     15  C   GLU A   1     -10.789  15.695  69.599  1.00  0.00    -0.287 C  
ATOM     16  O   GLU A   1     -11.396  14.481  69.609  1.00  0.00    -0.256 OA 
BRANCH  13  17
ATOM     17  CB  GLU A   1      -9.509  16.115  67.470  1.00  0.00    -0.223 C  
BRANCH  17  18
ATOM     18  CG  GLU A   1     -10.345  17.386  67.293  1.00  0.00    -0.336 C  
ATOM     19  OE2 GLU A   1      -8.298  18.668  67.498  1.00  0.00    -0.261 OA 
ATOM     20  OE1 GLU A   1     -10.248  19.754  67.141  1.00  0.00    -0.387 OA 
ATOM     21  CD  GLU A   1      -9.507  18.638  67.329  1.00  0.00    -0.298 C  
ENDBRANCH  17  18
ENDBRANCH  13  17
ENDBRANCH  11  13
ENDBRANCH   4   9
ENDBRANCH   2   3
BRANCH   2  22
HETATM   22  C   UNK A   0      -8.471   7.148  69.963  1.00  0.00    -0.140 C  
BRANCH  22  23
HETATM   23  C   UNK A   0      -8.782   6.151  68.864  1.00  0.00    -0.123 A  
HETATM   24  N   UNK A   0      -8.361   7.170  64.795  1.00  0.00    -0.326 NA 
HETATM   25  C   UNK A   0      -9.310   4.331  66.870  1.00  0.00    -0.166 A  
HETATM   26  C   UNK A   0      -9.119   4.835  69.121  1.00  0.00    -0.110 A  
HETATM   27  N   UNK A   0      -9.624   3.450  65.925  1.00  0.00    -0.358 NA 
HETATM   28  C   UNK A   0      -8.858   5.933  65.236  1.00  0.00    -0.019 A  
HETATM   29  C   UNK A   0      -8.924   5.647  66.596  1.00  0.00    -0.120 A  
HETATM   30  N   UNK A   0      -9.382   3.928  68.144  1.00  0.00    -0.160 NA 
HETATM   31  C   UNK A   0      -9.576   3.855  64.663  1.00  0.00    -0.175 A  
HETATM   32  H1  UNK A   0      -8.125   7.835  65.533  1.00  0.00     0.000 HD 
HETATM   33  H1  UNK A   0      -9.918   3.272  62.716  1.00  0.00     0.000 HD 
HETATM   34  N   UNK A   0      -9.955   2.960  63.686  1.00  0.00    -0.143 NA 
HETATM   35  N   UNK A   0      -9.169   5.060  64.268  1.00  0.00    -0.355 NA 
HETATM   36  N   UNK A   0      -8.664   6.566  67.581  1.00  0.00    -0.115 NA 
HETATM   37  H2  UNK A   0      -9.014   7.595  64.138  1.00  0.00     0.000 HD 
HETATM   38  H2  UNK A   0     -10.261   2.016  63.926  1.00  0.00     0.000 HD 
ENDBRANCH  22  23
ENDBRANCH   2  22
TORSDOF 7
ENDMDL
MODEL      292
REMARK 921   NORMALIZED FREE ENERGY PREDICTED BY IDOCK:   -2.56 KCAL/MOL
REMARK 922        TOTAL FREE ENERGY PREDICTED BY IDOCK:   -5.36 KCAL/MOL
REMARK 923 INTER-LIGAND FREE ENERGY PREDICTED BY IDOCK:   -6.55 KCAL/MOL
REMARK 924 INTRA-LIGAND FREE ENERGY PREDICTED BY IDOCK:    1.20 KCAL/MOL
REMARK 927      BINDING AFFINITY PREDICTED BY RF-SCORE:    0.00 PKD
ROOT
HETATM    1  C   UNK A   0      -6.636   7.029  71.179  1.00  0.00    -0.045 C  
HETATM    2  N   UNK A   0      -7.608   6.581  70.186  1.00  0.00    -0.094 NA 
ENDROOT
BRANCH   2   3
HETATM    3  C   UNK A   0      -8.214   7.515  69.354  1.00  0.00    -0.130 A  
HETATM    4  C   UNK A   0      -9.227   9.672  67.822  1.00  0.00    -0.135 A  
HETATM    5  C   UNK A   0      -9.443   8.125  69.665  1.00  0.00    -0.159 A  
HETATM    6  C   UNK A   0      -7.573   7.945  68.181  1.00  0.00    -0.116 A  
HETATM    7  C   UNK A   0      -8.059   9.019  67.431  1.00  0.00    -0.108 A  
HETATM    8  C   UNK A   0      -9.957   9.183  68.903  1.00  0.00    -0.189 A  
BRANCH   4   9
HETATM    9  C   UNK A   0      -9.687  10.892  67.115  1.00  0.00    -0.174 C  
HETATM   10  O   UNK A   0      -9.122  11.964  67.275  1.00  0.00    -0.169 OA 
ATOM     11  N   GLU A   1     -10.752  10.708  66.242  1.00  0.00    -0.155 N  
ATOM     12  H   GLU A   1     -11.233   9.810  66.197  1.00  0.00     0.000 HD 
BRANCH  11  13
ATOM     13  CA  GLU A   1     -11.180  11.826  65.378  1.00  0.00    -0.251 C  
ATOM     14  OXT GLU A   1     -10.790  12.325  63.014  1.00  0.00    -0.271 OA 
ATOM     15  C   GLU A   1     -10.450  11.728  64.025  1.00  0.00    -0.368 C  
ATOM     16  O   GLU A   1      -9.280  11.044  64.102  1.00  0.00    -0.199 OA 
BRANCH  13  17
ATOM     17  CB  GLU A   1     -10.858  13.170  66.050  1.00  0.00    -0.287 C  
BRANCH  17  18
ATOM     18  CG  GLU A   1     -10.771  14.332  65.056  1.00  0.00    -0.435 C  
ATOM     19  OE2 GLU A   1     -13.192  14.442  65.089  1.00  0.00    -0.602 OA 
ATOM     20  OE1 GLU A   1     -12.039  15.919  63.826  1.00  0.00    -0.780 OA 
ATOM     21  CD  GLU A   1     -12.126  14.873  64.679  1.00  0.00    -0.378 C  
ENDBRANCH  17  18
ENDBRANCH  13  17
ENDBRANCH  11  13
ENDBRANCH   4   9
ENDBRANCH   2   3
BRANCH   2  22
HETATM   22  C   UNK A   0      -8.227   5.258  70.380  1.00  0.00    -0.103 C  
BRANCH  22  23
HETATM   23  C   UNK A   0      -8.227   4.382  69.142  1.00  0.00    -0.071 A  
HETATM   24  N   UNK A   0      -9.752   5.778  65.469  1.00  0.00    -0.351 NA 
HETATM   25  C   UNK A   0      -8.191   2.808  66.886  1.00  0.00    -0.086 A  
HETATM   26  C   UNK A   0      -7.642   3.128  69.112  1.00  0.00    -0.048 A  
HETATM   27  N   UNK A   0      -8.212   2.008  65.824  1.00  0.00    -0.085 NA 
HETATM   28  C   UNK A   0      -9.278   4.471  65.664  1.00  0.00    -0.149 A  
HETATM   29  C   UNK A   0      -8.743   4.093  66.891  1.00  0.00    -0.114 A  
HETATM   30  N   UNK A   0      -7.619   2.343  68.004  1.00  0.00    -0.055 NA 
HETATM   31  C   UNK A   0      -8.799   2.458  64.724  1.00  0.00    -0.117 A  
HETATM   32  H1  UNK A   0      -9.729   6.379  66.293  1.00  0.00     0.000 HD 
HETATM   33  H1  UNK A   0      -9.322   1.955  62.795  1.00  0.00     0.000 HD 
HETATM   34  N   UNK A   0      -8.870   1.609  63.641  1.00  0.00    -0.087 NA 
HETATM   35  N   UNK A   0      -9.308   3.680  64.581  1.00  0.00    -0.141 NA 
HETATM   36  N   UNK A   0      -8.772   4.886  68.011  1.00  0.00    -0.102 NA 
HETATM   37  H2  UNK A   0     -10.694   5.753  65.080  1.00  0.00     0.000 HD 
HETATM   38  H2  UNK A   0      -8.483   0.666  63.684  1.00  0.00     0.000 HD 
ENDBRANCH  22  23
ENDBRANCH   2  22
TORSDOF 7
ENDMDL
MODEL      293
REMARK 921   NORMALIZED FREE ENERGY PREDICTED BY IDOCK:   -2.54 KCAL/MOL
REMARK 922        TOTAL FREE ENERGY PREDICTED BY IDOCK:   -5.33 KCAL/MOL
REMARK 923 INTER-LIGAND FREE ENERGY PREDICTED BY IDOCK:   -4.62 KCAL/MOL
REMARK 924 INTRA-LIGAND FREE ENERGY PREDICTED BY IDOCK:   -0.71 KCAL/MOL
REMARK 927      BINDING AFFINITY PREDICTED BY RF-SCORE:    0.00 PKD
ROOT
HETATM    1  C   UNK A   0      -6.022   5.331  72.480  1.00  0.00    -0.026 C  
HETATM    2  N   UNK A   0      -6.846   6.269  71.722  1.00  0.00    -0.063 NA 
ENDROOT
BRANCH   2   3
HETATM    3  C   UNK A   0      -7.021   6.075  70.357  1.00  0.00    -0.059 A  
HETATM    4  C   UNK A   0      -7.466   6.044  67.559  1.00  0.00    -0.082 A  
HETATM    5  C   UNK A   0      -8.214   5.574  69.807  1.00  0.00    -0.101 A  
HETATM    6  C   UNK A   0      -6.015   6.448  69.451  1.00  0.00    -0.021 A  
HETATM    7  C   UNK A   0      -6.234   6.450  68.071  1.00  0.00    -0.032 A  
HETATM    8  C   UNK A   0      -8.435   5.542  68.423  1.00  0.00    -0.101 A  
BRANCH   4   9
HETATM    9  C   UNK A   0      -7.761   6.162  66.110  1.00  0.00    -0.099 C  
HETATM   10  O   UNK A   0      -7.493   7.183  65.494  1.00  0.00    -0.076 OA 
ATOM     11  N   GLU A   1      -8.306   5.029  65.519  1.00  0.00    -0.121 N  
ATOM     12  H   GLU A   1      -8.576   4.229  66.091  1.00  0.00     0.000 HD 
BRANCH  11  13
ATOM     13  CA  GLU A   1      -8.489   4.995  64.055  1.00  0.00    -0.135 C  
ATOM     14  OXT GLU A   1     -10.398   4.393  62.646  1.00  0.00    -0.090 OA 
ATOM     15  C   GLU A   1      -9.836   4.320  63.730  1.00  0.00    -0.033 C  
ATOM     16  O   GLU A   1     -10.261   3.486  64.711  1.00  0.00    -0.136 OA 
BRANCH  13  17
ATOM     17  CB  GLU A   1      -7.341   4.218  63.393  1.00  0.00    -0.050 C  
BRANCH  17  18
ATOM     18  CG  GLU A   1      -6.205   3.882  64.364  1.00  0.00    -0.023 C  
ATOM     19  OE2 GLU A   1      -7.032   1.604  64.422  1.00  0.00    -0.036 OA 
ATOM     20  OE1 GLU A   1      -5.189   2.139  65.616  1.00  0.00    -0.004 OA 
ATOM     21  CD  GLU A   1      -6.213   2.434  64.784  1.00  0.00    -0.019 C  
ENDBRANCH  17  18
ENDBRANCH  13  17
ENDBRANCH  11  13
ENDBRANCH   4   9
ENDBRANCH   2   3
BRANCH   2  22
HETATM   22  C   UNK A   0      -7.098   7.594  72.315  1.00  0.00    -0.071 C  
BRANCH  22  23
HETATM   23  C   UNK A   0      -7.923   8.520  71.443  1.00  0.00    -0.137 A  
HETATM   24  N   UNK A   0     -12.129   8.606  71.702  1.00  0.00    -0.307 NA 
HETATM   25  C   UNK A   0      -9.419  10.227  69.888  1.00  0.00    -0.015 A  
HETATM   26  C   UNK A   0      -7.355   9.453  70.594  1.00  0.00    -0.131 A  
HETATM   27  N   UNK A   0     -10.121  11.022  69.086  1.00  0.00    -0.350 NA 
HETATM   28  C   UNK A   0     -11.395   9.361  70.773  1.00  0.00    -0.300 A  
HETATM   29  C   UNK A   0     -10.005   9.320  70.777  1.00  0.00    -0.290 A  
HETATM   30  N   UNK A   0      -8.084  10.300  69.822  1.00  0.00    -0.309 NA 
HETATM   31  C   UNK A   0     -11.444  10.933  69.133  1.00  0.00    -0.303 A  
HETATM   32  H1  UNK A   0     -11.576   8.001  72.309  1.00  0.00     0.000 HD 
HETATM   33  H1  UNK A   0     -13.188  11.648  68.300  1.00  0.00     0.000 HD 
HETATM   34  N   UNK A   0     -12.171  11.717  68.264  1.00  0.00    -0.452 NA 
HETATM   35  N   UNK A   0     -12.122  10.156  69.975  1.00  0.00    -0.472 NA 
HETATM   36  N   UNK A   0      -9.271   8.459  71.553  1.00  0.00    -0.176 NA 
HETATM   37  H2  UNK A   0     -12.844   8.059  71.221  1.00  0.00     0.000 HD 
HETATM   38  H2  UNK A   0     -11.708  12.345  67.607  1.00  0.00     0.000 HD 
ENDBRANCH  22  23
ENDBRANCH   2  22
TORSDOF 7
ENDMDL
MODEL      294
REMARK 921   NORMALIZED FREE ENERGY PREDICTED BY IDOCK:   -2.53 KCAL/MOL
REMARK 922        TOTAL FREE ENERGY PREDICTED BY IDOCK:   -5.32 KCAL/MOL
REMARK 923 INTER-LIGAND FREE ENERGY PREDICTED BY IDOCK:   -5.08 KCAL/MOL
REMARK 924 INTRA-LIGAND FREE ENERGY PREDICTED BY IDOCK:   -0.24 KCAL/MOL
REMARK 927      BINDING AFFINITY PREDICTED BY RF-SCORE:    0.00 PKD
ROOT
HETATM    1  C   UNK A   0      -7.583  17.371  66.002  1.00  0.00    -0.210 C  
HETATM    2  N   UNK A   0      -7.611  16.533  67.197  1.00  0.00    -0.160 NA 
ENDROOT
BRANCH   2   3
HETATM    3  C   UNK A   0      -7.832  15.167  67.067  1.00  0.00    -0.162 A  
HETATM    4  C   UNK A   0      -8.507  12.416  67.101  1.00  0.00    -0.185 A  
HETATM    5  C   UNK A   0      -6.961  14.201  67.604  1.00  0.00    -0.200 A  
HETATM    6  C   UNK A   0      -8.995  14.691  66.442  1.00  0.00    -0.191 A  
HETATM    7  C   UNK A   0      -9.342  13.337  66.469  1.00  0.00    -0.221 A  
HETATM    8  C   UNK A   0      -7.282  12.837  67.611  1.00  0.00    -0.141 A  
BRANCH   4   9
HETATM    9  C   UNK A   0      -8.920  10.999  67.253  1.00  0.00    -0.138 C  
HETATM   10  O   UNK A   0      -8.806  10.207  66.330  1.00  0.00    -0.144 OA 
ATOM     11  N   GLU A   1      -9.389  10.648  68.513  1.00  0.00    -0.162 N  
ATOM     12  H   GLU A   1      -9.531  11.361  69.228  1.00  0.00     0.000 HD 
BRANCH  11  13
ATOM     13  CA  GLU A   1      -9.677   9.231  68.808  1.00  0.00    -0.157 C  
ATOM     14  OXT GLU A   1     -11.334   8.150  70.249  1.00  0.00    -0.236 OA 
ATOM     15  C   GLU A   1     -10.690   9.150  69.965  1.00  0.00    -0.232 C  
ATOM     16  O   GLU A   1     -10.677  10.251  70.758  1.00  0.00    -0.220 OA 
BRANCH  13  17
ATOM     17  CB  GLU A   1      -8.385   8.494  69.191  1.00  0.00    -0.120 C  
BRANCH  17  18
ATOM     18  CG  GLU A   1      -8.208   7.166  68.449  1.00  0.00    -0.125 C  
ATOM     19  OE2 GLU A   1      -7.920   6.089  70.601  1.00  0.00    -0.106 OA 
ATOM     20  OE1 GLU A   1      -7.857   4.833  68.724  1.00  0.00    -0.075 OA 
ATOM     21  CD  GLU A   1      -7.981   6.007  69.385  1.00  0.00    -0.103 C  
ENDBRANCH  17  18
ENDBRANCH  13  17
ENDBRANCH  11  13
ENDBRANCH   4   9
ENDBRANCH   2   3
BRANCH   2  22
HETATM   22  C   UNK A   0      -7.836  17.195  68.494  1.00  0.00    -0.257 C  
BRANCH  22  23
HETATM   23  C   UNK A   0      -9.170  16.867  69.137  1.00  0.00    -0.105 A  
HETATM   24  N   UNK A   0     -10.424  12.879  69.676  1.00  0.00    -0.023 NA 
HETATM   25  C   UNK A   0     -11.573  16.271  70.337  1.00  0.00    -0.174 A  
HETATM   26  C   UNK A   0     -10.001  17.835  69.672  1.00  0.00     0.326 A  
HETATM   27  N   UNK A   0     -12.763  16.012  70.871  1.00  0.00    -0.561 NA 
HETATM   28  C   UNK A   0     -11.217  13.991  70.003  1.00  0.00    -0.015 A  
HETATM   29  C   UNK A   0     -10.719  15.280  69.842  1.00  0.00    -0.285 A  
HETATM   30  N   UNK A   0     -11.189  17.552  70.266  1.00  0.00     0.698 NA 
HETATM   31  C   UNK A   0     -13.154  14.745  70.920  1.00  0.00    -0.363 A  
HETATM   32  H1  UNK A   0      -9.514  13.095  69.268  1.00  0.00     0.000 HD 
HETATM   33  H1  UNK A   0     -14.710  13.507  71.459  1.00  0.00     0.000 HD 
HETATM   34  N   UNK A   0     -14.409  14.481  71.422  1.00  0.00    -0.441 NA 
HETATM   35  N   UNK A   0     -12.413  13.707  70.539  1.00  0.00    -0.339 NA 
HETATM   36  N   UNK A   0      -9.521  15.564  69.236  1.00  0.00    -0.248 NA 
HETATM   37  H2  UNK A   0     -10.941  12.249  69.064  1.00  0.00     0.000 HD 
HETATM   38  H2  UNK A   0     -15.017  15.234  71.746  1.00  0.00     0.000 HD 
ENDBRANCH  22  23
ENDBRANCH   2  22
TORSDOF 7
ENDMDL
MODEL      295
REMARK 921   NORMALIZED FREE ENERGY PREDICTED BY IDOCK:   -2.49 KCAL/MOL
REMARK 922        TOTAL FREE ENERGY PREDICTED BY IDOCK:   -5.26 KCAL/MOL
REMARK 923 INTER-LIGAND FREE ENERGY PREDICTED BY IDOCK:   -4.82 KCAL/MOL
REMARK 924 INTRA-LIGAND FREE ENERGY PREDICTED BY IDOCK:   -0.44 KCAL/MOL
REMARK 927      BINDING AFFINITY PREDICTED BY RF-SCORE:    0.00 PKD
ROOT
HETATM    1  C   UNK A   0      -7.377  17.613  66.125  1.00  0.00    -0.309 C  
HETATM    2  N   UNK A   0      -7.312  16.738  67.292  1.00  0.00    -0.161 NA 
ENDROOT
BRANCH   2   3
HETATM    3  C   UNK A   0      -7.414  15.362  67.120  1.00  0.00    -0.189 A  
HETATM    4  C   UNK A   0      -7.844  12.563  67.070  1.00  0.00    -0.065 A  
HETATM    5  C   UNK A   0      -6.455  14.461  67.615  1.00  0.00    -0.151 A  
HETATM    6  C   UNK A   0      -8.539  14.806  66.491  1.00  0.00    -0.075 A  
HETATM    7  C   UNK A   0      -8.766  13.427  66.478  1.00  0.00     0.083 A  
HETATM    8  C   UNK A   0      -6.655  13.074  67.581  1.00  0.00    -0.160 A  
BRANCH   4   9
HETATM    9  C   UNK A   0      -8.130  11.111  67.180  1.00  0.00    -0.138 C  
HETATM   10  O   UNK A   0      -8.827  10.673  68.082  1.00  0.00    -0.127 OA 
ATOM     11  N   GLU A   1      -7.593  10.321  66.170  1.00  0.00    -0.118 N  
ATOM     12  H   GLU A   1      -6.960  10.726  65.480  1.00  0.00     0.000 HD 
BRANCH  11  13
ATOM     13  CA  GLU A   1      -7.950   8.891  66.106  1.00  0.00    -0.106 C  
ATOM     14  OXT GLU A   1      -6.593   6.855  66.016  1.00  0.00    -0.049 OA 
ATOM     15  C   GLU A   1      -6.677   8.063  65.844  1.00  0.00    -0.049 C  
ATOM     16  O   GLU A   1      -5.698   8.777  65.233  1.00  0.00    -0.046 OA 
BRANCH  13  17
ATOM     17  CB  GLU A   1      -8.972   8.647  64.986  1.00  0.00    -0.060 C  
BRANCH  17  18
ATOM     18  CG  GLU A   1      -8.676   9.452  63.717  1.00  0.00    -0.223 C  
ATOM     19  OE2 GLU A   1     -10.348  11.054  64.435  1.00  0.00    -0.317 OA 
ATOM     20  OE1 GLU A   1      -9.220  11.426  62.513  1.00  0.00    -0.335 OA 
ATOM     21  CD  GLU A   1      -9.509  10.705  63.620  1.00  0.00    -0.299 C  
ENDBRANCH  17  18
ENDBRANCH  13  17
ENDBRANCH  11  13
ENDBRANCH   4   9
ENDBRANCH   2   3
BRANCH   2  22
HETATM   22  C   UNK A   0      -7.574  17.335  68.613  1.00  0.00    -0.260 C  
BRANCH  22  23
HETATM   23  C   UNK A   0      -8.941  17.009  69.183  1.00  0.00    -0.050 A  
HETATM   24  N   UNK A   0     -10.395  13.054  69.271  1.00  0.00    -0.388 NA 
HETATM   25  C   UNK A   0     -11.405  16.412  70.252  1.00  0.00    -0.192 A  
HETATM   26  C   UNK A   0      -9.742  17.957  69.795  1.00  0.00     0.721 A  
HETATM   27  N   UNK A   0     -12.621  16.158  70.725  1.00  0.00    -0.478 NA 
HETATM   28  C   UNK A   0     -11.145  14.164  69.691  1.00  0.00    -0.141 A  
HETATM   29  C   UNK A   0     -10.583  15.436  69.679  1.00  0.00    -0.279 A  
HETATM   30  N   UNK A   0     -10.960  17.673  70.325  1.00  0.00     0.521 NA 
HETATM   31  C   UNK A   0     -13.072  14.914  70.632  1.00  0.00    -0.315 A  
HETATM   32  H1  UNK A   0      -9.463  13.265  68.911  1.00  0.00     0.000 HD 
HETATM   33  H1  UNK A   0     -14.700  13.705  70.998  1.00  0.00     0.000 HD 
HETATM   34  N   UNK A   0     -14.354  14.661  71.071  1.00  0.00    -0.478 NA 
HETATM   35  N   UNK A   0     -12.368  13.886  70.163  1.00  0.00    -0.342 NA 
HETATM   36  N   UNK A   0      -9.355  15.722  69.137  1.00  0.00    -0.241 NA 
HETATM   37  H2  UNK A   0     -10.921  12.516  68.583  1.00  0.00     0.000 HD 
HETATM   38  H2  UNK A   0     -14.936  15.406  71.455  1.00  0.00     0.000 HD 
ENDBRANCH  22  23
ENDBRANCH   2  22
TORSDOF 7
ENDMDL
MODEL      296
REMARK 921   NORMALIZED FREE ENERGY PREDICTED BY IDOCK:   -2.42 KCAL/MOL
REMARK 922        TOTAL FREE ENERGY PREDICTED BY IDOCK:   -5.16 KCAL/MOL
REMARK 923 INTER-LIGAND FREE ENERGY PREDICTED BY IDOCK:   -4.62 KCAL/MOL
REMARK 924 INTRA-LIGAND FREE ENERGY PREDICTED BY IDOCK:   -0.55 KCAL/MOL
REMARK 927      BINDING AFFINITY PREDICTED BY RF-SCORE:    0.00 PKD
ROOT
HETATM    1  C   UNK A   0     -14.407  14.081  70.832  1.00  0.00     0.898 C  
HETATM    2  N   UNK A   0     -13.051  13.620  71.114  1.00  0.00    -0.275 NA 
ENDROOT
BRANCH   2   3
HETATM    3  C   UNK A   0     -11.968  14.367  70.666  1.00  0.00    -0.323 A  
HETATM    4  C   UNK A   0      -9.589  15.564  69.699  1.00  0.00    -0.264 A  
HETATM    5  C   UNK A   0     -11.020  14.931  71.539  1.00  0.00     0.198 A  
HETATM    6  C   UNK A   0     -11.738  14.532  69.291  1.00  0.00    -0.350 A  
HETATM    7  C   UNK A   0     -10.559  15.106  68.807  1.00  0.00    -0.236 A  
HETATM    8  C   UNK A   0      -9.848  15.537  71.067  1.00  0.00     1.389 A  
BRANCH   4   9
HETATM    9  C   UNK A   0      -8.279  16.056  69.207  1.00  0.00    -0.212 C  
HETATM   10  O   UNK A   0      -7.293  15.334  69.209  1.00  0.00    -0.158 OA 
ATOM     11  N   GLU A   1      -8.280  17.355  68.711  1.00  0.00    -0.257 N  
ATOM     12  H   GLU A   1      -9.111  17.939  68.798  1.00  0.00     0.000 HD 
BRANCH  11  13
ATOM     13  CA  GLU A   1      -7.065  17.879  68.059  1.00  0.00    -0.215 C  
ATOM     14  OXT GLU A   1      -5.824  19.973  68.321  1.00  0.00    -0.222 OA 
ATOM     15  C   GLU A   1      -6.868  19.352  68.463  1.00  0.00    -0.291 C  
ATOM     16  O   GLU A   1      -8.024  19.957  68.836  1.00  0.00    -0.226 OA 
BRANCH  13  17
ATOM     17  CB  GLU A   1      -7.192  17.768  66.532  1.00  0.00    -0.278 C  
BRANCH  17  18
ATOM     18  CG  GLU A   1      -8.344  16.861  66.089  1.00  0.00    -0.286 C  
ATOM     19  OE2 GLU A   1      -9.646  18.859  65.652  1.00  0.00    -0.331 OA 
ATOM     20  OE1 GLU A   1     -10.559  16.836  65.231  1.00  0.00    -0.621 OA 
ATOM     21  CD  GLU A   1      -9.557  17.642  65.649  1.00  0.00     0.373 C  
ENDBRANCH  17  18
ENDBRANCH  13  17
ENDBRANCH  11  13
ENDBRANCH   4   9
ENDBRANCH   2   3
BRANCH   2  22
HETATM   22  C   UNK A   0     -12.868  12.200  71.466  1.00  0.00    -0.289 C  
BRANCH  22  23
HETATM   23  C   UNK A   0     -12.115  11.392  70.428  1.00  0.00    -0.384 A  
HETATM   24  N   UNK A   0      -9.155   8.606  71.543  1.00  0.00    -0.217 NA 
HETATM   25  C   UNK A   0     -10.773   9.897  68.548  1.00  0.00    -0.226 A  
HETATM   26  C   UNK A   0     -12.416  11.440  69.079  1.00  0.00     0.260 A  
HETATM   27  N   UNK A   0     -10.102   9.227  67.616  1.00  0.00    -0.200 NA 
HETATM   28  C   UNK A   0      -9.469   8.909  70.209  1.00  0.00    -0.187 A  
HETATM   29  C   UNK A   0     -10.492   9.805  69.914  1.00  0.00    -0.261 A  
HETATM   30  N   UNK A   0     -11.760  10.707  68.142  1.00  0.00    -0.747 NA 
HETATM   31  C   UNK A   0      -9.109   8.444  68.014  1.00  0.00    -0.137 A  
HETATM   32  H1  UNK A   0      -9.679   9.128  72.246  1.00  0.00     0.000 HD 
HETATM   33  H1  UNK A   0      -7.614   7.190  67.352  1.00  0.00     0.000 HD 
HETATM   34  N   UNK A   0      -8.378   7.792  67.045  1.00  0.00    -0.116 NA 
HETATM   35  N   UNK A   0      -8.780   8.223  69.286  1.00  0.00    -0.138 NA 
HETATM   36  N   UNK A   0     -11.149  10.549  70.862  1.00  0.00    -0.291 NA 
HETATM   37  H2  UNK A   0      -8.153   8.716  71.701  1.00  0.00     0.000 HD 
HETATM   38  H2  UNK A   0      -8.593   7.909  66.055  1.00  0.00     0.000 HD 
ENDBRANCH  22  23
ENDBRANCH   2  22
TORSDOF 7
ENDMDL
MODEL      297
REMARK 921   NORMALIZED FREE ENERGY PREDICTED BY IDOCK:   -2.30 KCAL/MOL
REMARK 922        TOTAL FREE ENERGY PREDICTED BY IDOCK:   -4.99 KCAL/MOL
REMARK 923 INTER-LIGAND FREE ENERGY PREDICTED BY IDOCK:   -5.28 KCAL/MOL
REMARK 924 INTRA-LIGAND FREE ENERGY PREDICTED BY IDOCK:    0.29 KCAL/MOL
REMARK 927      BINDING AFFINITY PREDICTED BY RF-SCORE:    0.00 PKD
ROOT
HETATM    1  C   UNK A   0      -5.898   7.821  68.126  1.00  0.00    -0.040 C  
HETATM    2  N   UNK A   0      -6.424   8.643  69.212  1.00  0.00    -0.042 NA 
ENDROOT
BRANCH   2   3
HETATM    3  C   UNK A   0      -6.958   9.894  68.924  1.00  0.00    -0.062 A  
HETATM    4  C   UNK A   0      -7.875  12.412  68.005  1.00  0.00    -0.141 A  
HETATM    5  C   UNK A   0      -6.345  11.093  69.329  1.00  0.00    -0.076 A  
HETATM    6  C   UNK A   0      -8.117  10.010  68.140  1.00  0.00    -0.108 A  
HETATM    7  C   UNK A   0      -8.565  11.247  67.670  1.00  0.00    -0.124 A  
HETATM    8  C   UNK A   0      -6.802  12.343  68.890  1.00  0.00    -0.099 A  
BRANCH   4   9
HETATM    9  C   UNK A   0      -8.258  13.716  67.412  1.00  0.00    -0.179 C  
HETATM   10  O   UNK A   0      -7.422  14.582  67.200  1.00  0.00    -0.153 OA 
ATOM     11  N   GLU A   1      -9.601  13.848  67.081  1.00  0.00    -0.239 N  
ATOM     12  H   GLU A   1     -10.270  13.124  67.343  1.00  0.00     0.000 HD 
BRANCH  11  13
ATOM     13  CA  GLU A   1     -10.050  15.046  66.345  1.00  0.00    -0.276 C  
ATOM     14  OXT GLU A   1     -11.524  15.339  64.414  1.00  0.00    -0.331 OA 
ATOM     15  C   GLU A   1     -10.799  14.608  65.073  1.00  0.00    -0.417 C  
ATOM     16  O   GLU A   1     -10.442  13.370  64.648  1.00  0.00    -0.385 OA 
BRANCH  13  17
ATOM     17  CB  GLU A   1      -8.844  15.921  65.968  1.00  0.00    -0.298 C  
BRANCH  17  18
ATOM     18  CG  GLU A   1      -9.196  17.406  65.840  1.00  0.00     0.021 C  
ATOM     19  OE2 GLU A   1      -8.127  17.765  67.986  1.00  0.00    -0.229 OA 
ATOM     20  OE1 GLU A   1      -9.003  19.531  66.882  1.00  0.00    -0.299 OA 
ATOM     21  CD  GLU A   1      -8.716  18.216  67.017  1.00  0.00    -0.258 C  
ENDBRANCH  17  18
ENDBRANCH  13  17
ENDBRANCH  11  13
ENDBRANCH   4   9
ENDBRANCH   2   3
BRANCH   2  22
HETATM   22  C   UNK A   0      -5.990   8.327  70.584  1.00  0.00    -0.032 C  
BRANCH  22  23
HETATM   23  C   UNK A   0      -7.068   7.703  71.450  1.00  0.00    -0.058 A  
HETATM   24  N   UNK A   0      -9.215   4.308  70.172  1.00  0.00    -0.119 NA 
HETATM   25  C   UNK A   0      -8.996   6.547  73.035  1.00  0.00    -0.128 A  
HETATM   26  C   UNK A   0      -7.340   8.137  72.735  1.00  0.00    -0.119 A  
HETATM   27  N   UNK A   0      -9.961   6.041  73.798  1.00  0.00    -0.190 NA 
HETATM   28  C   UNK A   0      -9.479   4.984  71.374  1.00  0.00    -0.154 A  
HETATM   29  C   UNK A   0      -8.698   6.070  71.755  1.00  0.00    -0.138 A  
HETATM   30  N   UNK A   0      -8.290   7.573  73.526  1.00  0.00    -0.136 NA 
HETATM   31  C   UNK A   0     -10.677   5.041  73.304  1.00  0.00    -0.258 A  
HETATM   32  H1  UNK A   0      -8.472   4.709  69.598  1.00  0.00     0.000 HD 
HETATM   33  H1  UNK A   0     -12.263   3.783  73.690  1.00  0.00     0.000 HD 
HETATM   34  N   UNK A   0     -11.712   4.552  74.071  1.00  0.00     0.016 NA 
HETATM   35  N   UNK A   0     -10.455   4.458  72.127  1.00  0.00    -0.139 NA 
HETATM   36  N   UNK A   0      -7.743   6.640  70.952  1.00  0.00    -0.092 NA 
HETATM   37  H2  UNK A   0     -10.071   4.221  69.624  1.00  0.00     0.000 HD 
HETATM   38  H2  UNK A   0     -11.920   4.947  74.988  1.00  0.00     0.000 HD 
ENDBRANCH  22  23
ENDBRANCH   2  22
TORSDOF 7
ENDMDL
MODEL      298
REMARK 921   NORMALIZED FREE ENERGY PREDICTED BY IDOCK:   -2.20 KCAL/MOL
REMARK 922        TOTAL FREE ENERGY PREDICTED BY IDOCK:   -4.85 KCAL/MOL
REMARK 923 INTER-LIGAND FREE ENERGY PREDICTED BY IDOCK:   -7.21 KCAL/MOL
REMARK 924 INTRA-LIGAND FREE ENERGY PREDICTED BY IDOCK:    2.35 KCAL/MOL
REMARK 927      BINDING AFFINITY PREDICTED BY RF-SCORE:    0.00 PKD
ROOT
HETATM    1  C   UNK A   0     -10.698   8.337  72.398  1.00  0.00    -0.341 C  
HETATM    2  N   UNK A   0      -9.575   8.318  71.466  1.00  0.00    -0.173 NA 
ENDROOT
BRANCH   2   3
HETATM    3  C   UNK A   0      -9.618   9.115  70.328  1.00  0.00    -0.213 A  
HETATM    4  C   UNK A   0      -9.674  10.419  67.814  1.00  0.00    -0.181 A  
HETATM    5  C   UNK A   0      -8.482   9.761  69.809  1.00  0.00    -0.206 A  
HETATM    6  C   UNK A   0     -10.810   9.248  69.599  1.00  0.00    -0.228 A  
HETATM    7  C   UNK A   0     -10.841   9.876  68.350  1.00  0.00    -0.263 A  
HETATM    8  C   UNK A   0      -8.506  10.421  68.572  1.00  0.00    -0.129 A  
BRANCH   4   9
HETATM    9  C   UNK A   0      -9.659  10.973  66.438  1.00  0.00    -0.198 C  
HETATM   10  O   UNK A   0      -9.534  12.173  66.243  1.00  0.00    -0.228 OA 
ATOM     11  N   GLU A   1      -9.746  10.034  65.417  1.00  0.00    -0.282 N  
ATOM     12  H   GLU A   1      -9.920   9.053  65.633  1.00  0.00     0.000 HD 
BRANCH  11  13
ATOM     13  CA  GLU A   1      -9.584  10.472  64.017  1.00  0.00    -0.311 C  
ATOM     14  OXT GLU A   1      -7.789  10.147  62.385  1.00  0.00    -0.123 OA 
ATOM     15  C   GLU A   1      -8.147  10.166  63.554  1.00  0.00    -0.162 C  
ATOM     16  O   GLU A   1      -7.265  10.087  64.582  1.00  0.00    -0.133 OA 
BRANCH  13  17
ATOM     17  CB  GLU A   1      -9.864  11.977  63.895  1.00  0.00    -0.266 C  
BRANCH  17  18
ATOM     18  CG  GLU A   1     -11.284  12.361  64.324  1.00  0.00    -0.408 C  
ATOM     19  OE2 GLU A   1     -10.417  14.528  64.979  1.00  0.00    -0.392 OA 
ATOM     20  OE1 GLU A   1     -12.625  14.107  65.212  1.00  0.00    -0.488 OA 
ATOM     21  CD  GLU A   1     -11.363  13.766  64.865  1.00  0.00    -0.347 C  
ENDBRANCH  17  18
ENDBRANCH  13  17
ENDBRANCH  11  13
ENDBRANCH   4   9
ENDBRANCH   2   3
BRANCH   2  22
HETATM   22  C   UNK A   0      -8.654   7.168  71.524  1.00  0.00    -0.115 C  
BRANCH  22  23
HETATM   23  C   UNK A   0      -8.913   6.109  70.470  1.00  0.00    -0.146 A  
HETATM   24  N   UNK A   0      -7.662   6.636  66.480  1.00  0.00    -0.100 NA 
HETATM   25  C   UNK A   0      -9.348   4.172  68.565  1.00  0.00    -0.156 A  
HETATM   26  C   UNK A   0      -9.474   4.880  70.766  1.00  0.00    -0.169 A  
HETATM   27  N   UNK A   0      -9.619   3.244  67.653  1.00  0.00    -0.274 NA 
HETATM   28  C   UNK A   0      -8.399   5.525  66.920  1.00  0.00    -0.108 A  
HETATM   29  C   UNK A   0      -8.737   5.393  68.263  1.00  0.00    -0.101 A  
HETATM   30  N   UNK A   0      -9.693   3.917  69.833  1.00  0.00    -0.198 NA 
HETATM   31  C   UNK A   0      -9.299   3.506  66.392  1.00  0.00    -0.171 A  
HETATM   32  H1  UNK A   0      -7.463   7.339  67.192  1.00  0.00     0.000 HD 
HETATM   33  H1  UNK A   0      -9.383   2.771  64.469  1.00  0.00     0.000 HD 
HETATM   34  N   UNK A   0      -9.629   2.569  65.438  1.00  0.00    -0.360 NA 
HETATM   35  N   UNK A   0      -8.662   4.602  65.984  1.00  0.00    -0.115 NA 
HETATM   36  N   UNK A   0      -8.519   6.370  69.202  1.00  0.00    -0.121 NA 
HETATM   37  H2  UNK A   0      -8.126   7.070  65.682  1.00  0.00     0.000 HD 
HETATM   38  H2  UNK A   0     -10.103   1.702  65.693  1.00  0.00     0.000 HD 
ENDBRANCH  22  23
ENDBRANCH   2  22
TORSDOF 7
ENDMDL
MODEL      299
REMARK 921   NORMALIZED FREE ENERGY PREDICTED BY IDOCK:   -1.92 KCAL/MOL
REMARK 922        TOTAL FREE ENERGY PREDICTED BY IDOCK:   -4.46 KCAL/MOL
REMARK 923 INTER-LIGAND FREE ENERGY PREDICTED BY IDOCK:   -5.20 KCAL/MOL
REMARK 924 INTRA-LIGAND FREE ENERGY PREDICTED BY IDOCK:    0.74 KCAL/MOL
REMARK 927      BINDING AFFINITY PREDICTED BY RF-SCORE:    0.00 PKD
ROOT
HETATM    1  C   UNK A   0     -14.402  14.490  70.721  1.00  0.00     0.595 C  
HETATM    2  N   UNK A   0     -13.023  14.205  71.106  1.00  0.00    -0.344 NA 
ENDROOT
BRANCH   2   3
HETATM    3  C   UNK A   0     -11.990  14.944  70.541  1.00  0.00    -0.309 A  
HETATM    4  C   UNK A   0      -9.796  16.137  69.203  1.00  0.00    -0.250 A  
HETATM    5  C   UNK A   0     -10.753  15.134  71.181  1.00  0.00     0.063 A  
HETATM    6  C   UNK A   0     -12.123  15.481  69.250  1.00  0.00    -0.284 A  
HETATM    7  C   UNK A   0     -11.041  16.056  68.579  1.00  0.00    -0.347 A  
HETATM    8  C   UNK A   0      -9.667  15.737  70.530  1.00  0.00     0.822 A  
BRANCH   4   9
HETATM    9  C   UNK A   0      -8.607  16.624  68.462  1.00  0.00    -0.234 C  
HETATM   10  O   UNK A   0      -7.698  15.866  68.160  1.00  0.00    -0.128 OA 
ATOM     11  N   GLU A   1      -8.637  17.968  68.107  1.00  0.00    -0.266 N  
ATOM     12  H   GLU A   1      -9.384  18.574  68.444  1.00  0.00     0.000 HD 
BRANCH  11  13
ATOM     13  CA  GLU A   1      -7.575  18.508  67.236  1.00  0.00    -0.222 C  
ATOM     14  OXT GLU A   1      -5.135  18.333  67.308  1.00  0.00    -0.129 OA 
ATOM     15  C   GLU A   1      -6.205  18.261  67.895  1.00  0.00    -0.175 C  
ATOM     16  O   GLU A   1      -6.283  18.123  69.243  1.00  0.00    -0.235 OA 
BRANCH  13  17
ATOM     17  CB  GLU A   1      -7.785  20.013  67.013  1.00  0.00    -0.329 C  
BRANCH  17  18
ATOM     18  CG  GLU A   1      -7.563  20.442  65.559  1.00  0.00     0.019 C  
ATOM     19  OE2 GLU A   1      -5.249  20.892  66.126  1.00  0.00    -0.176 OA 
ATOM     20  OE1 GLU A   1      -5.946  21.212  64.000  1.00  0.00    -0.278 OA 
ATOM     21  CD  GLU A   1      -6.141  20.865  65.293  1.00  0.00    -0.243 C  
ENDBRANCH  17  18
ENDBRANCH  13  17
ENDBRANCH  11  13
ENDBRANCH   4   9
ENDBRANCH   2   3
BRANCH   2  22
HETATM   22  C   UNK A   0     -12.739  12.898  71.724  1.00  0.00    -0.144 C  
BRANCH  22  23
HETATM   23  C   UNK A   0     -12.274  11.835  70.747  1.00  0.00    -0.326 A  
HETATM   24  N   UNK A   0     -10.076   8.480  72.041  1.00  0.00    -0.287 NA 
HETATM   25  C   UNK A   0     -11.463   9.887  68.983  1.00  0.00     0.058 A  
HETATM   26  C   UNK A   0     -12.623  11.844  69.409  1.00  0.00     0.407 A  
HETATM   27  N   UNK A   0     -11.036   8.988  68.100  1.00  0.00    -0.470 NA 
HETATM   28  C   UNK A   0     -10.371   8.739  70.694  1.00  0.00    -0.209 A  
HETATM   29  C   UNK A   0     -11.143   9.842  70.343  1.00  0.00    -0.307 A  
HETATM   30  N   UNK A   0     -12.227  10.888  68.529  1.00  0.00    -0.809 NA 
HETATM   31  C   UNK A   0     -10.258   8.009  68.544  1.00  0.00    -0.207 A  
HETATM   32  H1  UNK A   0     -10.410   9.179  72.705  1.00  0.00     0.000 HD 
HETATM   33  H1  UNK A   0      -9.172   6.357  67.964  1.00  0.00     0.000 HD 
HETATM   34  N   UNK A   0      -9.770   7.109  67.623  1.00  0.00    -0.139 NA 
HETATM   35  N   UNK A   0      -9.931   7.821  69.821  1.00  0.00    -0.186 NA 
HETATM   36  N   UNK A   0     -11.536  10.809  71.233  1.00  0.00    -0.127 NA 
HETATM   37  H2  UNK A   0      -9.073   8.338  72.159  1.00  0.00     0.000 HD 
HETATM   38  H2  UNK A   0     -10.000   7.192  66.632  1.00  0.00     0.000 HD 
ENDBRANCH  22  23
ENDBRANCH   2  22
TORSDOF 7
ENDMDL
MODEL      300
REMARK 921   NORMALIZED FREE ENERGY PREDICTED BY IDOCK:   -1.68 KCAL/MOL
REMARK 922        TOTAL FREE ENERGY PREDICTED BY IDOCK:   -4.11 KCAL/MOL
REMARK 923 INTER-LIGAND FREE ENERGY PREDICTED BY IDOCK:   -6.20 KCAL/MOL
REMARK 924 INTRA-LIGAND FREE ENERGY PREDICTED BY IDOCK:    2.09 KCAL/MOL
REMARK 927      BINDING AFFINITY PREDICTED BY RF-SCORE:    0.00 PKD
ROOT
HETATM    1  C   UNK A   0     -13.035  15.540  64.018  1.00  0.00     1.278 C  
HETATM    2  N   UNK A   0     -12.261  14.780  64.995  1.00  0.00    -0.304 NA 
ENDROOT
BRANCH   2   3
HETATM    3  C   UNK A   0     -11.042  15.280  65.439  1.00  0.00    -0.347 A  
HETATM    4  C   UNK A   0      -8.665  16.185  66.685  1.00  0.00    -0.300 A  
HETATM    5  C   UNK A   0     -10.845  16.637  65.750  1.00  0.00    -0.107 A  
HETATM    6  C   UNK A   0      -9.960  14.416  65.665  1.00  0.00    -0.365 A  
HETATM    7  C   UNK A   0      -8.790  14.852  66.294  1.00  0.00    -0.108 A  
HETATM    8  C   UNK A   0      -9.666  17.094  66.353  1.00  0.00    -0.307 A  
BRANCH   4   9
HETATM    9  C   UNK A   0      -7.489  16.637  67.467  1.00  0.00    -0.153 C  
HETATM   10  O   UNK A   0      -6.359  16.278  67.171  1.00  0.00    -0.173 OA 
ATOM     11  N   GLU A   1      -7.767  17.519  68.505  1.00  0.00    -0.263 N  
ATOM     12  H   GLU A   1      -8.733  17.732  68.755  1.00  0.00     0.000 HD 
BRANCH  11  13
ATOM     13  CA  GLU A   1      -6.651  18.144  69.240  1.00  0.00    -0.234 C  
ATOM     14  OXT GLU A   1      -6.451  20.271  70.436  1.00  0.00    -0.391 OA 
ATOM     15  C   GLU A   1      -7.031  19.594  69.599  1.00  0.00    -0.224 C  
ATOM     16  O   GLU A   1      -7.969  20.116  68.770  1.00  0.00    -0.071 OA 
BRANCH  13  17
ATOM     17  CB  GLU A   1      -5.377  18.134  68.383  1.00  0.00    -0.163 C  
BRANCH  17  18
ATOM     18  CG  GLU A   1      -5.132  19.459  67.654  1.00  0.00    -0.172 C  
ATOM     19  OE2 GLU A   1      -5.795  18.360  65.597  1.00  0.00    -0.175 OA 
ATOM     20  OE1 GLU A   1      -5.235  20.549  65.547  1.00  0.00    -0.166 OA 
ATOM     21  CD  GLU A   1      -5.424  19.367  66.177  1.00  0.00    -0.158 C  
ENDBRANCH  17  18
ENDBRANCH  13  17
ENDBRANCH  11  13
ENDBRANCH   4   9
ENDBRANCH   2   3
BRANCH   2  22
HETATM   22  C   UNK A   0     -12.567  13.347  65.147  1.00  0.00    -0.440 C  
BRANCH  22  23
HETATM   23  C   UNK A   0     -12.103  12.746  66.460  1.00  0.00    -0.268 A  
HETATM   24  N   UNK A   0      -9.572   9.377  66.554  1.00  0.00    -0.190 NA 
HETATM   25  C   UNK A   0     -11.228  11.679  68.839  1.00  0.00    -0.246 A  
HETATM   26  C   UNK A   0     -12.390  13.316  67.687  1.00  0.00     0.052 A  
HETATM   27  N   UNK A   0     -10.863  11.150  70.004  1.00  0.00    -0.456 NA 
HETATM   28  C   UNK A   0     -10.101   9.980  67.706  1.00  0.00    -0.183 A  
HETATM   29  C   UNK A   0     -10.891  11.120  67.602  1.00  0.00    -0.247 A  
HETATM   30  N   UNK A   0     -11.963  12.797  68.868  1.00  0.00    -0.286 NA 
HETATM   31  C   UNK A   0     -10.155  10.029  69.978  1.00  0.00    -0.239 A  
HETATM   32  H1  UNK A   0      -9.860   9.794  65.669  1.00  0.00     0.000 HD 
HETATM   33  H1  UNK A   0      -9.280   8.588  71.163  1.00  0.00     0.000 HD 
HETATM   34  N   UNK A   0      -9.825   9.450  71.184  1.00  0.00    -0.263 NA 
HETATM   35  N   UNK A   0      -9.722   9.431  68.869  1.00  0.00    -0.160 NA 
HETATM   36  N   UNK A   0     -11.326  11.639  66.409  1.00  0.00    -0.369 NA 
HETATM   37  H2  UNK A   0      -9.781   8.379  66.555  1.00  0.00     0.000 HD 
HETATM   38  H2  UNK A   0     -10.115   9.870  72.067  1.00  0.00     0.000 HD 
ENDBRANCH  22  23
ENDBRANCH   2  22
TORSDOF 7
ENDMDL
MODEL      301
REMARK 921   NORMALIZED FREE ENERGY PREDICTED BY IDOCK:   -1.57 KCAL/MOL
REMARK 922        TOTAL FREE ENERGY PREDICTED BY IDOCK:   -3.96 KCAL/MOL
REMARK 923 INTER-LIGAND FREE ENERGY PREDICTED BY IDOCK:   -4.47 KCAL/MOL
REMARK 924 INTRA-LIGAND FREE ENERGY PREDICTED BY IDOCK:    0.50 KCAL/MOL
REMARK 927      BINDING AFFINITY PREDICTED BY RF-SCORE:    0.00 PKD
ROOT
HETATM    1  C   UNK A   0      -9.286   8.637  72.561  1.00  0.00    -0.160 C  
HETATM    2  N   UNK A   0      -8.676   9.181  71.352  1.00  0.00    -0.332 NA 
ENDROOT
BRANCH   2   3
HETATM    3  C   UNK A   0      -9.490   9.615  70.311  1.00  0.00    -0.248 A  
HETATM    4  C   UNK A   0     -10.831  10.582  68.011  1.00  0.00    -0.312 A  
HETATM    5  C   UNK A   0     -10.064  10.898  70.279  1.00  0.00     0.916 A  
HETATM    6  C   UNK A   0      -9.715   8.792  69.196  1.00  0.00    -0.175 A  
HETATM    7  C   UNK A   0     -10.362   9.269  68.052  1.00  0.00    -0.270 A  
HETATM    8  C   UNK A   0     -10.741  11.378  69.150  1.00  0.00    -0.229 A  
BRANCH   4   9
HETATM    9  C   UNK A   0     -11.401  11.143  66.763  1.00  0.00    -0.042 C  
HETATM   10  O   UNK A   0     -11.728  10.417  65.836  1.00  0.00     1.026 OA 
ATOM     11  N   GLU A   1     -11.575  12.522  66.755  1.00  0.00    -0.364 N  
ATOM     12  H   GLU A   1     -11.222  13.090  67.525  1.00  0.00     0.000 HD 
BRANCH  11  13
ATOM     13  CA  GLU A   1     -12.278  13.156  65.623  1.00  0.00    -0.466 C  
ATOM     14  OXT GLU A   1     -11.891  13.106  63.206  1.00  0.00    -0.504 OA 
ATOM     15  C   GLU A   1     -11.453  12.952  64.338  1.00  0.00    -0.357 C  
ATOM     16  O   GLU A   1     -10.133  12.751  64.582  1.00  0.00    -0.293 OA 
BRANCH  13  17
ATOM     17  CB  GLU A   1     -12.470  14.657  65.889  1.00  0.00    -0.077 C  
BRANCH  17  18
ATOM     18  CG  GLU A   1     -11.295  15.508  65.399  1.00  0.00    -0.141 C  
ATOM     19  OE2 GLU A   1     -11.048  16.333  67.666  1.00  0.00    -0.287 OA 
ATOM     20  OE1 GLU A   1      -9.614  17.046  66.071  1.00  0.00    -0.428 OA 
ATOM     21  CD  GLU A   1     -10.670  16.320  66.505  1.00  0.00    -0.187 C  
ENDBRANCH  17  18
ENDBRANCH  13  17
ENDBRANCH  11  13
ENDBRANCH   4   9
ENDBRANCH   2   3
BRANCH   2  22
HETATM   22  C   UNK A   0      -7.261   8.860  71.094  1.00  0.00    -0.102 C  
BRANCH  22  23
HETATM   23  C   UNK A   0      -6.836   9.032  69.648  1.00  0.00    -0.050 A  
HETATM   24  N   UNK A   0      -5.724  12.800  68.122  1.00  0.00    -0.074 NA 
HETATM   25  C   UNK A   0      -6.030   9.338  67.036  1.00  0.00    -0.056 A  
HETATM   26  C   UNK A   0      -6.690   7.965  68.780  1.00  0.00    -0.057 A  
HETATM   27  N   UNK A   0      -5.696   9.467  65.755  1.00  0.00    -0.052 NA 
HETATM   28  C   UNK A   0      -5.800  11.639  67.337  1.00  0.00    -0.092 A  
HETATM   29  C   UNK A   0      -6.128  10.418  67.918  1.00  0.00    -0.048 A  
HETATM   30  N   UNK A   0      -6.293   8.105  67.488  1.00  0.00    -0.055 NA 
HETATM   31  C   UNK A   0      -5.459  10.690  65.300  1.00  0.00    -0.144 A  
HETATM   32  H1  UNK A   0      -5.982  12.684  69.102  1.00  0.00     0.000 HD 
HETATM   33  H1  UNK A   0      -4.984  11.772  63.612  1.00  0.00     0.000 HD 
HETATM   34  N   UNK A   0      -5.167  10.832  63.961  1.00  0.00    -0.289 NA 
HETATM   35  N   UNK A   0      -5.460  11.791  66.049  1.00  0.00    -0.474 NA 
HETATM   36  N   UNK A   0      -6.535  10.280  69.221  1.00  0.00    -0.046 NA 
HETATM   37  H2  UNK A   0      -6.278  13.545  67.700  1.00  0.00     0.000 HD 
HETATM   38  H2  UNK A   0      -5.135  10.022  63.341  1.00  0.00     0.000 HD 
ENDBRANCH  22  23
ENDBRANCH   2  22
TORSDOF 7
ENDMDL
MODEL      302
REMARK 921   NORMALIZED FREE ENERGY PREDICTED BY IDOCK:   -1.48 KCAL/MOL
REMARK 922        TOTAL FREE ENERGY PREDICTED BY IDOCK:   -3.83 KCAL/MOL
REMARK 923 INTER-LIGAND FREE ENERGY PREDICTED BY IDOCK:   -4.47 KCAL/MOL
REMARK 924 INTRA-LIGAND FREE ENERGY PREDICTED BY IDOCK:    0.63 KCAL/MOL
REMARK 927      BINDING AFFINITY PREDICTED BY RF-SCORE:    0.00 PKD
ROOT
HETATM    1  C   UNK A   0      -9.290   8.607  72.540  1.00  0.00    -0.160 C  
HETATM    2  N   UNK A   0      -8.651   9.105  71.325  1.00  0.00    -0.320 NA 
ENDROOT
BRANCH   2   3
HETATM    3  C   UNK A   0      -9.440   9.527  70.262  1.00  0.00    -0.259 A  
HETATM    4  C   UNK A   0     -10.727  10.456  67.916  1.00  0.00    -0.307 A  
HETATM    5  C   UNK A   0      -9.980  10.823  70.183  1.00  0.00     0.599 A  
HETATM    6  C   UNK A   0      -9.673   8.677  69.169  1.00  0.00    -0.173 A  
HETATM    7  C   UNK A   0     -10.293   9.134  68.003  1.00  0.00    -0.272 A  
HETATM    8  C   UNK A   0     -10.631  11.285  69.031  1.00  0.00    -0.241 A  
BRANCH   4   9
HETATM    9  C   UNK A   0     -11.268  10.994  66.644  1.00  0.00    -0.050 C  
HETATM   10  O   UNK A   0     -11.605  10.248  65.737  1.00  0.00     1.064 OA 
ATOM     11  N   GLU A   1     -11.403  12.376  66.591  1.00  0.00    -0.319 N  
ATOM     12  H   GLU A   1     -11.042  12.958  67.346  1.00  0.00     0.000 HD 
BRANCH  11  13
ATOM     13  CA  GLU A   1     -12.074  12.993  65.431  1.00  0.00    -0.444 C  
ATOM     14  OXT GLU A   1     -11.678  12.835  63.020  1.00  0.00    -0.363 OA 
ATOM     15  C   GLU A   1     -11.252  12.708  64.160  1.00  0.00    -0.386 C  
ATOM     16  O   GLU A   1      -9.943  12.464  64.419  1.00  0.00    -0.269 OA 
BRANCH  13  17
ATOM     17  CB  GLU A   1     -12.208  14.509  65.638  1.00  0.00    -0.279 C  
BRANCH  17  18
ATOM     18  CG  GLU A   1     -10.969  15.288  65.189  1.00  0.00    -0.428 C  
ATOM     19  OE2 GLU A   1     -10.799  16.166  67.443  1.00  0.00    -0.322 OA 
ATOM     20  OE1 GLU A   1      -9.251  16.762  65.909  1.00  0.00    -0.486 OA 
ATOM     21  CD  GLU A   1     -10.362  16.101  66.305  1.00  0.00    -0.328 C  
ENDBRANCH  17  18
ENDBRANCH  13  17
ENDBRANCH  11  13
ENDBRANCH   4   9
ENDBRANCH   2   3
BRANCH   2  22
HETATM   22  C   UNK A   0      -7.239   8.748  71.097  1.00  0.00    -0.093 C  
BRANCH  22  23
HETATM   23  C   UNK A   0      -7.031   7.348  70.552  1.00  0.00    -0.053 A  
HETATM   24  N   UNK A   0      -7.324   6.538  66.426  1.00  0.00    -0.073 NA 
HETATM   25  C   UNK A   0      -6.616   4.818  69.557  1.00  0.00    -0.036 A  
HETATM   26  C   UNK A   0      -6.637   6.286  71.346  1.00  0.00    -0.054 A  
HETATM   27  N   UNK A   0      -6.464   3.575  69.108  1.00  0.00    -0.033 NA 
HETATM   28  C   UNK A   0      -7.102   5.547  67.396  1.00  0.00    -0.074 A  
HETATM   29  C   UNK A   0      -6.968   5.894  68.736  1.00  0.00    -0.072 A  
HETATM   30  N   UNK A   0      -6.430   5.033  70.865  1.00  0.00    -0.026 NA 
HETATM   31  C   UNK A   0      -6.672   3.355  67.817  1.00  0.00    -0.042 A  
HETATM   32  H1  UNK A   0      -7.438   7.485  66.786  1.00  0.00     0.000 HD 
HETATM   33  H1  UNK A   0      -6.730   1.891  66.368  1.00  0.00     0.000 HD 
HETATM   34  N   UNK A   0      -6.570   2.059  67.361  1.00  0.00    -0.031 NA 
HETATM   35  N   UNK A   0      -6.953   4.301  66.922  1.00  0.00    -0.058 NA 
HETATM   36  N   UNK A   0      -7.184   7.159  69.221  1.00  0.00    -0.083 NA 
HETATM   37  H2  UNK A   0      -8.124   6.286  65.846  1.00  0.00     0.000 HD 
HETATM   38  H2  UNK A   0      -6.341   1.294  67.996  1.00  0.00     0.000 HD 
ENDBRANCH  22  23
ENDBRANCH   2  22
TORSDOF 7
ENDMDL
MODEL      303
REMARK 921   NORMALIZED FREE ENERGY PREDICTED BY IDOCK:   -1.44 KCAL/MOL
REMARK 922        TOTAL FREE ENERGY PREDICTED BY IDOCK:   -3.77 KCAL/MOL
REMARK 923 INTER-LIGAND FREE ENERGY PREDICTED BY IDOCK:   -6.05 KCAL/MOL
REMARK 924 INTRA-LIGAND FREE ENERGY PREDICTED BY IDOCK:    2.28 KCAL/MOL
REMARK 927      BINDING AFFINITY PREDICTED BY RF-SCORE:    0.00 PKD
ROOT
HETATM    1  C   UNK A   0     -11.739  11.061  66.291  1.00  0.00     0.933 C  
HETATM    2  N   UNK A   0     -10.439  11.160  66.948  1.00  0.00    -0.235 NA 
ENDROOT
BRANCH   2   3
HETATM    3  C   UNK A   0      -9.963  12.407  67.337  1.00  0.00    -0.202 A  
HETATM    4  C   UNK A   0      -8.980  15.029  67.763  1.00  0.00    -0.179 A  
HETATM    5  C   UNK A   0      -8.609  12.647  67.631  1.00  0.00    -0.180 A  
HETATM    6  C   UNK A   0     -10.826  13.514  67.382  1.00  0.00    -0.279 A  
HETATM    7  C   UNK A   0     -10.345  14.812  67.576  1.00  0.00    -0.238 A  
HETATM    8  C   UNK A   0      -8.118  13.940  67.857  1.00  0.00    -0.158 A  
BRANCH   4   9
HETATM    9  C   UNK A   0      -8.436  16.407  67.840  1.00  0.00    -0.169 C  
HETATM   10  O   UNK A   0      -8.247  16.951  68.918  1.00  0.00    -0.254 OA 
ATOM     11  N   GLU A   1      -8.121  16.992  66.619  1.00  0.00    -0.235 N  
ATOM     12  H   GLU A   1      -8.363  16.524  65.746  1.00  0.00     0.000 HD 
BRANCH  11  13
ATOM     13  CA  GLU A   1      -7.432  18.297  66.600  1.00  0.00    -0.226 C  
ATOM     14  OXT GLU A   1      -5.161  18.953  65.962  1.00  0.00    -0.140 OA 
ATOM     15  C   GLU A   1      -5.934  18.074  66.316  1.00  0.00    -0.190 C  
ATOM     16  O   GLU A   1      -5.508  16.834  66.666  1.00  0.00    -0.317 OA 
BRANCH  13  17
ATOM     17  CB  GLU A   1      -7.608  19.012  67.948  1.00  0.00    -0.291 C  
BRANCH  17  18
ATOM     18  CG  GLU A   1      -9.058  19.419  68.226  1.00  0.00    -0.397 C  
ATOM     19  OE2 GLU A   1      -9.322  19.817  65.849  1.00  0.00    -0.357 OA 
ATOM     20  OE1 GLU A   1     -11.089  20.131  67.222  1.00  0.00    -0.065 OA 
ATOM     21  CD  GLU A   1      -9.801  19.803  66.972  1.00  0.00    -0.392 C  
ENDBRANCH  17  18
ENDBRANCH  13  17
ENDBRANCH  11  13
ENDBRANCH   4   9
ENDBRANCH   2   3
BRANCH   2  22
HETATM   22  C   UNK A   0      -9.503  10.033  66.791  1.00  0.00    -0.168 C  
BRANCH  22  23
HETATM   23  C   UNK A   0      -9.398   9.136  68.009  1.00  0.00    -0.137 A  
HETATM   24  N   UNK A   0     -11.954   9.631  71.324  1.00  0.00    -0.351 NA 
HETATM   25  C   UNK A   0      -9.234   7.485  70.204  1.00  0.00    -0.154 A  
HETATM   26  C   UNK A   0      -8.541   8.051  68.068  1.00  0.00    -0.129 A  
HETATM   27  N   UNK A   0      -9.097   6.708  71.274  1.00  0.00    -0.151 NA 
HETATM   28  C   UNK A   0     -10.912   8.692  71.284  1.00  0.00    -0.267 A  
HETATM   29  C   UNK A   0     -10.137   8.550  70.137  1.00  0.00    -0.190 A  
HETATM   30  N   UNK A   0      -8.452   7.230  69.147  1.00  0.00    -0.132 NA 
HETATM   31  C   UNK A   0      -9.853   6.975  72.331  1.00  0.00    -0.153 A  
HETATM   32  H1  UNK A   0     -12.046  10.219  70.495  1.00  0.00     0.000 HD 
HETATM   33  H1  UNK A   0     -10.255   6.411  74.272  1.00  0.00     0.000 HD 
HETATM   34  N   UNK A   0      -9.673   6.206  73.460  1.00  0.00    -0.157 NA 
HETATM   35  N   UNK A   0     -10.791   7.920  72.373  1.00  0.00    -0.289 NA 
HETATM   36  N   UNK A   0     -10.225   9.384  69.051  1.00  0.00    -0.198 NA 
HETATM   37  H2  UNK A   0     -11.869  10.213  72.157  1.00  0.00     0.000 HD 
HETATM   38  H2  UNK A   0      -8.982   5.456  73.482  1.00  0.00     0.000 HD 
ENDBRANCH  22  23
ENDBRANCH   2  22
TORSDOF 7
ENDMDL
MODEL      304
REMARK 921   NORMALIZED FREE ENERGY PREDICTED BY IDOCK:   -1.19 KCAL/MOL
REMARK 922        TOTAL FREE ENERGY PREDICTED BY IDOCK:   -3.42 KCAL/MOL
REMARK 923 INTER-LIGAND FREE ENERGY PREDICTED BY IDOCK:   -6.62 KCAL/MOL
REMARK 924 INTRA-LIGAND FREE ENERGY PREDICTED BY IDOCK:    3.20 KCAL/MOL
REMARK 927      BINDING AFFINITY PREDICTED BY RF-SCORE:    0.00 PKD
ROOT
HETATM    1  C   UNK A   0      -7.187   9.630  63.366  1.00  0.00    -0.113 C  
HETATM    2  N   UNK A   0      -7.587   9.587  64.769  1.00  0.00    -0.108 NA 
ENDROOT
BRANCH   2   3
HETATM    3  C   UNK A   0      -8.093  10.733  65.371  1.00  0.00    -0.050 A  
HETATM    4  C   UNK A   0      -9.241  12.844  66.872  1.00  0.00    -0.234 A  
HETATM    5  C   UNK A   0      -9.347  11.276  65.037  1.00  0.00    -0.200 A  
HETATM    6  C   UNK A   0      -7.385  11.364  66.406  1.00  0.00    -0.006 A  
HETATM    7  C   UNK A   0      -7.952  12.395  67.161  1.00  0.00    -0.153 A  
HETATM    8  C   UNK A   0      -9.914  12.330  65.767  1.00  0.00    -0.273 A  
BRANCH   4   9
HETATM    9  C   UNK A   0      -9.907  13.844  67.741  1.00  0.00    -0.237 C  
HETATM   10  O   UNK A   0     -10.403  14.857  67.270  1.00  0.00    -0.248 OA 
ATOM     11  N   GLU A   1      -9.962  13.517  69.090  1.00  0.00    -0.404 N  
ATOM     12  H   GLU A   1      -9.472  12.695  69.442  1.00  0.00     0.000 HD 
BRANCH  11  13
ATOM     13  CA  GLU A   1     -10.738  14.372  70.009  1.00  0.00     0.158 C  
ATOM     14  OXT GLU A   1     -13.144  14.705  70.316  1.00  0.00    -0.230 OA 
ATOM     15  C   GLU A   1     -12.223  14.338  69.600  1.00  0.00    -0.323 C  
ATOM     16  O   GLU A   1     -12.405  14.022  68.293  1.00  0.00    -0.252 OA 
BRANCH  13  17
ATOM     17  CB  GLU A   1     -10.215  15.815  69.963  1.00  0.00    -0.241 C  
BRANCH  17  18
ATOM     18  CG  GLU A   1     -11.022  16.716  69.022  1.00  0.00    -0.279 C  
ATOM     19  OE2 GLU A   1      -8.944  17.802  68.406  1.00  0.00    -0.270 OA 
ATOM     20  OE1 GLU A   1     -10.868  18.469  67.428  1.00  0.00    -0.421 OA 
ATOM     21  CD  GLU A   1     -10.153  17.699  68.279  1.00  0.00    -0.362 C  
ENDBRANCH  17  18
ENDBRANCH  13  17
ENDBRANCH  11  13
ENDBRANCH   4   9
ENDBRANCH   2   3
BRANCH   2  22
HETATM   22  C   UNK A   0      -7.052   8.495  65.601  1.00  0.00    -0.079 C  
BRANCH  22  23
HETATM   23  C   UNK A   0      -7.414   7.105  65.114  1.00  0.00    -0.094 A  
HETATM   24  N   UNK A   0     -11.003   5.234  66.290  1.00  0.00    -0.707 NA 
HETATM   25  C   UNK A   0      -8.090   4.600  64.199  1.00  0.00    -0.104 A  
HETATM   26  C   UNK A   0      -6.653   6.416  64.186  1.00  0.00    -0.033 A  
HETATM   27  N   UNK A   0      -8.366   3.367  63.786  1.00  0.00    -0.089 NA 
HETATM   28  C   UNK A   0     -10.031   4.611  65.491  1.00  0.00    -0.183 A  
HETATM   29  C   UNK A   0      -8.891   5.307  65.101  1.00  0.00    -0.129 A  
HETATM   30  N   UNK A   0      -6.978   5.178  63.728  1.00  0.00    -0.046 NA 
HETATM   31  C   UNK A   0      -9.455   2.783  64.270  1.00  0.00    -0.137 A  
HETATM   32  H1  UNK A   0     -10.776   6.180  66.599  1.00  0.00     0.000 HD 
HETATM   33  H1  UNK A   0     -10.550   1.038  64.258  1.00  0.00     0.000 HD 
HETATM   34  N   UNK A   0      -9.713   1.486  63.885  1.00  0.00    -0.128 NA 
HETATM   35  N   UNK A   0     -10.330   3.369  65.086  1.00  0.00    -0.386 NA 
HETATM   36  N   UNK A   0      -8.563   6.554  65.569  1.00  0.00    -0.255 NA 
HETATM   37  H2  UNK A   0     -11.223   4.648  67.095  1.00  0.00     0.000 HD 
HETATM   38  H2  UNK A   0      -9.087   0.991  63.249  1.00  0.00     0.000 HD 
ENDBRANCH  22  23
ENDBRANCH   2  22
TORSDOF 7
ENDMDL
MODEL      305
REMARK 921   NORMALIZED FREE ENERGY PREDICTED BY IDOCK:   -1.15 KCAL/MOL
REMARK 922        TOTAL FREE ENERGY PREDICTED BY IDOCK:   -3.36 KCAL/MOL
REMARK 923 INTER-LIGAND FREE ENERGY PREDICTED BY IDOCK:   -4.19 KCAL/MOL
REMARK 924 INTRA-LIGAND FREE ENERGY PREDICTED BY IDOCK:    0.82 KCAL/MOL
REMARK 927      BINDING AFFINITY PREDICTED BY RF-SCORE:    0.00 PKD
ROOT
HETATM    1  C   UNK A   0     -11.911  17.177  72.183  1.00  0.00     1.145 C  
HETATM    2  N   UNK A   0     -11.618  16.353  71.014  1.00  0.00    -0.594 NA 
ENDROOT
BRANCH   2   3
HETATM    3  C   UNK A   0     -12.135  15.065  70.939  1.00  0.00    -0.324 A  
HETATM    4  C   UNK A   0     -12.837  12.329  70.732  1.00  0.00    -0.101 A  
HETATM    5  C   UNK A   0     -12.678  14.532  69.756  1.00  0.00    -0.044 A  
HETATM    6  C   UNK A   0     -12.070  14.207  72.048  1.00  0.00    -0.007 A  
HETATM    7  C   UNK A   0     -12.399  12.852  71.948  1.00  0.00     0.357 A  
HETATM    8  C   UNK A   0     -13.041  13.182  69.651  1.00  0.00     1.294 A  
BRANCH   4   9
HETATM    9  C   UNK A   0     -13.067  10.872  70.573  1.00  0.00    -0.020 C  
HETATM   10  O   UNK A   0     -13.678  10.431  69.611  1.00  0.00     0.680 OA 
ATOM     11  N   GLU A   1     -12.501  10.069  71.556  1.00  0.00    -0.389 N  
ATOM     12  H   GLU A   1     -12.062  10.490  72.375  1.00  0.00     0.000 HD 
BRANCH  11  13
ATOM     13  CA  GLU A   1     -12.541   8.602  71.403  1.00  0.00    -0.291 C  
ATOM     14  OXT GLU A   1     -14.311   6.953  71.779  1.00  0.00    -0.350 OA 
ATOM     15  C   GLU A   1     -13.857   8.067  71.999  1.00  0.00    -0.280 C  
ATOM     16  O   GLU A   1     -14.387   8.891  72.938  1.00  0.00    -0.548 OA 
BRANCH  13  17
ATOM     17  CB  GLU A   1     -11.344   7.960  72.119  1.00  0.00    -0.367 C  
BRANCH  17  18
ATOM     18  CG  GLU A   1     -11.278   6.441  71.935  1.00  0.00    -0.325 C  
ATOM     19  OE2 GLU A   1     -10.412   6.282  74.194  1.00  0.00    -0.301 OA 
ATOM     20  OE1 GLU A   1     -10.738   4.389  73.003  1.00  0.00    -0.190 OA 
ATOM     21  CD  GLU A   1     -10.764   5.732  73.163  1.00  0.00    -0.262 C  
ENDBRANCH  17  18
ENDBRANCH  13  17
ENDBRANCH  11  13
ENDBRANCH   4   9
ENDBRANCH   2   3
BRANCH   2  22
HETATM   22  C   UNK A   0     -10.462  16.731  70.181  1.00  0.00     0.180 C  
BRANCH  22  23
HETATM   23  C   UNK A   0     -10.458  16.105  68.800  1.00  0.00    -0.264 A  
HETATM   24  N   UNK A   0      -9.520  12.034  68.241  1.00  0.00    -0.199 NA 
HETATM   25  C   UNK A   0     -10.488  14.959  66.299  1.00  0.00    -0.302 A  
HETATM   26  C   UNK A   0     -10.855  16.791  67.666  1.00  0.00    -0.252 A  
HETATM   27  N   UNK A   0     -10.457  14.443  65.074  1.00  0.00    -0.414 NA 
HETATM   28  C   UNK A   0      -9.779  12.921  67.184  1.00  0.00    -0.221 A  
HETATM   29  C   UNK A   0     -10.130  14.241  67.445  1.00  0.00    -0.247 A  
HETATM   30  N   UNK A   0     -10.873  16.235  66.427  1.00  0.00    -0.175 NA 
HETATM   31  C   UNK A   0     -10.052  13.187  64.943  1.00  0.00    -0.217 A  
HETATM   32  H1  UNK A   0      -9.548  12.445  69.174  1.00  0.00     0.000 HD 
HETATM   33  H1  UNK A   0      -9.656  11.703  63.570  1.00  0.00     0.000 HD 
HETATM   34  N   UNK A   0      -9.967  12.669  63.670  1.00  0.00    -0.678 NA 
HETATM   35  N   UNK A   0      -9.742  12.381  65.957  1.00  0.00    -0.253 NA 
HETATM   36  N   UNK A   0     -10.105  14.802  68.697  1.00  0.00    -0.231 NA 
HETATM   37  H2  UNK A   0      -8.628  11.564  68.092  1.00  0.00     0.000 HD 
HETATM   38  H2  UNK A   0     -10.207  13.233  62.854  1.00  0.00     0.000 HD 
ENDBRANCH  22  23
ENDBRANCH   2  22
TORSDOF 7
ENDMDL
MODEL      306
REMARK 921   NORMALIZED FREE ENERGY PREDICTED BY IDOCK:   -1.07 KCAL/MOL
REMARK 922        TOTAL FREE ENERGY PREDICTED BY IDOCK:   -3.25 KCAL/MOL
REMARK 923 INTER-LIGAND FREE ENERGY PREDICTED BY IDOCK:   -3.15 KCAL/MOL
REMARK 924 INTRA-LIGAND FREE ENERGY PREDICTED BY IDOCK:   -0.10 KCAL/MOL
REMARK 927      BINDING AFFINITY PREDICTED BY RF-SCORE:    0.00 PKD
ROOT
HETATM    1  C   UNK A   0     -12.237  16.399  63.949  1.00  0.00     1.647 C  
HETATM    2  N   UNK A   0     -11.775  15.326  64.824  1.00  0.00    -0.333 NA 
ENDROOT
BRANCH   2   3
HETATM    3  C   UNK A   0     -10.530  15.430  65.435  1.00  0.00    -0.402 A  
HETATM    4  C   UNK A   0      -8.160  15.505  66.984  1.00  0.00    -0.272 A  
HETATM    5  C   UNK A   0     -10.063  16.626  66.008  1.00  0.00    -0.359 A  
HETATM    6  C   UNK A   0      -9.705  14.302  65.565  1.00  0.00    -0.189 A  
HETATM    7  C   UNK A   0      -8.543  14.328  66.342  1.00  0.00     0.246 A  
HETATM    8  C   UNK A   0      -8.883  16.674  66.764  1.00  0.00    -0.259 A  
BRANCH   4   9
HETATM    9  C   UNK A   0      -7.004  15.518  67.914  1.00  0.00    -0.140 C  
HETATM   10  O   UNK A   0      -6.009  14.845  67.692  1.00  0.00    -0.263 OA 
ATOM     11  N   GLU A   1      -7.126  16.374  69.002  1.00  0.00    -0.196 N  
ATOM     12  H   GLU A   1      -8.005  16.859  69.180  1.00  0.00     0.000 HD 
BRANCH  11  13
ATOM     13  CA  GLU A   1      -5.970  16.573  69.897  1.00  0.00    -0.201 C  
ATOM     14  OXT GLU A   1      -5.132  15.305  71.816  1.00  0.00    -0.169 OA 
ATOM     15  C   GLU A   1      -6.063  15.581  71.072  1.00  0.00     0.432 C  
ATOM     16  O   GLU A   1      -7.331  15.166  71.316  1.00  0.00     1.403 OA 
BRANCH  13  17
ATOM     17  CB  GLU A   1      -5.952  18.014  70.429  1.00  0.00     0.038 C  
BRANCH  17  18
ATOM     18  CG  GLU A   1      -5.742  19.058  69.328  1.00  0.00    -0.231 C  
ATOM     19  OE2 GLU A   1      -8.146  19.362  69.265  1.00  0.00    -0.261 OA 
ATOM     20  OE1 GLU A   1      -6.843  20.606  67.902  1.00  0.00    -0.301 OA 
ATOM     21  CD  GLU A   1      -7.039  19.663  68.852  1.00  0.00    -0.353 C  
ENDBRANCH  17  18
ENDBRANCH  13  17
ENDBRANCH  11  13
ENDBRANCH   4   9
ENDBRANCH   2   3
BRANCH   2  22
HETATM   22  C   UNK A   0     -12.421  14.008  64.694  1.00  0.00    -0.335 C  
BRANCH  22  23
HETATM   23  C   UNK A   0     -12.160  13.068  65.855  1.00  0.00    -0.444 A  
HETATM   24  N   UNK A   0     -13.025  14.191  69.824  1.00  0.00    -0.257 NA 
HETATM   25  C   UNK A   0     -11.721  11.349  67.958  1.00  0.00    -0.254 A  
HETATM   26  C   UNK A   0     -11.725  11.766  65.680  1.00  0.00    -0.026 A  
HETATM   27  N   UNK A   0     -11.449  10.520  68.961  1.00  0.00    -0.382 NA 
HETATM   28  C   UNK A   0     -12.418  12.973  69.479  1.00  0.00     0.157 A  
HETATM   29  C   UNK A   0     -12.206  12.647  68.143  1.00  0.00     0.122 A  
HETATM   30  N   UNK A   0     -11.505  10.910  66.712  1.00  0.00    -0.226 NA 
HETATM   31  C   UNK A   0     -11.640  10.962  70.196  1.00  0.00    -0.338 A  
HETATM   32  H1  UNK A   0     -13.228  14.816  69.043  1.00  0.00     0.000 HD 
HETATM   33  H1  UNK A   0     -11.453  10.465  72.187  1.00  0.00     0.000 HD 
HETATM   34  N   UNK A   0     -11.306  10.124  71.237  1.00  0.00    -0.266 NA 
HETATM   35  N   UNK A   0     -12.152  12.152  70.505  1.00  0.00    -0.461 NA 
HETATM   36  N   UNK A   0     -12.424  13.516  67.104  1.00  0.00    -0.272 NA 
HETATM   37  H2  UNK A   0     -12.463  14.677  70.523  1.00  0.00     0.000 HD 
HETATM   38  H2  UNK A   0     -10.925   9.194  71.063  1.00  0.00     0.000 HD 
ENDBRANCH  22  23
ENDBRANCH   2  22
TORSDOF 7
ENDMDL
MODEL      307
REMARK 921   NORMALIZED FREE ENERGY PREDICTED BY IDOCK:   -0.50 KCAL/MOL
REMARK 922        TOTAL FREE ENERGY PREDICTED BY IDOCK:   -2.46 KCAL/MOL
REMARK 923 INTER-LIGAND FREE ENERGY PREDICTED BY IDOCK:   -3.08 KCAL/MOL
REMARK 924 INTRA-LIGAND FREE ENERGY PREDICTED BY IDOCK:    0.63 KCAL/MOL
REMARK 927      BINDING AFFINITY PREDICTED BY RF-SCORE:    0.00 PKD
ROOT
HETATM    1  C   UNK A   0      -7.696  10.129  70.553  1.00  0.00     0.344 C  
HETATM    2  N   UNK A   0      -6.480  10.522  69.847  1.00  0.00    -0.099 NA 
ENDROOT
BRANCH   2   3
HETATM    3  C   UNK A   0      -6.426  11.759  69.216  1.00  0.00    -0.107 A  
HETATM    4  C   UNK A   0      -6.087  14.386  68.210  1.00  0.00    -0.119 A  
HETATM    5  C   UNK A   0      -7.405  12.752  69.404  1.00  0.00     0.356 A  
HETATM    6  C   UNK A   0      -5.331  12.097  68.406  1.00  0.00    -0.051 A  
HETATM    7  C   UNK A   0      -5.149  13.395  67.920  1.00  0.00    -0.091 A  
HETATM    8  C   UNK A   0      -7.250  14.049  68.897  1.00  0.00    -0.108 A  
BRANCH   4   9
HETATM    9  C   UNK A   0      -5.847  15.795  67.814  1.00  0.00    -0.148 C  
HETATM   10  O   UNK A   0      -5.979  16.154  66.654  1.00  0.00    -0.245 OA 
ATOM     11  N   GLU A   1      -5.519  16.657  68.853  1.00  0.00    -0.126 N  
ATOM     12  H   GLU A   1      -5.353  16.294  69.791  1.00  0.00     0.000 HD 
BRANCH  11  13
ATOM     13  CA  GLU A   1      -5.414  18.104  68.584  1.00  0.00    -0.171 C  
ATOM     14  OXT GLU A   1      -5.377  20.057  70.060  1.00  0.00    -0.209 OA 
ATOM     15  C   GLU A   1      -5.667  18.881  69.890  1.00  0.00    -0.243 C  
ATOM     16  O   GLU A   1      -6.407  18.182  70.787  1.00  0.00     0.553 OA 
BRANCH  13  17
ATOM     17  CB  GLU A   1      -6.438  18.523  67.519  1.00  0.00    -0.196 C  
BRANCH  17  18
ATOM     18  CG  GLU A   1      -7.872  18.578  68.053  1.00  0.00    -0.291 C  
ATOM     19  OE2 GLU A   1      -8.651  18.373  65.767  1.00  0.00    -0.450 OA 
ATOM     20  OE1 GLU A   1     -10.165  18.489  67.440  1.00  0.00    -0.335 OA 
ATOM     21  CD  GLU A   1      -8.902  18.471  66.957  1.00  0.00    -0.278 C  
ENDBRANCH  17  18
ENDBRANCH  13  17
ENDBRANCH  11  13
ENDBRANCH   4   9
ENDBRANCH   2   3
BRANCH   2  22
HETATM   22  C   UNK A   0      -5.538   9.457  69.459  1.00  0.00    -0.034 C  
BRANCH  22  23
HETATM   23  C   UNK A   0      -6.202   8.199  68.932  1.00  0.00    -0.040 A  
HETATM   24  N   UNK A   0      -8.435   5.674  71.462  1.00  0.00    -0.127 NA 
HETATM   25  C   UNK A   0      -7.439   5.938  67.970  1.00  0.00    -0.085 A  
HETATM   26  C   UNK A   0      -6.205   7.860  67.591  1.00  0.00    -0.051 A  
HETATM   27  N   UNK A   0      -7.981   4.823  67.490  1.00  0.00    -0.094 NA 
HETATM   28  C   UNK A   0      -8.189   5.392  70.109  1.00  0.00    -0.100 A  
HETATM   29  C   UNK A   0      -7.483   6.296  69.321  1.00  0.00    -0.094 A  
HETATM   30  N   UNK A   0      -6.812   6.746  67.105  1.00  0.00    -0.066 NA 
HETATM   31  C   UNK A   0      -8.582   4.010  68.349  1.00  0.00    -0.095 A  
HETATM   32  H1  UNK A   0      -8.012   6.533  71.815  1.00  0.00     0.000 HD 
HETATM   33  H1  UNK A   0      -9.557   2.203  68.523  1.00  0.00     0.000 HD 
HETATM   34  N   UNK A   0      -9.095   2.828  67.862  1.00  0.00    -0.164 NA 
HETATM   35  N   UNK A   0      -8.743   4.263  69.646  1.00  0.00    -0.072 NA 
HETATM   36  N   UNK A   0      -6.866   7.417  69.815  1.00  0.00    -0.051 NA 
HETATM   37  H2  UNK A   0      -8.153   4.883  72.041  1.00  0.00     0.000 HD 
HETATM   38  H2  UNK A   0      -9.016   2.586  66.874  1.00  0.00     0.000 HD 
ENDBRANCH  22  23
ENDBRANCH   2  22
TORSDOF 7
ENDMDL
MODEL      308
REMARK 921   NORMALIZED FREE ENERGY PREDICTED BY IDOCK:   -0.50 KCAL/MOL
REMARK 922        TOTAL FREE ENERGY PREDICTED BY IDOCK:   -2.45 KCAL/MOL
REMARK 923 INTER-LIGAND FREE ENERGY PREDICTED BY IDOCK:   -3.82 KCAL/MOL
REMARK 924 INTRA-LIGAND FREE ENERGY PREDICTED BY IDOCK:    1.37 KCAL/MOL
REMARK 927      BINDING AFFINITY PREDICTED BY RF-SCORE:    0.00 PKD
ROOT
HETATM    1  C   UNK A   0     -13.276  15.548  63.901  1.00  0.00     2.129 C  
HETATM    2  N   UNK A   0     -12.445  14.640  64.687  1.00  0.00    -0.559 NA 
ENDROOT
BRANCH   2   3
HETATM    3  C   UNK A   0     -11.216  15.079  65.164  1.00  0.00    -0.388 A  
HETATM    4  C   UNK A   0      -8.810  15.821  66.463  1.00  0.00    -0.345 A  
HETATM    5  C   UNK A   0     -11.007  16.388  65.635  1.00  0.00    -0.079 A  
HETATM    6  C   UNK A   0     -10.133  14.192  65.260  1.00  0.00    -0.364 A  
HETATM    7  C   UNK A   0      -8.949  14.546  65.914  1.00  0.00     0.346 A  
HETATM    8  C   UNK A   0      -9.814  16.765  66.267  1.00  0.00    -0.327 A  
BRANCH   4   9
HETATM    9  C   UNK A   0      -7.617  16.171  67.271  1.00  0.00    -0.184 C  
HETATM   10  O   UNK A   0      -6.499  15.816  66.931  1.00  0.00    -0.278 OA 
ATOM     11  N   GLU A   1      -7.866  16.958  68.390  1.00  0.00    -0.218 N  
ATOM     12  H   GLU A   1      -8.824  17.169  68.669  1.00  0.00     0.000 HD 
BRANCH  11  13
ATOM     13  CA  GLU A   1      -6.729  17.487  69.168  1.00  0.00    -0.243 C  
ATOM     14  OXT GLU A   1      -5.216  16.450  70.788  1.00  0.00    -0.191 OA 
ATOM     15  C   GLU A   1      -6.287  16.431  70.199  1.00  0.00     0.072 C  
ATOM     16  O   GLU A   1      -7.277  15.562  70.525  1.00  0.00     0.394 OA 
BRANCH  13  17
ATOM     17  CB  GLU A   1      -7.134  18.783  69.887  1.00  0.00     0.340 C  
BRANCH  17  18
ATOM     18  CG  GLU A   1      -7.651  19.863  68.932  1.00  0.00    -0.207 C  
ATOM     19  OE2 GLU A   1      -5.512  19.771  67.795  1.00  0.00    -0.184 OA 
ATOM     20  OE1 GLU A   1      -7.109  21.173  67.027  1.00  0.00    -0.380 OA 
ATOM     21  CD  GLU A   1      -6.634  20.241  67.885  1.00  0.00    -0.276 C  
ENDBRANCH  17  18
ENDBRANCH  13  17
ENDBRANCH  11  13
ENDBRANCH   4   9
ENDBRANCH   2   3
BRANCH   2  22
HETATM   22  C   UNK A   0     -12.721  13.196  64.582  1.00  0.00    -0.261 C  
BRANCH  22  23
HETATM   23  C   UNK A   0     -11.965  12.344  65.584  1.00  0.00    -0.386 A  
HETATM   24  N   UNK A   0      -9.252   9.372  64.329  1.00  0.00    -0.427 NA 
HETATM   25  C   UNK A   0     -10.565  10.824  67.400  1.00  0.00    -0.242 A  
HETATM   26  C   UNK A   0     -12.038  12.553  66.950  1.00  0.00    -0.094 A  
HETATM   27  N   UNK A   0      -9.942  10.067  68.298  1.00  0.00    -0.149 NA 
HETATM   28  C   UNK A   0      -9.579   9.603  65.675  1.00  0.00    -0.271 A  
HETATM   29  C   UNK A   0     -10.447  10.635  66.020  1.00  0.00    -0.183 A  
HETATM   30  N   UNK A   0     -11.351  11.808  67.855  1.00  0.00    -0.268 NA 
HETATM   31  C   UNK A   0      -9.182   9.076  67.850  1.00  0.00    -0.141 A  
HETATM   32  H1  UNK A   0      -9.738   9.961  63.653  1.00  0.00     0.000 HD 
HETATM   33  H1  UNK A   0      -7.997   7.496  68.434  1.00  0.00     0.000 HD 
HETATM   34  N   UNK A   0      -8.581   8.257  68.780  1.00  0.00    -0.132 NA 
HETATM   35  N   UNK A   0      -8.941   8.829  66.564  1.00  0.00    -0.139 NA 
HETATM   36  N   UNK A   0     -11.144  11.382  65.104  1.00  0.00    -0.188 NA 
HETATM   37  H2  UNK A   0      -9.392   8.388  64.100  1.00  0.00     0.000 HD 
HETATM   38  H2  UNK A   0      -8.715   8.408  69.780  1.00  0.00     0.000 HD 
ENDBRANCH  22  23
ENDBRANCH   2  22
TORSDOF 7
ENDMDL
MODEL      309
REMARK 921   NORMALIZED FREE ENERGY PREDICTED BY IDOCK:   -0.28 KCAL/MOL
REMARK 922        TOTAL FREE ENERGY PREDICTED BY IDOCK:   -2.15 KCAL/MOL
REMARK 923 INTER-LIGAND FREE ENERGY PREDICTED BY IDOCK:   -4.29 KCAL/MOL
REMARK 924 INTRA-LIGAND FREE ENERGY PREDICTED BY IDOCK:    2.14 KCAL/MOL
REMARK 927      BINDING AFFINITY PREDICTED BY RF-SCORE:    0.00 PKD
ROOT
HETATM    1  C   UNK A   0     -12.837  12.520  65.845  1.00  0.00     1.054 C  
HETATM    2  N   UNK A   0     -11.888  12.575  66.953  1.00  0.00    -0.515 NA 
ENDROOT
BRANCH   2   3
HETATM    3  C   UNK A   0     -11.022  11.508  67.164  1.00  0.00    -0.286 A  
HETATM    4  C   UNK A   0      -9.025   9.508  67.353  1.00  0.00    -0.141 A  
HETATM    5  C   UNK A   0     -11.132  10.290  66.470  1.00  0.00     0.155 A  
HETATM    6  C   UNK A   0      -9.937  11.637  68.047  1.00  0.00    -0.194 A  
HETATM    7  C   UNK A   0      -8.941  10.661  68.132  1.00  0.00    -0.141 A  
HETATM    8  C   UNK A   0     -10.155   9.290  66.570  1.00  0.00    -0.343 A  
BRANCH   4   9
HETATM    9  C   UNK A   0      -7.915   8.524  67.334  1.00  0.00    -0.102 C  
HETATM   10  O   UNK A   0      -6.924   8.679  68.031  1.00  0.00    -0.072 OA 
ATOM     11  N   GLU A   1      -8.115   7.417  66.518  1.00  0.00    -0.113 N  
ATOM     12  H   GLU A   1      -8.928   7.370  65.903  1.00  0.00     0.000 HD 
BRANCH  11  13
ATOM     13  CA  GLU A   1      -7.140   6.310  66.550  1.00  0.00    -0.068 C  
ATOM     14  OXT GLU A   1      -6.751   4.411  65.055  1.00  0.00    -0.046 OA 
ATOM     15  C   GLU A   1      -7.507   5.280  65.465  1.00  0.00    -0.077 C  
ATOM     16  O   GLU A   1      -8.821   5.315  65.125  1.00  0.00    -0.154 OA 
BRANCH  13  17
ATOM     17  CB  GLU A   1      -7.143   5.639  67.932  1.00  0.00    -0.071 C  
BRANCH  17  18
ATOM     18  CG  GLU A   1      -8.260   6.151  68.846  1.00  0.00    -0.112 C  
ATOM     19  OE2 GLU A   1      -8.613   3.863  69.567  1.00  0.00    -0.066 OA 
ATOM     20  OE1 GLU A   1      -9.874   5.509  70.466  1.00  0.00    -0.173 OA 
ATOM     21  CD  GLU A   1      -8.909   5.045  69.639  1.00  0.00    -0.094 C  
ENDBRANCH  17  18
ENDBRANCH  13  17
ENDBRANCH  11  13
ENDBRANCH   4   9
ENDBRANCH   2   3
BRANCH   2  22
HETATM   22  C   UNK A   0     -12.163  13.526  68.045  1.00  0.00    -0.123 C  
BRANCH  22  23
HETATM   23  C   UNK A   0     -11.021  14.478  68.344  1.00  0.00    -0.245 A  
HETATM   24  N   UNK A   0      -7.098  13.678  67.029  1.00  0.00    -0.362 NA 
HETATM   25  C   UNK A   0      -8.956  16.223  68.853  1.00  0.00    -0.248 A  
HETATM   26  C   UNK A   0     -11.209  15.699  68.967  1.00  0.00    -0.306 A  
HETATM   27  N   UNK A   0      -7.967  17.057  69.159  1.00  0.00    -0.139 NA 
HETATM   28  C   UNK A   0      -7.437  14.785  67.823  1.00  0.00    -0.163 A  
HETATM   29  C   UNK A   0      -8.762  15.013  68.180  1.00  0.00    -0.165 A  
HETATM   30  N   UNK A   0     -10.196  16.568  69.223  1.00  0.00    -0.286 NA 
HETATM   31  C   UNK A   0      -6.735  16.705  68.814  1.00  0.00    -0.174 A  
HETATM   32  H1  UNK A   0      -7.868  13.048  66.803  1.00  0.00     0.000 HD 
HETATM   33  H1  UNK A   0      -4.756  17.270  68.915  1.00  0.00     0.000 HD 
HETATM   34  N   UNK A   0      -5.703  17.541  69.180  1.00  0.00    -0.183 NA 
HETATM   35  N   UNK A   0      -6.425  15.611  68.121  1.00  0.00    -0.119 NA 
HETATM   36  N   UNK A   0      -9.782  14.131  67.925  1.00  0.00    -0.218 NA 
HETATM   37  H2  UNK A   0      -6.336  13.156  67.463  1.00  0.00     0.000 HD 
HETATM   38  H2  UNK A   0      -5.880  18.402  69.698  1.00  0.00     0.000 HD 
ENDBRANCH  22  23
ENDBRANCH   2  22
TORSDOF 7
ENDMDL
MODEL      310
REMARK 921   NORMALIZED FREE ENERGY PREDICTED BY IDOCK:    0.68 KCAL/MOL
REMARK 922        TOTAL FREE ENERGY PREDICTED BY IDOCK:   -0.78 KCAL/MOL
REMARK 923 INTER-LIGAND FREE ENERGY PREDICTED BY IDOCK:   -4.75 KCAL/MOL
REMARK 924 INTRA-LIGAND FREE ENERGY PREDICTED BY IDOCK:    3.97 KCAL/MOL
REMARK 927      BINDING AFFINITY PREDICTED BY RF-SCORE:    0.00 PKD
ROOT
HETATM    1  C   UNK A   0     -11.907  11.666  66.177  1.00  0.00     0.278 C  
HETATM    2  N   UNK A   0     -10.565  11.850  66.719  1.00  0.00    -0.221 NA 
ENDROOT
BRANCH   2   3
HETATM    3  C   UNK A   0     -10.119  13.132  67.019  1.00  0.00    -0.241 A  
HETATM    4  C   UNK A   0      -9.118  15.771  67.268  1.00  0.00    -0.219 A  
HETATM    5  C   UNK A   0      -8.843  13.388  67.552  1.00  0.00    -0.210 A  
HETATM    6  C   UNK A   0     -10.918  14.249  66.728  1.00  0.00    -0.304 A  
HETATM    7  C   UNK A   0     -10.425  15.552  66.833  1.00  0.00    -0.301 A  
HETATM    8  C   UNK A   0      -8.347  14.692  67.692  1.00  0.00    -0.186 A  
BRANCH   4   9
HETATM    9  C   UNK A   0      -8.535  17.135  67.262  1.00  0.00    -0.196 C  
HETATM   10  O   UNK A   0      -8.481  17.801  68.285  1.00  0.00    -0.260 OA 
ATOM     11  N   GLU A   1      -8.026  17.559  66.041  1.00  0.00    -0.213 N  
ATOM     12  H   GLU A   1      -8.159  16.994  65.202  1.00  0.00     0.000 HD 
BRANCH  11  13
ATOM     13  CA  GLU A   1      -7.289  18.836  65.970  1.00  0.00    -0.251 C  
ATOM     14  OXT GLU A   1      -5.127  19.440  64.993  1.00  0.00    -0.147 OA 
ATOM     15  C   GLU A   1      -5.871  18.572  65.429  1.00  0.00    -0.231 C  
ATOM     16  O   GLU A   1      -5.451  17.299  65.640  1.00  0.00    -0.171 OA 
BRANCH  13  17
ATOM     17  CB  GLU A   1      -7.206  19.480  67.362  1.00  0.00    -0.243 C  
BRANCH  17  18
ATOM     18  CG  GLU A   1      -8.565  19.953  67.887  1.00  0.00    -0.341 C  
ATOM     19  OE2 GLU A   1      -9.215  20.381  65.591  1.00  0.00    -0.017 OA 
ATOM     20  OE1 GLU A   1     -10.702  20.768  67.248  1.00  0.00     0.466 OA 
ATOM     21  CD  GLU A   1      -9.494  20.381  66.779  1.00  0.00    -0.341 C  
ENDBRANCH  17  18
ENDBRANCH  13  17
ENDBRANCH  11  13
ENDBRANCH   4   9
ENDBRANCH   2   3
BRANCH   2  22
HETATM   22  C   UNK A   0      -9.592  10.759  66.528  1.00  0.00    -0.183 C  
BRANCH  22  23
HETATM   23  C   UNK A   0      -9.294   9.963  67.783  1.00  0.00    -0.140 A  
HETATM   24  N   UNK A   0      -5.382   8.678  68.687  1.00  0.00    -0.036 NA 
HETATM   25  C   UNK A   0      -8.744   8.552  70.080  1.00  0.00    -0.137 A  
HETATM   26  C   UNK A   0     -10.250   9.701  68.748  1.00  0.00    -0.196 A  
HETATM   27  N   UNK A   0      -8.516   7.825  71.170  1.00  0.00    -0.110 NA 
HETATM   28  C   UNK A   0      -6.503   8.353  69.466  1.00  0.00    -0.040 A  
HETATM   29  C   UNK A   0      -7.759   8.852  69.135  1.00  0.00    -0.092 A  
HETATM   30  N   UNK A   0      -9.989   9.005  69.885  1.00  0.00    -0.184 NA 
HETATM   31  C   UNK A   0      -7.288   7.356  71.352  1.00  0.00    -0.079 A  
HETATM   32  H1  UNK A   0      -5.575   9.237  67.855  1.00  0.00     0.000 HD 
HETATM   33  H1  UNK A   0      -6.120   6.195  72.590  1.00  0.00     0.000 HD 
HETATM   34  N   UNK A   0      -7.063   6.556  72.451  1.00  0.00    -0.077 NA 
HETATM   35  N   UNK A   0      -6.251   7.619  70.559  1.00  0.00    -0.037 NA 
HETATM   36  N   UNK A   0      -8.021   9.550  67.983  1.00  0.00    -0.091 NA 
HETATM   37  H2  UNK A   0      -4.877   7.831  68.430  1.00  0.00     0.000 HD 
HETATM   38  H2  UNK A   0      -7.816   6.333  73.103  1.00  0.00     0.000 HD 
ENDBRANCH  22  23
ENDBRANCH   2  22
TORSDOF 7
ENDMDL
MODEL      311
REMARK 921   NORMALIZED FREE ENERGY PREDICTED BY IDOCK:    1.25 KCAL/MOL
REMARK 922        TOTAL FREE ENERGY PREDICTED BY IDOCK:    0.02 KCAL/MOL
REMARK 923 INTER-LIGAND FREE ENERGY PREDICTED BY IDOCK:   -2.99 KCAL/MOL
REMARK 924 INTRA-LIGAND FREE ENERGY PREDICTED BY IDOCK:    3.01 KCAL/MOL
REMARK 927      BINDING AFFINITY PREDICTED BY RF-SCORE:    0.00 PKD
ROOT
HETATM    1  C   UNK A   0      -5.766   5.143  72.441  1.00  0.00    -0.017 C  
HETATM    2  N   UNK A   0      -6.485   6.097  71.602  1.00  0.00    -0.049 NA 
ENDROOT
BRANCH   2   3
HETATM    3  C   UNK A   0      -6.731   5.785  70.270  1.00  0.00    -0.048 A  
HETATM    4  C   UNK A   0      -7.099   5.489  67.477  1.00  0.00    -0.074 A  
HETATM    5  C   UNK A   0      -7.995   5.941  69.673  1.00  0.00    -0.101 A  
HETATM    6  C   UNK A   0      -5.686   5.358  69.435  1.00  0.00    -0.012 A  
HETATM    7  C   UNK A   0      -5.857   5.227  68.054  1.00  0.00    -0.017 A  
HETATM    8  C   UNK A   0      -8.187   5.783  68.294  1.00  0.00    -0.108 A  
BRANCH   4   9
HETATM    9  C   UNK A   0      -7.266   5.481  66.003  1.00  0.00    -0.076 C  
HETATM   10  O   UNK A   0      -6.468   6.052  65.275  1.00  0.00    -0.040 OA 
ATOM     11  N   GLU A   1      -8.349   4.749  65.531  1.00  0.00    -0.117 N  
ATOM     12  H   GLU A   1      -9.025   4.351  66.182  1.00  0.00     0.000 HD 
BRANCH  11  13
ATOM     13  CA  GLU A   1      -8.509   4.553  64.077  1.00  0.00    -0.121 C  
ATOM     14  OXT GLU A   1     -10.482   4.229  62.664  1.00  0.00    -0.142 OA 
ATOM     15  C   GLU A   1      -9.973   4.179  63.775  1.00  0.00    -0.086 C  
ATOM     16  O   GLU A   1     -10.606   3.618  64.836  1.00  0.00    -0.044 OA 
BRANCH  13  17
ATOM     17  CB  GLU A   1      -7.572   3.439  63.584  1.00  0.00    -0.063 C  
BRANCH  17  18
ATOM     18  CG  GLU A   1      -6.812   2.748  64.720  1.00  0.00    -0.041 C  
ATOM     19  OE2 GLU A   1      -8.952   2.170  65.699  1.00  0.00    -0.126 OA 
ATOM     20  OE1 GLU A   1      -7.054   1.492  66.721  1.00  0.00    -0.044 OA 
ATOM     21  CD  GLU A   1      -7.734   2.127  65.738  1.00  0.00    -0.072 C  
ENDBRANCH  17  18
ENDBRANCH  13  17
ENDBRANCH  11  13
ENDBRANCH   4   9
ENDBRANCH   2   3
BRANCH   2  22
HETATM   22  C   UNK A   0      -6.541   7.499  72.051  1.00  0.00    -0.050 C  
BRANCH  22  23
HETATM   23  C   UNK A   0      -7.183   8.447  71.056  1.00  0.00    -0.063 A  
HETATM   24  N   UNK A   0      -5.649   8.903  67.157  1.00  0.00    -0.041 NA 
HETATM   25  C   UNK A   0      -8.370  10.137  69.239  1.00  0.00    -0.158 A  
HETATM   26  C   UNK A   0      -8.354   9.133  71.325  1.00  0.00    -0.031 A  
HETATM   27  N   UNK A   0      -8.931  11.001  68.398  1.00  0.00    -0.152 NA 
HETATM   28  C   UNK A   0      -6.728   9.649  67.657  1.00  0.00    -0.066 A  
HETATM   29  C   UNK A   0      -7.212   9.412  68.939  1.00  0.00    -0.072 A  
HETATM   30  N   UNK A   0      -8.948   9.970  70.435  1.00  0.00    -0.313 NA 
HETATM   31  C   UNK A   0      -8.345  11.185  67.221  1.00  0.00    -0.135 A  
HETATM   32  H1  UNK A   0      -5.230   8.244  67.814  1.00  0.00     0.000 HD 
HETATM   33  H1  UNK A   0      -8.443  12.261  65.467  1.00  0.00     0.000 HD 
HETATM   34  N   UNK A   0      -8.894  12.120  66.371  1.00  0.00    -0.359 NA 
HETATM   35  N   UNK A   0      -7.277  10.515  66.793  1.00  0.00    -0.108 NA 
HETATM   36  N   UNK A   0      -6.607   8.570  69.838  1.00  0.00    -0.041 NA 
HETATM   37  H2  UNK A   0      -4.934   9.527  66.785  1.00  0.00     0.000 HD 
HETATM   38  H2  UNK A   0      -9.722  12.653  66.638  1.00  0.00     0.000 HD 
ENDBRANCH  22  23
ENDBRANCH   2  22
TORSDOF 7
ENDMDL
MODEL      312
REMARK 921   NORMALIZED FREE ENERGY PREDICTED BY IDOCK:    1.38 KCAL/MOL
REMARK 922        TOTAL FREE ENERGY PREDICTED BY IDOCK:    0.19 KCAL/MOL
REMARK 923 INTER-LIGAND FREE ENERGY PREDICTED BY IDOCK:   -4.53 KCAL/MOL
REMARK 924 INTRA-LIGAND FREE ENERGY PREDICTED BY IDOCK:    4.72 KCAL/MOL
REMARK 927      BINDING AFFINITY PREDICTED BY RF-SCORE:    0.00 PKD
ROOT
HETATM    1  C   UNK A   0     -13.236  15.548  63.914  1.00  0.00     2.129 C  
HETATM    2  N   UNK A   0     -12.348  14.748  64.752  1.00  0.00    -0.380 NA 
ENDROOT
BRANCH   2   3
HETATM    3  C   UNK A   0     -11.158  15.302  65.209  1.00  0.00    -0.376 A  
HETATM    4  C   UNK A   0      -8.823  16.286  66.476  1.00  0.00    -0.318 A  
HETATM    5  C   UNK A   0     -11.051  16.644  65.615  1.00  0.00     0.117 A  
HETATM    6  C   UNK A   0     -10.012  14.504  65.353  1.00  0.00    -0.352 A  
HETATM    7  C   UNK A   0      -8.862  14.978  65.992  1.00  0.00     0.109 A  
HETATM    8  C   UNK A   0      -9.893  17.141  66.229  1.00  0.00    -0.306 A  
BRANCH   4   9
HETATM    9  C   UNK A   0      -7.665  16.765  67.269  1.00  0.00    -0.172 C  
HETATM   10  O   UNK A   0      -6.520  16.486  66.944  1.00  0.00    -0.183 OA 
ATOM     11  N   GLU A   1      -7.979  17.576  68.352  1.00  0.00    -0.252 N  
ATOM     12  H   GLU A   1      -8.952  17.721  68.622  1.00  0.00     0.000 HD 
BRANCH  11  13
ATOM     13  CA  GLU A   1      -6.892  18.227  69.108  1.00  0.00    -0.236 C  
ATOM     14  OXT GLU A   1      -6.439  20.568  69.660  1.00  0.00    -0.234 OA 
ATOM     15  C   GLU A   1      -7.005  19.755  68.944  1.00  0.00    -0.332 C  
ATOM     16  O   GLU A   1      -7.661  20.119  67.813  1.00  0.00    -0.293 OA 
BRANCH  13  17
ATOM     17  CB  GLU A   1      -5.526  17.746  68.594  1.00  0.00    -0.157 C  
BRANCH  17  18
ATOM     18  CG  GLU A   1      -5.313  16.240  68.777  1.00  0.00    -0.105 C  
ATOM     19  OE2 GLU A   1      -5.553  16.574  71.166  1.00  0.00     0.043 OA 
ATOM     20  OE1 GLU A   1      -5.216  14.485  70.374  1.00  0.00    -0.098 OA 
ATOM     21  CD  GLU A   1      -5.374  15.820  70.224  1.00  0.00    -0.146 C  
ENDBRANCH  17  18
ENDBRANCH  13  17
ENDBRANCH  11  13
ENDBRANCH   4   9
ENDBRANCH   2   3
BRANCH   2  22
HETATM   22  C   UNK A   0     -12.516  13.284  64.726  1.00  0.00    -0.383 C  
BRANCH  22  23
HETATM   23  C   UNK A   0     -11.746  12.550  65.807  1.00  0.00    -0.426 A  
HETATM   24  N   UNK A   0      -8.788   9.706  64.845  1.00  0.00    -0.185 NA 
HETATM   25  C   UNK A   0     -10.323  11.245  67.766  1.00  0.00    -0.182 A  
HETATM   26  C   UNK A   0     -11.890  12.835  67.153  1.00  0.00    -0.350 A  
HETATM   27  N   UNK A   0      -9.688  10.589  68.733  1.00  0.00    -0.176 NA 
HETATM   28  C   UNK A   0      -9.185   9.995  66.160  1.00  0.00    -0.165 A  
HETATM   29  C   UNK A   0     -10.135  10.981  66.406  1.00  0.00    -0.229 A  
HETATM   30  N   UNK A   0     -11.192  12.196  68.128  1.00  0.00    -0.246 NA 
HETATM   31  C   UNK A   0      -8.844   9.630  68.377  1.00  0.00    -0.123 A  
HETATM   32  H1  UNK A   0      -9.284  10.218  64.115  1.00  0.00     0.000 HD 
HETATM   33  H1  UNK A   0      -7.579   8.175  69.104  1.00  0.00     0.000 HD 
HETATM   34  N   UNK A   0      -8.227   8.912  69.378  1.00  0.00    -0.105 NA 
HETATM   35  N   UNK A   0      -8.533   9.322  67.119  1.00  0.00    -0.123 NA 
HETATM   36  N   UNK A   0     -10.842  11.620  65.419  1.00  0.00    -0.289 NA 
HETATM   37  H2  UNK A   0      -8.850   8.703  64.673  1.00  0.00     0.000 HD 
HETATM   38  H2  UNK A   0      -8.413   9.113  70.361  1.00  0.00     0.000 HD 
ENDBRANCH  22  23
ENDBRANCH   2  22
TORSDOF 7
ENDMDL
MODEL      313
REMARK 921   NORMALIZED FREE ENERGY PREDICTED BY IDOCK:    1.46 KCAL/MOL
REMARK 922        TOTAL FREE ENERGY PREDICTED BY IDOCK:    0.31 KCAL/MOL
REMARK 923 INTER-LIGAND FREE ENERGY PREDICTED BY IDOCK:   -1.28 KCAL/MOL
REMARK 924 INTRA-LIGAND FREE ENERGY PREDICTED BY IDOCK:    1.59 KCAL/MOL
REMARK 927      BINDING AFFINITY PREDICTED BY RF-SCORE:    0.00 PKD
ROOT
HETATM    1  C   UNK A   0     -13.022  12.467  65.811  1.00  0.00     1.548 C  
HETATM    2  N   UNK A   0     -12.048  13.054  66.726  1.00  0.00    -0.389 NA 
ENDROOT
BRANCH   2   3
HETATM    3  C   UNK A   0     -10.913  12.329  67.072  1.00  0.00    -0.268 A  
HETATM    4  C   UNK A   0      -8.444  10.998  67.469  1.00  0.00    -0.127 A  
HETATM    5  C   UNK A   0     -10.747  10.973  66.741  1.00  0.00    -0.319 A  
HETATM    6  C   UNK A   0      -9.838  12.959  67.719  1.00  0.00    -0.221 A  
HETATM    7  C   UNK A   0      -8.612  12.313  67.903  1.00  0.00    -0.169 A  
HETATM    8  C   UNK A   0      -9.532  10.304  66.947  1.00  0.00    -0.200 A  
BRANCH   4   9
HETATM    9  C   UNK A   0      -7.116  10.342  67.538  1.00  0.00    -0.086 C  
HETATM   10  O   UNK A   0      -6.159  10.908  68.043  1.00  0.00    -0.050 OA 
ATOM     11  N   GLU A   1      -7.066   9.046  67.039  1.00  0.00    -0.078 N  
ATOM     12  H   GLU A   1      -7.875   8.645  66.563  1.00  0.00     0.000 HD 
BRANCH  11  13
ATOM     13  CA  GLU A   1      -5.831   8.255  67.203  1.00  0.00    -0.043 C  
ATOM     14  OXT GLU A   1      -5.160   6.053  66.372  1.00  0.00    -0.005 OA 
ATOM     15  C   GLU A   1      -6.057   6.840  66.638  1.00  0.00    -0.036 C  
ATOM     16  O   GLU A   1      -7.365   6.477  66.625  1.00  0.00    -0.075 OA 
BRANCH  13  17
ATOM     17  CB  GLU A   1      -5.448   8.171  68.689  1.00  0.00    -0.032 C  
BRANCH  17  18
ATOM     18  CG  GLU A   1      -6.472   8.839  69.612  1.00  0.00    -0.039 C  
ATOM     19  OE2 GLU A   1      -6.194   6.977  71.139  1.00  0.00    -0.036 OA 
ATOM     20  OE1 GLU A   1      -7.602   8.656  71.693  1.00  0.00    -0.115 OA 
ATOM     21  CD  GLU A   1      -6.720   8.044  70.869  1.00  0.00    -0.037 C  
ENDBRANCH  17  18
ENDBRANCH  13  17
ENDBRANCH  11  13
ENDBRANCH   4   9
ENDBRANCH   2   3
BRANCH   2  22
HETATM   22  C   UNK A   0     -12.492  14.174  67.574  1.00  0.00     0.135 C  
BRANCH  22  23
HETATM   23  C   UNK A   0     -11.669  15.438  67.418  1.00  0.00    -0.031 A  
HETATM   24  N   UNK A   0     -10.292  17.587  70.773  1.00  0.00     1.373 NA 
HETATM   25  C   UNK A   0     -10.144  17.710  67.136  1.00  0.00    -0.328 A  
HETATM   26  C   UNK A   0     -11.237  15.903  66.189  1.00  0.00     0.091 A  
HETATM   27  N   UNK A   0      -9.454  18.835  66.971  1.00  0.00    -0.293 NA 
HETATM   28  C   UNK A   0     -10.094  18.009  69.449  1.00  0.00     0.043 A  
HETATM   29  C   UNK A   0     -10.534  17.224  68.388  1.00  0.00    -0.381 A  
HETATM   30  N   UNK A   0     -10.484  17.023  66.039  1.00  0.00    -0.321 NA 
HETATM   31  C   UNK A   0      -9.137  19.529  68.057  1.00  0.00    -0.326 A  
HETATM   32  H1  UNK A   0     -10.823  16.722  70.882  1.00  0.00     0.000 HD 
HETATM   33  H1  UNK A   0      -8.227  21.255  68.718  1.00  0.00     0.000 HD 
HETATM   34  N   UNK A   0      -8.471  20.722  67.883  1.00  0.00     0.061 NA 
HETATM   35  N   UNK A   0      -9.397  19.145  69.305  1.00  0.00    -0.152 NA 
HETATM   36  N   UNK A   0     -11.300  16.096  68.542  1.00  0.00    -0.373 NA 
HETATM   37  H2  UNK A   0     -10.724  18.333  71.317  1.00  0.00     0.000 HD 
HETATM   38  H2  UNK A   0      -8.229  21.060  66.952  1.00  0.00     0.000 HD 
ENDBRANCH  22  23
ENDBRANCH   2  22
TORSDOF 7
ENDMDL
MODEL      314
REMARK 921   NORMALIZED FREE ENERGY PREDICTED BY IDOCK:    1.58 KCAL/MOL
REMARK 922        TOTAL FREE ENERGY PREDICTED BY IDOCK:    0.48 KCAL/MOL
REMARK 923 INTER-LIGAND FREE ENERGY PREDICTED BY IDOCK:   -2.51 KCAL/MOL
REMARK 924 INTRA-LIGAND FREE ENERGY PREDICTED BY IDOCK:    2.99 KCAL/MOL
REMARK 927      BINDING AFFINITY PREDICTED BY RF-SCORE:    0.00 PKD
ROOT
HETATM    1  C   UNK A   0      -7.780  10.118  70.636  1.00  0.00     0.542 C  
HETATM    2  N   UNK A   0      -6.631  10.423  69.789  1.00  0.00    -0.086 NA 
ENDROOT
BRANCH   2   3
HETATM    3  C   UNK A   0      -6.550  11.664  69.169  1.00  0.00    -0.101 A  
HETATM    4  C   UNK A   0      -6.129  14.280  68.164  1.00  0.00    -0.138 A  
HETATM    5  C   UNK A   0      -7.445  12.713  69.447  1.00  0.00     0.434 A  
HETATM    6  C   UNK A   0      -5.505  11.945  68.274  1.00  0.00    -0.043 A  
HETATM    7  C   UNK A   0      -5.282  13.237  67.788  1.00  0.00    -0.075 A  
HETATM    8  C   UNK A   0      -7.251  14.006  68.942  1.00  0.00    -0.108 A  
BRANCH   4   9
HETATM    9  C   UNK A   0      -5.833  15.677  67.764  1.00  0.00    -0.143 C  
HETATM   10  O   UNK A   0      -5.954  16.039  66.603  1.00  0.00    -0.186 OA 
ATOM     11  N   GLU A   1      -5.466  16.528  68.799  1.00  0.00    -0.120 N  
ATOM     12  H   GLU A   1      -5.312  16.160  69.738  1.00  0.00     0.000 HD 
BRANCH  11  13
ATOM     13  CA  GLU A   1      -5.303  17.969  68.527  1.00  0.00    -0.158 C  
ATOM     14  OXT GLU A   1      -5.264  19.930  69.991  1.00  0.00    -0.192 OA 
ATOM     15  C   GLU A   1      -5.585  18.763  69.817  1.00  0.00    -0.227 C  
ATOM     16  O   GLU A   1      -6.384  18.094  70.686  1.00  0.00     0.391 OA 
BRANCH  13  17
ATOM     17  CB  GLU A   1      -6.269  18.413  67.418  1.00  0.00    -0.187 C  
BRANCH  17  18
ATOM     18  CG  GLU A   1      -5.798  18.013  66.016  1.00  0.00    -0.240 C  
ATOM     19  OE2 GLU A   1      -7.243  19.741  65.121  1.00  0.00    -0.372 OA 
ATOM     20  OE1 GLU A   1      -5.985  18.511  63.702  1.00  0.00     0.101 OA 
ATOM     21  CD  GLU A   1      -6.430  18.850  64.934  1.00  0.00    -0.075 C  
ENDBRANCH  17  18
ENDBRANCH  13  17
ENDBRANCH  11  13
ENDBRANCH   4   9
ENDBRANCH   2   3
BRANCH   2  22
HETATM   22  C   UNK A   0      -5.837   9.292  69.277  1.00  0.00    -0.035 C  
BRANCH  22  23
HETATM   23  C   UNK A   0      -6.666   8.123  68.782  1.00  0.00    -0.058 A  
HETATM   24  N   UNK A   0     -10.166   8.723  66.511  1.00  0.00    -0.282 NA 
HETATM   25  C   UNK A   0      -8.150   6.002  67.851  1.00  0.00    -0.106 A  
HETATM   26  C   UNK A   0      -6.279   6.806  68.952  1.00  0.00    -0.027 A  
HETATM   27  N   UNK A   0      -8.878   4.960  67.459  1.00  0.00    -0.103 NA 
HETATM   28  C   UNK A   0      -9.719   7.458  66.924  1.00  0.00    -0.205 A  
HETATM   29  C   UNK A   0      -8.527   7.330  67.631  1.00  0.00    -0.116 A  
HETATM   30  N   UNK A   0      -7.004   5.751  68.496  1.00  0.00    -0.066 NA 
HETATM   31  C   UNK A   0     -10.026   5.207  66.841  1.00  0.00    -0.201 A  
HETATM   32  H1  UNK A   0      -9.596   9.511  66.820  1.00  0.00     0.000 HD 
HETATM   33  H1  UNK A   0     -11.690   4.321  66.009  1.00  0.00     0.000 HD 
HETATM   34  N   UNK A   0     -10.807   4.131  66.484  1.00  0.00     0.242 NA 
HETATM   35  N   UNK A   0     -10.468   6.422  66.520  1.00  0.00    -0.460 NA 
HETATM   36  N   UNK A   0      -7.800   8.397  68.095  1.00  0.00    -0.109 NA 
HETATM   37  H2  UNK A   0     -11.136   8.860  66.795  1.00  0.00     0.000 HD 
HETATM   38  H2  UNK A   0     -10.513   3.175  66.688  1.00  0.00     0.000 HD 
ENDBRANCH  22  23
ENDBRANCH   2  22
TORSDOF 7
ENDMDL
MODEL      315
REMARK 921   NORMALIZED FREE ENERGY PREDICTED BY IDOCK:    2.17 KCAL/MOL
REMARK 922        TOTAL FREE ENERGY PREDICTED BY IDOCK:    1.31 KCAL/MOL
REMARK 923 INTER-LIGAND FREE ENERGY PREDICTED BY IDOCK:    1.77 KCAL/MOL
REMARK 924 INTRA-LIGAND FREE ENERGY PREDICTED BY IDOCK:   -0.45 KCAL/MOL
REMARK 927      BINDING AFFINITY PREDICTED BY RF-SCORE:    0.00 PKD
ROOT
HETATM    1  C   UNK A   0      -9.074   8.830  73.248  1.00  0.00     0.529 C  
HETATM    2  N   UNK A   0      -8.530   9.429  72.033  1.00  0.00     0.150 NA 
ENDROOT
BRANCH   2   3
HETATM    3  C   UNK A   0      -9.346   9.569  70.917  1.00  0.00    -0.087 A  
HETATM    4  C   UNK A   0     -10.777  10.131  68.538  1.00  0.00    -0.264 A  
HETATM    5  C   UNK A   0     -10.533  10.324  70.932  1.00  0.00     0.391 A  
HETATM    6  C   UNK A   0      -8.970   9.008  69.687  1.00  0.00    -0.153 A  
HETATM    7  C   UNK A   0      -9.662   9.294  68.506  1.00  0.00    -0.162 A  
HETATM    8  C   UNK A   0     -11.254  10.593  69.761  1.00  0.00    -0.363 A  
BRANCH   4   9
HETATM    9  C   UNK A   0     -11.446  10.549  67.281  1.00  0.00     0.247 C  
HETATM   10  O   UNK A   0     -12.115   9.760  66.631  1.00  0.00     3.059 OA 
ATOM     11  N   GLU A   1     -11.291  11.888  66.942  1.00  0.00    -0.325 N  
ATOM     12  H   GLU A   1     -10.665  12.487  67.480  1.00  0.00     0.000 HD 
BRANCH  11  13
ATOM     13  CA  GLU A   1     -12.044  12.434  65.797  1.00  0.00    -0.311 C  
ATOM     14  OXT GLU A   1     -12.028  11.901  63.408  1.00  0.00    -0.483 OA 
ATOM     15  C   GLU A   1     -11.459  11.867  64.489  1.00  0.00    -0.294 C  
ATOM     16  O   GLU A   1     -10.166  11.474  64.614  1.00  0.00    -0.252 OA 
BRANCH  13  17
ATOM     17  CB  GLU A   1     -11.957  13.968  65.786  1.00  0.00    -0.417 C  
BRANCH  17  18
ATOM     18  CG  GLU A   1     -10.586  14.495  66.222  1.00  0.00    -0.304 C  
ATOM     19  OE2 GLU A   1     -10.742  16.143  64.451  1.00  0.00    -0.487 OA 
ATOM     20  OE1 GLU A   1      -8.928  16.141  65.799  1.00  0.00    -0.385 OA 
ATOM     21  CD  GLU A   1     -10.124  15.662  65.388  1.00  0.00    -0.335 C  
ENDBRANCH  17  18
ENDBRANCH  13  17
ENDBRANCH  11  13
ENDBRANCH   4   9
ENDBRANCH   2   3
BRANCH   2  22
HETATM   22  C   UNK A   0      -7.064   9.465  71.882  1.00  0.00     0.510 C  
BRANCH  22  23
HETATM   23  C   UNK A   0      -6.568  10.461  70.852  1.00  0.00     0.240 A  
HETATM   24  N   UNK A   0      -7.156  14.605  71.348  1.00  0.00     0.806 NA 
HETATM   25  C   UNK A   0      -5.634  12.271  69.003  1.00  0.00    -0.064 A  
HETATM   26  C   UNK A   0      -5.813  10.088  69.754  1.00  0.00    -0.043 A  
HETATM   27  N   UNK A   0      -5.221  13.120  68.068  1.00  0.00    -0.096 NA 
HETATM   28  C   UNK A   0      -6.562  14.038  70.209  1.00  0.00     0.043 A  
HETATM   29  C   UNK A   0      -6.356  12.664  70.134  1.00  0.00     0.061 A  
HETATM   30  N   UNK A   0      -5.348  10.974  68.835  1.00  0.00    -0.041 NA 
HETATM   31  C   UNK A   0      -5.525  14.402  68.220  1.00  0.00    -0.114 A  
HETATM   32  H1  UNK A   0      -7.467  13.940  72.057  1.00  0.00     0.000 HD 
HETATM   33  H1  UNK A   0      -5.379  16.261  67.343  1.00  0.00     0.000 HD 
HETATM   34  N   UNK A   0      -5.145  15.275  67.225  1.00  0.00    -0.301 NA 
HETATM   35  N   UNK A   0      -6.153  14.912  69.278  1.00  0.00    -0.103 NA 
HETATM   36  N   UNK A   0      -6.832  11.771  71.061  1.00  0.00     1.115 NA 
HETATM   37  H2  UNK A   0      -7.929  15.211  71.075  1.00  0.00     0.000 HD 
HETATM   38  H2  UNK A   0      -4.646  14.947  66.398  1.00  0.00     0.000 HD 
ENDBRANCH  22  23
ENDBRANCH   2  22
TORSDOF 7
ENDMDL
MODEL      316
REMARK 921   NORMALIZED FREE ENERGY PREDICTED BY IDOCK:   10.45 KCAL/MOL
REMARK 922        TOTAL FREE ENERGY PREDICTED BY IDOCK:   12.98 KCAL/MOL
REMARK 923 INTER-LIGAND FREE ENERGY PREDICTED BY IDOCK:   -1.59 KCAL/MOL
REMARK 924 INTRA-LIGAND FREE ENERGY PREDICTED BY IDOCK:   14.57 KCAL/MOL
REMARK 927      BINDING AFFINITY PREDICTED BY RF-SCORE:    0.00 PKD
ROOT
HETATM    1  C   UNK A   0      -5.671   5.097  72.518  1.00  0.00    -0.017 C  
HETATM    2  N   UNK A   0      -6.249   6.119  71.651  1.00  0.00    -0.040 NA 
ENDROOT
BRANCH   2   3
HETATM    3  C   UNK A   0      -6.586   5.794  70.342  1.00  0.00    -0.044 A  
HETATM    4  C   UNK A   0      -7.032   5.397  67.573  1.00  0.00    -0.066 A  
HETATM    5  C   UNK A   0      -7.721   6.317  69.697  1.00  0.00    -0.099 A  
HETATM    6  C   UNK A   0      -5.749   4.967  69.577  1.00  0.00    -0.016 A  
HETATM    7  C   UNK A   0      -5.954   4.780  68.207  1.00  0.00    -0.026 A  
HETATM    8  C   UNK A   0      -7.956   6.113  68.330  1.00  0.00    -0.108 A  
BRANCH   4   9
HETATM    9  C   UNK A   0      -7.192   5.317  66.101  1.00  0.00    -0.073 C  
HETATM   10  O   UNK A   0      -6.937   4.288  65.494  1.00  0.00    -0.056 OA 
ATOM     11  N   GLU A   1      -7.689   6.464  65.492  1.00  0.00    -0.091 N  
ATOM     12  H   GLU A   1      -7.819   7.319  66.033  1.00  0.00     0.000 HD 
BRANCH  11  13
ATOM     13  CA  GLU A   1      -8.029   6.431  64.057  1.00  0.00    -0.090 C  
ATOM     14  OXT GLU A   1      -8.281   8.197  62.381  1.00  0.00    -0.165 OA 
ATOM     15  C   GLU A   1      -8.264   7.869  63.559  1.00  0.00    -0.008 C  
ATOM     16  O   GLU A   1      -8.626   8.721  64.552  1.00  0.00    -0.167 OA 
BRANCH  13  17
ATOM     17  CB  GLU A   1      -9.290   5.585  63.828  1.00  0.00     0.765 C  
BRANCH  17  18
ATOM     18  CG  GLU A   1      -9.832   4.954  65.114  1.00  0.00     0.038 C  
ATOM     19  OE2 GLU A   1      -9.079   6.926  66.306  1.00  0.00    -0.156 OA 
ATOM     20  OE1 GLU A   1     -10.137   5.286  67.446  1.00  0.00    -0.164 OA 
ATOM     21  CD  GLU A   1      -9.628   5.836  66.320  1.00  0.00    -0.134 C  
ENDBRANCH  17  18
ENDBRANCH  13  17
ENDBRANCH  11  13
ENDBRANCH   4   9
ENDBRANCH   2   3
BRANCH   2  22
HETATM   22  C   UNK A   0      -6.058   7.530  72.032  1.00  0.00    -0.039 C  
BRANCH  22  23
HETATM   23  C   UNK A   0      -6.568   8.526  71.009  1.00  0.00    -0.048 A  
HETATM   24  N   UNK A   0      -5.428   8.287  66.958  1.00  0.00    -0.036 NA 
HETATM   25  C   UNK A   0      -7.523  10.310  69.144  1.00  0.00    -0.105 A  
HETATM   26  C   UNK A   0      -7.504   9.498  71.313  1.00  0.00     0.286 A  
HETATM   27  N   UNK A   0      -7.957  11.217  68.274  1.00  0.00    -0.126 NA 
HETATM   28  C   UNK A   0      -6.235   9.312  67.475  1.00  0.00    -0.058 A  
HETATM   29  C   UNK A   0      -6.612   9.301  68.815  1.00  0.00    -0.052 A  
HETATM   30  N   UNK A   0      -7.982  10.383  70.400  1.00  0.00    -0.358 NA 
HETATM   31  C   UNK A   0      -7.484  11.160  67.036  1.00  0.00    -0.132 A  
HETATM   32  H1  UNK A   0      -5.105   7.599  67.638  1.00  0.00     0.000 HD 
HETATM   33  H1  UNK A   0      -7.526  12.088  65.197  1.00  0.00     0.000 HD 
HETATM   34  N   UNK A   0      -7.889  12.132  66.149  1.00  0.00    -0.108 NA 
HETATM   35  N   UNK A   0      -6.661  10.217  66.582  1.00  0.00    -0.072 NA 
HETATM   36  N   UNK A   0      -6.123   8.409  69.736  1.00  0.00    -0.028 NA 
HETATM   37  H2  UNK A   0      -4.634   8.685  66.458  1.00  0.00     0.000 HD 
HETATM   38  H2  UNK A   0      -8.532  12.871  66.434  1.00  0.00     0.000 HD 
ENDBRANCH  22  23
ENDBRANCH   2  22
TORSDOF 7
ENDMDL
MODEL      317
REMARK 921   NORMALIZED FREE ENERGY PREDICTED BY IDOCK:   11.49 KCAL/MOL
REMARK 922        TOTAL FREE ENERGY PREDICTED BY IDOCK:   14.45 KCAL/MOL
REMARK 923 INTER-LIGAND FREE ENERGY PREDICTED BY IDOCK:   11.66 KCAL/MOL
REMARK 924 INTRA-LIGAND FREE ENERGY PREDICTED BY IDOCK:    2.79 KCAL/MOL
REMARK 927      BINDING AFFINITY PREDICTED BY RF-SCORE:    0.00 PKD
ROOT
HETATM    1  C   UNK A   0      -9.103   8.873  73.266  1.00  0.00     0.917 C  
HETATM    2  N   UNK A   0      -8.570   9.523  72.072  1.00  0.00     0.381 NA 
ENDROOT
BRANCH   2   3
HETATM    3  C   UNK A   0      -9.378   9.656  70.949  1.00  0.00     0.074 A  
HETATM    4  C   UNK A   0     -10.815  10.228  68.575  1.00  0.00    -0.281 A  
HETATM    5  C   UNK A   0     -10.625  10.305  70.982  1.00  0.00     0.440 A  
HETATM    6  C   UNK A   0      -8.936   9.199  69.697  1.00  0.00    -0.158 A  
HETATM    7  C   UNK A   0      -9.631   9.492  68.521  1.00  0.00    -0.150 A  
HETATM    8  C   UNK A   0     -11.349  10.578  69.813  1.00  0.00    -0.367 A  
BRANCH   4   9
HETATM    9  C   UNK A   0     -11.497  10.658  67.331  1.00  0.00     0.064 C  
HETATM   10  O   UNK A   0     -12.148   9.869  66.663  1.00  0.00     2.766 OA 
ATOM     11  N   GLU A   1     -11.378  12.008  67.023  1.00  0.00    -0.319 N  
ATOM     12  H   GLU A   1     -10.766  12.610  67.573  1.00  0.00     0.000 HD 
BRANCH  11  13
ATOM     13  CA  GLU A   1     -12.148  12.562  65.892  1.00  0.00    -0.352 C  
ATOM     14  OXT GLU A   1     -12.180  12.032  63.503  1.00  0.00    -0.530 OA 
ATOM     15  C   GLU A   1     -11.592  11.992  64.574  1.00  0.00    -0.317 C  
ATOM     16  O   GLU A   1     -10.300  11.589  64.674  1.00  0.00    -0.261 OA 
BRANCH  13  17
ATOM     17  CB  GLU A   1     -12.049  14.095  65.882  1.00  0.00    -0.441 C  
BRANCH  17  18
ATOM     18  CG  GLU A   1     -11.392  14.663  67.144  1.00  0.00    -0.365 C  
ATOM     19  OE2 GLU A   1     -13.446  15.876  67.575  1.00  0.00     4.226 OA 
ATOM     20  OE1 GLU A   1     -11.733  16.055  69.037  1.00  0.00    -0.370 OA 
ATOM     21  CD  GLU A   1     -12.309  15.583  67.909  1.00  0.00     0.775 C  
ENDBRANCH  17  18
ENDBRANCH  13  17
ENDBRANCH  11  13
ENDBRANCH   4   9
ENDBRANCH   2   3
BRANCH   2  22
HETATM   22  C   UNK A   0      -7.106   9.621  71.941  1.00  0.00     0.927 C  
BRANCH  22  23
HETATM   23  C   UNK A   0      -6.638  10.678  70.958  1.00  0.00     0.661 A  
HETATM   24  N   UNK A   0      -7.736  10.530  66.892  1.00  0.00    -0.110 NA 
HETATM   25  C   UNK A   0      -5.821  12.614  69.183  1.00  0.00    -0.080 A  
HETATM   26  C   UNK A   0      -5.919  11.794  71.346  1.00  0.00     0.908 A  
HETATM   27  N   UNK A   0      -5.368  13.533  68.336  1.00  0.00    -0.088 NA 
HETATM   28  C   UNK A   0      -6.869  11.497  67.425  1.00  0.00    -0.104 A  
HETATM   29  C   UNK A   0      -6.588  11.514  68.787  1.00  0.00    -0.070 A  
HETATM   30  N   UNK A   0      -5.510  12.756  70.478  1.00  0.00    -0.144 NA 
HETATM   31  C   UNK A   0      -5.655  13.381  67.049  1.00  0.00     0.907 A  
HETATM   32  H1  UNK A   0      -8.075   9.833  67.555  1.00  0.00     0.000 HD 
HETATM   33  H1  UNK A   0      -5.360  14.184  65.175  1.00  0.00     0.000 HD 
HETATM   34  N   UNK A   0      -5.140  14.302  66.164  1.00  0.00     3.535 NA 
HETATM   35  N   UNK A   0      -6.424  12.413  66.553  1.00  0.00    -0.297 NA 
HETATM   36  N   UNK A   0      -6.997  10.538  69.661  1.00  0.00    -0.119 NA 
HETATM   37  H2  UNK A   0      -7.299  10.070  66.094  1.00  0.00     0.000 HD 
HETATM   38  H2  UNK A   0      -4.557  15.075  66.486  1.00  0.00     0.000 HD 
ENDBRANCH  22  23
ENDBRANCH   2  22
TORSDOF 7
ENDMDL
MODEL      318
REMARK 921   NORMALIZED FREE ENERGY PREDICTED BY IDOCK:   17.58 KCAL/MOL
REMARK 922        TOTAL FREE ENERGY PREDICTED BY IDOCK:   23.03 KCAL/MOL
REMARK 923 INTER-LIGAND FREE ENERGY PREDICTED BY IDOCK:   12.93 KCAL/MOL
REMARK 924 INTRA-LIGAND FREE ENERGY PREDICTED BY IDOCK:   10.11 KCAL/MOL
REMARK 927      BINDING AFFINITY PREDICTED BY RF-SCORE:    0.00 PKD
ROOT
HETATM    1  C   UNK A   0     -10.717  16.238  63.284  1.00  0.00     6.026 C  
HETATM    2  N   UNK A   0     -10.253  15.334  64.333  1.00  0.00    -0.305 NA 
ENDROOT
BRANCH   2   3
HETATM    3  C   UNK A   0      -9.215  15.732  65.167  1.00  0.00     1.083 A  
HETATM    4  C   UNK A   0      -7.330  16.462  67.152  1.00  0.00    -0.230 A  
HETATM    5  C   UNK A   0      -8.982  17.078  65.501  1.00  0.00     0.706 A  
HETATM    6  C   UNK A   0      -8.386  14.777  65.776  1.00  0.00     1.953 A  
HETATM    7  C   UNK A   0      -7.466  15.128  66.768  1.00  0.00     0.295 A  
HETATM    8  C   UNK A   0      -8.040  17.448  66.472  1.00  0.00    -0.312 A  
BRANCH   4   9
HETATM    9  C   UNK A   0      -6.455  16.838  68.289  1.00  0.00    -0.141 C  
HETATM   10  O   UNK A   0      -5.620  16.059  68.725  1.00  0.00    -0.105 OA 
ATOM     11  N   GLU A   1      -6.625  18.130  68.770  1.00  0.00    -0.228 N  
ATOM     12  H   GLU A   1      -7.383  18.716  68.418  1.00  0.00     0.000 HD 
BRANCH  11  13
ATOM     13  CA  GLU A   1      -5.698  18.648  69.794  1.00  0.00    -0.244 C  
ATOM     14  OXT GLU A   1      -5.444  18.171  72.181  1.00  0.00    -0.321 OA 
ATOM     15  C   GLU A   1      -6.147  18.152  71.181  1.00  0.00     1.068 C  
ATOM     16  O   GLU A   1      -7.469  17.849  71.232  1.00  0.00     4.957 OA 
BRANCH  13  17
ATOM     17  CB  GLU A   1      -5.680  20.184  69.767  1.00  0.00    -0.336 C  
BRANCH  17  18
ATOM     18  CG  GLU A   1      -5.503  20.758  68.358  1.00  0.00    -0.342 C  
ATOM     19  OE2 GLU A   1      -5.176  18.493  67.560  1.00  0.00    -0.147 OA 
ATOM     20  OE1 GLU A   1      -5.129  20.201  66.080  1.00  0.00    -0.164 OA 
ATOM     21  CD  GLU A   1      -5.253  19.688  67.326  1.00  0.00    -0.161 C  
ENDBRANCH  17  18
ENDBRANCH  13  17
ENDBRANCH  11  13
ENDBRANCH   4   9
ENDBRANCH   2   3
BRANCH   2  22
HETATM   22  C   UNK A   0     -10.584  13.904  64.201  1.00  0.00     0.167 C  
BRANCH  22  23
HETATM   23  C   UNK A   0      -9.962  13.021  65.266  1.00  0.00    -0.170 A  
HETATM   24  N   UNK A   0     -10.363  13.915  69.365  1.00  0.00    -0.430 NA 
HETATM   25  C   UNK A   0      -8.868  11.398  67.199  1.00  0.00    -0.156 A  
HETATM   26  C   UNK A   0      -9.323  11.830  64.970  1.00  0.00     0.017 A  
HETATM   27  N   UNK A   0      -8.283  10.627  68.111  1.00  0.00    -0.113 NA 
HETATM   28  C   UNK A   0      -9.601  12.841  68.878  1.00  0.00     0.236 A  
HETATM   29  C   UNK A   0      -9.553  12.576  67.513  1.00  0.00    -0.187 A  
HETATM   30  N   UNK A   0      -8.779  11.022  65.917  1.00  0.00    -0.181 NA 
HETATM   31  C   UNK A   0      -8.349  11.011  69.378  1.00  0.00     0.147 A  
HETATM   32  H1  UNK A   0     -10.805  14.496  68.653  1.00  0.00     0.000 HD 
HETATM   33  H1  UNK A   0      -7.748  10.539  71.292  1.00  0.00     0.000 HD 
HETATM   34  N   UNK A   0      -7.697  10.243  70.317  1.00  0.00    -0.430 NA 
HETATM   35  N   UNK A   0      -9.020  12.076  69.814  1.00  0.00     1.249 NA 
HETATM   36  N   UNK A   0     -10.098  13.397  66.558  1.00  0.00    -0.274 NA 
HETATM   37  H2  UNK A   0      -9.796  14.492  69.986  1.00  0.00     0.000 HD 
HETATM   38  H2  UNK A   0      -7.180   9.406  70.046  1.00  0.00     0.000 HD 
ENDBRANCH  22  23
ENDBRANCH   2  22
TORSDOF 7
ENDMDL
MODEL      319
REMARK 921   NORMALIZED FREE ENERGY PREDICTED BY IDOCK:   19.41 KCAL/MOL
REMARK 922        TOTAL FREE ENERGY PREDICTED BY IDOCK:   25.61 KCAL/MOL
REMARK 923 INTER-LIGAND FREE ENERGY PREDICTED BY IDOCK:   25.13 KCAL/MOL
REMARK 924 INTRA-LIGAND FREE ENERGY PREDICTED BY IDOCK:    0.48 KCAL/MOL
REMARK 927      BINDING AFFINITY PREDICTED BY RF-SCORE:    0.00 PKD
ROOT
HETATM    1  C   UNK A   0      -5.849  11.585  68.675  1.00  0.00    -0.042 C  
HETATM    2  N   UNK A   0      -6.988  12.426  69.030  1.00  0.00    -0.184 NA 
ENDROOT
BRANCH   2   3
HETATM    3  C   UNK A   0      -6.775  13.755  69.378  1.00  0.00    -0.079 A  
HETATM    4  C   UNK A   0      -6.710  16.484  70.133  1.00  0.00     0.472 A  
HETATM    5  C   UNK A   0      -6.652  14.780  68.423  1.00  0.00    -0.101 A  
HETATM    6  C   UNK A   0      -6.743  14.140  70.727  1.00  0.00     0.416 A  
HETATM    7  C   UNK A   0      -6.728  15.485  71.106  1.00  0.00     1.353 A  
HETATM    8  C   UNK A   0      -6.605  16.132  68.790  1.00  0.00    -0.129 A  
BRANCH   4   9
HETATM    9  C   UNK A   0      -6.824  17.914  70.512  1.00  0.00     1.720 C  
HETATM   10  O   UNK A   0      -6.011  18.737  70.120  1.00  0.00    -0.246 OA 
ATOM     11  N   GLU A   1      -7.931  18.237  71.288  1.00  0.00     6.550 N  
ATOM     12  H   GLU A   1      -8.541  17.503  71.648  1.00  0.00     0.000 HD 
BRANCH  11  13
ATOM     13  CA  GLU A   1      -8.216  19.654  71.586  1.00  0.00     3.496 C  
ATOM     14  OXT GLU A   1     -10.131  20.768  72.625  1.00  0.00     3.137 OA 
ATOM     15  C   GLU A   1      -9.679  19.790  72.047  1.00  0.00     3.182 C  
ATOM     16  O   GLU A   1     -10.473  18.787  71.594  1.00  0.00     2.216 OA 
BRANCH  13  17
ATOM     17  CB  GLU A   1      -7.977  20.518  70.338  1.00  0.00     1.866 C  
BRANCH  17  18
ATOM     18  CG  GLU A   1      -9.152  20.490  69.355  1.00  0.00     1.114 C  
ATOM     19  OE2 GLU A   1      -7.541  20.281  67.556  1.00  0.00    -0.284 OA 
ATOM     20  OE1 GLU A   1      -9.747  20.294  67.065  1.00  0.00    -0.409 OA 
ATOM     21  CD  GLU A   1      -8.703  20.349  67.923  1.00  0.00    -0.074 C  
ENDBRANCH  17  18
ENDBRANCH  13  17
ENDBRANCH  11  13
ENDBRANCH   4   9
ENDBRANCH   2   3
BRANCH   2  22
HETATM   22  C   UNK A   0      -8.240  11.755  69.425  1.00  0.00     0.653 C  
BRANCH  22  23
HETATM   23  C   UNK A   0      -8.057  10.325  69.897  1.00  0.00    -0.052 A  
HETATM   24  N   UNK A   0      -6.683   7.314  67.287  1.00  0.00    -0.066 NA 
HETATM   25  C   UNK A   0      -7.689   7.739  70.760  1.00  0.00    -0.084 A  
HETATM   26  C   UNK A   0      -8.228   9.944  71.216  1.00  0.00     1.424 A  
HETATM   27  N   UNK A   0      -7.572   6.486  71.190  1.00  0.00    -0.089 NA 
HETATM   28  C   UNK A   0      -7.069   7.070  68.614  1.00  0.00    -0.092 A  
HETATM   29  C   UNK A   0      -7.468   8.122  69.434  1.00  0.00    -0.091 A  
HETATM   30  N   UNK A   0      -8.049   8.671  71.652  1.00  0.00    -0.205 NA 
HETATM   31  C   UNK A   0      -7.239   5.558  70.302  1.00  0.00    -0.067 A  
HETATM   32  H1  UNK A   0      -6.779   8.280  66.973  1.00  0.00     0.000 HD 
HETATM   33  H1  UNK A   0      -6.915   3.539  70.051  1.00  0.00     0.000 HD 
HETATM   34  N   UNK A   0      -7.171   4.252  70.734  1.00  0.00    -0.040 NA 
HETATM   35  N   UNK A   0      -6.944   5.801  69.026  1.00  0.00    -0.065 NA 
HETATM   36  N   UNK A   0      -7.653   9.406  68.989  1.00  0.00    -0.073 NA 
HETATM   37  H2  UNK A   0      -7.186   6.690  66.656  1.00  0.00     0.000 HD 
HETATM   38  H2  UNK A   0      -7.370   4.007  71.704  1.00  0.00     0.000 HD 
ENDBRANCH  22  23
ENDBRANCH   2  22
TORSDOF 7
ENDMDL
MODEL      320
REMARK 921   NORMALIZED FREE ENERGY PREDICTED BY IDOCK:   26.96 KCAL/MOL
REMARK 922        TOTAL FREE ENERGY PREDICTED BY IDOCK:   36.25 KCAL/MOL
REMARK 923 INTER-LIGAND FREE ENERGY PREDICTED BY IDOCK:   36.31 KCAL/MOL
REMARK 924 INTRA-LIGAND FREE ENERGY PREDICTED BY IDOCK:   -0.06 KCAL/MOL
REMARK 927      BINDING AFFINITY PREDICTED BY RF-SCORE:    0.00 PKD
ROOT
HETATM    1  C   UNK A   0      -5.861  11.580  68.697  1.00  0.00    -0.042 C  
HETATM    2  N   UNK A   0      -7.045  12.288  69.177  1.00  0.00    -0.272 NA 
ENDROOT
BRANCH   2   3
HETATM    3  C   UNK A   0      -6.910  13.570  69.697  1.00  0.00     0.107 A  
HETATM    4  C   UNK A   0      -6.968  16.253  70.603  1.00  0.00     1.696 A  
HETATM    5  C   UNK A   0      -6.187  14.583  69.043  1.00  0.00    -0.092 A  
HETATM    6  C   UNK A   0      -7.564  13.927  70.886  1.00  0.00     3.032 A  
HETATM    7  C   UNK A   0      -7.611  15.251  71.330  1.00  0.00     2.733 A  
HETATM    8  C   UNK A   0      -6.200  15.911  69.494  1.00  0.00    -0.163 A  
BRANCH   4   9
HETATM    9  C   UNK A   0      -7.115  17.679  70.985  1.00  0.00     4.049 C  
HETATM   10  O   UNK A   0      -6.136  18.394  71.137  1.00  0.00     0.426 OA 
ATOM     11  N   GLU A   1      -8.423  18.132  71.104  1.00  0.00     6.925 N  
ATOM     12  H   GLU A   1      -9.203  17.479  71.037  1.00  0.00     0.000 HD 
BRANCH  11  13
ATOM     13  CA  GLU A   1      -8.672  19.569  71.328  1.00  0.00     3.501 C  
ATOM     14  OXT GLU A   1     -10.722  20.907  71.329  1.00  0.00     3.136 OA 
ATOM     15  C   GLU A   1     -10.140  19.888  70.985  1.00  0.00     1.978 C  
ATOM     16  O   GLU A   1     -10.683  19.004  70.111  1.00  0.00     1.177 OA 
BRANCH  13  17
ATOM     17  CB  GLU A   1      -7.735  20.414  70.452  1.00  0.00     1.380 C  
BRANCH  17  18
ATOM     18  CG  GLU A   1      -8.230  20.561  69.010  1.00  0.00     0.855 C  
ATOM     19  OE2 GLU A   1      -6.080  19.724  68.268  1.00  0.00    -0.225 OA 
ATOM     20  OE1 GLU A   1      -7.655  20.234  66.730  1.00  0.00    -0.283 OA 
ATOM     21  CD  GLU A   1      -7.199  20.130  67.999  1.00  0.00    -0.281 C  
ENDBRANCH  17  18
ENDBRANCH  13  17
ENDBRANCH  11  13
ENDBRANCH   4   9
ENDBRANCH   2   3
BRANCH   2  22
HETATM   22  C   UNK A   0      -8.241  11.488  69.494  1.00  0.00     0.681 C  
BRANCH  22  23
HETATM   23  C   UNK A   0      -8.537  10.387  68.494  1.00  0.00    -0.134 A  
HETATM   24  N   UNK A   0      -9.574  11.269  64.505  1.00  0.00    -0.274 NA 
HETATM   25  C   UNK A   0      -9.037   8.390  66.669  1.00  0.00    -0.164 A  
HETATM   26  C   UNK A   0      -8.388   9.044  68.793  1.00  0.00    -0.122 A  
HETATM   27  N   UNK A   0      -9.327   7.407  65.822  1.00  0.00    -0.389 NA 
HETATM   28  C   UNK A   0      -9.544   9.966  65.027  1.00  0.00    -0.297 A  
HETATM   29  C   UNK A   0      -9.145   9.745  66.342  1.00  0.00    -0.155 A  
HETATM   30  N   UNK A   0      -8.633   8.050  67.900  1.00  0.00    -0.128 NA 
HETATM   31  C   UNK A   0      -9.751   7.742  64.610  1.00  0.00     2.710 A  
HETATM   32  H1  UNK A   0      -9.349  12.011  65.168  1.00  0.00     0.000 HD 
HETATM   33  H1  UNK A   0     -10.430   6.983  62.819  1.00  0.00     0.000 HD 
HETATM   34  N   UNK A   0     -10.104   6.725  63.750  1.00  0.00     4.520 NA 
HETATM   35  N   UNK A   0      -9.840   8.990  64.156  1.00  0.00     0.557 NA 
HETATM   36  N   UNK A   0      -8.904  10.750  67.244  1.00  0.00    -0.133 NA 
HETATM   37  H2  UNK A   0     -10.478  11.451  64.070  1.00  0.00     0.000 HD 
HETATM   38  H2  UNK A   0     -10.041   5.748  64.036  1.00  0.00     0.000 HD 
ENDBRANCH  22  23
ENDBRANCH   2  22
TORSDOF 7
ENDMDL
