MODEL        1
REMARK 921   NORMALIZED FREE ENERGY PREDICTED BY IDOCK:   -6.11 KCAL/MOL
REMARK 922        TOTAL FREE ENERGY PREDICTED BY IDOCK:   -9.93 KCAL/MOL
REMARK 923 INTER-LIGAND FREE ENERGY PREDICTED BY IDOCK:   -8.62 KCAL/MOL
REMARK 924 INTRA-LIGAND FREE ENERGY PREDICTED BY IDOCK:   -1.32 KCAL/MOL
REMARK 927      BINDING AFFINITY PREDICTED BY RF-SCORE:    0.00 PKD
ROOT
HETATM    1  C   UNL     1      -9.253  16.241  66.082  1.00  0.00    -0.376 C  
HETATM    2  C   UNL     1     -10.344  16.879  66.925  1.00  0.00    -0.304 C  
ENDROOT
BRANCH   2   3
HETATM    3  N   UNL     1      -9.852  17.478  68.269  1.00  0.00    -0.301 N  
HETATM    4  C   UNL     1      -8.389  17.057  68.497  1.00  0.00    -0.260 C  
BRANCH   3   5
HETATM    5  C   UNL     1      -9.932  19.016  68.306  1.00  0.00    -0.394 C  
HETATM    6  C   UNL     1     -10.665  19.620  67.118  1.00  0.00    -0.587 C  
ENDBRANCH   3   5
BRANCH   3   7
HETATM    7  C   UNL     1     -10.732  16.817  69.370  1.00  0.00    -0.300 C  
BRANCH   7   8
HETATM    8  C   UNL     1     -11.809  15.869  68.837  1.00  0.00    -0.304 C  
BRANCH   8   9
HETATM    9  O   UNL     1     -11.673  14.561  69.399  1.00  0.00    -0.281 OA 
BRANCH   9  10
HETATM   10  C   UNL     1     -10.954  13.690  68.624  1.00  0.00    -0.267 C  
HETATM   11  O   UNL     1      -9.735  13.745  68.510  1.00  0.00    -0.225 OA 
BRANCH  10  12
HETATM   12  C   UNL     1     -11.837  12.575  68.077  1.00  0.00    -0.382 C  
HETATM   13  C   UNL     1     -11.695  12.569  66.572  1.00  0.00    -0.454 A  
HETATM   14  C   UNL     1     -12.052  13.703  65.819  1.00  0.00    -0.463 A  
HETATM   15  C   UNL     1     -11.785  13.755  64.452  1.00  0.00    -0.436 A  
HETATM   16  C   UNL     1     -11.180  12.670  63.822  1.00  0.00    -0.519 A  
HETATM   17  C   UNL     1     -10.841  11.534  64.560  1.00  0.00    -0.390 A  
HETATM   18  C   UNL     1     -11.088  11.488  65.932  1.00  0.00    -0.214 A  
HETATM   19  O   UNL     1     -10.681  10.350  66.585  1.00  0.00    -0.207 OA 
HETATM   20  C   UNL     1     -10.913  10.240  67.935  1.00  0.00    -0.292 A  
HETATM   21  C   UNL     1     -10.529   9.035  68.528  1.00  0.00    -0.232 A  
HETATM   22  C   UNL     1     -10.712   8.836  69.895  1.00  0.00    -0.228 A  
HETATM   23  C   UNL     1     -11.291   9.837  70.674  1.00  0.00    -0.401 A  
HETATM   24  C   UNL     1     -11.682  11.039  70.084  1.00  0.00    -0.442 A  
HETATM   25  C   UNL     1     -11.483  11.253  68.709  1.00  0.00    -0.359 A  
ENDBRANCH  10  12
ENDBRANCH   9  10
ENDBRANCH   8   9
ENDBRANCH   7   8
ENDBRANCH   3   7
ENDBRANCH   2   3
TORSDOF 7
ENDMDL
MODEL        2
REMARK 921   NORMALIZED FREE ENERGY PREDICTED BY IDOCK:   -6.10 KCAL/MOL
REMARK 922        TOTAL FREE ENERGY PREDICTED BY IDOCK:   -9.92 KCAL/MOL
REMARK 923 INTER-LIGAND FREE ENERGY PREDICTED BY IDOCK:   -9.11 KCAL/MOL
REMARK 924 INTRA-LIGAND FREE ENERGY PREDICTED BY IDOCK:   -0.81 KCAL/MOL
REMARK 927      BINDING AFFINITY PREDICTED BY RF-SCORE:    0.00 PKD
ROOT
HETATM    1  C   UNL     1     -13.081  12.314  71.937  1.00  0.00    -0.469 C  
HETATM    2  C   UNL     1     -12.526  13.371  70.997  1.00  0.00    -0.353 C  
ENDROOT
BRANCH   2   3
HETATM    3  N   UNL     1     -12.820  14.833  71.428  1.00  0.00    -0.314 N  
HETATM    4  C   UNL     1     -14.291  14.937  71.868  1.00  0.00    -0.576 C  
BRANCH   3   5
HETATM    5  C   UNL     1     -11.925  15.308  72.588  1.00  0.00    -0.431 C  
HETATM    6  C   UNL     1     -12.642  16.202  73.588  1.00  0.00    -0.684 C  
ENDBRANCH   3   5
BRANCH   3   7
HETATM    7  C   UNL     1     -12.627  15.695  70.146  1.00  0.00    -0.206 C  
BRANCH   7   8
HETATM    8  C   UNL     1     -11.167  15.963  69.774  1.00  0.00    -0.339 C  
BRANCH   8   9
HETATM    9  O   UNL     1     -10.882  15.527  68.442  1.00  0.00    -0.252 OA 
BRANCH   9  10
HETATM   10  C   UNL     1      -9.553  15.310  68.195  1.00  0.00    -0.204 C  
HETATM   11  O   UNL     1      -8.832  14.653  68.937  1.00  0.00    -0.179 OA 
BRANCH  10  12
HETATM   12  C   UNL     1      -9.150  15.842  66.825  1.00  0.00    -0.276 C  
HETATM   13  C   UNL     1     -10.034  15.179  65.793  1.00  0.00    -0.375 A  
HETATM   14  C   UNL     1     -10.028  13.779  65.644  1.00  0.00    -0.275 A  
HETATM   15  C   UNL     1     -10.946  13.155  64.801  1.00  0.00    -0.355 A  
HETATM   16  C   UNL     1     -11.861  13.922  64.084  1.00  0.00    -0.417 A  
HETATM   17  C   UNL     1     -11.860  15.312  64.213  1.00  0.00    -0.235 A  
HETATM   18  C   UNL     1     -10.956  15.938  65.072  1.00  0.00    -0.412 A  
HETATM   19  O   UNL     1     -11.057  17.304  65.170  1.00  0.00    -0.474 OA 
HETATM   20  C   UNL     1     -10.181  17.977  65.989  1.00  0.00    -0.303 A  
HETATM   21  C   UNL     1     -10.297  19.369  65.998  1.00  0.00    -0.584 A  
HETATM   22  C   UNL     1      -9.461  20.138  66.807  1.00  0.00    -0.533 A  
HETATM   23  C   UNL     1      -8.499  19.517  67.602  1.00  0.00    -0.347 A  
HETATM   24  C   UNL     1      -8.376  18.128  67.590  1.00  0.00    -0.244 A  
HETATM   25  C   UNL     1      -9.228  17.346  66.790  1.00  0.00    -0.274 A  
ENDBRANCH  10  12
ENDBRANCH   9  10
ENDBRANCH   8   9
ENDBRANCH   7   8
ENDBRANCH   3   7
ENDBRANCH   2   3
TORSDOF 7
ENDMDL
MODEL        3
REMARK 921   NORMALIZED FREE ENERGY PREDICTED BY IDOCK:   -5.97 KCAL/MOL
REMARK 922        TOTAL FREE ENERGY PREDICTED BY IDOCK:   -9.73 KCAL/MOL
REMARK 923 INTER-LIGAND FREE ENERGY PREDICTED BY IDOCK:   -8.50 KCAL/MOL
REMARK 924 INTRA-LIGAND FREE ENERGY PREDICTED BY IDOCK:   -1.23 KCAL/MOL
REMARK 927      BINDING AFFINITY PREDICTED BY RF-SCORE:    0.00 PKD
ROOT
HETATM    1  C   UNL     1     -10.645  19.279  67.225  1.00  0.00    -0.590 C  
HETATM    2  C   UNL     1      -9.712  18.887  68.359  1.00  0.00    -0.379 C  
ENDROOT
BRANCH   2   3
HETATM    3  N   UNL     1      -8.297  18.440  67.902  1.00  0.00    -0.256 N  
HETATM    4  C   UNL     1      -8.082  18.879  66.443  1.00  0.00    -0.292 C  
BRANCH   3   5
HETATM    5  C   UNL     1      -7.171  19.038  68.766  1.00  0.00    -0.323 C  
HETATM    6  C   UNL     1      -6.721  20.419  68.314  1.00  0.00    -0.313 C  
ENDBRANCH   3   5
BRANCH   3   7
HETATM    7  C   UNL     1      -8.313  16.884  67.951  1.00  0.00    -0.198 C  
BRANCH   7   8
HETATM    8  C   UNL     1      -8.109  16.204  66.595  1.00  0.00    -0.288 C  
BRANCH   8   9
HETATM    9  O   UNL     1      -9.058  15.155  66.392  1.00  0.00    -0.276 OA 
BRANCH   9  10
HETATM   10  C   UNL     1     -10.226  15.560  65.803  1.00  0.00    -0.366 C  
HETATM   11  O   UNL     1     -10.288  16.497  65.014  1.00  0.00    -0.622 OA 
BRANCH  10  12
HETATM   12  C   UNL     1     -11.370  14.607  66.125  1.00  0.00    -0.350 C  
HETATM   13  C   UNL     1     -11.054  13.273  65.485  1.00  0.00    -0.299 A  
HETATM   14  C   UNL     1     -10.893  13.173  64.091  1.00  0.00    -0.407 A  
HETATM   15  C   UNL     1     -10.458  11.981  63.515  1.00  0.00    -0.505 A  
HETATM   16  C   UNL     1     -10.201  10.875  64.321  1.00  0.00    -0.430 A  
HETATM   17  C   UNL     1     -10.377  10.962  65.703  1.00  0.00    -0.305 A  
HETATM   18  C   UNL     1     -10.792  12.160  66.285  1.00  0.00    -0.282 A  
HETATM   19  O   UNL     1     -10.896  12.168  67.654  1.00  0.00    -0.218 OA 
HETATM   20  C   UNL     1     -11.317  13.316  68.282  1.00  0.00    -0.300 A  
HETATM   21  C   UNL     1     -11.458  13.240  69.670  1.00  0.00    -0.267 A  
HETATM   22  C   UNL     1     -11.867  14.357  70.396  1.00  0.00    -0.381 A  
HETATM   23  C   UNL     1     -12.149  15.552  69.735  1.00  0.00    -0.372 A  
HETATM   24  C   UNL     1     -12.015  15.629  68.349  1.00  0.00    -0.084 A  
HETATM   25  C   UNL     1     -11.585  14.511  67.613  1.00  0.00    -0.402 A  
ENDBRANCH  10  12
ENDBRANCH   9  10
ENDBRANCH   8   9
ENDBRANCH   7   8
ENDBRANCH   3   7
ENDBRANCH   2   3
TORSDOF 7
ENDMDL
MODEL        4
REMARK 921   NORMALIZED FREE ENERGY PREDICTED BY IDOCK:   -5.95 KCAL/MOL
REMARK 922        TOTAL FREE ENERGY PREDICTED BY IDOCK:   -9.71 KCAL/MOL
REMARK 923 INTER-LIGAND FREE ENERGY PREDICTED BY IDOCK:   -8.96 KCAL/MOL
REMARK 924 INTRA-LIGAND FREE ENERGY PREDICTED BY IDOCK:   -0.75 KCAL/MOL
REMARK 927      BINDING AFFINITY PREDICTED BY RF-SCORE:    0.00 PKD
ROOT
HETATM    1  C   UNL     1     -13.367   9.189  72.290  1.00  0.00    -0.540 C  
HETATM    2  C   UNL     1     -12.246   8.176  72.124  1.00  0.00    -0.350 C  
ENDROOT
BRANCH   2   3
HETATM    3  N   UNL     1     -11.123   8.613  71.146  1.00  0.00    -0.252 N  
HETATM    4  C   UNL     1      -9.802   8.736  71.927  1.00  0.00    -0.324 C  
BRANCH   3   5
HETATM    5  C   UNL     1     -10.917   7.620  69.987  1.00  0.00    -0.228 C  
HETATM    6  C   UNL     1     -11.504   6.242  70.249  1.00  0.00    -0.428 C  
ENDBRANCH   3   5
BRANCH   3   7
HETATM    7  C   UNL     1     -11.531  10.028  70.643  1.00  0.00    -0.345 C  
BRANCH   7   8
HETATM    8  C   UNL     1     -11.379  10.234  69.134  1.00  0.00    -0.186 C  
BRANCH   8   9
HETATM    9  O   UNL     1     -12.059  11.414  68.701  1.00  0.00    -0.518 OA 
BRANCH   9  10
HETATM   10  C   UNL     1     -11.320  12.562  68.816  1.00  0.00    -0.293 C  
HETATM   11  O   UNL     1     -10.095  12.573  68.811  1.00  0.00    -0.166 OA 
BRANCH  10  12
HETATM   12  C   UNL     1     -12.209  13.799  68.782  1.00  0.00    -0.221 C  
HETATM   13  C   UNL     1     -12.463  14.226  70.210  1.00  0.00    -0.422 A  
HETATM   14  C   UNL     1     -13.105  13.355  71.110  1.00  0.00    -0.254 A  
HETATM   15  C   UNL     1     -13.207  13.685  72.460  1.00  0.00    -0.578 A  
HETATM   16  C   UNL     1     -12.690  14.894  72.919  1.00  0.00    -0.531 A  
HETATM   17  C   UNL     1     -12.069  15.771  72.028  1.00  0.00    -0.562 A  
HETATM   18  C   UNL     1     -11.946  15.434  70.680  1.00  0.00    -0.356 A  
HETATM   19  O   UNL     1     -11.281  16.335  69.886  1.00  0.00    -0.340 OA 
HETATM   20  C   UNL     1     -11.144  16.065  68.546  1.00  0.00    -0.347 A  
HETATM   21  C   UNL     1     -10.510  17.049  67.783  1.00  0.00    -0.349 A  
HETATM   22  C   UNL     1     -10.314  16.859  66.416  1.00  0.00    -0.302 A  
HETATM   23  C   UNL     1     -10.760  15.688  65.804  1.00  0.00    -0.350 A  
HETATM   24  C   UNL     1     -11.399  14.707  66.562  1.00  0.00    -0.353 A  
HETATM   25  C   UNL     1     -11.584  14.885  67.944  1.00  0.00    -0.364 A  
ENDBRANCH  10  12
ENDBRANCH   9  10
ENDBRANCH   8   9
ENDBRANCH   7   8
ENDBRANCH   3   7
ENDBRANCH   2   3
TORSDOF 7
ENDMDL
MODEL        5
REMARK 921   NORMALIZED FREE ENERGY PREDICTED BY IDOCK:   -5.90 KCAL/MOL
REMARK 922        TOTAL FREE ENERGY PREDICTED BY IDOCK:   -9.63 KCAL/MOL
REMARK 923 INTER-LIGAND FREE ENERGY PREDICTED BY IDOCK:   -8.58 KCAL/MOL
REMARK 924 INTRA-LIGAND FREE ENERGY PREDICTED BY IDOCK:   -1.06 KCAL/MOL
REMARK 927      BINDING AFFINITY PREDICTED BY RF-SCORE:    0.00 PKD
ROOT
HETATM    1  C   UNL     1     -10.212  20.052  66.914  1.00  0.00    -0.595 C  
HETATM    2  C   UNL     1     -10.136  19.266  68.213  1.00  0.00    -0.425 C  
ENDROOT
BRANCH   2   3
HETATM    3  N   UNL     1      -9.813  17.758  68.034  1.00  0.00    -0.302 N  
HETATM    4  C   UNL     1     -10.402  17.277  66.697  1.00  0.00    -0.305 C  
BRANCH   3   5
HETATM    5  C   UNL     1      -8.301  17.464  68.039  1.00  0.00    -0.231 C  
HETATM    6  C   UNL     1      -7.761  17.014  66.690  1.00  0.00    -0.302 C  
ENDBRANCH   3   5
BRANCH   3   7
HETATM    7  C   UNL     1     -10.557  17.030  69.191  1.00  0.00    -0.303 C  
BRANCH   7   8
HETATM    8  C   UNL     1     -11.627  16.036  68.732  1.00  0.00    -0.351 C  
BRANCH   8   9
HETATM    9  O   UNL     1     -11.375  14.727  69.247  1.00  0.00    -0.263 OA 
BRANCH   9  10
HETATM   10  C   UNL     1     -10.790  13.874  68.350  1.00  0.00    -0.254 C  
HETATM   11  O   UNL     1      -9.596  13.904  68.076  1.00  0.00    -0.205 OA 
BRANCH  10  12
HETATM   12  C   UNL     1     -11.771  12.805  67.882  1.00  0.00    -0.408 C  
HETATM   13  C   UNL     1     -11.823  12.855  66.371  1.00  0.00    -0.478 A  
HETATM   14  C   UNL     1     -12.238  14.027  65.712  1.00  0.00    -0.475 A  
HETATM   15  C   UNL     1     -12.146  14.126  64.325  1.00  0.00    -0.471 A  
HETATM   16  C   UNL     1     -11.661  13.051  63.583  1.00  0.00    -0.550 A  
HETATM   17  C   UNL     1     -11.266  11.879  64.230  1.00  0.00    -0.424 A  
HETATM   18  C   UNL     1     -11.337  11.784  65.620  1.00  0.00    -0.233 A  
HETATM   19  O   UNL     1     -10.884  10.611  66.173  1.00  0.00    -0.130 OA 
HETATM   20  C   UNL     1     -10.945  10.454  67.537  1.00  0.00    -0.295 A  
HETATM   21  C   UNL     1     -10.526   9.217  68.032  1.00  0.00    -0.276 A  
HETATM   22  C   UNL     1     -10.539   8.968  69.403  1.00  0.00    -0.231 A  
HETATM   23  C   UNL     1     -10.983   9.952  70.285  1.00  0.00    -0.366 A  
HETATM   24  C   UNL     1     -11.408  11.187  69.794  1.00  0.00    -0.354 A  
HETATM   25  C   UNL     1     -11.380  11.450  68.414  1.00  0.00    -0.346 A  
ENDBRANCH  10  12
ENDBRANCH   9  10
ENDBRANCH   8   9
ENDBRANCH   7   8
ENDBRANCH   3   7
ENDBRANCH   2   3
TORSDOF 7
ENDMDL
MODEL        6
REMARK 921   NORMALIZED FREE ENERGY PREDICTED BY IDOCK:   -5.89 KCAL/MOL
REMARK 922        TOTAL FREE ENERGY PREDICTED BY IDOCK:   -9.62 KCAL/MOL
REMARK 923 INTER-LIGAND FREE ENERGY PREDICTED BY IDOCK:   -8.62 KCAL/MOL
REMARK 924 INTRA-LIGAND FREE ENERGY PREDICTED BY IDOCK:   -1.00 KCAL/MOL
REMARK 927      BINDING AFFINITY PREDICTED BY RF-SCORE:    0.00 PKD
ROOT
HETATM    1  C   UNL     1     -10.596  19.709  65.740  1.00  0.00    -0.537 C  
HETATM    2  C   UNL     1     -10.256  18.293  66.177  1.00  0.00    -0.381 C  
ENDROOT
BRANCH   2   3
HETATM    3  N   UNL     1      -8.871  18.146  66.863  1.00  0.00    -0.259 N  
HETATM    4  C   UNL     1      -8.112  16.978  66.208  1.00  0.00    -0.297 C  
BRANCH   3   5
HETATM    5  C   UNL     1      -8.009  19.417  66.751  1.00  0.00    -0.273 C  
HETATM    6  C   UNL     1      -7.401  19.864  68.072  1.00  0.00    -0.332 C  
ENDBRANCH   3   5
BRANCH   3   7
HETATM    7  C   UNL     1      -9.174  17.769  68.342  1.00  0.00    -0.285 C  
BRANCH   7   8
HETATM    8  C   UNL     1     -10.564  17.170  68.573  1.00  0.00    -0.361 C  
BRANCH   8   9
HETATM    9  O   UNL     1     -10.508  16.064  69.477  1.00  0.00    -0.244 OA 
BRANCH   9  10
HETATM   10  C   UNL     1     -10.300  14.854  68.870  1.00  0.00    -0.244 C  
HETATM   11  O   UNL     1      -9.202  14.314  68.810  1.00  0.00    -0.185 OA 
BRANCH  10  12
HETATM   12  C   UNL     1     -11.617  14.214  68.444  1.00  0.00    -0.353 C  
HETATM   13  C   UNL     1     -11.442  13.692  67.035  1.00  0.00    -0.368 A  
HETATM   14  C   UNL     1     -11.121  14.572  65.985  1.00  0.00    -0.329 A  
HETATM   15  C   UNL     1     -10.814  14.076  64.719  1.00  0.00    -0.430 A  
HETATM   16  C   UNL     1     -10.847  12.704  64.484  1.00  0.00    -0.365 A  
HETATM   17  C   UNL     1     -11.184  11.828  65.518  1.00  0.00    -0.316 A  
HETATM   18  C   UNL     1     -11.470  12.319  66.791  1.00  0.00    -0.361 A  
HETATM   19  O   UNL     1     -11.747  11.382  67.757  1.00  0.00    -0.533 OA 
HETATM   20  C   UNL     1     -12.054  11.808  69.027  1.00  0.00    -0.214 A  
HETATM   21  C   UNL     1     -12.383  10.809  69.946  1.00  0.00    -0.340 A  
HETATM   22  C   UNL     1     -12.696  11.143  71.263  1.00  0.00    -0.531 A  
HETATM   23  C   UNL     1     -12.691  12.478  71.663  1.00  0.00    -0.297 A  
HETATM   24  C   UNL     1     -12.369  13.478  70.746  1.00  0.00    -0.440 A  
HETATM   25  C   UNL     1     -12.035  13.147  69.421  1.00  0.00    -0.347 A  
ENDBRANCH  10  12
ENDBRANCH   9  10
ENDBRANCH   8   9
ENDBRANCH   7   8
ENDBRANCH   3   7
ENDBRANCH   2   3
TORSDOF 7
ENDMDL
MODEL        7
REMARK 921   NORMALIZED FREE ENERGY PREDICTED BY IDOCK:   -5.87 KCAL/MOL
REMARK 922        TOTAL FREE ENERGY PREDICTED BY IDOCK:   -9.59 KCAL/MOL
REMARK 923 INTER-LIGAND FREE ENERGY PREDICTED BY IDOCK:   -8.72 KCAL/MOL
REMARK 924 INTRA-LIGAND FREE ENERGY PREDICTED BY IDOCK:   -0.87 KCAL/MOL
REMARK 927      BINDING AFFINITY PREDICTED BY RF-SCORE:    0.00 PKD
ROOT
HETATM    1  C   UNL     1     -10.279  20.299  67.707  1.00  0.00    -0.464 C  
HETATM    2  C   UNL     1      -9.706  19.417  66.611  1.00  0.00    -0.359 C  
ENDROOT
BRANCH   2   3
HETATM    3  N   UNL     1      -8.448  18.609  67.026  1.00  0.00    -0.264 N  
HETATM    4  C   UNL     1      -7.297  18.947  66.062  1.00  0.00    -0.259 C  
BRANCH   3   5
HETATM    5  C   UNL     1      -7.989  18.912  68.464  1.00  0.00    -0.346 C  
HETATM    6  C   UNL     1      -7.078  17.846  69.054  1.00  0.00    -0.229 C  
ENDBRANCH   3   5
BRANCH   3   7
HETATM    7  C   UNL     1      -8.828  17.112  66.833  1.00  0.00    -0.235 C  
BRANCH   7   8
HETATM    8  C   UNL     1     -10.318  16.807  67.004  1.00  0.00    -0.300 C  
BRANCH   8   9
HETATM    9  O   UNL     1     -10.663  16.657  68.383  1.00  0.00    -0.319 OA 
BRANCH   9  10
HETATM   10  C   UNL     1     -10.528  15.380  68.859  1.00  0.00    -0.238 C  
HETATM   11  O   UNL     1      -9.514  14.976  69.415  1.00  0.00    -0.196 OA 
BRANCH  10  12
HETATM   12  C   UNL     1     -11.839  14.609  68.755  1.00  0.00    -0.348 C  
HETATM   13  C   UNL     1     -11.557  13.314  68.026  1.00  0.00    -0.371 A  
HETATM   14  C   UNL     1     -11.053  13.332  66.712  1.00  0.00    -0.313 A  
HETATM   15  C   UNL     1     -10.653  12.149  66.094  1.00  0.00    -0.290 A  
HETATM   16  C   UNL     1     -10.773  10.938  66.771  1.00  0.00    -0.309 A  
HETATM   17  C   UNL     1     -11.291  10.911  68.067  1.00  0.00    -0.382 A  
HETATM   18  C   UNL     1     -11.671  12.096  68.697  1.00  0.00    -0.330 A  
HETATM   19  O   UNL     1     -12.126  11.980  69.988  1.00  0.00    -0.310 OA 
HETATM   20  C   UNL     1     -12.532  13.113  70.653  1.00  0.00    -0.286 A  
HETATM   21  C   UNL     1     -13.040  12.919  71.940  1.00  0.00    -0.474 A  
HETATM   22  C   UNL     1     -13.464  14.010  72.698  1.00  0.00    -0.650 A  
HETATM   23  C   UNL     1     -13.393  15.297  72.167  1.00  0.00    -0.519 A  
HETATM   24  C   UNL     1     -12.892  15.492  70.880  1.00  0.00    -0.535 A  
HETATM   25  C   UNL     1     -12.446  14.399  70.118  1.00  0.00    -0.395 A  
ENDBRANCH  10  12
ENDBRANCH   9  10
ENDBRANCH   8   9
ENDBRANCH   7   8
ENDBRANCH   3   7
ENDBRANCH   2   3
TORSDOF 7
ENDMDL
MODEL        8
REMARK 921   NORMALIZED FREE ENERGY PREDICTED BY IDOCK:   -5.83 KCAL/MOL
REMARK 922        TOTAL FREE ENERGY PREDICTED BY IDOCK:   -9.54 KCAL/MOL
REMARK 923 INTER-LIGAND FREE ENERGY PREDICTED BY IDOCK:   -8.45 KCAL/MOL
REMARK 924 INTRA-LIGAND FREE ENERGY PREDICTED BY IDOCK:   -1.09 KCAL/MOL
REMARK 927      BINDING AFFINITY PREDICTED BY RF-SCORE:    0.00 PKD
ROOT
HETATM    1  C   UNL     1     -10.676  19.435  66.993  1.00  0.00    -0.582 C  
HETATM    2  C   UNL     1      -9.527  20.429  66.947  1.00  0.00    -0.371 C  
ENDROOT
BRANCH   2   3
HETATM    3  N   UNL     1      -8.118  19.781  66.875  1.00  0.00    -0.285 N  
HETATM    4  C   UNL     1      -7.391  20.306  65.624  1.00  0.00    -0.204 C  
BRANCH   3   5
HETATM    5  C   UNL     1      -7.253  20.089  68.111  1.00  0.00    -0.285 C  
HETATM    6  C   UNL     1      -6.099  21.039  67.830  1.00  0.00    -0.410 C  
ENDBRANCH   3   5
BRANCH   3   7
HETATM    7  C   UNL     1      -8.367  18.255  66.696  1.00  0.00    -0.264 C  
BRANCH   7   8
HETATM    8  C   UNL     1      -7.708  17.375  67.761  1.00  0.00    -0.195 C  
BRANCH   8   9
HETATM    9  O   UNL     1      -8.617  17.076  68.822  1.00  0.00    -0.257 OA 
BRANCH   9  10
HETATM   10  C   UNL     1      -9.167  15.824  68.754  1.00  0.00    -0.216 C  
HETATM   11  O   UNL     1      -8.529  14.799  68.968  1.00  0.00    -0.173 OA 
BRANCH  10  12
HETATM   12  C   UNL     1     -10.675  15.891  68.549  1.00  0.00    -0.274 C  
HETATM   13  C   UNL     1     -11.012  15.078  67.319  1.00  0.00    -0.326 A  
HETATM   14  C   UNL     1     -10.469  15.423  66.067  1.00  0.00    -0.333 A  
HETATM   15  C   UNL     1     -10.657  14.593  64.963  1.00  0.00    -0.461 A  
HETATM   16  C   UNL     1     -11.403  13.424  65.094  1.00  0.00    -0.316 A  
HETATM   17  C   UNL     1     -11.960  13.086  66.328  1.00  0.00    -0.477 A  
HETATM   18  C   UNL     1     -11.756  13.904  67.440  1.00  0.00    -0.389 A  
HETATM   19  O   UNL     1     -12.302  13.470  68.623  1.00  0.00    -0.232 OA 
HETATM   20  C   UNL     1     -12.149  14.244  69.749  1.00  0.00    -0.347 A  
HETATM   21  C   UNL     1     -12.778  13.776  70.905  1.00  0.00    -0.394 A  
HETATM   22  C   UNL     1     -12.668  14.487  72.099  1.00  0.00    -0.407 A  
HETATM   23  C   UNL     1     -11.937  15.673  72.139  1.00  0.00    -0.552 A  
HETATM   24  C   UNL     1     -11.313  16.145  70.985  1.00  0.00    -0.381 A  
HETATM   25  C   UNL     1     -11.405  15.425  69.782  1.00  0.00    -0.317 A  
ENDBRANCH  10  12
ENDBRANCH   9  10
ENDBRANCH   8   9
ENDBRANCH   7   8
ENDBRANCH   3   7
ENDBRANCH   2   3
TORSDOF 7
ENDMDL
MODEL        9
REMARK 921   NORMALIZED FREE ENERGY PREDICTED BY IDOCK:   -5.82 KCAL/MOL
REMARK 922        TOTAL FREE ENERGY PREDICTED BY IDOCK:   -9.52 KCAL/MOL
REMARK 923 INTER-LIGAND FREE ENERGY PREDICTED BY IDOCK:   -8.82 KCAL/MOL
REMARK 924 INTRA-LIGAND FREE ENERGY PREDICTED BY IDOCK:   -0.70 KCAL/MOL
REMARK 927      BINDING AFFINITY PREDICTED BY RF-SCORE:    0.00 PKD
ROOT
HETATM    1  C   UNL     1     -11.042   6.322  69.623  1.00  0.00    -0.479 C  
HETATM    2  C   UNL     1     -10.661   7.734  70.036  1.00  0.00    -0.238 C  
ENDROOT
BRANCH   2   3
HETATM    3  N   UNL     1     -11.482   8.301  71.224  1.00  0.00    -0.267 N  
HETATM    4  C   UNL     1     -12.753   7.451  71.403  1.00  0.00    -0.369 C  
BRANCH   3   5
HETATM    5  C   UNL     1     -10.700   8.297  72.551  1.00  0.00    -0.341 C  
HETATM    6  C   UNL     1      -9.193   8.409  72.373  1.00  0.00    -0.345 C  
ENDBRANCH   3   5
BRANCH   3   7
HETATM    7  C   UNL     1     -11.906   9.736  70.795  1.00  0.00    -0.319 C  
BRANCH   7   8
HETATM    8  C   UNL     1     -11.259  10.227  69.498  1.00  0.00    -0.261 C  
BRANCH   8   9
HETATM    9  O   UNL     1     -11.945  11.367  68.975  1.00  0.00    -0.329 OA 
BRANCH   9  10
HETATM   10  C   UNL     1     -11.219  12.528  69.019  1.00  0.00    -0.268 C  
HETATM   11  O   UNL     1      -9.994  12.552  69.042  1.00  0.00     0.026 OA 
BRANCH  10  12
HETATM   12  C   UNL     1     -12.117  13.750  68.870  1.00  0.00    -0.348 C  
HETATM   13  C   UNL     1     -12.360  14.317  70.251  1.00  0.00    -0.418 A  
HETATM   14  C   UNL     1     -12.988  13.537  71.240  1.00  0.00    -0.384 A  
HETATM   15  C   UNL     1     -13.079  14.001  72.551  1.00  0.00    -0.547 A  
HETATM   16  C   UNL     1     -12.567  15.254  72.881  1.00  0.00    -0.512 A  
HETATM   17  C   UNL     1     -11.961  16.040  71.899  1.00  0.00    -0.606 A  
HETATM   18  C   UNL     1     -11.848  15.569  70.591  1.00  0.00    -0.365 A  
HETATM   19  O   UNL     1     -11.198  16.391  69.703  1.00  0.00    -0.323 OA 
HETATM   20  C   UNL     1     -11.071  15.987  68.395  1.00  0.00    -0.351 A  
HETATM   21  C   UNL     1     -10.453  16.893  67.530  1.00  0.00    -0.328 A  
HETATM   22  C   UNL     1     -10.268  16.567  66.187  1.00  0.00    -0.360 A  
HETATM   23  C   UNL     1     -10.712  15.338  65.702  1.00  0.00    -0.376 A  
HETATM   24  C   UNL     1     -11.336  14.434  66.561  1.00  0.00    -0.353 A  
HETATM   25  C   UNL     1     -11.508  14.749  67.920  1.00  0.00    -0.361 A  
ENDBRANCH  10  12
ENDBRANCH   9  10
ENDBRANCH   8   9
ENDBRANCH   7   8
ENDBRANCH   3   7
ENDBRANCH   2   3
TORSDOF 7
ENDMDL
MODEL       10
REMARK 921   NORMALIZED FREE ENERGY PREDICTED BY IDOCK:   -5.81 KCAL/MOL
REMARK 922        TOTAL FREE ENERGY PREDICTED BY IDOCK:   -9.51 KCAL/MOL
REMARK 923 INTER-LIGAND FREE ENERGY PREDICTED BY IDOCK:   -8.72 KCAL/MOL
REMARK 924 INTRA-LIGAND FREE ENERGY PREDICTED BY IDOCK:   -0.79 KCAL/MOL
REMARK 927      BINDING AFFINITY PREDICTED BY RF-SCORE:    0.00 PKD
ROOT
HETATM    1  C   UNL     1     -14.164   8.187  71.783  1.00  0.00    -0.548 C  
HETATM    2  C   UNL     1     -13.068   7.299  71.216  1.00  0.00    -0.307 C  
ENDROOT
BRANCH   2   3
HETATM    3  N   UNL     1     -11.626   7.802  71.490  1.00  0.00    -0.263 N  
HETATM    4  C   UNL     1     -11.242   7.451  72.938  1.00  0.00    -0.319 C  
BRANCH   3   5
HETATM    5  C   UNL     1     -10.584   7.180  70.542  1.00  0.00    -0.225 C  
HETATM    6  C   UNL     1     -11.188   6.294  69.463  1.00  0.00    -0.500 C  
ENDBRANCH   3   5
BRANCH   3   7
HETATM    7  C   UNL     1     -11.689   9.352  71.359  1.00  0.00    -0.378 C  
BRANCH   7   8
HETATM    8  C   UNL     1     -10.715   9.943  70.337  1.00  0.00    -0.318 C  
BRANCH   8   9
HETATM    9  O   UNL     1     -11.411  10.521  69.230  1.00  0.00    -0.240 OA 
BRANCH   9  10
HETATM   10  C   UNL     1     -10.889  11.712  68.800  1.00  0.00    -0.220 C  
HETATM   11  O   UNL     1      -9.687  11.903  68.653  1.00  0.00    -0.184 OA 
BRANCH  10  12
HETATM   12  C   UNL     1     -11.989  12.680  68.380  1.00  0.00    -0.268 C  
HETATM   13  C   UNL     1     -12.088  13.755  69.439  1.00  0.00    -0.377 A  
HETATM   14  C   UNL     1     -12.404  13.417  70.768  1.00  0.00    -0.433 A  
HETATM   15  C   UNL     1     -12.350  14.382  71.772  1.00  0.00    -0.390 A  
HETATM   16  C   UNL     1     -12.003  15.694  71.457  1.00  0.00    -0.482 A  
HETATM   17  C   UNL     1     -11.708  16.039  70.136  1.00  0.00    -0.290 A  
HETATM   18  C   UNL     1     -11.740  15.071  69.132  1.00  0.00    -0.319 A  
HETATM   19  O   UNL     1     -11.391  15.490  67.872  1.00  0.00    -0.331 OA 
HETATM   20  C   UNL     1     -11.420  14.584  66.839  1.00  0.00    -0.364 A  
HETATM   21  C   UNL     1     -11.113  15.087  65.573  1.00  0.00    -0.358 A  
HETATM   22  C   UNL     1     -11.104  14.242  64.464  1.00  0.00    -0.321 A  
HETATM   23  C   UNL     1     -11.413  12.891  64.617  1.00  0.00    -0.369 A  
HETATM   24  C   UNL     1     -11.727  12.387  65.879  1.00  0.00    -0.476 A  
HETATM   25  C   UNL     1     -11.720  13.231  67.003  1.00  0.00    -0.439 A  
ENDBRANCH  10  12
ENDBRANCH   9  10
ENDBRANCH   8   9
ENDBRANCH   7   8
ENDBRANCH   3   7
ENDBRANCH   2   3
TORSDOF 7
ENDMDL
MODEL       11
REMARK 921   NORMALIZED FREE ENERGY PREDICTED BY IDOCK:   -5.78 KCAL/MOL
REMARK 922        TOTAL FREE ENERGY PREDICTED BY IDOCK:   -9.47 KCAL/MOL
REMARK 923 INTER-LIGAND FREE ENERGY PREDICTED BY IDOCK:   -8.85 KCAL/MOL
REMARK 924 INTRA-LIGAND FREE ENERGY PREDICTED BY IDOCK:   -0.62 KCAL/MOL
REMARK 927      BINDING AFFINITY PREDICTED BY RF-SCORE:    0.00 PKD
ROOT
HETATM    1  C   UNL     1     -10.430   7.053  73.215  1.00  0.00    -0.365 C  
HETATM    2  C   UNL     1     -10.602   8.400  72.533  1.00  0.00    -0.298 C  
ENDROOT
BRANCH   2   3
HETATM    3  N   UNL     1     -11.556   8.385  71.309  1.00  0.00    -0.276 N  
HETATM    4  C   UNL     1     -10.865   7.649  70.147  1.00  0.00    -0.248 C  
BRANCH   3   5
HETATM    5  C   UNL     1     -12.897   7.687  71.603  1.00  0.00    -0.349 C  
HETATM    6  C   UNL     1     -14.075   8.644  71.711  1.00  0.00    -0.499 C  
ENDBRANCH   3   5
BRANCH   3   7
HETATM    7  C   UNL     1     -11.745   9.876  70.905  1.00  0.00    -0.364 C  
BRANCH   7   8
HETATM    8  C   UNL     1     -11.399  10.188  69.447  1.00  0.00    -0.178 C  
BRANCH   8   9
HETATM    9  O   UNL     1     -12.095  11.348  68.985  1.00  0.00    -0.363 OA 
BRANCH   9  10
HETATM   10  C   UNL     1     -11.339  12.490  68.980  1.00  0.00    -0.290 C  
HETATM   11  O   UNL     1     -10.115  12.484  68.923  1.00  0.00    -0.102 OA 
BRANCH  10  12
HETATM   12  C   UNL     1     -12.215  13.734  68.886  1.00  0.00    -0.235 C  
HETATM   13  C   UNL     1     -12.446  14.245  70.290  1.00  0.00    -0.422 A  
HETATM   14  C   UNL     1     -13.085  13.434  71.246  1.00  0.00    -0.317 A  
HETATM   15  C   UNL     1     -13.166  13.842  72.577  1.00  0.00    -0.601 A  
HETATM   16  C   UNL     1     -12.630  15.070  72.959  1.00  0.00    -0.542 A  
HETATM   17  C   UNL     1     -12.012  15.887  72.011  1.00  0.00    -0.602 A  
HETATM   18  C   UNL     1     -11.910  15.471  70.683  1.00  0.00    -0.365 A  
HETATM   19  O   UNL     1     -11.246  16.318  69.830  1.00  0.00    -0.340 OA 
HETATM   20  C   UNL     1     -11.130  15.970  68.506  1.00  0.00    -0.347 A  
HETATM   21  C   UNL     1     -10.496  16.901  67.680  1.00  0.00    -0.332 A  
HETATM   22  C   UNL     1     -10.319  16.630  66.323  1.00  0.00    -0.323 A  
HETATM   23  C   UNL     1     -10.786  15.432  65.786  1.00  0.00    -0.349 A  
HETATM   24  C   UNL     1     -11.425  14.503  66.607  1.00  0.00    -0.373 A  
HETATM   25  C   UNL     1     -11.590  14.762  67.979  1.00  0.00    -0.367 A  
ENDBRANCH  10  12
ENDBRANCH   9  10
ENDBRANCH   8   9
ENDBRANCH   7   8
ENDBRANCH   3   7
ENDBRANCH   2   3
TORSDOF 7
ENDMDL
MODEL       12
REMARK 921   NORMALIZED FREE ENERGY PREDICTED BY IDOCK:   -5.68 KCAL/MOL
REMARK 922        TOTAL FREE ENERGY PREDICTED BY IDOCK:   -9.33 KCAL/MOL
REMARK 923 INTER-LIGAND FREE ENERGY PREDICTED BY IDOCK:   -8.21 KCAL/MOL
REMARK 924 INTRA-LIGAND FREE ENERGY PREDICTED BY IDOCK:   -1.12 KCAL/MOL
REMARK 927      BINDING AFFINITY PREDICTED BY RF-SCORE:    0.00 PKD
ROOT
HETATM    1  C   UNL     1     -10.749  15.738  65.102  1.00  0.00    -0.455 C  
HETATM    2  C   UNL     1      -9.597  16.013  66.055  1.00  0.00    -0.350 C  
ENDROOT
BRANCH   2   3
HETATM    3  N   UNL     1      -9.885  17.110  67.114  1.00  0.00    -0.263 N  
HETATM    4  C   UNL     1      -8.734  17.131  68.136  1.00  0.00    -0.232 C  
BRANCH   3   5
HETATM    5  C   UNL     1     -10.022  18.516  66.501  1.00  0.00    -0.380 C  
HETATM    6  C   UNL     1     -10.721  19.516  67.409  1.00  0.00    -0.589 C  
ENDBRANCH   3   5
BRANCH   3   7
HETATM    7  C   UNL     1     -11.184  16.658  67.844  1.00  0.00    -0.114 C  
BRANCH   7   8
HETATM    8  C   UNL     1     -10.975  15.556  68.886  1.00  0.00    -0.266 C  
BRANCH   8   9
HETATM    9  O   UNL     1     -11.676  14.363  68.528  1.00  0.00    -0.302 OA 
BRANCH   9  10
HETATM   10  C   UNL     1     -10.864  13.295  68.258  1.00  0.00    -0.256 C  
HETATM   11  O   UNL     1      -9.645  13.331  68.383  1.00  0.00    -0.220 OA 
BRANCH  10  12
HETATM   12  C   UNL     1     -11.677  12.042  67.952  1.00  0.00    -0.393 C  
HETATM   13  C   UNL     1     -11.120  11.425  66.689  1.00  0.00    -0.333 A  
HETATM   14  C   UNL     1     -11.122  12.150  65.483  1.00  0.00    -0.361 A  
HETATM   15  C   UNL     1     -10.477  11.644  64.355  1.00  0.00    -0.374 A  
HETATM   16  C   UNL     1      -9.846  10.404  64.415  1.00  0.00    -0.395 A  
HETATM   17  C   UNL     1      -9.858   9.672  65.604  1.00  0.00    -0.369 A  
HETATM   18  C   UNL     1     -10.483  10.185  66.740  1.00  0.00    -0.204 A  
HETATM   19  O   UNL     1     -10.406   9.417  67.876  1.00  0.00    -0.199 OA 
HETATM   20  C   UNL     1     -11.019   9.864  69.023  1.00  0.00    -0.190 A  
HETATM   21  C   UNL     1     -10.954   9.010  70.126  1.00  0.00    -0.256 A  
HETATM   22  C   UNL     1     -11.536   9.382  71.337  1.00  0.00    -0.449 A  
HETATM   23  C   UNL     1     -12.194  10.606  71.446  1.00  0.00    -0.405 A  
HETATM   24  C   UNL     1     -12.265  11.459  70.344  1.00  0.00    -0.450 A  
HETATM   25  C   UNL     1     -11.666  11.097  69.126  1.00  0.00    -0.408 A  
ENDBRANCH  10  12
ENDBRANCH   9  10
ENDBRANCH   8   9
ENDBRANCH   7   8
ENDBRANCH   3   7
ENDBRANCH   2   3
TORSDOF 7
ENDMDL
MODEL       13
REMARK 921   NORMALIZED FREE ENERGY PREDICTED BY IDOCK:   -5.65 KCAL/MOL
REMARK 922        TOTAL FREE ENERGY PREDICTED BY IDOCK:   -9.28 KCAL/MOL
REMARK 923 INTER-LIGAND FREE ENERGY PREDICTED BY IDOCK:   -8.13 KCAL/MOL
REMARK 924 INTRA-LIGAND FREE ENERGY PREDICTED BY IDOCK:   -1.14 KCAL/MOL
REMARK 927      BINDING AFFINITY PREDICTED BY RF-SCORE:    0.00 PKD
ROOT
HETATM    1  C   UNL     1     -10.607  19.421  67.422  1.00  0.00    -0.603 C  
HETATM    2  C   UNL     1     -10.169  18.040  67.882  1.00  0.00    -0.378 C  
ENDROOT
BRANCH   2   3
HETATM    3  N   UNL     1      -9.195  17.318  66.913  1.00  0.00    -0.246 N  
HETATM    4  C   UNL     1      -8.155  18.332  66.403  1.00  0.00    -0.258 C  
BRANCH   3   5
HETATM    5  C   UNL     1      -8.451  16.143  67.576  1.00  0.00    -0.162 C  
HETATM    6  C   UNL     1      -8.384  16.239  69.092  1.00  0.00    -0.211 C  
ENDBRANCH   3   5
BRANCH   3   7
HETATM    7  C   UNL     1     -10.066  16.857  65.708  1.00  0.00    -0.229 C  
BRANCH   7   8
HETATM    8  C   UNL     1     -10.250  15.342  65.600  1.00  0.00    -0.372 C  
BRANCH   8   9
HETATM    9  O   UNL     1     -11.626  14.998  65.422  1.00  0.00    -0.318 OA 
BRANCH   9  10
HETATM   10  C   UNL     1     -11.983  13.802  65.986  1.00  0.00    -0.414 C  
HETATM   11  O   UNL     1     -13.002  13.193  65.678  1.00  0.00    -0.435 OA 
BRANCH  10  12
HETATM   12  C   UNL     1     -10.885  13.269  66.898  1.00  0.00    -0.286 C  
HETATM   13  C   UNL     1     -11.354  13.424  68.327  1.00  0.00    -0.330 A  
HETATM   14  C   UNL     1     -11.654  14.698  68.844  1.00  0.00    -0.340 A  
HETATM   15  C   UNL     1     -12.226  14.830  70.108  1.00  0.00    -0.391 A  
HETATM   16  C   UNL     1     -12.483  13.696  70.874  1.00  0.00    -0.448 A  
HETATM   17  C   UNL     1     -12.170  12.430  70.375  1.00  0.00    -0.370 A  
HETATM   18  C   UNL     1     -11.617  12.294  69.102  1.00  0.00    -0.318 A  
HETATM   19  O   UNL     1     -11.384  11.009  68.674  1.00  0.00    -0.235 OA 
HETATM   20  C   UNL     1     -10.824  10.813  67.435  1.00  0.00    -0.290 A  
HETATM   21  C   UNL     1     -10.557   9.487  67.085  1.00  0.00    -0.295 A  
HETATM   22  C   UNL     1     -10.001   9.188  65.842  1.00  0.00    -0.232 A  
HETATM   23  C   UNL     1      -9.700  10.215  64.948  1.00  0.00    -0.392 A  
HETATM   24  C   UNL     1      -9.959  11.540  65.297  1.00  0.00    -0.302 A  
HETATM   25  C   UNL     1     -10.536  11.847  66.542  1.00  0.00    -0.278 A  
ENDBRANCH  10  12
ENDBRANCH   9  10
ENDBRANCH   8   9
ENDBRANCH   7   8
ENDBRANCH   3   7
ENDBRANCH   2   3
TORSDOF 7
ENDMDL
MODEL       14
REMARK 921   NORMALIZED FREE ENERGY PREDICTED BY IDOCK:   -5.64 KCAL/MOL
REMARK 922        TOTAL FREE ENERGY PREDICTED BY IDOCK:   -9.27 KCAL/MOL
REMARK 923 INTER-LIGAND FREE ENERGY PREDICTED BY IDOCK:   -8.15 KCAL/MOL
REMARK 924 INTRA-LIGAND FREE ENERGY PREDICTED BY IDOCK:   -1.12 KCAL/MOL
REMARK 927      BINDING AFFINITY PREDICTED BY RF-SCORE:    0.00 PKD
ROOT
HETATM    1  C   UNL     1     -10.175  19.851  66.589  1.00  0.00    -0.609 C  
HETATM    2  C   UNL     1      -9.030  19.136  67.286  1.00  0.00    -0.295 C  
ENDROOT
BRANCH   2   3
HETATM    3  N   UNL     1      -9.143  17.588  67.289  1.00  0.00    -0.236 N  
HETATM    4  C   UNL     1      -8.020  17.004  66.413  1.00  0.00    -0.307 C  
BRANCH   3   5
HETATM    5  C   UNL     1      -9.032  16.981  68.700  1.00  0.00    -0.267 C  
HETATM    6  C   UNL     1     -10.332  16.380  69.212  1.00  0.00    -0.292 C  
ENDBRANCH   3   5
BRANCH   3   7
HETATM    7  C   UNL     1     -10.509  17.267  66.616  1.00  0.00    -0.257 C  
BRANCH   7   8
HETATM    8  C   UNL     1     -10.480  16.072  65.659  1.00  0.00    -0.397 C  
BRANCH   8   9
HETATM    9  O   UNL     1     -11.201  14.960  66.194  1.00  0.00    -0.335 OA 
BRANCH   9  10
HETATM   10  C   UNL     1     -10.433  13.847  66.413  1.00  0.00    -0.284 C  
HETATM   11  O   UNL     1      -9.258  13.901  66.758  1.00  0.00    -0.252 OA 
BRANCH  10  12
HETATM   12  C   UNL     1     -11.267  12.574  66.334  1.00  0.00    -0.353 C  
HETATM   13  C   UNL     1     -10.665  11.692  65.263  1.00  0.00    -0.346 A  
HETATM   14  C   UNL     1     -10.583  12.143  63.933  1.00  0.00    -0.457 A  
HETATM   15  C   UNL     1      -9.897  11.397  62.976  1.00  0.00    -0.373 A  
HETATM   16  C   UNL     1      -9.307  10.187  63.333  1.00  0.00    -0.334 A  
HETATM   17  C   UNL     1      -9.402   9.725  64.647  1.00  0.00    -0.318 A  
HETATM   18  C   UNL     1     -10.069  10.480  65.611  1.00  0.00    -0.268 A  
HETATM   19  O   UNL     1     -10.073   9.970  66.887  1.00  0.00    -0.208 OA 
HETATM   20  C   UNL     1     -10.730  10.661  67.876  1.00  0.00    -0.248 A  
HETATM   21  C   UNL     1     -10.748  10.060  69.137  1.00  0.00    -0.244 A  
HETATM   22  C   UNL     1     -11.379  10.693  70.207  1.00  0.00    -0.401 A  
HETATM   23  C   UNL     1     -12.005  11.924  70.017  1.00  0.00    -0.409 A  
HETATM   24  C   UNL     1     -11.994  12.524  68.758  1.00  0.00    -0.283 A  
HETATM   25  C   UNL     1     -11.344  11.900  67.680  1.00  0.00    -0.372 A  
ENDBRANCH  10  12
ENDBRANCH   9  10
ENDBRANCH   8   9
ENDBRANCH   7   8
ENDBRANCH   3   7
ENDBRANCH   2   3
TORSDOF 7
ENDMDL
MODEL       15
REMARK 921   NORMALIZED FREE ENERGY PREDICTED BY IDOCK:   -5.58 KCAL/MOL
REMARK 922        TOTAL FREE ENERGY PREDICTED BY IDOCK:   -9.19 KCAL/MOL
REMARK 923 INTER-LIGAND FREE ENERGY PREDICTED BY IDOCK:   -8.04 KCAL/MOL
REMARK 924 INTRA-LIGAND FREE ENERGY PREDICTED BY IDOCK:   -1.15 KCAL/MOL
REMARK 927      BINDING AFFINITY PREDICTED BY RF-SCORE:    0.00 PKD
ROOT
HETATM    1  C   UNL     1     -12.855  11.871  63.246  1.00  0.00    -0.303 C  
HETATM    2  C   UNL     1     -12.297  12.380  64.564  1.00  0.00    -0.438 C  
ENDROOT
BRANCH   2   3
HETATM    3  N   UNL     1     -10.749  12.338  64.668  1.00  0.00    -0.293 N  
HETATM    4  C   UNL     1     -10.175  11.813  63.340  1.00  0.00    -0.449 C  
BRANCH   3   5
HETATM    5  C   UNL     1     -10.130  13.718  64.959  1.00  0.00    -0.283 C  
HETATM    6  C   UNL     1     -11.087  14.878  64.737  1.00  0.00    -0.395 C  
ENDBRANCH   3   5
BRANCH   3   7
HETATM    7  C   UNL     1     -10.431  11.303  65.785  1.00  0.00    -0.254 C  
BRANCH   7   8
HETATM    8  C   UNL     1     -10.072  11.920  67.139  1.00  0.00    -0.204 C  
BRANCH   8   9
HETATM    9  O   UNL     1     -11.224  12.038  67.978  1.00  0.00    -0.222 OA 
BRANCH   9  10
HETATM   10  C   UNL     1     -11.618  13.329  68.211  1.00  0.00    -0.334 C  
HETATM   11  O   UNL     1     -12.510  13.881  67.578  1.00  0.00    -0.177 OA 
BRANCH  10  12
HETATM   12  C   UNL     1     -10.929  13.905  69.442  1.00  0.00    -0.169 C  
HETATM   13  C   UNL     1     -10.237  15.184  69.028  1.00  0.00    -0.241 A  
HETATM   14  C   UNL     1      -9.235  15.163  68.040  1.00  0.00    -0.185 A  
HETATM   15  C   UNL     1      -8.701  16.355  67.552  1.00  0.00    -0.188 A  
HETATM   16  C   UNL     1      -9.145  17.573  68.059  1.00  0.00    -0.269 A  
HETATM   17  C   UNL     1     -10.125  17.599  69.053  1.00  0.00    -0.300 A  
HETATM   18  C   UNL     1     -10.677  16.410  69.529  1.00  0.00    -0.325 A  
HETATM   19  O   UNL     1     -11.667  16.533  70.473  1.00  0.00    -0.096 OA 
HETATM   20  C   UNL     1     -12.236  15.394  70.991  1.00  0.00    -0.376 A  
HETATM   21  C   UNL     1     -13.193  15.586  71.989  1.00  0.00    -0.549 A  
HETATM   22  C   UNL     1     -13.835  14.491  72.566  1.00  0.00    -0.555 A  
HETATM   23  C   UNL     1     -13.514  13.199  72.154  1.00  0.00    -0.653 A  
HETATM   24  C   UNL     1     -12.553  13.004  71.162  1.00  0.00    -0.388 A  
HETATM   25  C   UNL     1     -11.916  14.104  70.564  1.00  0.00    -0.393 A  
ENDBRANCH  10  12
ENDBRANCH   9  10
ENDBRANCH   8   9
ENDBRANCH   7   8
ENDBRANCH   3   7
ENDBRANCH   2   3
TORSDOF 7
ENDMDL
MODEL       16
REMARK 921   NORMALIZED FREE ENERGY PREDICTED BY IDOCK:   -5.57 KCAL/MOL
REMARK 922        TOTAL FREE ENERGY PREDICTED BY IDOCK:   -9.17 KCAL/MOL
REMARK 923 INTER-LIGAND FREE ENERGY PREDICTED BY IDOCK:   -8.31 KCAL/MOL
REMARK 924 INTRA-LIGAND FREE ENERGY PREDICTED BY IDOCK:   -0.86 KCAL/MOL
REMARK 927      BINDING AFFINITY PREDICTED BY RF-SCORE:    0.00 PKD
ROOT
HETATM    1  C   UNL     1     -12.102  14.591  64.332  1.00  0.00    -0.492 C  
HETATM    2  C   UNL     1     -10.822  13.785  64.479  1.00  0.00    -0.387 C  
ENDROOT
BRANCH   2   3
HETATM    3  N   UNL     1     -10.962  12.282  64.121  1.00  0.00    -0.331 N  
HETATM    4  C   UNL     1     -12.367  12.036  63.543  1.00  0.00    -0.551 C  
BRANCH   3   5
HETATM    5  C   UNL     1      -9.918  11.811  63.091  1.00  0.00    -0.344 C  
HETATM    6  C   UNL     1      -9.511  10.355  63.253  1.00  0.00    -0.361 C  
ENDBRANCH   3   5
BRANCH   3   7
HETATM    7  C   UNL     1     -10.844  11.516  65.470  1.00  0.00    -0.254 C  
BRANCH   7   8
HETATM    8  C   UNL     1      -9.970  12.208  66.520  1.00  0.00    -0.213 C  
BRANCH   8   9
HETATM    9  O   UNL     1     -10.739  12.595  67.661  1.00  0.00    -0.213 OA 
BRANCH   9  10
HETATM   10  C   UNL     1     -10.248  13.688  68.324  1.00  0.00    -0.243 C  
HETATM   11  O   UNL     1      -9.073  13.802  68.651  1.00  0.00    -0.163 OA 
BRANCH  10  12
HETATM   12  C   UNL     1     -11.302  14.783  68.442  1.00  0.00    -0.317 C  
HETATM   13  C   UNL     1     -11.884  14.717  69.837  1.00  0.00    -0.372 A  
HETATM   14  C   UNL     1     -12.536  13.551  70.280  1.00  0.00    -0.309 A  
HETATM   15  C   UNL     1     -12.941  13.431  71.609  1.00  0.00    -0.445 A  
HETATM   16  C   UNL     1     -12.720  14.480  72.498  1.00  0.00    -0.433 A  
HETATM   17  C   UNL     1     -12.091  15.647  72.059  1.00  0.00    -0.529 A  
HETATM   18  C   UNL     1     -11.665  15.761  70.735  1.00  0.00    -0.399 A  
HETATM   19  O   UNL     1     -11.016  16.925  70.403  1.00  0.00    -0.087 OA 
HETATM   20  C   UNL     1     -10.588  17.101  69.109  1.00  0.00    -0.259 A  
HETATM   21  C   UNL     1      -9.989  18.330  68.822  1.00  0.00    -0.391 A  
HETATM   22  C   UNL     1      -9.512  18.595  67.540  1.00  0.00    -0.311 A  
HETATM   23  C   UNL     1      -9.642  17.637  66.536  1.00  0.00    -0.301 A  
HETATM   24  C   UNL     1     -10.246  16.412  66.817  1.00  0.00    -0.285 A  
HETATM   25  C   UNL     1     -10.713  16.131  68.113  1.00  0.00    -0.315 A  
ENDBRANCH  10  12
ENDBRANCH   9  10
ENDBRANCH   8   9
ENDBRANCH   7   8
ENDBRANCH   3   7
ENDBRANCH   2   3
TORSDOF 7
ENDMDL
MODEL       17
REMARK 921   NORMALIZED FREE ENERGY PREDICTED BY IDOCK:   -5.53 KCAL/MOL
REMARK 922        TOTAL FREE ENERGY PREDICTED BY IDOCK:   -9.11 KCAL/MOL
REMARK 923 INTER-LIGAND FREE ENERGY PREDICTED BY IDOCK:   -7.94 KCAL/MOL
REMARK 924 INTRA-LIGAND FREE ENERGY PREDICTED BY IDOCK:   -1.17 KCAL/MOL
REMARK 927      BINDING AFFINITY PREDICTED BY RF-SCORE:    0.00 PKD
ROOT
HETATM    1  C   UNL     1     -10.235   8.359  66.604  1.00  0.00    -0.335 C  
HETATM    2  C   UNL     1      -9.165   9.378  66.958  1.00  0.00    -0.142 C  
ENDROOT
BRANCH   2   3
HETATM    3  N   UNL     1      -8.975  10.504  65.906  1.00  0.00    -0.160 N  
HETATM    4  C   UNL     1      -7.602  10.329  65.232  1.00  0.00    -0.143 C  
BRANCH   3   5
HETATM    5  C   UNL     1     -10.062  10.495  64.815  1.00  0.00    -0.336 C  
HETATM    6  C   UNL     1      -9.939  11.637  63.818  1.00  0.00    -0.378 C  
ENDBRANCH   3   5
BRANCH   3   7
HETATM    7  C   UNL     1      -8.962  11.835  66.712  1.00  0.00    -0.196 C  
BRANCH   7   8
HETATM    8  C   UNL     1      -9.249  11.674  68.207  1.00  0.00    -0.187 C  
BRANCH   8   9
HETATM    9  O   UNL     1     -10.118  12.704  68.683  1.00  0.00    -0.206 OA 
BRANCH   9  10
HETATM   10  C   UNL     1     -11.446  12.478  68.434  1.00  0.00    -0.312 C  
HETATM   11  O   UNL     1     -11.937  11.356  68.388  1.00  0.00    -0.539 OA 
BRANCH  10  12
HETATM   12  C   UNL     1     -12.233  13.782  68.392  1.00  0.00    -0.181 C  
HETATM   13  C   UNL     1     -12.280  14.339  69.798  1.00  0.00    -0.390 A  
HETATM   14  C   UNL     1     -12.876  13.600  70.836  1.00  0.00    -0.321 A  
HETATM   15  C   UNL     1     -12.790  14.041  72.156  1.00  0.00    -0.410 A  
HETATM   16  C   UNL     1     -12.129  15.232  72.447  1.00  0.00    -0.497 A  
HETATM   17  C   UNL     1     -11.552  15.979  71.418  1.00  0.00    -0.520 A  
HETATM   18  C   UNL     1     -11.618  15.529  70.100  1.00  0.00    -0.337 A  
HETATM   19  O   UNL     1     -10.983  16.305  69.160  1.00  0.00    -0.285 OA 
HETATM   20  C   UNL     1     -11.029  15.921  67.841  1.00  0.00    -0.327 A  
HETATM   21  C   UNL     1     -10.416  16.783  66.929  1.00  0.00    -0.269 A  
HETATM   22  C   UNL     1     -10.400  16.471  65.571  1.00  0.00    -0.307 A  
HETATM   23  C   UNL     1     -11.007  15.301  65.117  1.00  0.00    -0.428 A  
HETATM   24  C   UNL     1     -11.625  14.441  66.025  1.00  0.00    -0.364 A  
HETATM   25  C   UNL     1     -11.629  14.740  67.398  1.00  0.00    -0.377 A  
ENDBRANCH  10  12
ENDBRANCH   9  10
ENDBRANCH   8   9
ENDBRANCH   7   8
ENDBRANCH   3   7
ENDBRANCH   2   3
TORSDOF 7
ENDMDL
MODEL       18
REMARK 921   NORMALIZED FREE ENERGY PREDICTED BY IDOCK:   -5.52 KCAL/MOL
REMARK 922        TOTAL FREE ENERGY PREDICTED BY IDOCK:   -9.09 KCAL/MOL
REMARK 923 INTER-LIGAND FREE ENERGY PREDICTED BY IDOCK:   -7.79 KCAL/MOL
REMARK 924 INTRA-LIGAND FREE ENERGY PREDICTED BY IDOCK:   -1.30 KCAL/MOL
REMARK 927      BINDING AFFINITY PREDICTED BY RF-SCORE:    0.00 PKD
ROOT
HETATM    1  C   UNL     1     -11.518  14.871  69.294  1.00  0.00    -0.324 C  
HETATM    2  C   UNL     1     -11.534  15.190  67.808  1.00  0.00    -0.318 C  
ENDROOT
BRANCH   2   3
HETATM    3  N   UNL     1     -10.247  15.881  67.283  1.00  0.00    -0.272 N  
HETATM    4  C   UNL     1     -10.081  15.556  65.788  1.00  0.00    -0.360 C  
BRANCH   3   5
HETATM    5  C   UNL     1     -10.276  17.411  67.453  1.00  0.00    -0.326 C  
HETATM    6  C   UNL     1     -10.212  18.174  66.139  1.00  0.00    -0.372 C  
ENDBRANCH   3   5
BRANCH   3   7
HETATM    7  C   UNL     1      -9.071  15.224  68.064  1.00  0.00    -0.176 C  
BRANCH   7   8
HETATM    8  C   UNL     1      -8.355  14.102  67.308  1.00  0.00    -0.196 C  
BRANCH   8   9
HETATM    9  O   UNL     1      -8.631  12.826  67.889  1.00  0.00    -0.160 OA 
BRANCH   9  10
HETATM   10  C   UNL     1      -8.303  11.763  67.091  1.00  0.00    -0.168 C  
HETATM   11  O   UNL     1      -7.149  11.489  66.782  1.00  0.00    -0.141 OA 
BRANCH  10  12
HETATM   12  C   UNL     1      -9.521  10.898  66.791  1.00  0.00    -0.200 C  
HETATM   13  C   UNL     1     -10.253  10.662  68.093  1.00  0.00    -0.192 A  
HETATM   14  C   UNL     1      -9.612  10.010  69.162  1.00  0.00    -0.217 A  
HETATM   15  C   UNL     1     -10.230   9.924  70.409  1.00  0.00    -0.299 A  
HETATM   16  C   UNL     1     -11.498  10.467  70.593  1.00  0.00    -0.438 A  
HETATM   17  C   UNL     1     -12.148  11.098  69.530  1.00  0.00    -0.396 A  
HETATM   18  C   UNL     1     -11.523  11.205  68.288  1.00  0.00    -0.303 A  
HETATM   19  O   UNL     1     -12.217  11.882  67.314  1.00  0.00    -0.495 OA 
HETATM   20  C   UNL     1     -11.659  12.004  66.064  1.00  0.00    -0.305 A  
HETATM   21  C   UNL     1     -12.440  12.651  65.104  1.00  0.00    -0.531 A  
HETATM   22  C   UNL     1     -11.954  12.834  63.810  1.00  0.00    -0.585 A  
HETATM   23  C   UNL     1     -10.688  12.361  63.470  1.00  0.00    -0.473 A  
HETATM   24  C   UNL     1      -9.907  11.709  64.425  1.00  0.00    -0.253 A  
HETATM   25  C   UNL     1     -10.385  11.537  65.735  1.00  0.00    -0.295 A  
ENDBRANCH  10  12
ENDBRANCH   9  10
ENDBRANCH   8   9
ENDBRANCH   7   8
ENDBRANCH   3   7
ENDBRANCH   2   3
TORSDOF 7
ENDMDL
MODEL       19
REMARK 921   NORMALIZED FREE ENERGY PREDICTED BY IDOCK:   -5.48 KCAL/MOL
REMARK 922        TOTAL FREE ENERGY PREDICTED BY IDOCK:   -9.04 KCAL/MOL
REMARK 923 INTER-LIGAND FREE ENERGY PREDICTED BY IDOCK:   -8.10 KCAL/MOL
REMARK 924 INTRA-LIGAND FREE ENERGY PREDICTED BY IDOCK:   -0.95 KCAL/MOL
REMARK 927      BINDING AFFINITY PREDICTED BY RF-SCORE:    0.00 PKD
ROOT
HETATM    1  C   UNL     1     -12.580  12.727  64.907  1.00  0.00    -0.541 C  
HETATM    2  C   UNL     1     -12.470  13.835  65.941  1.00  0.00    -0.468 C  
ENDROOT
BRANCH   2   3
HETATM    3  N   UNL     1     -11.033  14.386  66.144  1.00  0.00    -0.315 N  
HETATM    4  C   UNL     1     -10.597  15.124  64.866  1.00  0.00    -0.365 C  
BRANCH   3   5
HETATM    5  C   UNL     1     -10.926  15.359  67.333  1.00  0.00    -0.312 C  
HETATM    6  C   UNL     1     -10.311  16.702  66.972  1.00  0.00    -0.301 C  
ENDBRANCH   3   5
BRANCH   3   7
HETATM    7  C   UNL     1     -10.125  13.135  66.324  1.00  0.00    -0.285 C  
BRANCH   7   8
HETATM    8  C   UNL     1      -9.909  12.711  67.779  1.00  0.00    -0.212 C  
BRANCH   8   9
HETATM    9  O   UNL     1     -10.366  11.375  68.003  1.00  0.00    -0.176 OA 
BRANCH   9  10
HETATM   10  C   UNL     1     -11.546  11.294  68.695  1.00  0.00    -0.318 C  
HETATM   11  O   UNL     1     -12.631  11.122  68.152  1.00  0.00     0.156 OA 
BRANCH  10  12
HETATM   12  C   UNL     1     -11.306  11.279  70.200  1.00  0.00    -0.251 C  
HETATM   13  C   UNL     1     -12.066  12.440  70.801  1.00  0.00    -0.245 A  
HETATM   14  C   UNL     1     -11.774  13.760  70.411  1.00  0.00    -0.242 A  
HETATM   15  C   UNL     1     -12.569  14.817  70.850  1.00  0.00    -0.401 A  
HETATM   16  C   UNL     1     -13.646  14.570  71.697  1.00  0.00    -0.469 A  
HETATM   17  C   UNL     1     -13.929  13.264  72.103  1.00  0.00    -0.471 A  
HETATM   18  C   UNL     1     -13.148  12.201  71.649  1.00  0.00    -0.310 A  
HETATM   19  O   UNL     1     -13.527  10.948  72.063  1.00  0.00    -0.373 OA 
HETATM   20  C   UNL     1     -12.784   9.863  71.661  1.00  0.00    -0.429 A  
HETATM   21  C   UNL     1     -13.186   8.624  72.164  1.00  0.00    -0.420 A  
HETATM   22  C   UNL     1     -12.502   7.464  71.802  1.00  0.00    -0.367 A  
HETATM   23  C   UNL     1     -11.407   7.541  70.944  1.00  0.00    -0.297 A  
HETATM   24  C   UNL     1     -11.000   8.778  70.444  1.00  0.00    -0.262 A  
HETATM   25  C   UNL     1     -11.696   9.949  70.791  1.00  0.00    -0.424 A  
ENDBRANCH  10  12
ENDBRANCH   9  10
ENDBRANCH   8   9
ENDBRANCH   7   8
ENDBRANCH   3   7
ENDBRANCH   2   3
TORSDOF 7
ENDMDL
MODEL       20
REMARK 921   NORMALIZED FREE ENERGY PREDICTED BY IDOCK:   -5.47 KCAL/MOL
REMARK 922        TOTAL FREE ENERGY PREDICTED BY IDOCK:   -9.03 KCAL/MOL
REMARK 923 INTER-LIGAND FREE ENERGY PREDICTED BY IDOCK:   -8.32 KCAL/MOL
REMARK 924 INTRA-LIGAND FREE ENERGY PREDICTED BY IDOCK:   -0.71 KCAL/MOL
REMARK 927      BINDING AFFINITY PREDICTED BY RF-SCORE:    0.00 PKD
ROOT
HETATM    1  C   UNL     1     -10.514   9.133  71.399  1.00  0.00    -0.414 C  
HETATM    2  C   UNL     1     -10.918   8.403  70.129  1.00  0.00    -0.215 C  
ENDROOT
BRANCH   2   3
HETATM    3  N   UNL     1      -9.873   8.476  68.983  1.00  0.00    -0.178 N  
HETATM    4  C   UNL     1      -8.543   7.883  69.483  1.00  0.00    -0.137 C  
BRANCH   3   5
HETATM    5  C   UNL     1     -10.310   7.708  67.722  1.00  0.00    -0.219 C  
HETATM    6  C   UNL     1     -10.936   6.353  68.017  1.00  0.00    -0.400 C  
ENDBRANCH   3   5
BRANCH   3   7
HETATM    7  C   UNL     1      -9.661   9.993  68.705  1.00  0.00    -0.159 C  
BRANCH   7   8
HETATM    8  C   UNL     1     -10.466  10.540  67.523  1.00  0.00    -0.239 C  
BRANCH   8   9
HETATM    9  O   UNL     1     -11.681  11.151  67.960  1.00  0.00    -0.517 OA 
BRANCH   9  10
HETATM   10  C   UNL     1     -11.778  12.484  67.663  1.00  0.00    -0.361 C  
HETATM   11  O   UNL     1     -12.484  12.920  66.761  1.00  0.00    -0.336 OA 
BRANCH  10  12
HETATM   12  C   UNL     1     -11.039  13.336  68.689  1.00  0.00    -0.301 C  
HETATM   13  C   UNL     1     -10.544  14.580  67.986  1.00  0.00    -0.237 A  
HETATM   14  C   UNL     1      -9.651  14.479  66.903  1.00  0.00    -0.258 A  
HETATM   15  C   UNL     1      -9.310  15.609  66.162  1.00  0.00    -0.382 A  
HETATM   16  C   UNL     1      -9.839  16.850  66.507  1.00  0.00    -0.307 A  
HETATM   17  C   UNL     1     -10.710  16.960  67.592  1.00  0.00    -0.290 A  
HETATM   18  C   UNL     1     -11.070  15.828  68.323  1.00  0.00    -0.342 A  
HETATM   19  O   UNL     1     -11.968  16.023  69.345  1.00  0.00    -0.311 OA 
HETATM   20  C   UNL     1     -12.346  14.946  70.111  1.00  0.00    -0.327 A  
HETATM   21  C   UNL     1     -13.214  15.222  71.170  1.00  0.00    -0.567 A  
HETATM   22  C   UNL     1     -13.664  14.192  71.995  1.00  0.00    -0.554 A  
HETATM   23  C   UNL     1     -13.238  12.884  71.770  1.00  0.00    -0.479 A  
HETATM   24  C   UNL     1     -12.367  12.606  70.717  1.00  0.00    -0.372 A  
HETATM   25  C   UNL     1     -11.924  13.637  69.871  1.00  0.00    -0.415 A  
ENDBRANCH  10  12
ENDBRANCH   9  10
ENDBRANCH   8   9
ENDBRANCH   7   8
ENDBRANCH   3   7
ENDBRANCH   2   3
TORSDOF 7
ENDMDL
MODEL       21
REMARK 921   NORMALIZED FREE ENERGY PREDICTED BY IDOCK:   -5.46 KCAL/MOL
REMARK 922        TOTAL FREE ENERGY PREDICTED BY IDOCK:   -9.01 KCAL/MOL
REMARK 923 INTER-LIGAND FREE ENERGY PREDICTED BY IDOCK:   -7.85 KCAL/MOL
REMARK 924 INTRA-LIGAND FREE ENERGY PREDICTED BY IDOCK:   -1.17 KCAL/MOL
REMARK 927      BINDING AFFINITY PREDICTED BY RF-SCORE:    0.00 PKD
ROOT
HETATM    1  C   UNL     1      -8.301   9.570  62.843  1.00  0.00    -0.172 C  
HETATM    2  C   UNL     1      -8.429   9.060  64.269  1.00  0.00    -0.170 C  
ENDROOT
BRANCH   2   3
HETATM    3  N   UNL     1      -9.260   9.975  65.207  1.00  0.00    -0.198 N  
HETATM    4  C   UNL     1     -10.065   9.094  66.179  1.00  0.00    -0.208 C  
BRANCH   3   5
HETATM    5  C   UNL     1      -8.387  10.941  66.029  1.00  0.00    -0.165 C  
HETATM    6  C   UNL     1      -8.341  10.613  67.514  1.00  0.00    -0.115 C  
ENDBRANCH   3   5
BRANCH   3   7
HETATM    7  C   UNL     1     -10.260  10.728  64.282  1.00  0.00    -0.354 C  
BRANCH   7   8
HETATM    8  C   UNL     1     -10.580  12.158  64.724  1.00  0.00    -0.296 C  
BRANCH   8   9
HETATM    9  O   UNL     1     -11.936  12.275  65.161  1.00  0.00    -0.379 OA 
BRANCH   9  10
HETATM   10  C   UNL     1     -12.188  13.389  65.917  1.00  0.00    -0.450 C  
HETATM   11  O   UNL     1     -13.215  14.050  65.814  1.00  0.00    -0.528 OA 
BRANCH  10  12
HETATM   12  C   UNL     1     -11.122  13.586  66.987  1.00  0.00    -0.310 C  
HETATM   13  C   UNL     1     -10.818  15.065  67.072  1.00  0.00    -0.311 A  
HETATM   14  C   UNL     1     -10.324  15.755  65.949  1.00  0.00    -0.372 A  
HETATM   15  C   UNL     1     -10.185  17.142  65.979  1.00  0.00    -0.332 A  
HETATM   16  C   UNL     1     -10.516  17.847  67.133  1.00  0.00    -0.359 A  
HETATM   17  C   UNL     1     -10.989  17.166  68.256  1.00  0.00    -0.229 A  
HETATM   18  C   UNL     1     -11.150  15.781  68.222  1.00  0.00    -0.342 A  
HETATM   19  O   UNL     1     -11.664  15.200  69.356  1.00  0.00    -0.295 OA 
HETATM   20  C   UNL     1     -11.828  13.836  69.388  1.00  0.00    -0.341 A  
HETATM   21  C   UNL     1     -12.298  13.302  70.590  1.00  0.00    -0.416 A  
HETATM   22  C   UNL     1     -12.509  11.930  70.713  1.00  0.00    -0.384 A  
HETATM   23  C   UNL     1     -12.240  11.085  69.638  1.00  0.00    -0.370 A  
HETATM   24  C   UNL     1     -11.765  11.614  68.438  1.00  0.00    -0.374 A  
HETATM   25  C   UNL     1     -11.567  12.999  68.302  1.00  0.00    -0.375 A  
ENDBRANCH  10  12
ENDBRANCH   9  10
ENDBRANCH   8   9
ENDBRANCH   7   8
ENDBRANCH   3   7
ENDBRANCH   2   3
TORSDOF 7
ENDMDL
MODEL       22
REMARK 921   NORMALIZED FREE ENERGY PREDICTED BY IDOCK:   -5.46 KCAL/MOL
REMARK 922        TOTAL FREE ENERGY PREDICTED BY IDOCK:   -9.01 KCAL/MOL
REMARK 923 INTER-LIGAND FREE ENERGY PREDICTED BY IDOCK:   -7.85 KCAL/MOL
REMARK 924 INTRA-LIGAND FREE ENERGY PREDICTED BY IDOCK:   -1.16 KCAL/MOL
REMARK 927      BINDING AFFINITY PREDICTED BY RF-SCORE:    0.00 PKD
ROOT
HETATM    1  C   UNL     1      -9.757  11.641  65.736  1.00  0.00    -0.262 C  
HETATM    2  C   UNL     1      -9.940  13.034  66.316  1.00  0.00    -0.283 C  
ENDROOT
BRANCH   2   3
HETATM    3  N   UNL     1     -11.323  13.675  66.029  1.00  0.00    -0.308 N  
HETATM    4  C   UNL     1     -11.111  15.006  65.286  1.00  0.00    -0.386 C  
BRANCH   3   5
HETATM    5  C   UNL     1     -12.235  12.776  65.173  1.00  0.00    -0.477 C  
HETATM    6  C   UNL     1     -12.211  13.113  63.690  1.00  0.00    -0.553 C  
ENDBRANCH   3   5
BRANCH   3   7
HETATM    7  C   UNL     1     -11.942  13.983  67.423  1.00  0.00    -0.404 C  
BRANCH   7   8
HETATM    8  C   UNL     1     -11.139  13.439  68.608  1.00  0.00    -0.263 C  
BRANCH   8   9
HETATM    9  O   UNL     1     -11.922  12.538  69.395  1.00  0.00    -0.298 OA 
BRANCH   9  10
HETATM   10  C   UNL     1     -11.728  11.216  69.094  1.00  0.00    -0.338 C  
HETATM   11  O   UNL     1     -12.049  10.719  68.021  1.00  0.00    -0.474 OA 
BRANCH  10  12
HETATM   12  C   UNL     1     -10.929  10.511  70.184  1.00  0.00    -0.338 C  
HETATM   13  C   UNL     1     -11.838   9.495  70.840  1.00  0.00    -0.385 A  
HETATM   14  C   UNL     1     -13.020   9.909  71.482  1.00  0.00    -0.523 A  
HETATM   15  C   UNL     1     -13.931   8.967  71.956  1.00  0.00    -0.497 A  
HETATM   16  C   UNL     1     -13.661   7.608  71.815  1.00  0.00    -0.392 A  
HETATM   17  C   UNL     1     -12.480   7.192  71.197  1.00  0.00    -0.400 A  
HETATM   18  C   UNL     1     -11.577   8.132  70.702  1.00  0.00    -0.194 A  
HETATM   19  O   UNL     1     -10.465   7.633  70.069  1.00  0.00    -0.218 OA 
HETATM   20  C   UNL     1      -9.530   8.512  69.575  1.00  0.00    -0.165 A  
HETATM   21  C   UNL     1      -8.395   7.939  68.997  1.00  0.00    -0.130 A  
HETATM   22  C   UNL     1      -7.398   8.751  68.457  1.00  0.00    -0.085 A  
HETATM   23  C   UNL     1      -7.527  10.138  68.504  1.00  0.00    -0.086 A  
HETATM   24  C   UNL     1      -8.657  10.712  69.087  1.00  0.00    -0.136 A  
HETATM   25  C   UNL     1      -9.674   9.900  69.616  1.00  0.00    -0.252 A  
ENDBRANCH  10  12
ENDBRANCH   9  10
ENDBRANCH   8   9
ENDBRANCH   7   8
ENDBRANCH   3   7
ENDBRANCH   2   3
TORSDOF 7
ENDMDL
MODEL       23
REMARK 921   NORMALIZED FREE ENERGY PREDICTED BY IDOCK:   -5.43 KCAL/MOL
REMARK 922        TOTAL FREE ENERGY PREDICTED BY IDOCK:   -8.97 KCAL/MOL
REMARK 923 INTER-LIGAND FREE ENERGY PREDICTED BY IDOCK:   -8.30 KCAL/MOL
REMARK 924 INTRA-LIGAND FREE ENERGY PREDICTED BY IDOCK:   -0.67 KCAL/MOL
REMARK 927      BINDING AFFINITY PREDICTED BY RF-SCORE:    0.00 PKD
ROOT
HETATM    1  C   UNL     1     -10.603  19.627  67.248  1.00  0.00    -0.598 C  
HETATM    2  C   UNL     1      -9.567  18.620  66.778  1.00  0.00    -0.318 C  
ENDROOT
BRANCH   2   3
HETATM    3  N   UNL     1      -8.601  18.124  67.887  1.00  0.00    -0.250 N  
HETATM    4  C   UNL     1      -7.285  17.666  67.234  1.00  0.00    -0.181 C  
BRANCH   3   5
HETATM    5  C   UNL     1      -8.279  19.209  68.932  1.00  0.00    -0.295 C  
HETATM    6  C   UNL     1      -6.810  19.600  68.976  1.00  0.00    -0.378 C  
ENDBRANCH   3   5
BRANCH   3   7
HETATM    7  C   UNL     1      -9.293  16.883  68.521  1.00  0.00    -0.259 C  
BRANCH   7   8
HETATM    8  C   UNL     1      -9.810  15.857  67.509  1.00  0.00    -0.230 C  
BRANCH   8   9
HETATM    9  O   UNL     1     -11.238  15.785  67.527  1.00  0.00    -0.308 OA 
BRANCH   9  10
HETATM   10  C   UNL     1     -11.733  14.533  67.779  1.00  0.00    -0.374 C  
HETATM   11  O   UNL     1     -12.510  13.956  67.026  1.00  0.00    -0.323 OA 
BRANCH  10  12
HETATM   12  C   UNL     1     -11.070  13.910  69.002  1.00  0.00    -0.302 C  
HETATM   13  C   UNL     1     -11.972  14.154  70.191  1.00  0.00    -0.400 A  
HETATM   14  C   UNL     1     -12.285  15.467  70.589  1.00  0.00    -0.445 A  
HETATM   15  C   UNL     1     -13.230  15.695  71.588  1.00  0.00    -0.554 A  
HETATM   16  C   UNL     1     -13.854  14.617  72.211  1.00  0.00    -0.583 A  
HETATM   17  C   UNL     1     -13.533  13.312  71.834  1.00  0.00    -0.525 A  
HETATM   18  C   UNL     1     -12.604  13.081  70.820  1.00  0.00    -0.241 A  
HETATM   19  O   UNL     1     -12.384  11.767  70.483  1.00  0.00    -0.334 OA 
HETATM   20  C   UNL     1     -11.466  11.478  69.503  1.00  0.00    -0.311 A  
HETATM   21  C   UNL     1     -11.246  10.122  69.249  1.00  0.00    -0.247 A  
HETATM   22  C   UNL     1     -10.342   9.730  68.263  1.00  0.00    -0.231 A  
HETATM   23  C   UNL     1      -9.646  10.693  67.534  1.00  0.00    -0.180 A  
HETATM   24  C   UNL     1      -9.859  12.048  67.789  1.00  0.00    -0.190 A  
HETATM   25  C   UNL     1     -10.782  12.449  68.769  1.00  0.00    -0.242 A  
ENDBRANCH  10  12
ENDBRANCH   9  10
ENDBRANCH   8   9
ENDBRANCH   7   8
ENDBRANCH   3   7
ENDBRANCH   2   3
TORSDOF 7
ENDMDL
MODEL       24
REMARK 921   NORMALIZED FREE ENERGY PREDICTED BY IDOCK:   -5.41 KCAL/MOL
REMARK 922        TOTAL FREE ENERGY PREDICTED BY IDOCK:   -8.95 KCAL/MOL
REMARK 923 INTER-LIGAND FREE ENERGY PREDICTED BY IDOCK:   -7.85 KCAL/MOL
REMARK 924 INTRA-LIGAND FREE ENERGY PREDICTED BY IDOCK:   -1.10 KCAL/MOL
REMARK 927      BINDING AFFINITY PREDICTED BY RF-SCORE:    0.00 PKD
ROOT
HETATM    1  C   UNL     1     -10.540   5.996  70.522  1.00  0.00    -0.329 C  
HETATM    2  C   UNL     1      -9.261   6.772  70.256  1.00  0.00    -0.156 C  
ENDROOT
BRANCH   2   3
HETATM    3  N   UNL     1      -9.482   8.210  69.714  1.00  0.00    -0.159 N  
HETATM    4  C   UNL     1      -8.623   9.188  70.535  1.00  0.00    -0.219 C  
BRANCH   3   5
HETATM    5  C   UNL     1      -9.106   8.355  68.228  1.00  0.00    -0.139 C  
HETATM    6  C   UNL     1     -10.294   8.253  67.283  1.00  0.00    -0.372 C  
ENDBRANCH   3   5
BRANCH   3   7
HETATM    7  C   UNL     1     -10.982   8.532  69.977  1.00  0.00    -0.196 C  
BRANCH   7   8
HETATM    8  C   UNL     1     -11.255   9.973  70.415  1.00  0.00    -0.323 C  
BRANCH   8   9
HETATM    9  O   UNL     1     -11.898  10.717  69.378  1.00  0.00    -0.294 OA 
BRANCH   9  10
HETATM   10  C   UNL     1     -11.193  11.812  68.953  1.00  0.00    -0.253 C  
HETATM   11  O   UNL     1      -9.973  11.820  68.837  1.00  0.00    -0.151 OA 
BRANCH  10  12
HETATM   12  C   UNL     1     -12.124  12.930  68.499  1.00  0.00    -0.158 C  
HETATM   13  C   UNL     1     -12.086  14.019  69.548  1.00  0.00    -0.397 A  
HETATM   14  C   UNL     1     -12.480  13.747  70.871  1.00  0.00    -0.451 A  
HETATM   15  C   UNL     1     -12.306  14.703  71.870  1.00  0.00    -0.410 A  
HETATM   16  C   UNL     1     -11.759  15.944  71.553  1.00  0.00    -0.545 A  
HETATM   17  C   UNL     1     -11.384  16.227  70.239  1.00  0.00    -0.299 A  
HETATM   18  C   UNL     1     -11.537  15.264  69.241  1.00  0.00    -0.332 A  
HETATM   19  O   UNL     1     -11.099  15.613  67.987  1.00  0.00    -0.313 OA 
HETATM   20  C   UNL     1     -11.240  14.710  66.959  1.00  0.00    -0.344 A  
HETATM   21  C   UNL     1     -10.831  15.148  65.698  1.00  0.00    -0.367 A  
HETATM   22  C   UNL     1     -10.923  14.298  64.596  1.00  0.00    -0.379 A  
HETATM   23  C   UNL     1     -11.436  13.011  64.751  1.00  0.00    -0.363 A  
HETATM   24  C   UNL     1     -11.851  12.574  66.008  1.00  0.00    -0.478 A  
HETATM   25  C   UNL     1     -11.744  13.419  67.126  1.00  0.00    -0.424 A  
ENDBRANCH  10  12
ENDBRANCH   9  10
ENDBRANCH   8   9
ENDBRANCH   7   8
ENDBRANCH   3   7
ENDBRANCH   2   3
TORSDOF 7
ENDMDL
MODEL       25
REMARK 921   NORMALIZED FREE ENERGY PREDICTED BY IDOCK:   -5.34 KCAL/MOL
REMARK 922        TOTAL FREE ENERGY PREDICTED BY IDOCK:   -8.85 KCAL/MOL
REMARK 923 INTER-LIGAND FREE ENERGY PREDICTED BY IDOCK:   -7.83 KCAL/MOL
REMARK 924 INTRA-LIGAND FREE ENERGY PREDICTED BY IDOCK:   -1.02 KCAL/MOL
REMARK 927      BINDING AFFINITY PREDICTED BY RF-SCORE:    0.00 PKD
ROOT
HETATM    1  C   UNL     1      -8.989   8.438  72.686  1.00  0.00    -0.304 C  
HETATM    2  C   UNL     1     -10.347   7.755  72.696  1.00  0.00    -0.292 C  
ENDROOT
BRANCH   2   3
HETATM    3  N   UNL     1     -11.228   8.057  71.455  1.00  0.00    -0.246 N  
HETATM    4  C   UNL     1     -10.854   7.079  70.327  1.00  0.00    -0.254 C  
BRANCH   3   5
HETATM    5  C   UNL     1     -12.735   7.921  71.742  1.00  0.00    -0.329 C  
HETATM    6  C   UNL     1     -13.328   9.113  72.478  1.00  0.00    -0.481 C  
ENDBRANCH   3   5
BRANCH   3   7
HETATM    7  C   UNL     1     -10.842   9.497  71.006  1.00  0.00    -0.353 C  
BRANCH   7   8
HETATM    8  C   UNL     1     -11.147   9.807  69.539  1.00  0.00    -0.192 C  
BRANCH   8   9
HETATM    9  O   UNL     1     -10.463  10.986  69.105  1.00  0.00    -0.217 OA 
BRANCH   9  10
HETATM   10  C   UNL     1     -11.288  12.044  68.830  1.00  0.00    -0.278 C  
HETATM   11  O   UNL     1     -12.259  11.961  68.086  1.00  0.00    -0.470 OA 
BRANCH  10  12
HETATM   12  C   UNL     1     -10.940  13.256  69.686  1.00  0.00     0.103 C  
HETATM   13  C   UNL     1     -10.486  14.362  68.759  1.00  0.00    -0.244 A  
HETATM   14  C   UNL     1      -9.363  14.180  67.931  1.00  0.00    -0.204 A  
HETATM   15  C   UNL     1      -9.032  15.136  66.972  1.00  0.00    -0.255 A  
HETATM   16  C   UNL     1      -9.804  16.288  66.847  1.00  0.00    -0.253 A  
HETATM   17  C   UNL     1     -10.907  16.483  67.679  1.00  0.00    -0.269 A  
HETATM   18  C   UNL     1     -11.254  15.518  68.625  1.00  0.00    -0.325 A  
HETATM   19  O   UNL     1     -12.381  15.773  69.369  1.00  0.00    -0.248 OA 
HETATM   20  C   UNL     1     -12.762  14.866  70.328  1.00  0.00    -0.271 A  
HETATM   21  C   UNL     1     -13.880  15.211  71.090  1.00  0.00    -0.495 A  
HETATM   22  C   UNL     1     -14.350  14.348  72.079  1.00  0.00    -0.636 A  
HETATM   23  C   UNL     1     -13.696  13.141  72.318  1.00  0.00    -0.647 A  
HETATM   24  C   UNL     1     -12.575  12.796  71.563  1.00  0.00    -0.259 A  
HETATM   25  C   UNL     1     -12.107  13.653  70.553  1.00  0.00    -0.411 A  
ENDBRANCH  10  12
ENDBRANCH   9  10
ENDBRANCH   8   9
ENDBRANCH   7   8
ENDBRANCH   3   7
ENDBRANCH   2   3
TORSDOF 7
ENDMDL
MODEL       26
REMARK 921   NORMALIZED FREE ENERGY PREDICTED BY IDOCK:   -5.34 KCAL/MOL
REMARK 922        TOTAL FREE ENERGY PREDICTED BY IDOCK:   -8.84 KCAL/MOL
REMARK 923 INTER-LIGAND FREE ENERGY PREDICTED BY IDOCK:   -8.06 KCAL/MOL
REMARK 924 INTRA-LIGAND FREE ENERGY PREDICTED BY IDOCK:   -0.78 KCAL/MOL
REMARK 927      BINDING AFFINITY PREDICTED BY RF-SCORE:    0.00 PKD
ROOT
HETATM    1  C   UNL     1     -14.260   8.349  71.809  1.00  0.00    -0.536 C  
HETATM    2  C   UNL     1     -12.904   8.861  72.269  1.00  0.00    -0.411 C  
ENDROOT
BRANCH   2   3
HETATM    3  N   UNL     1     -11.694   8.244  71.518  1.00  0.00    -0.280 N  
HETATM    4  C   UNL     1     -10.434   8.406  72.387  1.00  0.00    -0.332 C  
BRANCH   3   5
HETATM    5  C   UNL     1     -11.884   6.749  71.201  1.00  0.00    -0.360 C  
HETATM    6  C   UNL     1     -11.330   5.821  72.272  1.00  0.00    -0.334 C  
ENDBRANCH   3   5
BRANCH   3   7
HETATM    7  C   UNL     1     -11.519   9.101  70.231  1.00  0.00    -0.146 C  
BRANCH   7   8
HETATM    8  C   UNL     1     -10.121   9.699  70.052  1.00  0.00    -0.252 C  
BRANCH   8   9
HETATM    9  O   UNL     1      -9.851   9.985  68.677  1.00  0.00    -0.151 OA 
BRANCH   9  10
HETATM   10  C   UNL     1      -9.799  11.322  68.382  1.00  0.00    -0.199 C  
HETATM   11  O   UNL     1      -8.796  12.006  68.550  1.00  0.00    -0.166 OA 
BRANCH  10  12
HETATM   12  C   UNL     1     -11.070  11.784  67.680  1.00  0.00    -0.312 C  
HETATM   13  C   UNL     1     -11.516  13.074  68.332  1.00  0.00    -0.345 A  
HETATM   14  C   UNL     1     -11.839  13.103  69.702  1.00  0.00    -0.390 A  
HETATM   15  C   UNL     1     -12.106  14.315  70.337  1.00  0.00    -0.409 A  
HETATM   16  C   UNL     1     -12.075  15.501  69.609  1.00  0.00    -0.352 A  
HETATM   17  C   UNL     1     -11.774  15.476  68.246  1.00  0.00    -0.287 A  
HETATM   18  C   UNL     1     -11.485  14.267  67.612  1.00  0.00    -0.346 A  
HETATM   19  O   UNL     1     -11.156  14.343  66.280  1.00  0.00    -0.319 OA 
HETATM   20  C   UNL     1     -10.878  13.182  65.598  1.00  0.00    -0.278 A  
HETATM   21  C   UNL     1     -10.609  13.321  64.235  1.00  0.00    -0.402 A  
HETATM   22  C   UNL     1     -10.304  12.202  63.462  1.00  0.00    -0.473 A  
HETATM   23  C   UNL     1     -10.277  10.937  64.048  1.00  0.00    -0.422 A  
HETATM   24  C   UNL     1     -10.551  10.794  65.408  1.00  0.00    -0.224 A  
HETATM   25  C   UNL     1     -10.842  11.921  66.196  1.00  0.00    -0.334 A  
ENDBRANCH  10  12
ENDBRANCH   9  10
ENDBRANCH   8   9
ENDBRANCH   7   8
ENDBRANCH   3   7
ENDBRANCH   2   3
TORSDOF 7
ENDMDL
MODEL       27
REMARK 921   NORMALIZED FREE ENERGY PREDICTED BY IDOCK:   -5.34 KCAL/MOL
REMARK 922        TOTAL FREE ENERGY PREDICTED BY IDOCK:   -8.84 KCAL/MOL
REMARK 923 INTER-LIGAND FREE ENERGY PREDICTED BY IDOCK:   -7.81 KCAL/MOL
REMARK 924 INTRA-LIGAND FREE ENERGY PREDICTED BY IDOCK:   -1.03 KCAL/MOL
REMARK 927      BINDING AFFINITY PREDICTED BY RF-SCORE:    0.00 PKD
ROOT
HETATM    1  C   UNL     1     -11.053   9.676  70.281  1.00  0.00    -0.327 C  
HETATM    2  C   UNL     1      -9.641   9.886  69.759  1.00  0.00    -0.231 C  
ENDROOT
BRANCH   2   3
HETATM    3  N   UNL     1      -9.480   9.667  68.231  1.00  0.00    -0.136 N  
HETATM    4  C   UNL     1      -8.368  10.594  67.709  1.00  0.00    -0.115 C  
BRANCH   3   5
HETATM    5  C   UNL     1      -9.118   8.214  67.868  1.00  0.00    -0.132 C  
HETATM    6  C   UNL     1     -10.315   7.370  67.457  1.00  0.00    -0.320 C  
ENDBRANCH   3   5
BRANCH   3   7
HETATM    7  C   UNL     1     -10.830  10.113  67.598  1.00  0.00    -0.290 C  
BRANCH   7   8
HETATM    8  C   UNL     1     -10.797  11.493  66.938  1.00  0.00    -0.284 C  
BRANCH   8   9
HETATM    9  O   UNL     1     -12.006  12.215  67.183  1.00  0.00    -0.580 OA 
BRANCH   9  10
HETATM   10  C   UNL     1     -11.836  13.569  67.305  1.00  0.00    -0.385 C  
HETATM   11  O   UNL     1     -12.509  14.387  66.688  1.00  0.00    -0.351 OA 
BRANCH  10  12
HETATM   12  C   UNL     1     -10.840  13.906  68.408  1.00  0.00    -0.269 C  
HETATM   13  C   UNL     1     -10.033  15.101  67.952  1.00  0.00    -0.221 A  
HETATM   14  C   UNL     1      -9.253  15.029  66.783  1.00  0.00    -0.280 A  
HETATM   15  C   UNL     1      -8.628  16.169  66.281  1.00  0.00    -0.373 A  
HETATM   16  C   UNL     1      -8.757  17.383  66.951  1.00  0.00    -0.265 A  
HETATM   17  C   UNL     1      -9.513  17.456  68.123  1.00  0.00    -0.288 A  
HETATM   18  C   UNL     1     -10.157  16.321  68.616  1.00  0.00    -0.233 A  
HETATM   19  O   UNL     1     -10.916  16.496  69.748  1.00  0.00    -0.344 OA 
HETATM   20  C   UNL     1     -11.560  15.410  70.290  1.00  0.00    -0.320 A  
HETATM   21  C   UNL     1     -12.266  15.643  71.473  1.00  0.00    -0.487 A  
HETATM   22  C   UNL     1     -12.962  14.604  72.090  1.00  0.00    -0.421 A  
HETATM   23  C   UNL     1     -12.947  13.327  71.532  1.00  0.00    -0.426 A  
HETATM   24  C   UNL     1     -12.238  13.091  70.354  1.00  0.00    -0.386 A  
HETATM   25  C   UNL     1     -11.549  14.137  69.717  1.00  0.00    -0.351 A  
ENDBRANCH  10  12
ENDBRANCH   9  10
ENDBRANCH   8   9
ENDBRANCH   7   8
ENDBRANCH   3   7
ENDBRANCH   2   3
TORSDOF 7
ENDMDL
MODEL       28
REMARK 921   NORMALIZED FREE ENERGY PREDICTED BY IDOCK:   -5.31 KCAL/MOL
REMARK 922        TOTAL FREE ENERGY PREDICTED BY IDOCK:   -8.81 KCAL/MOL
REMARK 923 INTER-LIGAND FREE ENERGY PREDICTED BY IDOCK:   -8.09 KCAL/MOL
REMARK 924 INTRA-LIGAND FREE ENERGY PREDICTED BY IDOCK:   -0.71 KCAL/MOL
REMARK 927      BINDING AFFINITY PREDICTED BY RF-SCORE:    0.00 PKD
ROOT
HETATM    1  C   UNL     1      -9.940  10.648  64.859  1.00  0.00    -0.382 C  
HETATM    2  C   UNL     1      -8.701  10.135  65.574  1.00  0.00    -0.158 C  
ENDROOT
BRANCH   2   3
HETATM    3  N   UNL     1      -8.973   9.528  66.977  1.00  0.00    -0.133 N  
HETATM    4  C   UNL     1      -8.622   8.030  66.948  1.00  0.00    -0.128 C  
BRANCH   3   5
HETATM    5  C   UNL     1      -8.151  10.204  68.091  1.00  0.00    -0.105 C  
HETATM    6  C   UNL     1      -7.452  11.480  67.649  1.00  0.00    -0.110 C  
ENDBRANCH   3   5
BRANCH   3   7
HETATM    7  C   UNL     1     -10.505   9.672  67.207  1.00  0.00    -0.258 C  
BRANCH   7   8
HETATM    8  C   UNL     1     -10.891  10.258  68.567  1.00  0.00    -0.240 C  
BRANCH   8   9
HETATM    9  O   UNL     1     -12.076  11.053  68.472  1.00  0.00    -0.573 OA 
BRANCH   9  10
HETATM   10  C   UNL     1     -11.870  12.310  67.971  1.00  0.00    -0.305 C  
HETATM   11  O   UNL     1     -12.321  12.685  66.894  1.00  0.00    -0.430 OA 
BRANCH  10  12
HETATM   12  C   UNL     1     -11.166  13.203  68.986  1.00  0.00    -0.309 C  
HETATM   13  C   UNL     1     -10.612  14.399  68.245  1.00  0.00    -0.243 A  
HETATM   14  C   UNL     1      -9.668  14.223  67.216  1.00  0.00    -0.234 A  
HETATM   15  C   UNL     1      -9.267  15.305  66.433  1.00  0.00    -0.342 A  
HETATM   16  C   UNL     1      -9.787  16.572  66.684  1.00  0.00    -0.279 A  
HETATM   17  C   UNL     1     -10.709  16.756  67.716  1.00  0.00    -0.321 A  
HETATM   18  C   UNL     1     -11.128  15.672  68.487  1.00  0.00    -0.322 A  
HETATM   19  O   UNL     1     -12.071  15.938  69.450  1.00  0.00    -0.330 OA 
HETATM   20  C   UNL     1     -12.510  14.911  70.252  1.00  0.00    -0.336 A  
HETATM   21  C   UNL     1     -13.423  15.259  71.249  1.00  0.00    -0.591 A  
HETATM   22  C   UNL     1     -13.935  14.284  72.104  1.00  0.00    -0.618 A  
HETATM   23  C   UNL     1     -13.525  12.958  71.971  1.00  0.00    -0.568 A  
HETATM   24  C   UNL     1     -12.608  12.608  70.980  1.00  0.00    -0.354 A  
HETATM   25  C   UNL     1     -12.103  13.584  70.104  1.00  0.00    -0.425 A  
ENDBRANCH  10  12
ENDBRANCH   9  10
ENDBRANCH   8   9
ENDBRANCH   7   8
ENDBRANCH   3   7
ENDBRANCH   2   3
TORSDOF 7
ENDMDL
MODEL       29
REMARK 921   NORMALIZED FREE ENERGY PREDICTED BY IDOCK:   -5.30 KCAL/MOL
REMARK 922        TOTAL FREE ENERGY PREDICTED BY IDOCK:   -8.78 KCAL/MOL
REMARK 923 INTER-LIGAND FREE ENERGY PREDICTED BY IDOCK:   -7.93 KCAL/MOL
REMARK 924 INTRA-LIGAND FREE ENERGY PREDICTED BY IDOCK:   -0.86 KCAL/MOL
REMARK 927      BINDING AFFINITY PREDICTED BY RF-SCORE:    0.00 PKD
ROOT
HETATM    1  C   UNL     1     -13.538   9.510  71.993  1.00  0.00    -0.492 C  
HETATM    2  C   UNL     1     -12.233  10.018  71.403  1.00  0.00    -0.416 C  
ENDROOT
BRANCH   2   3
HETATM    3  N   UNL     1     -11.252   8.901  70.955  1.00  0.00    -0.264 N  
HETATM    4  C   UNL     1     -10.040   8.893  71.903  1.00  0.00    -0.322 C  
BRANCH   3   5
HETATM    5  C   UNL     1     -11.892   7.501  70.965  1.00  0.00    -0.293 C  
HETATM    6  C   UNL     1     -11.325   6.560  69.913  1.00  0.00    -0.469 C  
ENDBRANCH   3   5
BRANCH   3   7
HETATM    7  C   UNL     1     -10.765   9.316  69.536  1.00  0.00    -0.222 C  
BRANCH   7   8
HETATM    8  C   UNL     1     -10.434  10.803  69.387  1.00  0.00    -0.200 C  
BRANCH   8   9
HETATM    9  O   UNL     1     -10.479  11.210  68.018  1.00  0.00    -0.176 OA 
BRANCH   9  10
HETATM   10  C   UNL     1      -9.305  11.736  67.550  1.00  0.00    -0.174 C  
HETATM   11  O   UNL     1      -8.227  11.158  67.643  1.00  0.00    -0.115 OA 
BRANCH  10  12
HETATM   12  C   UNL     1      -9.545  13.022  66.769  1.00  0.00    -0.248 C  
HETATM   13  C   UNL     1     -10.534  12.717  65.666  1.00  0.00    -0.298 A  
HETATM   14  C   UNL     1     -10.228  11.759  64.682  1.00  0.00    -0.326 A  
HETATM   15  C   UNL     1     -11.192  11.368  63.754  1.00  0.00    -0.375 A  
HETATM   16  C   UNL     1     -12.459  11.944  63.787  1.00  0.00    -0.537 A  
HETATM   17  C   UNL     1     -12.763  12.909  64.749  1.00  0.00    -0.442 A  
HETATM   18  C   UNL     1     -11.807  13.286  65.692  1.00  0.00    -0.380 A  
HETATM   19  O   UNL     1     -12.207  14.208  66.629  1.00  0.00    -0.448 OA 
HETATM   20  C   UNL     1     -11.303  14.631  67.573  1.00  0.00    -0.348 A  
HETATM   21  C   UNL     1     -11.754  15.612  68.459  1.00  0.00    -0.339 A  
HETATM   22  C   UNL     1     -10.913  16.095  69.460  1.00  0.00    -0.341 A  
HETATM   23  C   UNL     1      -9.613  15.606  69.572  1.00  0.00    -0.279 A  
HETATM   24  C   UNL     1      -9.157  14.630  68.686  1.00  0.00    -0.189 A  
HETATM   25  C   UNL     1     -10.006  14.126  67.686  1.00  0.00    -0.233 A  
ENDBRANCH  10  12
ENDBRANCH   9  10
ENDBRANCH   8   9
ENDBRANCH   7   8
ENDBRANCH   3   7
ENDBRANCH   2   3
TORSDOF 7
ENDMDL
MODEL       30
REMARK 921   NORMALIZED FREE ENERGY PREDICTED BY IDOCK:   -5.23 KCAL/MOL
REMARK 922        TOTAL FREE ENERGY PREDICTED BY IDOCK:   -8.69 KCAL/MOL
REMARK 923 INTER-LIGAND FREE ENERGY PREDICTED BY IDOCK:   -7.85 KCAL/MOL
REMARK 924 INTRA-LIGAND FREE ENERGY PREDICTED BY IDOCK:   -0.84 KCAL/MOL
REMARK 927      BINDING AFFINITY PREDICTED BY RF-SCORE:    0.00 PKD
ROOT
HETATM    1  C   UNL     1      -9.023  15.429  66.561  1.00  0.00    -0.344 C  
HETATM    2  C   UNL     1      -9.586  14.019  66.511  1.00  0.00    -0.293 C  
ENDROOT
BRANCH   2   3
HETATM    3  N   UNL     1     -10.902  13.880  65.700  1.00  0.00    -0.287 N  
HETATM    4  C   UNL     1     -11.146  15.183  64.918  1.00  0.00    -0.414 C  
BRANCH   3   5
HETATM    5  C   UNL     1     -10.871  12.707  64.702  1.00  0.00    -0.319 C  
HETATM    6  C   UNL     1     -11.989  12.749  63.672  1.00  0.00    -0.616 C  
ENDBRANCH   3   5
BRANCH   3   7
HETATM    7  C   UNL     1     -12.033  13.722  66.758  1.00  0.00    -0.426 C  
BRANCH   7   8
HETATM    8  C   UNL     1     -11.696  12.771  67.909  1.00  0.00    -0.357 C  
BRANCH   8   9
HETATM    9  O   UNL     1     -12.071  11.427  67.599  1.00  0.00    -0.630 OA 
BRANCH   9  10
HETATM   10  C   UNL     1     -11.187  10.481  68.046  1.00  0.00    -0.294 C  
HETATM   11  O   UNL     1     -10.872   9.495  67.389  1.00  0.00    -0.269 OA 
BRANCH  10  12
HETATM   12  C   UNL     1     -10.543  10.902  69.361  1.00  0.00    -0.233 C  
HETATM   13  C   UNL     1     -11.274  10.195  70.481  1.00  0.00    -0.411 A  
HETATM   14  C   UNL     1     -12.651  10.410  70.678  1.00  0.00    -0.435 A  
HETATM   15  C   UNL     1     -13.357   9.651  71.610  1.00  0.00    -0.485 A  
HETATM   16  C   UNL     1     -12.692   8.690  72.368  1.00  0.00    -0.423 A  
HETATM   17  C   UNL     1     -11.322   8.487  72.191  1.00  0.00    -0.442 A  
HETATM   18  C   UNL     1     -10.617   9.229  71.243  1.00  0.00    -0.347 A  
HETATM   19  O   UNL     1      -9.284   8.930  71.105  1.00  0.00    -0.211 OA 
HETATM   20  C   UNL     1      -8.534   9.641  70.199  1.00  0.00    -0.204 A  
HETATM   21  C   UNL     1      -7.174   9.330  70.149  1.00  0.00    -0.083 A  
HETATM   22  C   UNL     1      -6.335   9.989  69.252  1.00  0.00    -0.045 A  
HETATM   23  C   UNL     1      -6.852  10.970  68.408  1.00  0.00    -0.065 A  
HETATM   24  C   UNL     1      -8.210  11.288  68.459  1.00  0.00    -0.150 A  
HETATM   25  C   UNL     1      -9.064  10.614  69.349  1.00  0.00    -0.064 A  
ENDBRANCH  10  12
ENDBRANCH   9  10
ENDBRANCH   8   9
ENDBRANCH   7   8
ENDBRANCH   3   7
ENDBRANCH   2   3
TORSDOF 7
ENDMDL
MODEL       31
REMARK 921   NORMALIZED FREE ENERGY PREDICTED BY IDOCK:   -5.21 KCAL/MOL
REMARK 922        TOTAL FREE ENERGY PREDICTED BY IDOCK:   -8.66 KCAL/MOL
REMARK 923 INTER-LIGAND FREE ENERGY PREDICTED BY IDOCK:   -8.02 KCAL/MOL
REMARK 924 INTRA-LIGAND FREE ENERGY PREDICTED BY IDOCK:   -0.64 KCAL/MOL
REMARK 927      BINDING AFFINITY PREDICTED BY RF-SCORE:    0.00 PKD
ROOT
HETATM    1  C   UNL     1      -9.676   7.887  72.952  1.00  0.00    -0.339 C  
HETATM    2  C   UNL     1     -11.186   7.717  72.927  1.00  0.00    -0.376 C  
ENDROOT
BRANCH   2   3
HETATM    3  N   UNL     1     -11.871   8.244  71.637  1.00  0.00    -0.284 N  
HETATM    4  C   UNL     1     -11.826   7.143  70.563  1.00  0.00    -0.243 C  
BRANCH   3   5
HETATM    5  C   UNL     1     -13.340   8.650  71.862  1.00  0.00    -0.382 C  
HETATM    6  C   UNL     1     -14.336   7.546  71.542  1.00  0.00    -0.603 C  
ENDBRANCH   3   5
BRANCH   3   7
HETATM    7  C   UNL     1     -10.998   9.439  71.156  1.00  0.00    -0.360 C  
BRANCH   7   8
HETATM    8  C   UNL     1     -10.954   9.621  69.637  1.00  0.00    -0.229 C  
BRANCH   8   9
HETATM    9  O   UNL     1     -10.321  10.852  69.280  1.00  0.00    -0.220 OA 
BRANCH   9  10
HETATM   10  C   UNL     1     -10.875  11.474  68.193  1.00  0.00    -0.215 C  
HETATM   11  O   UNL     1     -12.073  11.433  67.936  1.00  0.00    -0.646 OA 
BRANCH  10  12
HETATM   12  C   UNL     1      -9.851  12.337  67.466  1.00  0.00    -0.193 C  
HETATM   13  C   UNL     1      -9.843  11.920  66.012  1.00  0.00    -0.258 A  
HETATM   14  C   UNL     1      -9.512  10.601  65.652  1.00  0.00    -0.257 A  
HETATM   15  C   UNL     1      -9.648  10.175  64.331  1.00  0.00    -0.366 A  
HETATM   16  C   UNL     1     -10.093  11.066  63.358  1.00  0.00    -0.424 A  
HETATM   17  C   UNL     1     -10.405  12.381  63.706  1.00  0.00    -0.454 A  
HETATM   18  C   UNL     1     -10.290  12.805  65.030  1.00  0.00    -0.303 A  
HETATM   19  O   UNL     1     -10.662  14.102  65.288  1.00  0.00    -0.321 OA 
HETATM   20  C   UNL     1     -10.554  14.580  66.572  1.00  0.00    -0.297 A  
HETATM   21  C   UNL     1     -10.890  15.923  66.757  1.00  0.00    -0.228 A  
HETATM   22  C   UNL     1     -10.825  16.495  68.027  1.00  0.00    -0.337 A  
HETATM   23  C   UNL     1     -10.413  15.728  69.115  1.00  0.00    -0.240 A  
HETATM   24  C   UNL     1     -10.070  14.388  68.933  1.00  0.00    -0.202 A  
HETATM   25  C   UNL     1     -10.151  13.801  67.658  1.00  0.00    -0.242 A  
ENDBRANCH  10  12
ENDBRANCH   9  10
ENDBRANCH   8   9
ENDBRANCH   7   8
ENDBRANCH   3   7
ENDBRANCH   2   3
TORSDOF 7
ENDMDL
MODEL       32
REMARK 921   NORMALIZED FREE ENERGY PREDICTED BY IDOCK:   -5.18 KCAL/MOL
REMARK 922        TOTAL FREE ENERGY PREDICTED BY IDOCK:   -8.61 KCAL/MOL
REMARK 923 INTER-LIGAND FREE ENERGY PREDICTED BY IDOCK:   -7.51 KCAL/MOL
REMARK 924 INTRA-LIGAND FREE ENERGY PREDICTED BY IDOCK:   -1.10 KCAL/MOL
REMARK 927      BINDING AFFINITY PREDICTED BY RF-SCORE:    0.00 PKD
ROOT
HETATM    1  C   UNL     1     -10.294   9.233  68.700  1.00  0.00    -0.229 C  
HETATM    2  C   UNL     1     -10.371  10.728  68.436  1.00  0.00    -0.180 C  
ENDROOT
BRANCH   2   3
HETATM    3  N   UNL     1      -9.298  11.263  67.451  1.00  0.00    -0.161 N  
HETATM    4  C   UNL     1      -8.154  10.239  67.355  1.00  0.00    -0.110 C  
BRANCH   3   5
HETATM    5  C   UNL     1      -9.854  11.512  66.036  1.00  0.00    -0.225 C  
HETATM    6  C   UNL     1     -11.355  11.755  66.002  1.00  0.00    -0.335 C  
ENDBRANCH   3   5
BRANCH   3   7
HETATM    7  C   UNL     1      -8.742  12.563  68.102  1.00  0.00    -0.190 C  
BRANCH   7   8
HETATM    8  C   UNL     1      -8.367  13.662  67.105  1.00  0.00    -0.137 C  
BRANCH   8   9
HETATM    9  O   UNL     1      -9.013  14.897  67.426  1.00  0.00    -0.175 OA 
BRANCH   9  10
HETATM   10  C   UNL     1      -9.927  15.311  66.494  1.00  0.00    -0.265 C  
HETATM   11  O   UNL     1      -9.945  14.894  65.341  1.00  0.00    -0.349 OA 
BRANCH  10  12
HETATM   12  C   UNL     1     -10.990  16.206  67.119  1.00  0.00    -0.144 C  
HETATM   13  C   UNL     1     -11.383  15.599  68.447  1.00  0.00    -0.365 A  
HETATM   14  C   UNL     1     -11.935  14.306  68.502  1.00  0.00    -0.352 A  
HETATM   15  C   UNL     1     -12.160  13.686  69.731  1.00  0.00    -0.396 A  
HETATM   16  C   UNL     1     -11.858  14.359  70.912  1.00  0.00    -0.346 A  
HETATM   17  C   UNL     1     -11.329  15.650  70.864  1.00  0.00    -0.417 A  
HETATM   18  C   UNL     1     -11.082  16.264  69.636  1.00  0.00    -0.333 A  
HETATM   19  O   UNL     1     -10.518  17.516  69.684  1.00  0.00    -0.129 OA 
HETATM   20  C   UNL     1     -10.268  18.177  68.505  1.00  0.00    -0.384 A  
HETATM   21  C   UNL     1      -9.750  19.468  68.624  1.00  0.00    -0.514 A  
HETATM   22  C   UNL     1      -9.452  20.213  67.484  1.00  0.00    -0.523 A  
HETATM   23  C   UNL     1      -9.682  19.672  66.220  1.00  0.00    -0.511 A  
HETATM   24  C   UNL     1     -10.205  18.385  66.097  1.00  0.00    -0.408 A  
HETATM   25  C   UNL     1     -10.491  17.623  67.243  1.00  0.00    -0.338 A  
ENDBRANCH  10  12
ENDBRANCH   9  10
ENDBRANCH   8   9
ENDBRANCH   7   8
ENDBRANCH   3   7
ENDBRANCH   2   3
TORSDOF 7
ENDMDL
MODEL       33
REMARK 921   NORMALIZED FREE ENERGY PREDICTED BY IDOCK:   -5.17 KCAL/MOL
REMARK 922        TOTAL FREE ENERGY PREDICTED BY IDOCK:   -8.60 KCAL/MOL
REMARK 923 INTER-LIGAND FREE ENERGY PREDICTED BY IDOCK:   -7.91 KCAL/MOL
REMARK 924 INTRA-LIGAND FREE ENERGY PREDICTED BY IDOCK:   -0.69 KCAL/MOL
REMARK 927      BINDING AFFINITY PREDICTED BY RF-SCORE:    0.00 PKD
ROOT
HETATM    1  C   UNL     1     -13.533  12.608  72.072  1.00  0.00    -0.516 C  
HETATM    2  C   UNL     1     -12.572  13.514  71.319  1.00  0.00    -0.341 C  
ENDROOT
BRANCH   2   3
HETATM    3  N   UNL     1     -12.585  14.995  71.784  1.00  0.00    -0.320 N  
HETATM    4  C   UNL     1     -14.045  15.458  71.934  1.00  0.00    -0.537 C  
BRANCH   3   5
HETATM    5  C   UNL     1     -11.863  15.207  73.128  1.00  0.00    -0.327 C  
HETATM    6  C   UNL     1     -12.605  16.129  74.083  1.00  0.00    -0.669 C  
ENDBRANCH   3   5
BRANCH   3   7
HETATM    7  C   UNL     1     -11.928  15.804  70.629  1.00  0.00    -0.393 C  
BRANCH   7   8
HETATM    8  C   UNL     1     -12.065  15.162  69.246  1.00  0.00    -0.244 C  
BRANCH   8   9
HETATM    9  O   UNL     1     -10.785  14.905  68.663  1.00  0.00    -0.236 OA 
BRANCH   9  10
HETATM   10  C   UNL     1     -10.461  15.743  67.630  1.00  0.00    -0.282 C  
HETATM   11  O   UNL     1     -10.702  16.944  67.640  1.00  0.00    -0.333 OA 
BRANCH  10  12
HETATM   12  C   UNL     1      -9.631  15.024  66.573  1.00  0.00    -0.299 C  
HETATM   13  C   UNL     1      -8.563  14.226  67.287  1.00  0.00    -0.229 A  
HETATM   14  C   UNL     1      -7.614  14.875  68.099  1.00  0.00    -0.115 A  
HETATM   15  C   UNL     1      -6.724  14.133  68.874  1.00  0.00    -0.103 A  
HETATM   16  C   UNL     1      -6.758  12.741  68.828  1.00  0.00    -0.093 A  
HETATM   17  C   UNL     1      -7.684  12.093  68.009  1.00  0.00    -0.134 A  
HETATM   18  C   UNL     1      -8.590  12.832  67.249  1.00  0.00    -0.197 A  
HETATM   19  O   UNL     1      -9.495  12.110  66.509  1.00  0.00    -0.220 OA 
HETATM   20  C   UNL     1     -10.401  12.785  65.727  1.00  0.00    -0.281 A  
HETATM   21  C   UNL     1     -11.253  11.993  64.953  1.00  0.00    -0.374 A  
HETATM   22  C   UNL     1     -12.215  12.587  64.137  1.00  0.00    -0.552 A  
HETATM   23  C   UNL     1     -12.322  13.975  64.084  1.00  0.00    -0.374 A  
HETATM   24  C   UNL     1     -11.469  14.769  64.851  1.00  0.00    -0.412 A  
HETATM   25  C   UNL     1     -10.509  14.176  65.689  1.00  0.00    -0.333 A  
ENDBRANCH  10  12
ENDBRANCH   9  10
ENDBRANCH   8   9
ENDBRANCH   7   8
ENDBRANCH   3   7
ENDBRANCH   2   3
TORSDOF 7
ENDMDL
MODEL       34
REMARK 921   NORMALIZED FREE ENERGY PREDICTED BY IDOCK:   -5.15 KCAL/MOL
REMARK 922        TOTAL FREE ENERGY PREDICTED BY IDOCK:   -8.57 KCAL/MOL
REMARK 923 INTER-LIGAND FREE ENERGY PREDICTED BY IDOCK:   -7.90 KCAL/MOL
REMARK 924 INTRA-LIGAND FREE ENERGY PREDICTED BY IDOCK:   -0.68 KCAL/MOL
REMARK 927      BINDING AFFINITY PREDICTED BY RF-SCORE:    0.00 PKD
ROOT
HETATM    1  C   UNL     1     -10.897  16.275  69.404  1.00  0.00    -0.331 C  
HETATM    2  C   UNL     1     -12.088  15.332  69.445  1.00  0.00    -0.270 C  
ENDROOT
BRANCH   2   3
HETATM    3  N   UNL     1     -12.440  14.801  70.860  1.00  0.00    -0.304 N  
HETATM    4  C   UNL     1     -11.446  15.392  71.876  1.00  0.00    -0.433 C  
BRANCH   3   5
HETATM    5  C   UNL     1     -13.869  15.171  71.301  1.00  0.00    -0.472 C  
HETATM    6  C   UNL     1     -13.969  15.608  72.754  1.00  0.00    -0.563 C  
ENDBRANCH   3   5
BRANCH   3   7
HETATM    7  C   UNL     1     -12.224  13.261  70.797  1.00  0.00    -0.308 C  
BRANCH   7   8
HETATM    8  C   UNL     1     -11.900  12.722  69.402  1.00  0.00    -0.300 C  
BRANCH   8   9
HETATM    9  O   UNL     1     -10.490  12.696  69.170  1.00  0.00    -0.058 OA 
BRANCH   9  10
HETATM   10  C   UNL     1     -10.141  12.562  67.852  1.00  0.00    -0.214 C  
HETATM   11  O   UNL     1      -9.192  13.151  67.347  1.00  0.00    -0.195 OA 
BRANCH  10  12
HETATM   12  C   UNL     1     -10.969  11.482  67.166  1.00  0.00    -0.338 C  
HETATM   13  C   UNL     1     -11.426  12.027  65.831  1.00  0.00    -0.392 A  
HETATM   14  C   UNL     1     -12.231  13.179  65.771  1.00  0.00    -0.514 A  
HETATM   15  C   UNL     1     -12.530  13.768  64.544  1.00  0.00    -0.329 A  
HETATM   16  C   UNL     1     -12.047  13.201  63.367  1.00  0.00    -0.558 A  
HETATM   17  C   UNL     1     -11.264  12.046  63.419  1.00  0.00    -0.481 A  
HETATM   18  C   UNL     1     -10.945  11.467  64.647  1.00  0.00    -0.255 A  
HETATM   19  O   UNL     1     -10.132  10.360  64.605  1.00  0.00    -0.345 OA 
HETATM   20  C   UNL     1      -9.798   9.737  65.784  1.00  0.00    -0.290 A  
HETATM   21  C   UNL     1      -9.019   8.583  65.668  1.00  0.00    -0.209 A  
HETATM   22  C   UNL     1      -8.620   7.889  66.809  1.00  0.00    -0.133 A  
HETATM   23  C   UNL     1      -9.008   8.340  68.070  1.00  0.00    -0.138 A  
HETATM   24  C   UNL     1      -9.791   9.488  68.188  1.00  0.00    -0.177 A  
HETATM   25  C   UNL     1     -10.182  10.202  67.043  1.00  0.00    -0.290 A  
ENDBRANCH  10  12
ENDBRANCH   9  10
ENDBRANCH   8   9
ENDBRANCH   7   8
ENDBRANCH   3   7
ENDBRANCH   2   3
TORSDOF 7
ENDMDL
MODEL       35
REMARK 921   NORMALIZED FREE ENERGY PREDICTED BY IDOCK:   -5.14 KCAL/MOL
REMARK 922        TOTAL FREE ENERGY PREDICTED BY IDOCK:   -8.56 KCAL/MOL
REMARK 923 INTER-LIGAND FREE ENERGY PREDICTED BY IDOCK:   -7.92 KCAL/MOL
REMARK 924 INTRA-LIGAND FREE ENERGY PREDICTED BY IDOCK:   -0.64 KCAL/MOL
REMARK 927      BINDING AFFINITY PREDICTED BY RF-SCORE:    0.00 PKD
ROOT
HETATM    1  C   UNL     1     -14.003  15.807  72.658  1.00  0.00    -0.557 C  
HETATM    2  C   UNL     1     -13.866  15.245  71.253  1.00  0.00    -0.478 C  
ENDROOT
BRANCH   2   3
HETATM    3  N   UNL     1     -12.448  14.717  70.906  1.00  0.00    -0.304 N  
HETATM    4  C   UNL     1     -11.453  15.228  71.963  1.00  0.00    -0.413 C  
BRANCH   3   5
HETATM    5  C   UNL     1     -12.374  13.180  70.864  1.00  0.00    -0.307 C  
HETATM    6  C   UNL     1     -13.180  12.498  71.959  1.00  0.00    -0.524 C  
ENDBRANCH   3   5
BRANCH   3   7
HETATM    7  C   UNL     1     -12.084  15.361  69.536  1.00  0.00    -0.305 C  
BRANCH   7   8
HETATM    8  C   UNL     1     -10.584  15.417  69.239  1.00  0.00    -0.252 C  
BRANCH   8   9
HETATM    9  O   UNL     1     -10.054  14.111  68.998  1.00  0.00    -0.193 OA 
BRANCH   9  10
HETATM   10  C   UNL     1      -8.994  14.087  68.132  1.00  0.00    -0.183 C  
HETATM   11  O   UNL     1      -7.954  14.706  68.327  1.00  0.00    -0.120 OA 
BRANCH  10  12
HETATM   12  C   UNL     1      -9.216  13.078  67.011  1.00  0.00    -0.232 C  
HETATM   13  C   UNL     1      -9.436  11.723  67.646  1.00  0.00    -0.180 A  
HETATM   14  C   UNL     1      -8.437  11.143  68.449  1.00  0.00    -0.151 A  
HETATM   15  C   UNL     1      -8.692   9.968  69.153  1.00  0.00    -0.168 A  
HETATM   16  C   UNL     1      -9.935   9.351  69.045  1.00  0.00    -0.182 A  
HETATM   17  C   UNL     1     -10.924   9.911  68.234  1.00  0.00    -0.248 A  
HETATM   18  C   UNL     1     -10.679  11.099  67.545  1.00  0.00    -0.236 A  
HETATM   19  O   UNL     1     -11.724  11.601  66.808  1.00  0.00    -0.541 OA 
HETATM   20  C   UNL     1     -11.536  12.760  66.094  1.00  0.00    -0.379 A  
HETATM   21  C   UNL     1     -12.617  13.185  65.319  1.00  0.00    -0.531 A  
HETATM   22  C   UNL     1     -12.526  14.358  64.570  1.00  0.00    -0.362 A  
HETATM   23  C   UNL     1     -11.348  15.103  64.585  1.00  0.00    -0.362 A  
HETATM   24  C   UNL     1     -10.264  14.678  65.353  1.00  0.00    -0.415 A  
HETATM   25  C   UNL     1     -10.357  13.506  66.124  1.00  0.00    -0.296 A  
ENDBRANCH  10  12
ENDBRANCH   9  10
ENDBRANCH   8   9
ENDBRANCH   7   8
ENDBRANCH   3   7
ENDBRANCH   2   3
TORSDOF 7
ENDMDL
MODEL       36
REMARK 921   NORMALIZED FREE ENERGY PREDICTED BY IDOCK:   -5.12 KCAL/MOL
REMARK 922        TOTAL FREE ENERGY PREDICTED BY IDOCK:   -8.53 KCAL/MOL
REMARK 923 INTER-LIGAND FREE ENERGY PREDICTED BY IDOCK:   -7.49 KCAL/MOL
REMARK 924 INTRA-LIGAND FREE ENERGY PREDICTED BY IDOCK:   -1.04 KCAL/MOL
REMARK 927      BINDING AFFINITY PREDICTED BY RF-SCORE:    0.00 PKD
ROOT
HETATM    1  C   UNL     1     -10.413  16.096  65.335  1.00  0.00    -0.396 C  
HETATM    2  C   UNL     1     -10.376  17.429  66.063  1.00  0.00    -0.304 C  
ENDROOT
BRANCH   2   3
HETATM    3  N   UNL     1     -10.127  17.322  67.591  1.00  0.00    -0.300 N  
HETATM    4  C   UNL     1      -8.686  16.838  67.829  1.00  0.00    -0.210 C  
BRANCH   3   5
HETATM    5  C   UNL     1     -10.323  18.662  68.326  1.00  0.00    -0.344 C  
HETATM    6  C   UNL     1      -9.925  19.876  67.502  1.00  0.00    -0.552 C  
ENDBRANCH   3   5
BRANCH   3   7
HETATM    7  C   UNL     1     -11.106  16.224  68.100  1.00  0.00    -0.329 C  
BRANCH   7   8
HETATM    8  C   UNL     1     -10.502  15.259  69.123  1.00  0.00    -0.247 C  
BRANCH   8   9
HETATM    9  O   UNL     1     -10.977  13.926  68.922  1.00  0.00    -0.252 OA 
BRANCH   9  10
HETATM   10  C   UNL     1     -10.257  13.206  68.006  1.00  0.00    -0.233 C  
HETATM   11  O   UNL     1      -9.108  13.487  67.686  1.00  0.00    -0.186 OA 
BRANCH  10  12
HETATM   12  C   UNL     1     -11.004  11.948  67.579  1.00  0.00    -0.299 C  
HETATM   13  C   UNL     1     -11.459  12.142  66.150  1.00  0.00    -0.429 A  
HETATM   14  C   UNL     1     -12.328  13.198  65.818  1.00  0.00    -0.496 A  
HETATM   15  C   UNL     1     -12.631  13.469  64.484  1.00  0.00    -0.262 A  
HETATM   16  C   UNL     1     -12.088  12.678  63.475  1.00  0.00    -0.648 A  
HETATM   17  C   UNL     1     -11.240  11.617  63.800  1.00  0.00    -0.498 A  
HETATM   18  C   UNL     1     -10.918  11.357  65.132  1.00  0.00    -0.192 A  
HETATM   19  O   UNL     1     -10.042  10.323  65.355  1.00  0.00    -0.293 OA 
HETATM   20  C   UNL     1      -9.701  10.008  66.649  1.00  0.00    -0.194 A  
HETATM   21  C   UNL     1      -8.853   8.910  66.810  1.00  0.00    -0.142 A  
HETATM   22  C   UNL     1      -8.442   8.523  68.085  1.00  0.00    -0.134 A  
HETATM   23  C   UNL     1      -8.886   9.226  69.204  1.00  0.00    -0.141 A  
HETATM   24  C   UNL     1      -9.738  10.319  69.046  1.00  0.00    -0.213 A  
HETATM   25  C   UNL     1     -10.141  10.726  67.763  1.00  0.00    -0.201 A  
ENDBRANCH  10  12
ENDBRANCH   9  10
ENDBRANCH   8   9
ENDBRANCH   7   8
ENDBRANCH   3   7
ENDBRANCH   2   3
TORSDOF 7
ENDMDL
MODEL       37
REMARK 921   NORMALIZED FREE ENERGY PREDICTED BY IDOCK:   -5.12 KCAL/MOL
REMARK 922        TOTAL FREE ENERGY PREDICTED BY IDOCK:   -8.53 KCAL/MOL
REMARK 923 INTER-LIGAND FREE ENERGY PREDICTED BY IDOCK:   -7.41 KCAL/MOL
REMARK 924 INTRA-LIGAND FREE ENERGY PREDICTED BY IDOCK:   -1.12 KCAL/MOL
REMARK 927      BINDING AFFINITY PREDICTED BY RF-SCORE:    0.00 PKD
ROOT
HETATM    1  C   UNL     1     -10.203  10.607  64.865  1.00  0.00    -0.395 C  
HETATM    2  C   UNL     1      -9.206   9.520  65.230  1.00  0.00    -0.247 C  
ENDROOT
BRANCH   2   3
HETATM    3  N   UNL     1      -8.433   9.772  66.552  1.00  0.00    -0.123 N  
HETATM    4  C   UNL     1      -8.911   8.762  67.610  1.00  0.00    -0.135 C  
BRANCH   3   5
HETATM    5  C   UNL     1      -6.908   9.629  66.391  1.00  0.00    -0.084 C  
HETATM    6  C   UNL     1      -6.165  10.956  66.397  1.00  0.00    -0.130 C  
ENDBRANCH   3   5
BRANCH   3   7
HETATM    7  C   UNL     1      -8.845  11.200  67.013  1.00  0.00    -0.149 C  
BRANCH   7   8
HETATM    8  C   UNL     1      -9.355  11.280  68.454  1.00  0.00    -0.181 C  
BRANCH   8   9
HETATM    9  O   UNL     1     -10.144  12.454  68.661  1.00  0.00    -0.210 OA 
BRANCH   9  10
HETATM   10  C   UNL     1     -11.494  12.251  68.542  1.00  0.00    -0.303 C  
HETATM   11  O   UNL     1     -12.028  11.166  68.740  1.00  0.00    -0.451 OA 
BRANCH  10  12
HETATM   12  C   UNL     1     -12.232  13.563  68.304  1.00  0.00    -0.148 C  
HETATM   13  C   UNL     1     -12.119  14.393  69.563  1.00  0.00    -0.366 A  
HETATM   14  C   UNL     1     -12.636  13.913  70.781  1.00  0.00    -0.424 A  
HETATM   15  C   UNL     1     -12.402  14.606  71.968  1.00  0.00    -0.398 A  
HETATM   16  C   UNL     1     -11.672  15.791  71.947  1.00  0.00    -0.572 A  
HETATM   17  C   UNL     1     -11.173  16.282  70.739  1.00  0.00    -0.293 A  
HETATM   18  C   UNL     1     -11.386  15.581  69.553  1.00  0.00    -0.313 A  
HETATM   19  O   UNL     1     -10.821  16.114  68.420  1.00  0.00    -0.286 OA 
HETATM   20  C   UNL     1     -11.012  15.475  67.218  1.00  0.00    -0.303 A  
HETATM   21  C   UNL     1     -10.462  16.100  66.097  1.00  0.00    -0.334 A  
HETATM   22  C   UNL     1     -10.592  15.520  64.836  1.00  0.00    -0.370 A  
HETATM   23  C   UNL     1     -11.284  14.319  64.690  1.00  0.00    -0.370 A  
HETATM   24  C   UNL     1     -11.840  13.695  65.807  1.00  0.00    -0.397 A  
HETATM   25  C   UNL     1     -11.696  14.265  67.084  1.00  0.00    -0.430 A  
ENDBRANCH  10  12
ENDBRANCH   9  10
ENDBRANCH   8   9
ENDBRANCH   7   8
ENDBRANCH   3   7
ENDBRANCH   2   3
TORSDOF 7
ENDMDL
MODEL       38
REMARK 921   NORMALIZED FREE ENERGY PREDICTED BY IDOCK:   -5.10 KCAL/MOL
REMARK 922        TOTAL FREE ENERGY PREDICTED BY IDOCK:   -8.51 KCAL/MOL
REMARK 923 INTER-LIGAND FREE ENERGY PREDICTED BY IDOCK:   -7.79 KCAL/MOL
REMARK 924 INTRA-LIGAND FREE ENERGY PREDICTED BY IDOCK:   -0.72 KCAL/MOL
REMARK 927      BINDING AFFINITY PREDICTED BY RF-SCORE:    0.00 PKD
ROOT
HETATM    1  C   UNL     1      -9.821  15.463  65.718  1.00  0.00    -0.399 C  
HETATM    2  C   UNL     1     -10.742  14.703  64.778  1.00  0.00    -0.377 C  
ENDROOT
BRANCH   2   3
HETATM    3  N   UNL     1     -10.912  13.199  65.119  1.00  0.00    -0.291 N  
HETATM    4  C   UNL     1     -12.223  13.010  65.902  1.00  0.00    -0.432 C  
BRANCH   3   5
HETATM    5  C   UNL     1     -10.952  12.301  63.869  1.00  0.00    -0.406 C  
HETATM    6  C   UNL     1     -12.360  11.990  63.384  1.00  0.00    -0.635 C  
ENDBRANCH   3   5
BRANCH   3   7
HETATM    7  C   UNL     1      -9.722  12.845  66.059  1.00  0.00    -0.223 C  
BRANCH   7   8
HETATM    8  C   UNL     1      -9.927  11.578  66.893  1.00  0.00    -0.205 C  
BRANCH   8   9
HETATM    9  O   UNL     1      -9.129  11.603  68.079  1.00  0.00    -0.164 OA 
BRANCH   9  10
HETATM   10  C   UNL     1      -9.378  10.572  68.945  1.00  0.00    -0.187 C  
HETATM   11  O   UNL     1      -8.568  10.187  69.780  1.00  0.00    -0.184 OA 
BRANCH  10  12
HETATM   12  C   UNL     1     -10.823  10.097  68.840  1.00  0.00    -0.256 C  
HETATM   13  C   UNL     1     -10.823   8.588  68.944  1.00  0.00    -0.009 A  
HETATM   14  C   UNL     1     -10.126   7.810  68.001  1.00  0.00    -0.227 A  
HETATM   15  C   UNL     1     -10.000   6.433  68.178  1.00  0.00    -0.143 A  
HETATM   16  C   UNL     1     -10.585   5.819  69.282  1.00  0.00    -0.376 A  
HETATM   17  C   UNL     1     -11.294   6.583  70.211  1.00  0.00    -0.456 A  
HETATM   18  C   UNL     1     -11.403   7.964  70.049  1.00  0.00    -0.027 A  
HETATM   19  O   UNL     1     -12.079   8.641  71.035  1.00  0.00    -0.287 OA 
HETATM   20  C   UNL     1     -12.234  10.002  70.920  1.00  0.00    -0.346 A  
HETATM   21  C   UNL     1     -12.981  10.622  71.924  1.00  0.00    -0.542 A  
HETATM   22  C   UNL     1     -13.182  12.001  71.900  1.00  0.00    -0.469 A  
HETATM   23  C   UNL     1     -12.644  12.765  70.865  1.00  0.00    -0.342 A  
HETATM   24  C   UNL     1     -11.902  12.148  69.857  1.00  0.00    -0.392 A  
HETATM   25  C   UNL     1     -11.682  10.760  69.886  1.00  0.00    -0.412 A  
ENDBRANCH  10  12
ENDBRANCH   9  10
ENDBRANCH   8   9
ENDBRANCH   7   8
ENDBRANCH   3   7
ENDBRANCH   2   3
TORSDOF 7
ENDMDL
MODEL       39
REMARK 921   NORMALIZED FREE ENERGY PREDICTED BY IDOCK:   -5.09 KCAL/MOL
REMARK 922        TOTAL FREE ENERGY PREDICTED BY IDOCK:   -8.49 KCAL/MOL
REMARK 923 INTER-LIGAND FREE ENERGY PREDICTED BY IDOCK:   -7.80 KCAL/MOL
REMARK 924 INTRA-LIGAND FREE ENERGY PREDICTED BY IDOCK:   -0.69 KCAL/MOL
REMARK 927      BINDING AFFINITY PREDICTED BY RF-SCORE:    0.00 PKD
ROOT
HETATM    1  C   UNL     1      -5.308  20.941  69.594  1.00  0.00    -0.410 C  
HETATM    2  C   UNL     1      -6.325  20.431  68.586  1.00  0.00    -0.304 C  
ENDROOT
BRANCH   2   3
HETATM    3  N   UNL     1      -6.423  18.884  68.497  1.00  0.00    -0.235 N  
HETATM    4  C   UNL     1      -5.747  18.416  67.196  1.00  0.00    -0.138 C  
BRANCH   3   5
HETATM    5  C   UNL     1      -5.748  18.171  69.684  1.00  0.00    -0.240 C  
HETATM    6  C   UNL     1      -6.069  16.687  69.769  1.00  0.00    -0.221 C  
ENDBRANCH   3   5
BRANCH   3   7
HETATM    7  C   UNL     1      -7.943  18.564  68.406  1.00  0.00    -0.315 C  
BRANCH   7   8
HETATM    8  C   UNL     1      -8.338  17.691  67.212  1.00  0.00    -0.215 C  
BRANCH   8   9
HETATM    9  O   UNL     1      -9.689  17.240  67.323  1.00  0.00    -0.252 OA 
BRANCH   9  10
HETATM   10  C   UNL     1      -9.814  15.940  67.738  1.00  0.00    -0.222 C  
HETATM   11  O   UNL     1      -8.875  15.280  68.166  1.00  0.00    -0.166 OA 
BRANCH  10  12
HETATM   12  C   UNL     1     -11.274  15.501  67.752  1.00  0.00    -0.302 C  
HETATM   13  C   UNL     1     -11.442  14.423  66.704  1.00  0.00    -0.372 A  
HETATM   14  C   UNL     1     -11.169  14.698  65.351  1.00  0.00    -0.347 A  
HETATM   15  C   UNL     1     -11.179  13.672  64.407  1.00  0.00    -0.382 A  
HETATM   16  C   UNL     1     -11.483  12.371  64.800  1.00  0.00    -0.375 A  
HETATM   17  C   UNL     1     -11.774  12.096  66.138  1.00  0.00    -0.384 A  
HETATM   18  C   UNL     1     -11.743  13.117  67.088  1.00  0.00    -0.377 A  
HETATM   19  O   UNL     1     -11.998  12.747  68.387  1.00  0.00    -0.319 OA 
HETATM   20  C   UNL     1     -11.998  13.713  69.364  1.00  0.00    -0.342 A  
HETATM   21  C   UNL     1     -12.323  13.281  70.653  1.00  0.00    -0.416 A  
HETATM   22  C   UNL     1     -12.337  14.186  71.713  1.00  0.00    -0.316 A  
HETATM   23  C   UNL     1     -12.037  15.528  71.487  1.00  0.00    -0.458 A  
HETATM   24  C   UNL     1     -11.718  15.964  70.200  1.00  0.00    -0.342 A  
HETATM   25  C   UNL     1     -11.685  15.053  69.130  1.00  0.00    -0.345 A  
ENDBRANCH  10  12
ENDBRANCH   9  10
ENDBRANCH   8   9
ENDBRANCH   7   8
ENDBRANCH   3   7
ENDBRANCH   2   3
TORSDOF 7
ENDMDL
MODEL       40
REMARK 921   NORMALIZED FREE ENERGY PREDICTED BY IDOCK:   -5.08 KCAL/MOL
REMARK 922        TOTAL FREE ENERGY PREDICTED BY IDOCK:   -8.48 KCAL/MOL
REMARK 923 INTER-LIGAND FREE ENERGY PREDICTED BY IDOCK:   -7.67 KCAL/MOL
REMARK 924 INTRA-LIGAND FREE ENERGY PREDICTED BY IDOCK:   -0.81 KCAL/MOL
REMARK 927      BINDING AFFINITY PREDICTED BY RF-SCORE:    0.00 PKD
ROOT
HETATM    1  C   UNL     1     -12.126  13.573  63.961  1.00  0.00    -0.494 C  
HETATM    2  C   UNL     1     -10.738  13.536  64.579  1.00  0.00    -0.418 C  
ENDROOT
BRANCH   2   3
HETATM    3  N   UNL     1     -10.612  14.297  65.926  1.00  0.00    -0.292 N  
HETATM    4  C   UNL     1      -9.318  13.852  66.631  1.00  0.00    -0.268 C  
BRANCH   3   5
HETATM    5  C   UNL     1     -10.574  15.827  65.750  1.00  0.00    -0.355 C  
HETATM    6  C   UNL     1     -10.283  16.584  67.036  1.00  0.00    -0.288 C  
ENDBRANCH   3   5
BRANCH   3   7
HETATM    7  C   UNL     1     -11.825  13.834  66.784  1.00  0.00    -0.420 C  
BRANCH   7   8
HETATM    8  C   UNL     1     -11.470  12.860  67.911  1.00  0.00    -0.318 C  
BRANCH   8   9
HETATM    9  O   UNL     1     -12.038  11.569  67.680  1.00  0.00    -0.623 OA 
BRANCH   9  10
HETATM   10  C   UNL     1     -11.253  10.527  68.097  1.00  0.00    -0.293 C  
HETATM   11  O   UNL     1     -11.023   9.542  67.405  1.00  0.00    -0.232 OA 
BRANCH  10  12
HETATM   12  C   UNL     1     -10.589  10.835  69.434  1.00  0.00    -0.254 C  
HETATM   13  C   UNL     1     -11.390  10.148  70.517  1.00  0.00    -0.416 A  
HETATM   14  C   UNL     1     -12.745  10.472  70.713  1.00  0.00    -0.471 A  
HETATM   15  C   UNL     1     -13.524   9.739  71.607  1.00  0.00    -0.436 A  
HETATM   16  C   UNL     1     -12.953   8.693  72.327  1.00  0.00    -0.430 A  
HETATM   17  C   UNL     1     -11.604   8.379  72.151  1.00  0.00    -0.442 A  
HETATM   18  C   UNL     1     -10.827   9.097  71.241  1.00  0.00    -0.332 A  
HETATM   19  O   UNL     1      -9.523   8.690  71.100  1.00  0.00    -0.176 OA 
HETATM   20  C   UNL     1      -8.706   9.371  70.230  1.00  0.00    -0.230 A  
HETATM   21  C   UNL     1      -7.376   8.945  70.177  1.00  0.00    -0.059 A  
HETATM   22  C   UNL     1      -6.474   9.567  69.314  1.00  0.00    -0.044 A  
HETATM   23  C   UNL     1      -6.896  10.624  68.510  1.00  0.00    -0.065 A  
HETATM   24  C   UNL     1      -8.221  11.056  68.565  1.00  0.00    -0.146 A  
HETATM   25  C   UNL     1      -9.140  10.421  69.420  1.00  0.00    -0.170 A  
ENDBRANCH  10  12
ENDBRANCH   9  10
ENDBRANCH   8   9
ENDBRANCH   7   8
ENDBRANCH   3   7
ENDBRANCH   2   3
TORSDOF 7
ENDMDL
MODEL       41
REMARK 921   NORMALIZED FREE ENERGY PREDICTED BY IDOCK:   -5.07 KCAL/MOL
REMARK 922        TOTAL FREE ENERGY PREDICTED BY IDOCK:   -8.47 KCAL/MOL
REMARK 923 INTER-LIGAND FREE ENERGY PREDICTED BY IDOCK:   -7.45 KCAL/MOL
REMARK 924 INTRA-LIGAND FREE ENERGY PREDICTED BY IDOCK:   -1.01 KCAL/MOL
REMARK 927      BINDING AFFINITY PREDICTED BY RF-SCORE:    0.00 PKD
ROOT
HETATM    1  C   UNL     1      -6.818   9.285  67.010  1.00  0.00    -0.080 C  
HETATM    2  C   UNL     1      -7.603   8.714  68.180  1.00  0.00    -0.097 C  
ENDROOT
BRANCH   2   3
HETATM    3  N   UNL     1      -8.983   9.384  68.418  1.00  0.00    -0.128 N  
HETATM    4  C   UNL     1      -9.770   9.388  67.096  1.00  0.00    -0.173 C  
BRANCH   3   5
HETATM    5  C   UNL     1      -9.823   8.661  69.488  1.00  0.00    -0.187 C  
HETATM    6  C   UNL     1      -9.987   9.454  70.776  1.00  0.00    -0.358 C  
ENDBRANCH   3   5
BRANCH   3   7
HETATM    7  C   UNL     1      -8.671  10.857  68.811  1.00  0.00    -0.158 C  
BRANCH   7   8
HETATM    8  C   UNL     1      -9.485  11.904  68.045  1.00  0.00    -0.197 C  
BRANCH   8   9
HETATM    9  O   UNL     1     -10.296  12.680  68.930  1.00  0.00    -0.157 OA 
BRANCH   9  10
HETATM   10  C   UNL     1     -11.643  12.502  68.757  1.00  0.00    -0.322 C  
HETATM   11  O   UNL     1     -12.184  11.403  68.794  1.00  0.00    -0.502 OA 
BRANCH  10  12
HETATM   12  C   UNL     1     -12.373  13.838  68.684  1.00  0.00    -0.014 C  
HETATM   13  C   UNL     1     -12.471  14.389  70.089  1.00  0.00    -0.395 A  
HETATM   14  C   UNL     1     -13.150  13.670  71.090  1.00  0.00    -0.306 A  
HETATM   15  C   UNL     1     -13.115  14.101  72.415  1.00  0.00    -0.525 A  
HETATM   16  C   UNL     1     -12.422  15.262  72.749  1.00  0.00    -0.490 A  
HETATM   17  C   UNL     1     -11.763  15.990  71.757  1.00  0.00    -0.593 A  
HETATM   18  C   UNL     1     -11.778  15.550  70.433  1.00  0.00    -0.339 A  
HETATM   19  O   UNL     1     -11.065  16.304  69.533  1.00  0.00    -0.316 OA 
HETATM   20  C   UNL     1     -11.057  15.928  68.211  1.00  0.00    -0.345 A  
HETATM   21  C   UNL     1     -10.363  16.769  67.338  1.00  0.00    -0.302 A  
HETATM   22  C   UNL     1     -10.289  16.464  65.980  1.00  0.00    -0.365 A  
HETATM   23  C   UNL     1     -10.918  15.321  65.488  1.00  0.00    -0.365 A  
HETATM   24  C   UNL     1     -11.617  14.483  66.356  1.00  0.00    -0.370 A  
HETATM   25  C   UNL     1     -11.680  14.775  67.729  1.00  0.00    -0.368 A  
ENDBRANCH  10  12
ENDBRANCH   9  10
ENDBRANCH   8   9
ENDBRANCH   7   8
ENDBRANCH   3   7
ENDBRANCH   2   3
TORSDOF 7
ENDMDL
MODEL       42
REMARK 921   NORMALIZED FREE ENERGY PREDICTED BY IDOCK:   -5.05 KCAL/MOL
REMARK 922        TOTAL FREE ENERGY PREDICTED BY IDOCK:   -8.44 KCAL/MOL
REMARK 923 INTER-LIGAND FREE ENERGY PREDICTED BY IDOCK:   -8.21 KCAL/MOL
REMARK 924 INTRA-LIGAND FREE ENERGY PREDICTED BY IDOCK:   -0.23 KCAL/MOL
REMARK 927      BINDING AFFINITY PREDICTED BY RF-SCORE:    0.00 PKD
ROOT
HETATM    1  C   UNL     1     -10.757   6.094  69.447  1.00  0.00    -0.385 C  
HETATM    2  C   UNL     1     -11.748   6.473  70.535  1.00  0.00    -0.375 C  
ENDROOT
BRANCH   2   3
HETATM    3  N   UNL     1     -11.126   6.620  71.950  1.00  0.00    -0.243 N  
HETATM    4  C   UNL     1     -11.477   5.372  72.780  1.00  0.00    -0.268 C  
BRANCH   3   5
HETATM    5  C   UNL     1      -9.594   6.773  71.918  1.00  0.00    -0.148 C  
HETATM    6  C   UNL     1      -9.077   7.933  72.756  1.00  0.00    -0.272 C  
ENDBRANCH   3   5
BRANCH   3   7
HETATM    7  C   UNL     1     -11.827   7.852  72.591  1.00  0.00    -0.297 C  
BRANCH   7   8
HETATM    8  C   UNL     1     -12.629   8.709  71.609  1.00  0.00    -0.338 C  
BRANCH   8   9
HETATM    9  O   UNL     1     -12.277  10.090  71.718  1.00  0.00    -0.384 OA 
BRANCH   9  10
HETATM   10  C   UNL     1     -11.488  10.550  70.698  1.00  0.00    -0.327 C  
HETATM   11  O   UNL     1     -10.358  10.127  70.482  1.00  0.00    -0.232 OA 
BRANCH  10  12
HETATM   12  C   UNL     1     -12.252  11.511  69.795  1.00  0.00    -0.310 C  
HETATM   13  C   UNL     1     -12.521  12.773  70.585  1.00  0.00    -0.328 A  
HETATM   14  C   UNL     1     -13.280  12.722  71.769  1.00  0.00    -0.471 A  
HETATM   15  C   UNL     1     -13.404  13.852  72.576  1.00  0.00    -0.656 A  
HETATM   16  C   UNL     1     -12.793  15.045  72.197  1.00  0.00    -0.414 A  
HETATM   17  C   UNL     1     -12.056  15.106  71.013  1.00  0.00    -0.389 A  
HETATM   18  C   UNL     1     -11.911  13.971  70.215  1.00  0.00    -0.339 A  
HETATM   19  O   UNL     1     -11.131  14.112  69.093  1.00  0.00    -0.251 OA 
HETATM   20  C   UNL     1     -10.967  13.032  68.259  1.00  0.00    -0.260 A  
HETATM   21  C   UNL     1     -10.212  13.257  67.106  1.00  0.00    -0.246 A  
HETATM   22  C   UNL     1      -9.979  12.218  66.205  1.00  0.00    -0.249 A  
HETATM   23  C   UNL     1     -10.511  10.953  66.450  1.00  0.00    -0.307 A  
HETATM   24  C   UNL     1     -11.270  10.727  67.598  1.00  0.00    -0.370 A  
HETATM   25  C   UNL     1     -11.493  11.765  68.518  1.00  0.00    -0.353 A  
ENDBRANCH  10  12
ENDBRANCH   9  10
ENDBRANCH   8   9
ENDBRANCH   7   8
ENDBRANCH   3   7
ENDBRANCH   2   3
TORSDOF 7
ENDMDL
MODEL       43
REMARK 921   NORMALIZED FREE ENERGY PREDICTED BY IDOCK:   -5.05 KCAL/MOL
REMARK 922        TOTAL FREE ENERGY PREDICTED BY IDOCK:   -8.44 KCAL/MOL
REMARK 923 INTER-LIGAND FREE ENERGY PREDICTED BY IDOCK:   -7.21 KCAL/MOL
REMARK 924 INTRA-LIGAND FREE ENERGY PREDICTED BY IDOCK:   -1.23 KCAL/MOL
REMARK 927      BINDING AFFINITY PREDICTED BY RF-SCORE:    0.00 PKD
ROOT
HETATM    1  C   UNL     1     -13.529  15.958  73.301  1.00  0.00    -0.599 C  
HETATM    2  C   UNL     1     -13.778  15.420  71.901  1.00  0.00    -0.501 C  
ENDROOT
BRANCH   2   3
HETATM    3  N   UNL     1     -12.524  14.823  71.208  1.00  0.00    -0.303 N  
HETATM    4  C   UNL     1     -11.287  15.121  72.074  1.00  0.00    -0.271 C  
BRANCH   3   5
HETATM    5  C   UNL     1     -12.621  13.301  70.999  1.00  0.00    -0.324 C  
HETATM    6  C   UNL     1     -11.914  12.808  69.746  1.00  0.00    -0.362 C  
ENDBRANCH   3   5
BRANCH   3   7
HETATM    7  C   UNL     1     -12.381  15.594  69.864  1.00  0.00    -0.234 C  
BRANCH   7   8
HETATM    8  C   UNL     1     -11.123  16.459  69.758  1.00  0.00    -0.305 C  
BRANCH   8   9
HETATM    9  O   UNL     1     -10.208  15.930  68.796  1.00  0.00    -0.207 OA 
BRANCH   9  10
HETATM   10  C   UNL     1     -10.235  16.569  67.585  1.00  0.00    -0.279 C  
HETATM   11  O   UNL     1     -10.623  17.723  67.445  1.00  0.00    -0.368 OA 
BRANCH  10  12
HETATM   12  C   UNL     1      -9.574  15.728  66.499  1.00  0.00    -0.288 C  
HETATM   13  C   UNL     1      -8.116  15.560  66.867  1.00  0.00    -0.284 A  
HETATM   14  C   UNL     1      -7.282  16.685  66.999  1.00  0.00    -0.236 A  
HETATM   15  C   UNL     1      -5.981  16.546  67.481  1.00  0.00    -0.176 A  
HETATM   16  C   UNL     1      -5.497  15.283  67.814  1.00  0.00    -0.101 A  
HETATM   17  C   UNL     1      -6.314  14.161  67.667  1.00  0.00    -0.129 A  
HETATM   18  C   UNL     1      -7.623  14.300  67.205  1.00  0.00    -0.092 A  
HETATM   19  O   UNL     1      -8.369  13.148  67.135  1.00  0.00    -0.181 OA 
HETATM   20  C   UNL     1      -9.660  13.221  66.671  1.00  0.00    -0.262 A  
HETATM   21  C   UNL     1     -10.344  12.007  66.568  1.00  0.00    -0.240 A  
HETATM   22  C   UNL     1     -11.664  11.982  66.119  1.00  0.00    -0.313 A  
HETATM   23  C   UNL     1     -12.301  13.169  65.761  1.00  0.00    -0.496 A  
HETATM   24  C   UNL     1     -11.618  14.381  65.857  1.00  0.00    -0.361 A  
HETATM   25  C   UNL     1     -10.294  14.416  66.326  1.00  0.00    -0.300 A  
ENDBRANCH  10  12
ENDBRANCH   9  10
ENDBRANCH   8   9
ENDBRANCH   7   8
ENDBRANCH   3   7
ENDBRANCH   2   3
TORSDOF 7
ENDMDL
MODEL       44
REMARK 921   NORMALIZED FREE ENERGY PREDICTED BY IDOCK:   -5.05 KCAL/MOL
REMARK 922        TOTAL FREE ENERGY PREDICTED BY IDOCK:   -8.44 KCAL/MOL
REMARK 923 INTER-LIGAND FREE ENERGY PREDICTED BY IDOCK:   -7.53 KCAL/MOL
REMARK 924 INTRA-LIGAND FREE ENERGY PREDICTED BY IDOCK:   -0.91 KCAL/MOL
REMARK 927      BINDING AFFINITY PREDICTED BY RF-SCORE:    0.00 PKD
ROOT
HETATM    1  C   UNL     1     -10.807  10.614  68.910  1.00  0.00    -0.272 C  
HETATM    2  C   UNL     1      -9.333  10.911  68.688  1.00  0.00    -0.187 C  
ENDROOT
BRANCH   2   3
HETATM    3  N   UNL     1      -8.887  10.878  67.202  1.00  0.00    -0.135 N  
HETATM    4  C   UNL     1      -7.562  10.102  67.096  1.00  0.00    -0.092 C  
BRANCH   3   5
HETATM    5  C   UNL     1      -9.923  10.208  66.279  1.00  0.00    -0.242 C  
HETATM    6  C   UNL     1      -9.921  10.753  64.859  1.00  0.00    -0.374 C  
ENDBRANCH   3   5
BRANCH   3   7
HETATM    7  C   UNL     1      -8.622  12.361  66.810  1.00  0.00    -0.129 C  
BRANCH   7   8
HETATM    8  C   UNL     1      -8.421  13.305  67.998  1.00  0.00    -0.170 C  
BRANCH   8   9
HETATM    9  O   UNL     1      -8.841  14.634  67.681  1.00  0.00    -0.169 OA 
BRANCH   9  10
HETATM   10  C   UNL     1      -9.634  15.214  68.636  1.00  0.00    -0.213 C  
HETATM   11  O   UNL     1      -9.322  15.275  69.819  1.00  0.00    -0.216 OA 
BRANCH  10  12
HETATM   12  C   UNL     1     -10.841  15.903  68.010  1.00  0.00    -0.317 C  
HETATM   13  C   UNL     1     -10.439  17.319  67.666  1.00  0.00    -0.363 A  
HETATM   14  C   UNL     1     -10.012  18.203  68.674  1.00  0.00    -0.409 A  
HETATM   15  C   UNL     1      -9.502  19.457  68.344  1.00  0.00    -0.439 A  
HETATM   16  C   UNL     1      -9.433  19.848  67.009  1.00  0.00    -0.505 A  
HETATM   17  C   UNL     1      -9.873  18.983  66.005  1.00  0.00    -0.271 A  
HETATM   18  C   UNL     1     -10.364  17.719  66.331  1.00  0.00    -0.351 A  
HETATM   19  O   UNL     1     -10.732  16.918  65.277  1.00  0.00    -0.599 OA 
HETATM   20  C   UNL     1     -11.240  15.668  65.538  1.00  0.00    -0.140 A  
HETATM   21  C   UNL     1     -11.650  14.928  64.427  1.00  0.00    -0.296 A  
HETATM   22  C   UNL     1     -12.166  13.643  64.591  1.00  0.00    -0.448 A  
HETATM   23  C   UNL     1     -12.285  13.098  65.869  1.00  0.00    -0.497 A  
HETATM   24  C   UNL     1     -11.882  13.838  66.981  1.00  0.00    -0.445 A  
HETATM   25  C   UNL     1     -11.344  15.126  66.821  1.00  0.00    -0.248 A  
ENDBRANCH  10  12
ENDBRANCH   9  10
ENDBRANCH   8   9
ENDBRANCH   7   8
ENDBRANCH   3   7
ENDBRANCH   2   3
TORSDOF 7
ENDMDL
MODEL       45
REMARK 921   NORMALIZED FREE ENERGY PREDICTED BY IDOCK:   -5.05 KCAL/MOL
REMARK 922        TOTAL FREE ENERGY PREDICTED BY IDOCK:   -8.43 KCAL/MOL
REMARK 923 INTER-LIGAND FREE ENERGY PREDICTED BY IDOCK:   -7.45 KCAL/MOL
REMARK 924 INTRA-LIGAND FREE ENERGY PREDICTED BY IDOCK:   -0.98 KCAL/MOL
REMARK 927      BINDING AFFINITY PREDICTED BY RF-SCORE:    0.00 PKD
ROOT
HETATM    1  C   UNL     1     -12.193  11.860  63.528  1.00  0.00    -0.591 C  
HETATM    2  C   UNL     1     -12.226  13.374  63.400  1.00  0.00    -0.349 C  
ENDROOT
BRANCH   2   3
HETATM    3  N   UNL     1     -11.702  14.137  64.645  1.00  0.00    -0.396 N  
HETATM    4  C   UNL     1     -10.267  13.670  64.949  1.00  0.00    -0.339 C  
BRANCH   3   5
HETATM    5  C   UNL     1     -11.689  15.665  64.451  1.00  0.00    -0.218 C  
HETATM    6  C   UNL     1     -10.688  16.387  65.340  1.00  0.00    -0.310 C  
ENDBRANCH   3   5
BRANCH   3   7
HETATM    7  C   UNL     1     -12.622  13.701  65.822  1.00  0.00    -0.461 C  
BRANCH   7   8
HETATM    8  C   UNL     1     -11.900  13.528  67.161  1.00  0.00    -0.387 C  
BRANCH   8   9
HETATM    9  O   UNL     1     -12.094  12.213  67.689  1.00  0.00    -0.522 OA 
BRANCH   9  10
HETATM   10  C   UNL     1     -10.937  11.580  68.056  1.00  0.00    -0.231 C  
HETATM   11  O   UNL     1      -9.943  12.177  68.452  1.00  0.00    -0.208 OA 
BRANCH  10  12
HETATM   12  C   UNL     1     -11.111  10.066  68.064  1.00  0.00    -0.263 C  
HETATM   13  C   UNL     1     -10.112   9.479  67.093  1.00  0.00    -0.290 A  
HETATM   14  C   UNL     1     -10.152   9.832  65.731  1.00  0.00    -0.308 A  
HETATM   15  C   UNL     1      -9.145   9.412  64.863  1.00  0.00    -0.258 A  
HETATM   16  C   UNL     1      -8.104   8.620  65.341  1.00  0.00    -0.121 A  
HETATM   17  C   UNL     1      -8.069   8.251  66.687  1.00  0.00    -0.102 A  
HETATM   18  C   UNL     1      -9.064   8.688  67.563  1.00  0.00    -0.134 A  
HETATM   19  O   UNL     1      -8.924   8.314  68.877  1.00  0.00    -0.143 OA 
HETATM   20  C   UNL     1      -9.883   8.701  69.783  1.00  0.00    -0.183 A  
HETATM   21  C   UNL     1      -9.714   8.239  71.090  1.00  0.00    -0.209 A  
HETATM   22  C   UNL     1     -10.629   8.590  72.082  1.00  0.00    -0.419 A  
HETATM   23  C   UNL     1     -11.722   9.396  71.767  1.00  0.00    -0.444 A  
HETATM   24  C   UNL     1     -11.897   9.853  70.461  1.00  0.00    -0.350 A  
HETATM   25  C   UNL     1     -10.969   9.518  69.461  1.00  0.00    -0.217 A  
ENDBRANCH  10  12
ENDBRANCH   9  10
ENDBRANCH   8   9
ENDBRANCH   7   8
ENDBRANCH   3   7
ENDBRANCH   2   3
TORSDOF 7
ENDMDL
MODEL       46
REMARK 921   NORMALIZED FREE ENERGY PREDICTED BY IDOCK:   -5.05 KCAL/MOL
REMARK 922        TOTAL FREE ENERGY PREDICTED BY IDOCK:   -8.43 KCAL/MOL
REMARK 923 INTER-LIGAND FREE ENERGY PREDICTED BY IDOCK:   -7.47 KCAL/MOL
REMARK 924 INTRA-LIGAND FREE ENERGY PREDICTED BY IDOCK:   -0.97 KCAL/MOL
REMARK 927      BINDING AFFINITY PREDICTED BY RF-SCORE:    0.00 PKD
ROOT
HETATM    1  C   UNL     1     -11.623  12.539  63.597  1.00  0.00    -0.580 C  
HETATM    2  C   UNL     1     -12.056  12.685  65.047  1.00  0.00    -0.444 C  
ENDROOT
BRANCH   2   3
HETATM    3  N   UNL     1     -11.116  13.565  65.913  1.00  0.00    -0.284 N  
HETATM    4  C   UNL     1     -10.784  14.853  65.139  1.00  0.00    -0.411 C  
BRANCH   3   5
HETATM    5  C   UNL     1     -11.737  13.953  67.268  1.00  0.00    -0.386 C  
HETATM    6  C   UNL     1     -10.950  15.013  68.023  1.00  0.00    -0.285 C  
ENDBRANCH   3   5
BRANCH   3   7
HETATM    7  C   UNL     1      -9.806  12.741  66.081  1.00  0.00    -0.267 C  
BRANCH   7   8
HETATM    8  C   UNL     1      -9.959  11.469  66.920  1.00  0.00    -0.205 C  
BRANCH   8   9
HETATM    9  O   UNL     1      -9.096  11.492  68.059  1.00  0.00    -0.161 OA 
BRANCH   9  10
HETATM   10  C   UNL     1      -9.268  10.437  68.915  1.00  0.00    -0.177 C  
HETATM   11  O   UNL     1      -8.457  10.139  69.783  1.00  0.00    -0.177 OA 
BRANCH  10  12
HETATM   12  C   UNL     1     -10.648   9.809  68.751  1.00  0.00    -0.244 C  
HETATM   13  C   UNL     1     -10.466   8.311  68.652  1.00  0.00    -0.199 A  
HETATM   14  C   UNL     1      -9.699   7.755  67.611  1.00  0.00    -0.193 A  
HETATM   15  C   UNL     1      -9.407   6.392  67.601  1.00  0.00    -0.117 A  
HETATM   16  C   UNL     1      -9.894   5.571  68.615  1.00  0.00    -0.198 A  
HETATM   17  C   UNL     1     -10.672   6.114  69.639  1.00  0.00    -0.385 A  
HETATM   18  C   UNL     1     -10.948   7.481  69.664  1.00  0.00    -0.153 A  
HETATM   19  O   UNL     1     -11.682   7.935  70.733  1.00  0.00    -0.284 OA 
HETATM   20  C   UNL     1     -11.999   9.270  70.802  1.00  0.00    -0.210 A  
HETATM   21  C   UNL     1     -12.797   9.657  71.881  1.00  0.00    -0.515 A  
HETATM   22  C   UNL     1     -13.160  10.993  72.043  1.00  0.00    -0.449 A  
HETATM   23  C   UNL     1     -12.736  11.946  71.118  1.00  0.00    -0.384 A  
HETATM   24  C   UNL     1     -11.945  11.562  70.036  1.00  0.00    -0.435 A  
HETATM   25  C   UNL     1     -11.560  10.220  69.877  1.00  0.00    -0.326 A  
ENDBRANCH  10  12
ENDBRANCH   9  10
ENDBRANCH   8   9
ENDBRANCH   7   8
ENDBRANCH   3   7
ENDBRANCH   2   3
TORSDOF 7
ENDMDL
MODEL       47
REMARK 921   NORMALIZED FREE ENERGY PREDICTED BY IDOCK:   -5.03 KCAL/MOL
REMARK 922        TOTAL FREE ENERGY PREDICTED BY IDOCK:   -8.41 KCAL/MOL
REMARK 923 INTER-LIGAND FREE ENERGY PREDICTED BY IDOCK:   -7.61 KCAL/MOL
REMARK 924 INTRA-LIGAND FREE ENERGY PREDICTED BY IDOCK:   -0.79 KCAL/MOL
REMARK 927      BINDING AFFINITY PREDICTED BY RF-SCORE:    0.00 PKD
ROOT
HETATM    1  C   UNL     1      -9.787   7.811  73.212  1.00  0.00    -0.362 C  
HETATM    2  C   UNL     1      -9.740   8.678  71.965  1.00  0.00    -0.321 C  
ENDROOT
BRANCH   2   3
HETATM    3  N   UNL     1     -11.037   8.650  71.112  1.00  0.00    -0.252 N  
HETATM    4  C   UNL     1     -10.816   7.729  69.899  1.00  0.00    -0.226 C  
BRANCH   3   5
HETATM    5  C   UNL     1     -12.260   8.143  71.898  1.00  0.00    -0.331 C  
HETATM    6  C   UNL     1     -13.149   9.255  72.434  1.00  0.00    -0.481 C  
ENDBRANCH   3   5
BRANCH   3   7
HETATM    7  C   UNL     1     -11.231  10.106  70.596  1.00  0.00    -0.340 C  
BRANCH   7   8
HETATM    8  C   UNL     1     -10.909  10.302  69.113  1.00  0.00    -0.233 C  
BRANCH   8   9
HETATM    9  O   UNL     1     -10.171  11.507  68.897  1.00  0.00    -0.206 OA 
BRANCH   9  10
HETATM   10  C   UNL     1      -9.681  11.645  67.626  1.00  0.00    -0.180 C  
HETATM   11  O   UNL     1      -8.582  12.129  67.379  1.00  0.00    -0.159 OA 
BRANCH  10  12
HETATM   12  C   UNL     1     -10.594  10.976  66.604  1.00  0.00    -0.315 C  
HETATM   13  C   UNL     1     -11.294  12.067  65.826  1.00  0.00    -0.384 A  
HETATM   14  C   UNL     1     -12.122  12.994  66.486  1.00  0.00    -0.410 A  
HETATM   15  C   UNL     1     -12.649  14.086  65.798  1.00  0.00    -0.512 A  
HETATM   16  C   UNL     1     -12.372  14.250  64.443  1.00  0.00    -0.417 A  
HETATM   17  C   UNL     1     -11.567  13.324  63.778  1.00  0.00    -0.427 A  
HETATM   18  C   UNL     1     -11.021  12.242  64.469  1.00  0.00    -0.315 A  
HETATM   19  O   UNL     1     -10.204  11.407  63.745  1.00  0.00    -0.306 OA 
HETATM   20  C   UNL     1      -9.652  10.314  64.369  1.00  0.00    -0.316 A  
HETATM   21  C   UNL     1      -8.880   9.473  63.563  1.00  0.00    -0.235 A  
HETATM   22  C   UNL     1      -8.268   8.346  64.110  1.00  0.00    -0.122 A  
HETATM   23  C   UNL     1      -8.434   8.050  65.461  1.00  0.00    -0.159 A  
HETATM   24  C   UNL     1      -9.209   8.884  66.267  1.00  0.00    -0.261 A  
HETATM   25  C   UNL     1      -9.814  10.032  65.726  1.00  0.00    -0.345 A  
ENDBRANCH  10  12
ENDBRANCH   9  10
ENDBRANCH   8   9
ENDBRANCH   7   8
ENDBRANCH   3   7
ENDBRANCH   2   3
TORSDOF 7
ENDMDL
MODEL       48
REMARK 921   NORMALIZED FREE ENERGY PREDICTED BY IDOCK:   -5.02 KCAL/MOL
REMARK 922        TOTAL FREE ENERGY PREDICTED BY IDOCK:   -8.40 KCAL/MOL
REMARK 923 INTER-LIGAND FREE ENERGY PREDICTED BY IDOCK:   -7.82 KCAL/MOL
REMARK 924 INTRA-LIGAND FREE ENERGY PREDICTED BY IDOCK:   -0.58 KCAL/MOL
REMARK 927      BINDING AFFINITY PREDICTED BY RF-SCORE:    0.00 PKD
ROOT
HETATM    1  C   UNL     1     -12.117  12.516  63.339  1.00  0.00    -0.621 C  
HETATM    2  C   UNL     1     -10.786  12.145  63.972  1.00  0.00    -0.383 C  
ENDROOT
BRANCH   2   3
HETATM    3  N   UNL     1     -10.574  12.712  65.401  1.00  0.00    -0.276 N  
HETATM    4  C   UNL     1     -10.073  14.164  65.293  1.00  0.00    -0.335 C  
BRANCH   3   5
HETATM    5  C   UNL     1     -11.859  12.698  66.250  1.00  0.00    -0.410 C  
HETATM    6  C   UNL     1     -12.469  14.076  66.459  1.00  0.00    -0.351 C  
ENDBRANCH   3   5
BRANCH   3   7
HETATM    7  C   UNL     1      -9.443  11.847  66.032  1.00  0.00    -0.229 C  
BRANCH   7   8
HETATM    8  C   UNL     1      -9.908  10.913  67.152  1.00  0.00    -0.184 C  
BRANCH   8   9
HETATM    9  O   UNL     1      -9.307  11.261  68.401  1.00  0.00    -0.170 OA 
BRANCH   9  10
HETATM   10  C   UNL     1      -9.629  10.419  69.432  1.00  0.00    -0.192 C  
HETATM   11  O   UNL     1      -8.821  10.063  70.283  1.00  0.00    -0.115 OA 
BRANCH  10  12
HETATM   12  C   UNL     1     -11.125  10.134  69.469  1.00  0.00    -0.295 C  
HETATM   13  C   UNL     1     -11.320   8.762  70.076  1.00  0.00    -0.040 A  
HETATM   14  C   UNL     1     -10.759   7.627  69.463  1.00  0.00    -0.211 A  
HETATM   15  C   UNL     1     -10.809   6.386  70.096  1.00  0.00    -0.355 A  
HETATM   16  C   UNL     1     -11.438   6.264  71.333  1.00  0.00    -0.352 A  
HETATM   17  C   UNL     1     -12.013   7.383  71.937  1.00  0.00    -0.337 A  
HETATM   18  C   UNL     1     -11.945   8.630  71.316  1.00  0.00    -0.293 A  
HETATM   19  O   UNL     1     -12.498   9.683  72.004  1.00  0.00    -0.370 OA 
HETATM   20  C   UNL     1     -12.476  10.933  71.434  1.00  0.00    -0.355 A  
HETATM   21  C   UNL     1     -13.107  11.949  72.157  1.00  0.00    -0.327 A  
HETATM   22  C   UNL     1     -13.125  13.253  71.665  1.00  0.00    -0.453 A  
HETATM   23  C   UNL     1     -12.522  13.545  70.442  1.00  0.00    -0.345 A  
HETATM   24  C   UNL     1     -11.897  12.532  69.715  1.00  0.00    -0.380 A  
HETATM   25  C   UNL     1     -11.860  11.219  70.214  1.00  0.00    -0.446 A  
ENDBRANCH  10  12
ENDBRANCH   9  10
ENDBRANCH   8   9
ENDBRANCH   7   8
ENDBRANCH   3   7
ENDBRANCH   2   3
TORSDOF 7
ENDMDL
MODEL       49
REMARK 921   NORMALIZED FREE ENERGY PREDICTED BY IDOCK:   -5.01 KCAL/MOL
REMARK 922        TOTAL FREE ENERGY PREDICTED BY IDOCK:   -8.38 KCAL/MOL
REMARK 923 INTER-LIGAND FREE ENERGY PREDICTED BY IDOCK:   -7.27 KCAL/MOL
REMARK 924 INTRA-LIGAND FREE ENERGY PREDICTED BY IDOCK:   -1.11 KCAL/MOL
REMARK 927      BINDING AFFINITY PREDICTED BY RF-SCORE:    0.00 PKD
ROOT
HETATM    1  C   UNL     1     -10.681  19.095  67.387  1.00  0.00    -0.578 C  
HETATM    2  C   UNL     1      -9.177  19.085  67.165  1.00  0.00    -0.293 C  
ENDROOT
BRANCH   2   3
HETATM    3  N   UNL     1      -8.473  17.767  67.583  1.00  0.00    -0.227 N  
HETATM    4  C   UNL     1      -7.757  17.174  66.357  1.00  0.00    -0.310 C  
BRANCH   3   5
HETATM    5  C   UNL     1      -7.438  17.970  68.705  1.00  0.00    -0.264 C  
HETATM    6  C   UNL     1      -7.038  19.422  68.915  1.00  0.00    -0.393 C  
ENDBRANCH   3   5
BRANCH   3   7
HETATM    7  C   UNL     1      -9.615  16.797  68.005  1.00  0.00    -0.234 C  
BRANCH   7   8
HETATM    8  C   UNL     1      -9.210  15.758  69.053  1.00  0.00    -0.243 C  
BRANCH   8   9
HETATM    9  O   UNL     1      -9.556  14.436  68.634  1.00  0.00    -0.213 OA 
BRANCH   9  10
HETATM   10  C   UNL     1      -8.633  13.849  67.810  1.00  0.00    -0.182 C  
HETATM   11  O   UNL     1      -7.427  14.045  67.907  1.00  0.00    -0.116 OA 
BRANCH  10  12
HETATM   12  C   UNL     1      -9.283  12.821  66.892  1.00  0.00    -0.229 C  
HETATM   13  C   UNL     1      -9.726  11.653  67.746  1.00  0.00    -0.177 A  
HETATM   14  C   UNL     1      -8.784  10.918  68.489  1.00  0.00    -0.153 A  
HETATM   15  C   UNL     1      -9.204   9.940  69.389  1.00  0.00    -0.225 A  
HETATM   16  C   UNL     1     -10.562   9.673  69.539  1.00  0.00    -0.247 A  
HETATM   17  C   UNL     1     -11.500  10.386  68.790  1.00  0.00    -0.240 A  
HETATM   18  C   UNL     1     -11.085  11.381  67.905  1.00  0.00    -0.261 A  
HETATM   19  O   UNL     1     -12.078  12.061  67.244  1.00  0.00    -0.572 OA 
HETATM   20  C   UNL     1     -11.728  13.041  66.346  1.00  0.00    -0.390 A  
HETATM   21  C   UNL     1     -12.782  13.653  65.664  1.00  0.00    -0.505 A  
HETATM   22  C   UNL     1     -12.526  14.667  64.742  1.00  0.00    -0.286 A  
HETATM   23  C   UNL     1     -11.214  15.064  64.490  1.00  0.00    -0.276 A  
HETATM   24  C   UNL     1     -10.159  14.450  65.164  1.00  0.00    -0.359 A  
HETATM   25  C   UNL     1     -10.411  13.440  66.108  1.00  0.00    -0.295 A  
ENDBRANCH  10  12
ENDBRANCH   9  10
ENDBRANCH   8   9
ENDBRANCH   7   8
ENDBRANCH   3   7
ENDBRANCH   2   3
TORSDOF 7
ENDMDL
MODEL       50
REMARK 921   NORMALIZED FREE ENERGY PREDICTED BY IDOCK:   -5.00 KCAL/MOL
REMARK 922        TOTAL FREE ENERGY PREDICTED BY IDOCK:   -8.37 KCAL/MOL
REMARK 923 INTER-LIGAND FREE ENERGY PREDICTED BY IDOCK:   -7.57 KCAL/MOL
REMARK 924 INTRA-LIGAND FREE ENERGY PREDICTED BY IDOCK:   -0.80 KCAL/MOL
REMARK 927      BINDING AFFINITY PREDICTED BY RF-SCORE:    0.00 PKD
ROOT
HETATM    1  C   UNL     1     -11.785  12.670  63.674  1.00  0.00    -0.597 C  
HETATM    2  C   UNL     1     -12.466  12.693  65.032  1.00  0.00    -0.487 C  
ENDROOT
BRANCH   2   3
HETATM    3  N   UNL     1     -11.537  13.087  66.212  1.00  0.00    -0.342 N  
HETATM    4  C   UNL     1     -10.171  13.515  65.648  1.00  0.00    -0.296 C  
BRANCH   3   5
HETATM    5  C   UNL     1     -12.103  14.242  67.059  1.00  0.00    -0.390 C  
HETATM    6  C   UNL     1     -11.891  14.064  68.555  1.00  0.00    -0.399 C  
ENDBRANCH   3   5
BRANCH   3   7
HETATM    7  C   UNL     1     -11.341  11.787  67.045  1.00  0.00    -0.321 C  
BRANCH   7   8
HETATM    8  C   UNL     1     -10.186  10.899  66.574  1.00  0.00    -0.232 C  
BRANCH   8   9
HETATM    9  O   UNL     1      -9.546  10.253  67.677  1.00  0.00    -0.150 OA 
BRANCH   9  10
HETATM   10  C   UNL     1     -10.173   9.111  68.098  1.00  0.00    -0.207 C  
HETATM   11  O   UNL     1     -10.834   8.396  67.355  1.00  0.00    -0.213 OA 
BRANCH  10  12
HETATM   12  C   UNL     1      -9.803   8.774  69.538  1.00  0.00    -0.180 C  
HETATM   13  C   UNL     1     -10.942   9.224  70.426  1.00  0.00    -0.302 A  
HETATM   14  C   UNL     1     -11.320  10.578  70.466  1.00  0.00    -0.400 A  
HETATM   15  C   UNL     1     -12.460  10.972  71.166  1.00  0.00    -0.502 A  
HETATM   16  C   UNL     1     -13.217  10.022  71.848  1.00  0.00    -0.557 A  
HETATM   17  C   UNL     1     -12.835   8.679  71.827  1.00  0.00    -0.397 A  
HETATM   18  C   UNL     1     -11.707   8.280  71.110  1.00  0.00    -0.280 A  
HETATM   19  O   UNL     1     -11.433   6.934  71.108  1.00  0.00    -0.272 OA 
HETATM   20  C   UNL     1     -10.325   6.483  70.432  1.00  0.00    -0.198 A  
HETATM   21  C   UNL     1     -10.069   5.112  70.519  1.00  0.00    -0.326 A  
HETATM   22  C   UNL     1      -8.974   4.560  69.856  1.00  0.00    -0.145 A  
HETATM   23  C   UNL     1      -8.125   5.378  69.113  1.00  0.00    -0.094 A  
HETATM   24  C   UNL     1      -8.374   6.747  69.030  1.00  0.00    -0.124 A  
HETATM   25  C   UNL     1      -9.486   7.308  69.681  1.00  0.00    -0.155 A  
ENDBRANCH  10  12
ENDBRANCH   9  10
ENDBRANCH   8   9
ENDBRANCH   7   8
ENDBRANCH   3   7
ENDBRANCH   2   3
TORSDOF 7
ENDMDL
MODEL       51
REMARK 921   NORMALIZED FREE ENERGY PREDICTED BY IDOCK:   -4.97 KCAL/MOL
REMARK 922        TOTAL FREE ENERGY PREDICTED BY IDOCK:   -8.33 KCAL/MOL
REMARK 923 INTER-LIGAND FREE ENERGY PREDICTED BY IDOCK:   -7.32 KCAL/MOL
REMARK 924 INTRA-LIGAND FREE ENERGY PREDICTED BY IDOCK:   -1.01 KCAL/MOL
REMARK 927      BINDING AFFINITY PREDICTED BY RF-SCORE:    0.00 PKD
ROOT
HETATM    1  C   UNL     1      -9.132  16.046  66.055  1.00  0.00    -0.361 C  
HETATM    2  C   UNL     1     -10.417  16.161  66.858  1.00  0.00    -0.300 C  
ENDROOT
BRANCH   2   3
HETATM    3  N   UNL     1     -10.209  16.481  68.362  1.00  0.00    -0.253 N  
HETATM    4  C   UNL     1      -8.858  15.898  68.815  1.00  0.00    -0.213 C  
BRANCH   3   5
HETATM    5  C   UNL     1     -10.216  17.992  68.660  1.00  0.00    -0.377 C  
HETATM    6  C   UNL     1      -8.835  18.630  68.622  1.00  0.00    -0.333 C  
ENDBRANCH   3   5
BRANCH   3   7
HETATM    7  C   UNL     1     -11.346  15.729  69.113  1.00  0.00    -0.349 C  
BRANCH   7   8
HETATM    8  C   UNL     1     -11.071  14.243  69.358  1.00  0.00    -0.246 C  
BRANCH   8   9
HETATM    9  O   UNL     1     -12.148  13.431  68.885  1.00  0.00    -0.331 OA 
BRANCH   9  10
HETATM   10  C   UNL     1     -11.754  12.230  68.357  1.00  0.00    -0.337 C  
HETATM   11  O   UNL     1     -12.387  11.191  68.510  1.00  0.00    -0.561 OA 
BRANCH  10  12
HETATM   12  C   UNL     1     -10.548  12.395  67.441  1.00  0.00    -0.237 C  
HETATM   13  C   UNL     1      -9.585  11.266  67.735  1.00  0.00    -0.181 A  
HETATM   14  C   UNL     1      -9.033  11.119  69.021  1.00  0.00    -0.027 A  
HETATM   15  C   UNL     1      -8.265   9.999  69.335  1.00  0.00    -0.158 A  
HETATM   16  C   UNL     1      -8.024   9.030  68.365  1.00  0.00    -0.104 A  
HETATM   17  C   UNL     1      -8.552   9.180  67.081  1.00  0.00    -0.122 A  
HETATM   18  C   UNL     1      -9.339  10.289  66.770  1.00  0.00    -0.160 A  
HETATM   19  O   UNL     1      -9.855  10.332  65.498  1.00  0.00    -0.243 OA 
HETATM   20  C   UNL     1     -10.623  11.410  65.128  1.00  0.00    -0.293 A  
HETATM   21  C   UNL     1     -11.067  11.422  63.804  1.00  0.00    -0.417 A  
HETATM   22  C   UNL     1     -11.864  12.468  63.340  1.00  0.00    -0.587 A  
HETATM   23  C   UNL     1     -12.211  13.511  64.197  1.00  0.00    -0.449 A  
HETATM   24  C   UNL     1     -11.764  13.505  65.518  1.00  0.00    -0.361 A  
HETATM   25  C   UNL     1     -10.975  12.445  65.997  1.00  0.00    -0.324 A  
ENDBRANCH  10  12
ENDBRANCH   9  10
ENDBRANCH   8   9
ENDBRANCH   7   8
ENDBRANCH   3   7
ENDBRANCH   2   3
TORSDOF 7
ENDMDL
MODEL       52
REMARK 921   NORMALIZED FREE ENERGY PREDICTED BY IDOCK:   -4.95 KCAL/MOL
REMARK 922        TOTAL FREE ENERGY PREDICTED BY IDOCK:   -8.30 KCAL/MOL
REMARK 923 INTER-LIGAND FREE ENERGY PREDICTED BY IDOCK:   -7.56 KCAL/MOL
REMARK 924 INTRA-LIGAND FREE ENERGY PREDICTED BY IDOCK:   -0.74 KCAL/MOL
REMARK 927      BINDING AFFINITY PREDICTED BY RF-SCORE:    0.00 PKD
ROOT
HETATM    1  C   UNL     1     -14.160  15.751  72.573  1.00  0.00    -0.491 C  
HETATM    2  C   UNL     1     -14.019  14.978  71.272  1.00  0.00    -0.444 C  
ENDROOT
BRANCH   2   3
HETATM    3  N   UNL     1     -12.636  14.303  71.071  1.00  0.00    -0.335 N  
HETATM    4  C   UNL     1     -11.553  15.181  71.722  1.00  0.00    -0.408 C  
BRANCH   3   5
HETATM    5  C   UNL     1     -12.561  12.893  71.687  1.00  0.00    -0.102 C  
HETATM    6  C   UNL     1     -13.026  11.790  70.749  1.00  0.00    -0.036 C  
ENDBRANCH   3   5
BRANCH   3   7
HETATM    7  C   UNL     1     -12.397  14.286  69.533  1.00  0.00    -0.230 C  
BRANCH   7   8
HETATM    8  C   UNL     1     -10.926  14.197  69.120  1.00  0.00    -0.251 C  
BRANCH   8   9
HETATM    9  O   UNL     1     -10.775  13.489  67.887  1.00  0.00    -0.239 OA 
BRANCH   9  10
HETATM   10  C   UNL     1      -9.475  13.324  67.490  1.00  0.00    -0.220 C  
HETATM   11  O   UNL     1      -8.685  12.588  68.070  1.00  0.00    -0.171 OA 
BRANCH  10  12
HETATM   12  C   UNL     1      -9.205  14.033  66.168  1.00  0.00    -0.062 C  
HETATM   13  C   UNL     1     -10.222  13.542  65.163  1.00  0.00    -0.334 A  
HETATM   14  C   UNL     1     -10.286  12.177  64.825  1.00  0.00    -0.310 A  
HETATM   15  C   UNL     1     -11.314  11.698  64.016  1.00  0.00    -0.428 A  
HETATM   16  C   UNL     1     -12.273  12.578  63.520  1.00  0.00    -0.652 A  
HETATM   17  C   UNL     1     -12.204  13.936  63.836  1.00  0.00    -0.375 A  
HETATM   18  C   UNL     1     -11.188  14.415  64.664  1.00  0.00    -0.360 A  
HETATM   19  O   UNL     1     -11.225  15.756  64.958  1.00  0.00    -0.361 OA 
HETATM   20  C   UNL     1     -10.239  16.288  65.755  1.00  0.00    -0.367 A  
HETATM   21  C   UNL     1     -10.300  17.667  65.968  1.00  0.00    -0.305 A  
HETATM   22  C   UNL     1      -9.351  18.295  66.773  1.00  0.00    -0.295 A  
HETATM   23  C   UNL     1      -8.332  17.548  67.360  1.00  0.00    -0.220 A  
HETATM   24  C   UNL     1      -8.265  16.171  67.145  1.00  0.00    -0.225 A  
HETATM   25  C   UNL     1      -9.229  15.529  66.348  1.00  0.00    -0.339 A  
ENDBRANCH  10  12
ENDBRANCH   9  10
ENDBRANCH   8   9
ENDBRANCH   7   8
ENDBRANCH   3   7
ENDBRANCH   2   3
TORSDOF 7
ENDMDL
MODEL       53
REMARK 921   NORMALIZED FREE ENERGY PREDICTED BY IDOCK:   -4.94 KCAL/MOL
REMARK 922        TOTAL FREE ENERGY PREDICTED BY IDOCK:   -8.28 KCAL/MOL
REMARK 923 INTER-LIGAND FREE ENERGY PREDICTED BY IDOCK:   -7.75 KCAL/MOL
REMARK 924 INTRA-LIGAND FREE ENERGY PREDICTED BY IDOCK:   -0.52 KCAL/MOL
REMARK 927      BINDING AFFINITY PREDICTED BY RF-SCORE:    0.00 PKD
ROOT
HETATM    1  C   UNL     1     -13.643  15.943  73.190  1.00  0.00    -0.580 C  
HETATM    2  C   UNL     1     -13.890  15.248  71.861  1.00  0.00    -0.520 C  
ENDROOT
BRANCH   2   3
HETATM    3  N   UNL     1     -12.606  14.737  71.154  1.00  0.00    -0.313 N  
HETATM    4  C   UNL     1     -11.376  15.223  71.941  1.00  0.00    -0.366 C  
BRANCH   3   5
HETATM    5  C   UNL     1     -12.548  13.202  71.052  1.00  0.00    -0.312 C  
HETATM    6  C   UNL     1     -13.389  12.487  72.098  1.00  0.00    -0.540 C  
ENDBRANCH   3   5
BRANCH   3   7
HETATM    7  C   UNL     1     -12.597  15.420  69.755  1.00  0.00    -0.103 C  
BRANCH   7   8
HETATM    8  C   UNL     1     -11.278  16.108  69.393  1.00  0.00    -0.335 C  
BRANCH   8   9
HETATM    9  O   UNL     1     -10.383  15.204  68.741  1.00  0.00    -0.222 OA 
BRANCH   9  10
HETATM   10  C   UNL     1     -10.293  15.383  67.386  1.00  0.00    -0.262 C  
HETATM   11  O   UNL     1     -11.204  15.112  66.612  1.00  0.00    -0.328 OA 
BRANCH  10  12
HETATM   12  C   UNL     1      -9.005  16.103  67.007  1.00  0.00    -0.232 C  
HETATM   13  C   UNL     1      -9.249  17.590  67.138  1.00  0.00    -0.245 A  
HETATM   14  C   UNL     1     -10.244  18.217  66.366  1.00  0.00    -0.417 A  
HETATM   15  C   UNL     1     -10.573  19.553  66.590  1.00  0.00    -0.583 A  
HETATM   16  C   UNL     1      -9.898  20.278  67.569  1.00  0.00    -0.576 A  
HETATM   17  C   UNL     1      -8.896  19.666  68.325  1.00  0.00    -0.361 A  
HETATM   18  C   UNL     1      -8.580  18.323  68.117  1.00  0.00    -0.278 A  
HETATM   19  O   UNL     1      -7.614  17.792  68.937  1.00  0.00    -0.277 OA 
HETATM   20  C   UNL     1      -7.248  16.478  68.767  1.00  0.00    -0.197 A  
HETATM   21  C   UNL     1      -6.220  16.016  69.591  1.00  0.00    -0.182 A  
HETATM   22  C   UNL     1      -5.789  14.693  69.502  1.00  0.00    -0.101 A  
HETATM   23  C   UNL     1      -6.378  13.830  68.579  1.00  0.00    -0.092 A  
HETATM   24  C   UNL     1      -7.402  14.290  67.750  1.00  0.00    -0.185 A  
HETATM   25  C   UNL     1      -7.853  15.618  67.848  1.00  0.00    -0.143 A  
ENDBRANCH  10  12
ENDBRANCH   9  10
ENDBRANCH   8   9
ENDBRANCH   7   8
ENDBRANCH   3   7
ENDBRANCH   2   3
TORSDOF 7
ENDMDL
MODEL       54
REMARK 921   NORMALIZED FREE ENERGY PREDICTED BY IDOCK:   -4.94 KCAL/MOL
REMARK 922        TOTAL FREE ENERGY PREDICTED BY IDOCK:   -8.27 KCAL/MOL
REMARK 923 INTER-LIGAND FREE ENERGY PREDICTED BY IDOCK:   -7.29 KCAL/MOL
REMARK 924 INTRA-LIGAND FREE ENERGY PREDICTED BY IDOCK:   -0.99 KCAL/MOL
REMARK 927      BINDING AFFINITY PREDICTED BY RF-SCORE:    0.00 PKD
ROOT
HETATM    1  C   UNL     1     -10.316  18.708  66.772  1.00  0.00    -0.449 C  
HETATM    2  C   UNL     1      -9.908  17.244  66.745  1.00  0.00    -0.294 C  
ENDROOT
BRANCH   2   3
HETATM    3  N   UNL     1     -10.154  16.483  68.074  1.00  0.00    -0.248 N  
HETATM    4  C   UNL     1     -10.180  17.496  69.232  1.00  0.00    -0.180 C  
BRANCH   3   5
HETATM    5  C   UNL     1     -11.478  15.697  68.079  1.00  0.00    -0.291 C  
HETATM    6  C   UNL     1     -11.860  15.148  69.446  1.00  0.00    -0.357 C  
ENDBRANCH   3   5
BRANCH   3   7
HETATM    7  C   UNL     1      -8.918  15.554  68.261  1.00  0.00    -0.185 C  
BRANCH   7   8
HETATM    8  C   UNL     1      -8.847  14.386  67.274  1.00  0.00    -0.213 C  
BRANCH   8   9
HETATM    9  O   UNL     1      -8.813  13.131  67.957  1.00  0.00    -0.176 OA 
BRANCH   9  10
HETATM   10  C   UNL     1      -8.430  12.075  67.173  1.00  0.00    -0.180 C  
HETATM   11  O   UNL     1      -7.258  11.819  66.921  1.00  0.00    -0.144 OA 
BRANCH  10  12
HETATM   12  C   UNL     1      -9.619  11.194  66.809  1.00  0.00    -0.215 C  
HETATM   13  C   UNL     1     -10.384  10.902  68.081  1.00  0.00    -0.202 A  
HETATM   14  C   UNL     1      -9.760  10.229  69.148  1.00  0.00    -0.229 A  
HETATM   15  C   UNL     1     -10.412  10.090  70.372  1.00  0.00    -0.304 A  
HETATM   16  C   UNL     1     -11.698  10.600  70.534  1.00  0.00    -0.451 A  
HETATM   17  C   UNL     1     -12.330  11.251  69.473  1.00  0.00    -0.243 A  
HETATM   18  C   UNL     1     -11.671  11.411  68.253  1.00  0.00    -0.288 A  
HETATM   19  O   UNL     1     -12.351  12.103  67.281  1.00  0.00    -0.354 OA 
HETATM   20  C   UNL     1     -11.759  12.277  66.053  1.00  0.00    -0.388 A  
HETATM   21  C   UNL     1     -12.526  12.937  65.090  1.00  0.00    -0.561 A  
HETATM   22  C   UNL     1     -12.005  13.172  63.818  1.00  0.00    -0.572 A  
HETATM   23  C   UNL     1     -10.719  12.737  63.501  1.00  0.00    -0.232 A  
HETATM   24  C   UNL     1      -9.953  12.072  64.459  1.00  0.00    -0.239 A  
HETATM   25  C   UNL     1     -10.466  11.849  65.748  1.00  0.00    -0.295 A  
ENDBRANCH  10  12
ENDBRANCH   9  10
ENDBRANCH   8   9
ENDBRANCH   7   8
ENDBRANCH   3   7
ENDBRANCH   2   3
TORSDOF 7
ENDMDL
MODEL       55
REMARK 921   NORMALIZED FREE ENERGY PREDICTED BY IDOCK:   -4.93 KCAL/MOL
REMARK 922        TOTAL FREE ENERGY PREDICTED BY IDOCK:   -8.27 KCAL/MOL
REMARK 923 INTER-LIGAND FREE ENERGY PREDICTED BY IDOCK:   -7.44 KCAL/MOL
REMARK 924 INTRA-LIGAND FREE ENERGY PREDICTED BY IDOCK:   -0.83 KCAL/MOL
REMARK 927      BINDING AFFINITY PREDICTED BY RF-SCORE:    0.00 PKD
ROOT
HETATM    1  C   UNL     1      -8.202   6.422  70.477  1.00  0.00    -0.118 C  
HETATM    2  C   UNL     1      -9.175   7.587  70.409  1.00  0.00    -0.157 C  
ENDROOT
BRANCH   2   3
HETATM    3  N   UNL     1     -10.578   7.223  69.853  1.00  0.00    -0.226 N  
HETATM    4  C   UNL     1     -10.583   5.738  69.448  1.00  0.00    -0.313 C  
BRANCH   3   5
HETATM    5  C   UNL     1     -11.707   7.457  70.873  1.00  0.00    -0.296 C  
HETATM    6  C   UNL     1     -11.346   8.447  71.970  1.00  0.00    -0.411 C  
ENDBRANCH   3   5
BRANCH   3   7
HETATM    7  C   UNL     1     -10.757   8.084  68.569  1.00  0.00    -0.018 C  
BRANCH   7   8
HETATM    8  C   UNL     1     -10.085   9.458  68.627  1.00  0.00    -0.190 C  
BRANCH   8   9
HETATM    9  O   UNL     1     -11.024  10.481  68.967  1.00  0.00    -0.213 OA 
BRANCH   9  10
HETATM   10  C   UNL     1     -10.649  11.739  68.576  1.00  0.00    -0.217 C  
HETATM   11  O   UNL     1      -9.479  12.085  68.463  1.00  0.00    -0.195 OA 
BRANCH  10  12
HETATM   12  C   UNL     1     -11.854  12.570  68.151  1.00  0.00    -0.371 C  
HETATM   13  C   UNL     1     -11.945  13.762  69.078  1.00  0.00    -0.399 A  
HETATM   14  C   UNL     1     -12.115  13.575  70.463  1.00  0.00    -0.409 A  
HETATM   15  C   UNL     1     -12.049  14.660  71.334  1.00  0.00    -0.416 A  
HETATM   16  C   UNL     1     -11.836  15.941  70.831  1.00  0.00    -0.453 A  
HETATM   17  C   UNL     1     -11.686  16.135  69.457  1.00  0.00    -0.198 A  
HETATM   18  C   UNL     1     -11.729  15.048  68.584  1.00  0.00    -0.337 A  
HETATM   19  O   UNL     1     -11.526  15.327  67.254  1.00  0.00    -0.319 OA 
HETATM   20  C   UNL     1     -11.575  14.297  66.345  1.00  0.00    -0.372 A  
HETATM   21  C   UNL     1     -11.420  14.655  65.004  1.00  0.00    -0.386 A  
HETATM   22  C   UNL     1     -11.442  13.678  64.010  1.00  0.00    -0.303 A  
HETATM   23  C   UNL     1     -11.630  12.340  64.353  1.00  0.00    -0.428 A  
HETATM   24  C   UNL     1     -11.791  11.980  65.691  1.00  0.00    -0.242 A  
HETATM   25  C   UNL     1     -11.752  12.958  66.699  1.00  0.00    -0.452 A  
ENDBRANCH  10  12
ENDBRANCH   9  10
ENDBRANCH   8   9
ENDBRANCH   7   8
ENDBRANCH   3   7
ENDBRANCH   2   3
TORSDOF 7
ENDMDL
MODEL       56
REMARK 921   NORMALIZED FREE ENERGY PREDICTED BY IDOCK:   -4.91 KCAL/MOL
REMARK 922        TOTAL FREE ENERGY PREDICTED BY IDOCK:   -8.25 KCAL/MOL
REMARK 923 INTER-LIGAND FREE ENERGY PREDICTED BY IDOCK:   -7.04 KCAL/MOL
REMARK 924 INTRA-LIGAND FREE ENERGY PREDICTED BY IDOCK:   -1.21 KCAL/MOL
REMARK 927      BINDING AFFINITY PREDICTED BY RF-SCORE:    0.00 PKD
ROOT
HETATM    1  C   UNL     1     -10.304   9.846  68.494  1.00  0.00    -0.221 C  
HETATM    2  C   UNL     1      -9.543  11.142  68.727  1.00  0.00    -0.172 C  
ENDROOT
BRANCH   2   3
HETATM    3  N   UNL     1      -8.318  11.345  67.797  1.00  0.00    -0.123 N  
HETATM    4  C   UNL     1      -7.357  10.155  67.971  1.00  0.00    -0.086 C  
BRANCH   3   5
HETATM    5  C   UNL     1      -8.704  11.450  66.310  1.00  0.00    -0.173 C  
HETATM    6  C   UNL     1      -8.120  10.343  65.445  1.00  0.00    -0.152 C  
ENDBRANCH   3   5
BRANCH   3   7
HETATM    7  C   UNL     1      -7.608  12.630  68.313  1.00  0.00    -0.133 C  
BRANCH   7   8
HETATM    8  C   UNL     1      -8.063  13.924  67.632  1.00  0.00    -0.177 C  
BRANCH   8   9
HETATM    9  O   UNL     1      -8.873  14.713  68.507  1.00  0.00    -0.172 OA 
BRANCH   9  10
HETATM   10  C   UNL     1      -9.441  15.807  67.911  1.00  0.00    -0.212 C  
HETATM   11  O   UNL     1      -8.788  16.683  67.356  1.00  0.00    -0.186 OA 
BRANCH  10  12
HETATM   12  C   UNL     1     -10.961  15.698  67.887  1.00  0.00    -0.319 C  
HETATM   13  C   UNL     1     -11.339  14.731  66.786  1.00  0.00    -0.347 A  
HETATM   14  C   UNL     1     -10.983  14.999  65.451  1.00  0.00    -0.380 A  
HETATM   15  C   UNL     1     -11.197  14.044  64.459  1.00  0.00    -0.358 A  
HETATM   16  C   UNL     1     -11.786  12.825  64.786  1.00  0.00    -0.423 A  
HETATM   17  C   UNL     1     -12.159  12.561  66.105  1.00  0.00    -0.357 A  
HETATM   18  C   UNL     1     -11.926  13.507  67.104  1.00  0.00    -0.381 A  
HETATM   19  O   UNL     1     -12.283  13.144  68.380  1.00  0.00    -0.248 OA 
HETATM   20  C   UNL     1     -12.093  14.041  69.403  1.00  0.00    -0.340 A  
HETATM   21  C   UNL     1     -12.531  13.634  70.666  1.00  0.00    -0.417 A  
HETATM   22  C   UNL     1     -12.370  14.472  71.768  1.00  0.00    -0.408 A  
HETATM   23  C   UNL     1     -11.779  15.725  71.610  1.00  0.00    -0.542 A  
HETATM   24  C   UNL     1     -11.346  16.137  70.350  1.00  0.00    -0.377 A  
HETATM   25  C   UNL     1     -11.490  15.290  69.238  1.00  0.00    -0.334 A  
ENDBRANCH  10  12
ENDBRANCH   9  10
ENDBRANCH   8   9
ENDBRANCH   7   8
ENDBRANCH   3   7
ENDBRANCH   2   3
TORSDOF 7
ENDMDL
MODEL       57
REMARK 921   NORMALIZED FREE ENERGY PREDICTED BY IDOCK:   -4.89 KCAL/MOL
REMARK 922        TOTAL FREE ENERGY PREDICTED BY IDOCK:   -8.20 KCAL/MOL
REMARK 923 INTER-LIGAND FREE ENERGY PREDICTED BY IDOCK:   -7.48 KCAL/MOL
REMARK 924 INTRA-LIGAND FREE ENERGY PREDICTED BY IDOCK:   -0.73 KCAL/MOL
REMARK 927      BINDING AFFINITY PREDICTED BY RF-SCORE:    0.00 PKD
ROOT
HETATM    1  C   UNL     1      -5.510  18.563  69.469  1.00  0.00    -0.213 C  
HETATM    2  C   UNL     1      -6.154  17.239  69.093  1.00  0.00    -0.217 C  
ENDROOT
BRANCH   2   3
HETATM    3  N   UNL     1      -7.120  17.315  67.881  1.00  0.00    -0.165 N  
HETATM    4  C   UNL     1      -8.345  18.162  68.271  1.00  0.00    -0.291 C  
BRANCH   3   5
HETATM    5  C   UNL     1      -6.469  17.940  66.633  1.00  0.00    -0.192 C  
HETATM    6  C   UNL     1      -7.293  19.054  66.005  1.00  0.00    -0.292 C  
ENDBRANCH   3   5
BRANCH   3   7
HETATM    7  C   UNL     1      -7.593  15.853  67.629  1.00  0.00    -0.150 C  
BRANCH   7   8
HETATM    8  C   UNL     1      -8.790  15.417  68.477  1.00  0.00    -0.183 C  
BRANCH   8   9
HETATM    9  O   UNL     1      -9.679  14.583  67.731  1.00  0.00    -0.211 OA 
BRANCH   9  10
HETATM   10  C   UNL     1     -10.841  15.200  67.352  1.00  0.00    -0.302 C  
HETATM   11  O   UNL     1     -10.899  16.381  67.029  1.00  0.00    -0.267 OA 
BRANCH  10  12
HETATM   12  C   UNL     1     -11.985  14.200  67.227  1.00  0.00    -0.449 C  
HETATM   13  C   UNL     1     -11.747  13.379  65.979  1.00  0.00    -0.398 A  
HETATM   14  C   UNL     1     -11.684  14.002  64.719  1.00  0.00    -0.403 A  
HETATM   15  C   UNL     1     -11.319  13.272  63.589  1.00  0.00    -0.212 A  
HETATM   16  C   UNL     1     -11.036  11.913  63.703  1.00  0.00    -0.511 A  
HETATM   17  C   UNL     1     -11.116  11.285  64.948  1.00  0.00    -0.183 A  
HETATM   18  C   UNL     1     -11.460  12.018  66.084  1.00  0.00    -0.339 A  
HETATM   19  O   UNL     1     -11.469  11.329  67.272  1.00  0.00    -0.464 OA 
HETATM   20  C   UNL     1     -11.817  11.994  68.423  1.00  0.00    -0.300 A  
HETATM   21  C   UNL     1     -11.864  11.224  69.587  1.00  0.00    -0.430 A  
HETATM   22  C   UNL     1     -12.195  11.813  70.806  1.00  0.00    -0.424 A  
HETATM   23  C   UNL     1     -12.491  13.174  70.864  1.00  0.00    -0.407 A  
HETATM   24  C   UNL     1     -12.450  13.945  69.702  1.00  0.00    -0.192 A  
HETATM   25  C   UNL     1     -12.100  13.360  68.473  1.00  0.00    -0.283 A  
ENDBRANCH  10  12
ENDBRANCH   9  10
ENDBRANCH   8   9
ENDBRANCH   7   8
ENDBRANCH   3   7
ENDBRANCH   2   3
TORSDOF 7
ENDMDL
MODEL       58
REMARK 921   NORMALIZED FREE ENERGY PREDICTED BY IDOCK:   -4.88 KCAL/MOL
REMARK 922        TOTAL FREE ENERGY PREDICTED BY IDOCK:   -8.20 KCAL/MOL
REMARK 923 INTER-LIGAND FREE ENERGY PREDICTED BY IDOCK:   -7.13 KCAL/MOL
REMARK 924 INTRA-LIGAND FREE ENERGY PREDICTED BY IDOCK:   -1.06 KCAL/MOL
REMARK 927      BINDING AFFINITY PREDICTED BY RF-SCORE:    0.00 PKD
ROOT
HETATM    1  C   UNL     1     -10.806  16.218  69.705  1.00  0.00    -0.356 C  
HETATM    2  C   UNL     1     -10.689  16.843  68.325  1.00  0.00    -0.377 C  
ENDROOT
BRANCH   2   3
HETATM    3  N   UNL     1      -9.283  16.720  67.680  1.00  0.00    -0.222 N  
HETATM    4  C   UNL     1      -9.442  16.624  66.152  1.00  0.00    -0.287 C  
BRANCH   3   5
HETATM    5  C   UNL     1      -8.367  17.915  68.004  1.00  0.00    -0.258 C  
HETATM    6  C   UNL     1      -9.094  19.250  68.045  1.00  0.00    -0.368 C  
ENDBRANCH   3   5
BRANCH   3   7
HETATM    7  C   UNL     1      -8.699  15.374  68.199  1.00  0.00    -0.161 C  
BRANCH   7   8
HETATM    8  C   UNL     1      -8.941  14.178  67.275  1.00  0.00    -0.214 C  
BRANCH   8   9
HETATM    9  O   UNL     1      -9.771  13.197  67.901  1.00  0.00    -0.208 OA 
BRANCH   9  10
HETATM   10  C   UNL     1     -11.023  13.090  67.355  1.00  0.00    -0.260 C  
HETATM   11  O   UNL     1     -11.621  14.038  66.858  1.00  0.00    -0.346 OA 
BRANCH  10  12
HETATM   12  C   UNL     1     -11.481  11.637  67.300  1.00  0.00    -0.350 C  
HETATM   13  C   UNL     1     -10.585  10.906  66.327  1.00  0.00    -0.276 A  
HETATM   14  C   UNL     1     -10.521  11.306  64.979  1.00  0.00    -0.359 A  
HETATM   15  C   UNL     1      -9.590  10.733  64.116  1.00  0.00    -0.333 A  
HETATM   16  C   UNL     1      -8.730   9.741  64.583  1.00  0.00    -0.218 A  
HETATM   17  C   UNL     1      -8.802   9.326  65.914  1.00  0.00    -0.199 A  
HETATM   18  C   UNL     1      -9.719   9.913  66.786  1.00  0.00    -0.192 A  
HETATM   19  O   UNL     1      -9.688   9.475  68.087  1.00  0.00    -0.143 OA 
HETATM   20  C   UNL     1     -10.580  10.005  68.988  1.00  0.00    -0.214 A  
HETATM   21  C   UNL     1     -10.536   9.475  70.279  1.00  0.00    -0.317 A  
HETATM   22  C   UNL     1     -11.394   9.959  71.266  1.00  0.00    -0.404 A  
HETATM   23  C   UNL     1     -12.306  10.968  70.962  1.00  0.00    -0.490 A  
HETATM   24  C   UNL     1     -12.356  11.495  69.671  1.00  0.00    -0.207 A  
HETATM   25  C   UNL     1     -11.482  11.024  68.677  1.00  0.00    -0.375 A  
ENDBRANCH  10  12
ENDBRANCH   9  10
ENDBRANCH   8   9
ENDBRANCH   7   8
ENDBRANCH   3   7
ENDBRANCH   2   3
TORSDOF 7
ENDMDL
MODEL       59
REMARK 921   NORMALIZED FREE ENERGY PREDICTED BY IDOCK:   -4.85 KCAL/MOL
REMARK 922        TOTAL FREE ENERGY PREDICTED BY IDOCK:   -8.16 KCAL/MOL
REMARK 923 INTER-LIGAND FREE ENERGY PREDICTED BY IDOCK:   -6.98 KCAL/MOL
REMARK 924 INTRA-LIGAND FREE ENERGY PREDICTED BY IDOCK:   -1.18 KCAL/MOL
REMARK 927      BINDING AFFINITY PREDICTED BY RF-SCORE:    0.00 PKD
ROOT
HETATM    1  C   UNL     1      -9.559  10.826  64.727  1.00  0.00    -0.314 C  
HETATM    2  C   UNL     1      -8.651  10.435  65.882  1.00  0.00    -0.158 C  
ENDROOT
BRANCH   2   3
HETATM    3  N   UNL     1      -8.954  11.169  67.216  1.00  0.00    -0.146 N  
HETATM    4  C   UNL     1     -10.416  10.895  67.614  1.00  0.00    -0.209 C  
BRANCH   3   5
HETATM    5  C   UNL     1      -8.038  10.719  68.369  1.00  0.00    -0.127 C  
HETATM    6  C   UNL     1      -7.336   9.394  68.112  1.00  0.00    -0.078 C  
ENDBRANCH   3   5
BRANCH   3   7
HETATM    7  C   UNL     1      -8.805  12.686  66.903  1.00  0.00    -0.201 C  
BRANCH   7   8
HETATM    8  C   UNL     1      -8.344  13.536  68.090  1.00  0.00    -0.167 C  
BRANCH   8   9
HETATM    9  O   UNL     1      -8.894  14.854  68.029  1.00  0.00    -0.160 OA 
BRANCH   9  10
HETATM   10  C   UNL     1     -10.074  15.001  68.710  1.00  0.00    -0.231 C  
HETATM   11  O   UNL     1     -10.242  14.598  69.855  1.00  0.00     0.012 OA 
BRANCH  10  12
HETATM   12  C   UNL     1     -11.061  15.861  67.929  1.00  0.00    -0.317 C  
HETATM   13  C   UNL     1     -10.440  17.229  67.747  1.00  0.00    -0.371 A  
HETATM   14  C   UNL     1     -10.101  18.010  68.867  1.00  0.00    -0.352 A  
HETATM   15  C   UNL     1      -9.395  19.202  68.708  1.00  0.00    -0.423 A  
HETATM   16  C   UNL     1      -9.043  19.634  67.432  1.00  0.00    -0.392 A  
HETATM   17  C   UNL     1      -9.395  18.872  66.316  1.00  0.00    -0.297 A  
HETATM   18  C   UNL     1     -10.081  17.668  66.473  1.00  0.00    -0.350 A  
HETATM   19  O   UNL     1     -10.345  16.964  65.324  1.00  0.00    -0.624 OA 
HETATM   20  C   UNL     1     -11.035  15.778  65.416  1.00  0.00    -0.309 A  
HETATM   21  C   UNL     1     -11.323  15.141  64.207  1.00  0.00    -0.092 A  
HETATM   22  C   UNL     1     -12.007  13.926  64.199  1.00  0.00    -0.464 A  
HETATM   23  C   UNL     1     -12.415  13.350  65.401  1.00  0.00    -0.543 A  
HETATM   24  C   UNL     1     -12.135  13.987  66.610  1.00  0.00    -0.487 A  
HETATM   25  C   UNL     1     -11.430  15.203  66.625  1.00  0.00    -0.185 A  
ENDBRANCH  10  12
ENDBRANCH   9  10
ENDBRANCH   8   9
ENDBRANCH   7   8
ENDBRANCH   3   7
ENDBRANCH   2   3
TORSDOF 7
ENDMDL
MODEL       60
REMARK 921   NORMALIZED FREE ENERGY PREDICTED BY IDOCK:   -4.85 KCAL/MOL
REMARK 922        TOTAL FREE ENERGY PREDICTED BY IDOCK:   -8.15 KCAL/MOL
REMARK 923 INTER-LIGAND FREE ENERGY PREDICTED BY IDOCK:   -7.37 KCAL/MOL
REMARK 924 INTRA-LIGAND FREE ENERGY PREDICTED BY IDOCK:   -0.78 KCAL/MOL
REMARK 927      BINDING AFFINITY PREDICTED BY RF-SCORE:    0.00 PKD
ROOT
HETATM    1  C   UNL     1      -8.690   6.325  70.564  1.00  0.00    -0.143 C  
HETATM    2  C   UNL     1      -8.920   7.808  70.324  1.00  0.00    -0.148 C  
ENDROOT
BRANCH   2   3
HETATM    3  N   UNL     1     -10.403   8.255  70.422  1.00  0.00    -0.202 N  
HETATM    4  C   UNL     1     -11.305   7.012  70.315  1.00  0.00    -0.295 C  
BRANCH   3   5
HETATM    5  C   UNL     1     -10.724   8.983  71.740  1.00  0.00    -0.367 C  
HETATM    6  C   UNL     1     -12.185   9.382  71.879  1.00  0.00    -0.440 C  
ENDBRANCH   3   5
BRANCH   3   7
HETATM    7  C   UNL     1     -10.654   9.154  69.177  1.00  0.00    -0.208 C  
BRANCH   7   8
HETATM    8  C   UNL     1      -9.872  10.470  69.176  1.00  0.00    -0.218 C  
BRANCH   8   9
HETATM    9  O   UNL     1     -10.223  11.282  68.053  1.00  0.00    -0.175 OA 
BRANCH   9  10
HETATM   10  C   UNL     1      -9.150  11.789  67.369  1.00  0.00    -0.175 C  
HETATM   11  O   UNL     1      -8.095  11.181  67.232  1.00  0.00    -0.127 OA 
BRANCH  10  12
HETATM   12  C   UNL     1      -9.502  13.103  66.681  1.00  0.00    -0.260 C  
HETATM   13  C   UNL     1     -10.502  12.799  65.588  1.00  0.00    -0.297 A  
HETATM   14  C   UNL     1     -10.163  11.929  64.535  1.00  0.00    -0.320 A  
HETATM   15  C   UNL     1     -11.126  11.531  63.610  1.00  0.00    -0.469 A  
HETATM   16  C   UNL     1     -12.428  12.014  63.715  1.00  0.00    -0.594 A  
HETATM   17  C   UNL     1     -12.766  12.893  64.745  1.00  0.00    -0.442 A  
HETATM   18  C   UNL     1     -11.809  13.276  65.685  1.00  0.00    -0.380 A  
HETATM   19  O   UNL     1     -12.242  14.106  66.690  1.00  0.00    -0.448 OA 
HETATM   20  C   UNL     1     -11.339  14.531  67.636  1.00  0.00    -0.337 A  
HETATM   21  C   UNL     1     -11.828  15.420  68.595  1.00  0.00    -0.317 A  
HETATM   22  C   UNL     1     -10.990  15.896  69.603  1.00  0.00    -0.319 A  
HETATM   23  C   UNL     1      -9.657  15.492  69.648  1.00  0.00    -0.264 A  
HETATM   24  C   UNL     1      -9.164  14.609  68.688  1.00  0.00    -0.194 A  
HETATM   25  C   UNL     1     -10.008  14.112  67.680  1.00  0.00    -0.233 A  
ENDBRANCH  10  12
ENDBRANCH   9  10
ENDBRANCH   8   9
ENDBRANCH   7   8
ENDBRANCH   3   7
ENDBRANCH   2   3
TORSDOF 7
ENDMDL
MODEL       61
REMARK 921   NORMALIZED FREE ENERGY PREDICTED BY IDOCK:   -4.85 KCAL/MOL
REMARK 922        TOTAL FREE ENERGY PREDICTED BY IDOCK:   -8.15 KCAL/MOL
REMARK 923 INTER-LIGAND FREE ENERGY PREDICTED BY IDOCK:   -7.39 KCAL/MOL
REMARK 924 INTRA-LIGAND FREE ENERGY PREDICTED BY IDOCK:   -0.76 KCAL/MOL
REMARK 927      BINDING AFFINITY PREDICTED BY RF-SCORE:    0.00 PKD
ROOT
HETATM    1  C   UNL     1      -8.033  15.527  69.316  1.00  0.00    -0.238 C  
HETATM    2  C   UNL     1      -9.142  14.681  68.711  1.00  0.00    -0.178 C  
ENDROOT
BRANCH   2   3
HETATM    3  N   UNL     1     -10.439  15.464  68.376  1.00  0.00    -0.235 N  
HETATM    4  C   UNL     1     -10.266  16.928  68.819  1.00  0.00    -0.311 C  
BRANCH   3   5
HETATM    5  C   UNL     1     -10.783  15.442  66.875  1.00  0.00    -0.314 C  
HETATM    6  C   UNL     1      -9.562  15.474  65.967  1.00  0.00    -0.380 C  
ENDBRANCH   3   5
BRANCH   3   7
HETATM    7  C   UNL     1     -11.557  14.816  69.245  1.00  0.00    -0.303 C  
BRANCH   7   8
HETATM    8  C   UNL     1     -11.952  13.400  68.817  1.00  0.00    -0.324 C  
BRANCH   8   9
HETATM    9  O   UNL     1     -11.794  12.471  69.892  1.00  0.00    -0.325 OA 
BRANCH   9  10
HETATM   10  C   UNL     1     -11.797  11.158  69.502  1.00  0.00    -0.353 C  
HETATM   11  O   UNL     1     -12.199  10.785  68.406  1.00  0.00    -0.470 OA 
BRANCH  10  12
HETATM   12  C   UNL     1     -11.094  10.274  70.526  1.00  0.00    -0.381 C  
HETATM   13  C   UNL     1     -12.118   9.315  71.091  1.00  0.00    -0.389 A  
HETATM   14  C   UNL     1     -13.253   9.803  71.765  1.00  0.00    -0.532 A  
HETATM   15  C   UNL     1     -14.270   8.933  72.155  1.00  0.00    -0.463 A  
HETATM   16  C   UNL     1     -14.153   7.569  71.895  1.00  0.00    -0.436 A  
HETATM   17  C   UNL     1     -13.021   7.078  71.244  1.00  0.00    -0.357 A  
HETATM   18  C   UNL     1     -12.011   7.949  70.833  1.00  0.00    -0.196 A  
HETATM   19  O   UNL     1     -10.957   7.383  70.159  1.00  0.00    -0.253 OA 
HETATM   20  C   UNL     1      -9.924   8.190  69.745  1.00  0.00    -0.191 A  
HETATM   21  C   UNL     1      -8.855   7.545  69.119  1.00  0.00    -0.136 A  
HETATM   22  C   UNL     1      -7.767   8.281  68.653  1.00  0.00    -0.114 A  
HETATM   23  C   UNL     1      -7.739   9.665  68.821  1.00  0.00    -0.080 A  
HETATM   24  C   UNL     1      -8.802  10.311  69.452  1.00  0.00    -0.177 A  
HETATM   25  C   UNL     1      -9.910   9.576  69.908  1.00  0.00    -0.254 A  
ENDBRANCH  10  12
ENDBRANCH   9  10
ENDBRANCH   8   9
ENDBRANCH   7   8
ENDBRANCH   3   7
ENDBRANCH   2   3
TORSDOF 7
ENDMDL
MODEL       62
REMARK 921   NORMALIZED FREE ENERGY PREDICTED BY IDOCK:   -4.83 KCAL/MOL
REMARK 922        TOTAL FREE ENERGY PREDICTED BY IDOCK:   -8.13 KCAL/MOL
REMARK 923 INTER-LIGAND FREE ENERGY PREDICTED BY IDOCK:   -7.09 KCAL/MOL
REMARK 924 INTRA-LIGAND FREE ENERGY PREDICTED BY IDOCK:   -1.03 KCAL/MOL
REMARK 927      BINDING AFFINITY PREDICTED BY RF-SCORE:    0.00 PKD
ROOT
HETATM    1  C   UNL     1     -10.344   9.134  71.224  1.00  0.00    -0.405 C  
HETATM    2  C   UNL     1     -11.008   8.836  69.889  1.00  0.00    -0.179 C  
ENDROOT
BRANCH   2   3
HETATM    3  N   UNL     1     -10.508   9.714  68.711  1.00  0.00    -0.209 N  
HETATM    4  C   UNL     1      -9.185  10.388  69.118  1.00  0.00    -0.191 C  
BRANCH   3   5
HETATM    5  C   UNL     1     -10.270   8.907  67.421  1.00  0.00    -0.249 C  
HETATM    6  C   UNL     1     -10.144   9.768  66.174  1.00  0.00    -0.315 C  
ENDBRANCH   3   5
BRANCH   3   7
HETATM    7  C   UNL     1     -11.587  10.819  68.523  1.00  0.00    -0.255 C  
BRANCH   7   8
HETATM    8  C   UNL     1     -11.352  12.084  69.353  1.00  0.00    -0.251 C  
BRANCH   8   9
HETATM    9  O   UNL     1     -11.035  13.200  68.520  1.00  0.00    -0.243 OA 
BRANCH   9  10
HETATM   10  C   UNL     1     -12.008  14.164  68.478  1.00  0.00    -0.332 C  
HETATM   11  O   UNL     1     -12.776  14.381  69.408  1.00  0.00    -0.068 OA 
BRANCH  10  12
HETATM   12  C   UNL     1     -11.892  15.014  67.219  1.00  0.00    -0.163 C  
HETATM   13  C   UNL     1     -10.698  15.927  67.384  1.00  0.00    -0.313 A  
HETATM   14  C   UNL     1     -10.652  16.854  68.442  1.00  0.00    -0.365 A  
HETATM   15  C   UNL     1      -9.494  17.590  68.685  1.00  0.00    -0.278 A  
HETATM   16  C   UNL     1      -8.381  17.424  67.864  1.00  0.00    -0.230 A  
HETATM   17  C   UNL     1      -8.427  16.519  66.802  1.00  0.00    -0.273 A  
HETATM   18  C   UNL     1      -9.578  15.765  66.569  1.00  0.00    -0.265 A  
HETATM   19  O   UNL     1      -9.517  14.868  65.530  1.00  0.00    -0.234 OA 
HETATM   20  C   UNL     1     -10.627  14.110  65.243  1.00  0.00    -0.373 A  
HETATM   21  C   UNL     1     -10.520  13.260  64.139  1.00  0.00    -0.281 A  
HETATM   22  C   UNL     1     -11.589  12.442  63.777  1.00  0.00    -0.553 A  
HETATM   23  C   UNL     1     -12.774  12.479  64.511  1.00  0.00    -0.440 A  
HETATM   24  C   UNL     1     -12.885  13.330  65.611  1.00  0.00    -0.221 A  
HETATM   25  C   UNL     1     -11.805  14.144  65.991  1.00  0.00    -0.409 A  
ENDBRANCH  10  12
ENDBRANCH   9  10
ENDBRANCH   8   9
ENDBRANCH   7   8
ENDBRANCH   3   7
ENDBRANCH   2   3
TORSDOF 7
ENDMDL
MODEL       63
REMARK 921   NORMALIZED FREE ENERGY PREDICTED BY IDOCK:   -4.83 KCAL/MOL
REMARK 922        TOTAL FREE ENERGY PREDICTED BY IDOCK:   -8.13 KCAL/MOL
REMARK 923 INTER-LIGAND FREE ENERGY PREDICTED BY IDOCK:   -7.52 KCAL/MOL
REMARK 924 INTRA-LIGAND FREE ENERGY PREDICTED BY IDOCK:   -0.61 KCAL/MOL
REMARK 927      BINDING AFFINITY PREDICTED BY RF-SCORE:    0.00 PKD
ROOT
HETATM    1  C   UNL     1      -9.888   5.360  70.929  1.00  0.00    -0.249 C  
HETATM    2  C   UNL     1      -9.453   6.766  70.547  1.00  0.00    -0.169 C  
ENDROOT
BRANCH   2   3
HETATM    3  N   UNL     1     -10.536   7.856  70.764  1.00  0.00    -0.211 N  
HETATM    4  C   UNL     1     -11.917   7.181  70.831  1.00  0.00    -0.334 C  
BRANCH   3   5
HETATM    5  C   UNL     1     -10.322   8.665  72.057  1.00  0.00    -0.346 C  
HETATM    6  C   UNL     1      -9.066   8.275  72.822  1.00  0.00    -0.332 C  
ENDBRANCH   3   5
BRANCH   3   7
HETATM    7  C   UNL     1     -10.488   8.754  69.494  1.00  0.00    -0.220 C  
BRANCH   7   8
HETATM    8  C   UNL     1     -10.452  10.258  69.780  1.00  0.00    -0.259 C  
BRANCH   8   9
HETATM    9  O   UNL     1      -9.874  10.980  68.690  1.00  0.00    -0.181 OA 
BRANCH   9  10
HETATM   10  C   UNL     1     -10.765  11.749  67.991  1.00  0.00    -0.208 C  
HETATM   11  O   UNL     1     -11.977  11.700  68.170  1.00  0.00    -0.550 OA 
BRANCH  10  12
HETATM   12  C   UNL     1     -10.049  12.766  67.110  1.00  0.00    -0.234 C  
HETATM   13  C   UNL     1     -10.708  12.743  65.749  1.00  0.00    -0.296 A  
HETATM   14  C   UNL     1     -10.722  11.562  64.985  1.00  0.00    -0.350 A  
HETATM   15  C   UNL     1     -11.454  11.496  63.800  1.00  0.00    -0.380 A  
HETATM   16  C   UNL     1     -12.158  12.613  63.358  1.00  0.00    -0.614 A  
HETATM   17  C   UNL     1     -12.132  13.795  64.102  1.00  0.00    -0.478 A  
HETATM   18  C   UNL     1     -11.418  13.856  65.299  1.00  0.00    -0.315 A  
HETATM   19  O   UNL     1     -11.485  15.043  65.987  1.00  0.00    -0.321 OA 
HETATM   20  C   UNL     1     -10.788  15.169  67.164  1.00  0.00    -0.320 A  
HETATM   21  C   UNL     1     -10.850  16.419  67.784  1.00  0.00    -0.306 A  
HETATM   22  C   UNL     1     -10.185  16.639  68.989  1.00  0.00    -0.301 A  
HETATM   23  C   UNL     1      -9.446  15.611  69.574  1.00  0.00    -0.275 A  
HETATM   24  C   UNL     1      -9.378  14.364  68.955  1.00  0.00    -0.028 A  
HETATM   25  C   UNL     1     -10.060  14.131  67.749  1.00  0.00    -0.239 A  
ENDBRANCH  10  12
ENDBRANCH   9  10
ENDBRANCH   8   9
ENDBRANCH   7   8
ENDBRANCH   3   7
ENDBRANCH   2   3
TORSDOF 7
ENDMDL
MODEL       64
REMARK 921   NORMALIZED FREE ENERGY PREDICTED BY IDOCK:   -4.83 KCAL/MOL
REMARK 922        TOTAL FREE ENERGY PREDICTED BY IDOCK:   -8.12 KCAL/MOL
REMARK 923 INTER-LIGAND FREE ENERGY PREDICTED BY IDOCK:   -7.16 KCAL/MOL
REMARK 924 INTRA-LIGAND FREE ENERGY PREDICTED BY IDOCK:   -0.96 KCAL/MOL
REMARK 927      BINDING AFFINITY PREDICTED BY RF-SCORE:    0.00 PKD
ROOT
HETATM    1  C   UNL     1     -10.581  18.146  67.711  1.00  0.00    -0.407 C  
HETATM    2  C   UNL     1      -9.220  18.758  67.421  1.00  0.00    -0.282 C  
ENDROOT
BRANCH   2   3
HETATM    3  N   UNL     1      -8.018  17.938  67.958  1.00  0.00    -0.243 N  
HETATM    4  C   UNL     1      -7.220  17.382  66.765  1.00  0.00    -0.219 C  
BRANCH   3   5
HETATM    5  C   UNL     1      -7.067  18.772  68.838  1.00  0.00    -0.305 C  
HETATM    6  C   UNL     1      -5.749  19.115  68.160  1.00  0.00    -0.211 C  
ENDBRANCH   3   5
BRANCH   3   7
HETATM    7  C   UNL     1      -8.639  16.741  68.736  1.00  0.00    -0.255 C  
BRANCH   7   8
HETATM    8  C   UNL     1      -8.196  15.362  68.240  1.00  0.00    -0.145 C  
BRANCH   8   9
HETATM    9  O   UNL     1      -9.275  14.426  68.276  1.00  0.00    -0.188 OA 
BRANCH   9  10
HETATM   10  C   UNL     1     -10.117  14.498  67.198  1.00  0.00    -0.252 C  
HETATM   11  O   UNL     1      -9.785  14.974  66.119  1.00  0.00    -0.268 OA 
BRANCH  10  12
HETATM   12  C   UNL     1     -11.429  13.772  67.470  1.00  0.00    -0.359 C  
HETATM   13  C   UNL     1     -11.192  12.293  67.260  1.00  0.00    -0.358 A  
HETATM   14  C   UNL     1     -10.774  11.810  66.006  1.00  0.00    -0.324 A  
HETATM   15  C   UNL     1     -10.412  10.473  65.850  1.00  0.00    -0.224 A  
HETATM   16  C   UNL     1     -10.484   9.604  66.936  1.00  0.00    -0.282 A  
HETATM   17  C   UNL     1     -10.916  10.073  68.178  1.00  0.00    -0.289 A  
HETATM   18  C   UNL     1     -11.259  11.416  68.342  1.00  0.00    -0.263 A  
HETATM   19  O   UNL     1     -11.628  11.798  69.609  1.00  0.00    -0.293 OA 
HETATM   20  C   UNL     1     -11.993  13.105  69.828  1.00  0.00    -0.314 A  
HETATM   21  C   UNL     1     -12.416  13.415  71.122  1.00  0.00    -0.414 A  
HETATM   22  C   UNL     1     -12.794  14.718  71.444  1.00  0.00    -0.409 A  
HETATM   23  C   UNL     1     -12.761  15.713  70.468  1.00  0.00    -0.391 A  
HETATM   24  C   UNL     1     -12.345  15.405  69.173  1.00  0.00    -0.087 A  
HETATM   25  C   UNL     1     -11.946  14.098  68.847  1.00  0.00    -0.376 A  
ENDBRANCH  10  12
ENDBRANCH   9  10
ENDBRANCH   8   9
ENDBRANCH   7   8
ENDBRANCH   3   7
ENDBRANCH   2   3
TORSDOF 7
ENDMDL
MODEL       65
REMARK 921   NORMALIZED FREE ENERGY PREDICTED BY IDOCK:   -4.81 KCAL/MOL
REMARK 922        TOTAL FREE ENERGY PREDICTED BY IDOCK:   -8.10 KCAL/MOL
REMARK 923 INTER-LIGAND FREE ENERGY PREDICTED BY IDOCK:   -7.60 KCAL/MOL
REMARK 924 INTRA-LIGAND FREE ENERGY PREDICTED BY IDOCK:   -0.50 KCAL/MOL
REMARK 927      BINDING AFFINITY PREDICTED BY RF-SCORE:    0.00 PKD
ROOT
HETATM    1  C   UNL     1      -6.466  17.352  69.509  1.00  0.00    -0.208 C  
HETATM    2  C   UNL     1      -7.134  18.542  68.840  1.00  0.00    -0.282 C  
ENDROOT
BRANCH   2   3
HETATM    3  N   UNL     1      -8.474  18.212  68.130  1.00  0.00    -0.266 N  
HETATM    4  C   UNL     1      -9.584  19.098  68.725  1.00  0.00    -0.416 C  
BRANCH   3   5
HETATM    5  C   UNL     1      -8.421  18.448  66.609  1.00  0.00    -0.269 C  
HETATM    6  C   UNL     1      -7.023  18.338  66.020  1.00  0.00    -0.315 C  
ENDBRANCH   3   5
BRANCH   3   7
HETATM    7  C   UNL     1      -8.784  16.729  68.485  1.00  0.00    -0.245 C  
BRANCH   7   8
HETATM    8  C   UNL     1      -8.817  15.782  67.283  1.00  0.00    -0.195 C  
BRANCH   8   9
HETATM    9  O   UNL     1     -10.007  14.989  67.279  1.00  0.00    -0.231 OA 
BRANCH   9  10
HETATM   10  C   UNL     1      -9.840  13.725  67.778  1.00  0.00    -0.234 C  
HETATM   11  O   UNL     1      -8.815  13.356  68.340  1.00  0.00    -0.178 OA 
BRANCH  10  12
HETATM   12  C   UNL     1     -11.131  12.919  67.689  1.00  0.00    -0.297 C  
HETATM   13  C   UNL     1     -10.807  11.599  67.026  1.00  0.00    -0.311 A  
HETATM   14  C   UNL     1     -10.281  11.568  65.721  1.00  0.00    -0.293 A  
HETATM   15  C   UNL     1      -9.845  10.367  65.165  1.00  0.00    -0.378 A  
HETATM   16  C   UNL     1      -9.948   9.186  65.896  1.00  0.00    -0.232 A  
HETATM   17  C   UNL     1     -10.487   9.208  67.183  1.00  0.00    -0.325 A  
HETATM   18  C   UNL     1     -10.905  10.411  67.751  1.00  0.00    -0.297 A  
HETATM   19  O   UNL     1     -11.380  10.344  69.038  1.00  0.00    -0.242 OA 
HETATM   20  C   UNL     1     -11.822  11.496  69.644  1.00  0.00    -0.354 A  
HETATM   21  C   UNL     1     -12.347  11.350  70.930  1.00  0.00    -0.483 A  
HETATM   22  C   UNL     1     -12.809  12.464  71.630  1.00  0.00    -0.375 A  
HETATM   23  C   UNL     1     -12.758  13.727  71.041  1.00  0.00    -0.416 A  
HETATM   24  C   UNL     1     -12.240  13.874  69.754  1.00  0.00    -0.388 A  
HETATM   25  C   UNL     1     -11.756  12.758  69.051  1.00  0.00    -0.371 A  
ENDBRANCH  10  12
ENDBRANCH   9  10
ENDBRANCH   8   9
ENDBRANCH   7   8
ENDBRANCH   3   7
ENDBRANCH   2   3
TORSDOF 7
ENDMDL
MODEL       66
REMARK 921   NORMALIZED FREE ENERGY PREDICTED BY IDOCK:   -4.80 KCAL/MOL
REMARK 922        TOTAL FREE ENERGY PREDICTED BY IDOCK:   -8.09 KCAL/MOL
REMARK 923 INTER-LIGAND FREE ENERGY PREDICTED BY IDOCK:   -7.18 KCAL/MOL
REMARK 924 INTRA-LIGAND FREE ENERGY PREDICTED BY IDOCK:   -0.91 KCAL/MOL
REMARK 927      BINDING AFFINITY PREDICTED BY RF-SCORE:    0.00 PKD
ROOT
HETATM    1  C   UNL     1      -6.790  18.288  65.803  1.00  0.00    -0.310 C  
HETATM    2  C   UNL     1      -7.819  18.844  66.773  1.00  0.00    -0.251 C  
ENDROOT
BRANCH   2   3
HETATM    3  N   UNL     1      -8.944  17.848  67.159  1.00  0.00    -0.246 N  
HETATM    4  C   UNL     1      -8.750  17.420  68.625  1.00  0.00    -0.261 C  
BRANCH   3   5
HETATM    5  C   UNL     1     -10.355  18.446  67.005  1.00  0.00    -0.393 C  
HETATM    6  C   UNL     1     -10.422  19.614  66.033  1.00  0.00    -0.622 C  
ENDBRANCH   3   5
BRANCH   3   7
HETATM    7  C   UNL     1      -8.732  16.602  66.250  1.00  0.00    -0.324 C  
BRANCH   7   8
HETATM    8  C   UNL     1      -9.860  15.570  66.313  1.00  0.00    -0.294 C  
BRANCH   8   9
HETATM    9  O   UNL     1      -9.358  14.271  66.635  1.00  0.00    -0.268 OA 
BRANCH   9  10
HETATM   10  C   UNL     1     -10.030  13.646  67.652  1.00  0.00    -0.239 C  
HETATM   11  O   UNL     1     -10.516  14.246  68.603  1.00  0.00    -0.238 OA 
BRANCH  10  12
HETATM   12  C   UNL     1     -10.230  12.164  67.355  1.00  0.00    -0.211 C  
HETATM   13  C   UNL     1     -10.917  12.050  66.012  1.00  0.00    -0.346 A  
HETATM   14  C   UNL     1     -12.185  12.624  65.810  1.00  0.00    -0.427 A  
HETATM   15  C   UNL     1     -12.753  12.650  64.538  1.00  0.00    -0.439 A  
HETATM   16  C   UNL     1     -12.072  12.084  63.463  1.00  0.00    -0.628 A  
HETATM   17  C   UNL     1     -10.822  11.495  63.661  1.00  0.00    -0.488 A  
HETATM   18  C   UNL     1     -10.241  11.487  64.929  1.00  0.00    -0.275 A  
HETATM   19  O   UNL     1      -8.990  10.927  65.022  1.00  0.00    -0.197 OA 
HETATM   20  C   UNL     1      -8.375  10.876  66.250  1.00  0.00    -0.164 A  
HETATM   21  C   UNL     1      -7.131  10.241  66.287  1.00  0.00    -0.117 A  
HETATM   22  C   UNL     1      -6.425  10.151  67.485  1.00  0.00    -0.066 A  
HETATM   23  C   UNL     1      -6.965  10.686  68.654  1.00  0.00    -0.072 A  
HETATM   24  C   UNL     1      -8.210  11.315  68.621  1.00  0.00    -0.146 A  
HETATM   25  C   UNL     1      -8.919  11.425  67.413  1.00  0.00    -0.154 A  
ENDBRANCH  10  12
ENDBRANCH   9  10
ENDBRANCH   8   9
ENDBRANCH   7   8
ENDBRANCH   3   7
ENDBRANCH   2   3
TORSDOF 7
ENDMDL
MODEL       67
REMARK 921   NORMALIZED FREE ENERGY PREDICTED BY IDOCK:   -4.80 KCAL/MOL
REMARK 922        TOTAL FREE ENERGY PREDICTED BY IDOCK:   -8.09 KCAL/MOL
REMARK 923 INTER-LIGAND FREE ENERGY PREDICTED BY IDOCK:   -6.98 KCAL/MOL
REMARK 924 INTRA-LIGAND FREE ENERGY PREDICTED BY IDOCK:   -1.10 KCAL/MOL
REMARK 927      BINDING AFFINITY PREDICTED BY RF-SCORE:    0.00 PKD
ROOT
HETATM    1  C   UNL     1     -10.590   7.067  69.449  1.00  0.00    -0.248 C  
HETATM    2  C   UNL     1     -11.646   6.807  70.511  1.00  0.00    -0.372 C  
ENDROOT
BRANCH   2   3
HETATM    3  N   UNL     1     -11.816   7.952  71.544  1.00  0.00    -0.280 N  
HETATM    4  C   UNL     1     -13.317   8.166  71.809  1.00  0.00    -0.345 C  
BRANCH   3   5
HETATM    5  C   UNL     1     -11.118   7.659  72.885  1.00  0.00    -0.393 C  
HETATM    6  C   UNL     1      -9.683   8.159  72.951  1.00  0.00    -0.340 C  
ENDBRANCH   3   5
BRANCH   3   7
HETATM    7  C   UNL     1     -11.251   9.228  70.853  1.00  0.00    -0.306 C  
BRANCH   7   8
HETATM    8  C   UNL     1     -12.317  10.226  70.394  1.00  0.00    -0.238 C  
BRANCH   8   9
HETATM    9  O   UNL     1     -11.960  10.830  69.148  1.00  0.00    -0.304 OA 
BRANCH   9  10
HETATM   10  C   UNL     1     -11.508  12.118  69.259  1.00  0.00    -0.302 C  
HETATM   11  O   UNL     1     -11.788  12.847  70.203  1.00  0.00    -0.311 OA 
BRANCH  10  12
HETATM   12  C   UNL     1     -10.504  12.449  68.162  1.00  0.00    -0.228 C  
HETATM   13  C   UNL     1      -9.517  11.306  68.077  1.00  0.00    -0.173 A  
HETATM   14  C   UNL     1      -8.726  10.965  69.189  1.00  0.00    -0.055 A  
HETATM   15  C   UNL     1      -7.927   9.824  69.163  1.00  0.00    -0.104 A  
HETATM   16  C   UNL     1      -7.894   9.026  68.022  1.00  0.00    -0.101 A  
HETATM   17  C   UNL     1      -8.662   9.370  66.908  1.00  0.00    -0.137 A  
HETATM   18  C   UNL     1      -9.479  10.500  66.939  1.00  0.00    -0.165 A  
HETATM   19  O   UNL     1     -10.234  10.735  65.816  1.00  0.00    -0.248 OA 
HETATM   20  C   UNL     1     -11.046  11.844  65.782  1.00  0.00    -0.317 A  
HETATM   21  C   UNL     1     -11.741  12.059  64.590  1.00  0.00    -0.358 A  
HETATM   22  C   UNL     1     -12.599  13.151  64.465  1.00  0.00    -0.344 A  
HETATM   23  C   UNL     1     -12.756  14.038  65.528  1.00  0.00    -0.517 A  
HETATM   24  C   UNL     1     -12.058  13.830  66.718  1.00  0.00    -0.460 A  
HETATM   25  C   UNL     1     -11.206  12.721  66.856  1.00  0.00    -0.339 A  
ENDBRANCH  10  12
ENDBRANCH   9  10
ENDBRANCH   8   9
ENDBRANCH   7   8
ENDBRANCH   3   7
ENDBRANCH   2   3
TORSDOF 7
ENDMDL
MODEL       68
REMARK 921   NORMALIZED FREE ENERGY PREDICTED BY IDOCK:   -4.77 KCAL/MOL
REMARK 922        TOTAL FREE ENERGY PREDICTED BY IDOCK:   -8.04 KCAL/MOL
REMARK 923 INTER-LIGAND FREE ENERGY PREDICTED BY IDOCK:   -6.98 KCAL/MOL
REMARK 924 INTRA-LIGAND FREE ENERGY PREDICTED BY IDOCK:   -1.06 KCAL/MOL
REMARK 927      BINDING AFFINITY PREDICTED BY RF-SCORE:    0.00 PKD
ROOT
HETATM    1  C   UNL     1     -10.310  19.842  66.845  1.00  0.00    -0.601 C  
HETATM    2  C   UNL     1      -9.414  18.999  67.738  1.00  0.00    -0.304 C  
ENDROOT
BRANCH   2   3
HETATM    3  N   UNL     1      -9.255  17.524  67.282  1.00  0.00    -0.237 N  
HETATM    4  C   UNL     1     -10.331  17.209  66.228  1.00  0.00    -0.313 C  
BRANCH   3   5
HETATM    5  C   UNL     1      -7.871  17.231  66.674  1.00  0.00    -0.260 C  
HETATM    6  C   UNL     1      -7.232  15.952  67.195  1.00  0.00    -0.254 C  
ENDBRANCH   3   5
BRANCH   3   7
HETATM    7  C   UNL     1      -9.537  16.662  68.547  1.00  0.00    -0.241 C  
BRANCH   7   8
HETATM    8  C   UNL     1     -10.763  15.752  68.435  1.00  0.00    -0.281 C  
BRANCH   8   9
HETATM    9  O   UNL     1     -10.490  14.447  68.950  1.00  0.00    -0.241 OA 
BRANCH   9  10
HETATM   10  C   UNL     1     -10.831  13.427  68.103  1.00  0.00    -0.255 C  
HETATM   11  O   UNL     1     -11.846  12.753  68.240  1.00  0.00    -0.319 OA 
BRANCH  10  12
HETATM   12  C   UNL     1      -9.889  13.360  66.907  1.00  0.00    -0.256 C  
HETATM   13  C   UNL     1      -8.856  12.292  67.191  1.00  0.00    -0.194 A  
HETATM   14  C   UNL     1      -8.004  12.405  68.305  1.00  0.00    -0.160 A  
HETATM   15  C   UNL     1      -7.156  11.356  68.653  1.00  0.00    -0.095 A  
HETATM   16  C   UNL     1      -7.134  10.197  67.882  1.00  0.00    -0.085 A  
HETATM   17  C   UNL     1      -7.963  10.087  66.764  1.00  0.00    -0.114 A  
HETATM   18  C   UNL     1      -8.829  11.127  66.425  1.00  0.00    -0.178 A  
HETATM   19  O   UNL     1      -9.640  10.914  65.337  1.00  0.00    -0.201 OA 
HETATM   20  C   UNL     1     -10.502  11.910  64.946  1.00  0.00    -0.287 A  
HETATM   21  C   UNL     1     -11.255  11.654  63.798  1.00  0.00    -0.498 A  
HETATM   22  C   UNL     1     -12.166  12.600  63.331  1.00  0.00    -0.610 A  
HETATM   23  C   UNL     1     -12.319  13.811  64.004  1.00  0.00    -0.370 A  
HETATM   24  C   UNL     1     -11.564  14.072  65.148  1.00  0.00    -0.344 A  
HETATM   25  C   UNL     1     -10.657  13.115  65.634  1.00  0.00    -0.289 A  
ENDBRANCH  10  12
ENDBRANCH   9  10
ENDBRANCH   8   9
ENDBRANCH   7   8
ENDBRANCH   3   7
ENDBRANCH   2   3
TORSDOF 7
ENDMDL
MODEL       69
REMARK 921   NORMALIZED FREE ENERGY PREDICTED BY IDOCK:   -4.76 KCAL/MOL
REMARK 922        TOTAL FREE ENERGY PREDICTED BY IDOCK:   -8.02 KCAL/MOL
REMARK 923 INTER-LIGAND FREE ENERGY PREDICTED BY IDOCK:   -6.94 KCAL/MOL
REMARK 924 INTRA-LIGAND FREE ENERGY PREDICTED BY IDOCK:   -1.08 KCAL/MOL
REMARK 927      BINDING AFFINITY PREDICTED BY RF-SCORE:    0.00 PKD
ROOT
HETATM    1  C   UNL     1      -7.266   6.110  66.864  1.00  0.00    -0.074 C  
HETATM    2  C   UNL     1      -8.591   6.635  66.335  1.00  0.00    -0.130 C  
ENDROOT
BRANCH   2   3
HETATM    3  N   UNL     1      -9.406   7.471  67.357  1.00  0.00    -0.137 N  
HETATM    4  C   UNL     1     -10.907   7.234  67.110  1.00  0.00    -0.308 C  
BRANCH   3   5
HETATM    5  C   UNL     1      -9.086   7.109  68.819  1.00  0.00    -0.134 C  
HETATM    6  C   UNL     1     -10.236   6.432  69.549  1.00  0.00    -0.228 C  
ENDBRANCH   3   5
BRANCH   3   7
HETATM    7  C   UNL     1      -9.083   8.959  67.035  1.00  0.00    -0.135 C  
BRANCH   7   8
HETATM    8  C   UNL     1     -10.262   9.758  66.474  1.00  0.00    -0.219 C  
BRANCH   8   9
HETATM    9  O   UNL     1     -10.059  11.164  66.633  1.00  0.00    -0.204 OA 
BRANCH   9  10
HETATM   10  C   UNL     1     -11.045  11.797  67.342  1.00  0.00    -0.282 C  
HETATM   11  O   UNL     1     -12.205  11.874  66.954  1.00  0.00    -0.493 OA 
BRANCH  10  12
HETATM   12  C   UNL     1     -10.549  12.230  68.716  1.00  0.00    -0.223 C  
HETATM   13  C   UNL     1     -10.628  13.739  68.782  1.00  0.00    -0.253 A  
HETATM   14  C   UNL     1      -9.896  14.530  67.878  1.00  0.00    -0.222 A  
HETATM   15  C   UNL     1     -10.081  15.911  67.839  1.00  0.00    -0.235 A  
HETATM   16  C   UNL     1     -10.979  16.516  68.715  1.00  0.00    -0.330 A  
HETATM   17  C   UNL     1     -11.694  15.738  69.628  1.00  0.00    -0.363 A  
HETATM   18  C   UNL     1     -11.527  14.353  69.654  1.00  0.00    -0.283 A  
HETATM   19  O   UNL     1     -12.304  13.664  70.553  1.00  0.00    -0.337 OA 
HETATM   20  C   UNL     1     -12.171  12.299  70.637  1.00  0.00    -0.287 A  
HETATM   21  C   UNL     1     -12.946  11.665  71.611  1.00  0.00    -0.483 A  
HETATM   22  C   UNL     1     -12.888  10.280  71.762  1.00  0.00    -0.565 A  
HETATM   23  C   UNL     1     -12.046   9.525  70.947  1.00  0.00    -0.357 A  
HETATM   24  C   UNL     1     -11.267  10.156  69.977  1.00  0.00    -0.361 A  
HETATM   25  C   UNL     1     -11.334  11.550  69.808  1.00  0.00    -0.303 A  
ENDBRANCH  10  12
ENDBRANCH   9  10
ENDBRANCH   8   9
ENDBRANCH   7   8
ENDBRANCH   3   7
ENDBRANCH   2   3
TORSDOF 7
ENDMDL
MODEL       70
REMARK 921   NORMALIZED FREE ENERGY PREDICTED BY IDOCK:   -4.75 KCAL/MOL
REMARK 922        TOTAL FREE ENERGY PREDICTED BY IDOCK:   -8.01 KCAL/MOL
REMARK 923 INTER-LIGAND FREE ENERGY PREDICTED BY IDOCK:   -7.25 KCAL/MOL
REMARK 924 INTRA-LIGAND FREE ENERGY PREDICTED BY IDOCK:   -0.76 KCAL/MOL
REMARK 927      BINDING AFFINITY PREDICTED BY RF-SCORE:    0.00 PKD
ROOT
HETATM    1  C   UNL     1     -11.126  15.937  68.211  1.00  0.00    -0.345 C  
HETATM    2  C   UNL     1     -11.457  14.454  68.193  1.00  0.00    -0.310 C  
ENDROOT
BRANCH   2   3
HETATM    3  N   UNL     1     -10.649  13.627  67.157  1.00  0.00    -0.271 N  
HETATM    4  C   UNL     1     -11.562  12.537  66.568  1.00  0.00    -0.388 C  
BRANCH   3   5
HETATM    5  C   UNL     1     -10.100  14.485  66.002  1.00  0.00    -0.318 C  
HETATM    6  C   UNL     1     -11.014  14.535  64.788  1.00  0.00    -0.404 C  
ENDBRANCH   3   5
BRANCH   3   7
HETATM    7  C   UNL     1      -9.514  12.934  67.967  1.00  0.00    -0.213 C  
BRANCH   7   8
HETATM    8  C   UNL     1      -9.443  11.416  67.789  1.00  0.00    -0.165 C  
BRANCH   8   9
HETATM    9  O   UNL     1      -9.617  10.738  69.036  1.00  0.00    -0.197 OA 
BRANCH   9  10
HETATM   10  C   UNL     1     -10.322   9.568  68.945  1.00  0.00    -0.208 C  
HETATM   11  O   UNL     1     -10.872   9.195  67.916  1.00  0.00    -0.196 OA 
BRANCH  10  12
HETATM   12  C   UNL     1     -10.188   8.740  70.218  1.00  0.00    -0.220 C  
HETATM   13  C   UNL     1     -11.526   8.754  70.923  1.00  0.00    -0.330 A  
HETATM   14  C   UNL     1     -12.091   9.969  71.351  1.00  0.00    -0.498 A  
HETATM   15  C   UNL     1     -13.387  10.002  71.865  1.00  0.00    -0.516 A  
HETATM   16  C   UNL     1     -14.118   8.822  71.977  1.00  0.00    -0.508 A  
HETATM   17  C   UNL     1     -13.555   7.611  71.572  1.00  0.00    -0.422 A  
HETATM   18  C   UNL     1     -12.267   7.578  71.036  1.00  0.00    -0.259 A  
HETATM   19  O   UNL     1     -11.811   6.350  70.623  1.00  0.00    -0.367 OA 
HETATM   20  C   UNL     1     -10.543   6.253  70.103  1.00  0.00    -0.248 A  
HETATM   21  C   UNL     1     -10.118   4.968  69.756  1.00  0.00    -0.337 A  
HETATM   22  C   UNL     1      -8.851   4.772  69.209  1.00  0.00    -0.123 A  
HETATM   23  C   UNL     1      -8.000   5.858  69.016  1.00  0.00    -0.099 A  
HETATM   24  C   UNL     1      -8.419   7.142  69.367  1.00  0.00    -0.134 A  
HETATM   25  C   UNL     1      -9.701   7.349  69.902  1.00  0.00    -0.171 A  
ENDBRANCH  10  12
ENDBRANCH   9  10
ENDBRANCH   8   9
ENDBRANCH   7   8
ENDBRANCH   3   7
ENDBRANCH   2   3
TORSDOF 7
ENDMDL
MODEL       71
REMARK 921   NORMALIZED FREE ENERGY PREDICTED BY IDOCK:   -4.71 KCAL/MOL
REMARK 922        TOTAL FREE ENERGY PREDICTED BY IDOCK:   -7.96 KCAL/MOL
REMARK 923 INTER-LIGAND FREE ENERGY PREDICTED BY IDOCK:   -7.01 KCAL/MOL
REMARK 924 INTRA-LIGAND FREE ENERGY PREDICTED BY IDOCK:   -0.95 KCAL/MOL
REMARK 927      BINDING AFFINITY PREDICTED BY RF-SCORE:    0.00 PKD
ROOT
HETATM    1  C   UNL     1     -11.464   6.652  69.967  1.00  0.00    -0.434 C  
HETATM    2  C   UNL     1     -10.918   7.297  71.231  1.00  0.00    -0.243 C  
ENDROOT
BRANCH   2   3
HETATM    3  N   UNL     1      -9.372   7.431  71.269  1.00  0.00    -0.154 N  
HETATM    4  C   UNL     1      -8.843   6.743  72.541  1.00  0.00    -0.126 C  
BRANCH   3   5
HETATM    5  C   UNL     1      -8.685   6.796  70.046  1.00  0.00    -0.141 C  
HETATM    6  C   UNL     1      -7.440   5.992  70.391  1.00  0.00    -0.090 C  
ENDBRANCH   3   5
BRANCH   3   7
HETATM    7  C   UNL     1      -9.085   8.956  71.379  1.00  0.00    -0.248 C  
BRANCH   7   8
HETATM    8  C   UNL     1      -8.731   9.633  70.053  1.00  0.00    -0.231 C  
BRANCH   8   9
HETATM    9  O   UNL     1      -9.762  10.532  69.637  1.00  0.00    -0.176 OA 
BRANCH   9  10
HETATM   10  C   UNL     1     -10.483  10.097  68.557  1.00  0.00    -0.195 C  
HETATM   11  O   UNL     1     -10.284   9.019  68.008  1.00  0.00    -0.192 OA 
BRANCH  10  12
HETATM   12  C   UNL     1     -11.643  11.036  68.250  1.00  0.00    -0.354 C  
HETATM   13  C   UNL     1     -12.234  11.487  69.567  1.00  0.00    -0.287 A  
HETATM   14  C   UNL     1     -12.771  10.545  70.465  1.00  0.00    -0.385 A  
HETATM   15  C   UNL     1     -13.179  10.939  71.738  1.00  0.00    -0.513 A  
HETATM   16  C   UNL     1     -13.077  12.275  72.118  1.00  0.00    -0.406 A  
HETATM   17  C   UNL     1     -12.564  13.216  71.224  1.00  0.00    -0.382 A  
HETATM   18  C   UNL     1     -12.134  12.822  69.957  1.00  0.00    -0.285 A  
HETATM   19  O   UNL     1     -11.601  13.807  69.161  1.00  0.00    -0.272 OA 
HETATM   20  C   UNL     1     -11.176  13.482  67.896  1.00  0.00    -0.274 A  
HETATM   21  C   UNL     1     -10.700  14.539  67.117  1.00  0.00    -0.286 A  
HETATM   22  C   UNL     1     -10.235  14.305  65.824  1.00  0.00    -0.351 A  
HETATM   23  C   UNL     1     -10.255  13.013  65.300  1.00  0.00    -0.294 A  
HETATM   24  C   UNL     1     -10.735  11.956  66.073  1.00  0.00    -0.326 A  
HETATM   25  C   UNL     1     -11.189  12.183  67.384  1.00  0.00    -0.362 A  
ENDBRANCH  10  12
ENDBRANCH   9  10
ENDBRANCH   8   9
ENDBRANCH   7   8
ENDBRANCH   3   7
ENDBRANCH   2   3
TORSDOF 7
ENDMDL
MODEL       72
REMARK 921   NORMALIZED FREE ENERGY PREDICTED BY IDOCK:   -4.71 KCAL/MOL
REMARK 922        TOTAL FREE ENERGY PREDICTED BY IDOCK:   -7.95 KCAL/MOL
REMARK 923 INTER-LIGAND FREE ENERGY PREDICTED BY IDOCK:   -6.81 KCAL/MOL
REMARK 924 INTRA-LIGAND FREE ENERGY PREDICTED BY IDOCK:   -1.15 KCAL/MOL
REMARK 927      BINDING AFFINITY PREDICTED BY RF-SCORE:    0.00 PKD
ROOT
HETATM    1  C   UNL     1      -8.732   2.616  68.698  1.00  0.00    -0.134 C  
HETATM    2  C   UNL     1      -7.960   3.743  68.031  1.00  0.00    -0.076 C  
ENDROOT
BRANCH   2   3
HETATM    3  N   UNL     1      -8.747   5.075  67.904  1.00  0.00    -0.103 N  
HETATM    4  C   UNL     1      -9.967   4.849  66.994  1.00  0.00    -0.208 C  
BRANCH   3   5
HETATM    5  C   UNL     1      -9.239   5.612  69.261  1.00  0.00    -0.116 C  
HETATM    6  C   UNL     1     -10.702   6.025  69.262  1.00  0.00    -0.401 C  
ENDBRANCH   3   5
BRANCH   3   7
HETATM    7  C   UNL     1      -7.780   6.067  67.194  1.00  0.00    -0.101 C  
BRANCH   7   8
HETATM    8  C   UNL     1      -8.441   6.947  66.130  1.00  0.00    -0.136 C  
BRANCH   8   9
HETATM    9  O   UNL     1      -8.474   8.317  66.536  1.00  0.00    -0.111 OA 
BRANCH   9  10
HETATM   10  C   UNL     1      -9.734   8.807  66.756  1.00  0.00    -0.221 C  
HETATM   11  O   UNL     1     -10.745   8.121  66.664  1.00  0.00    -0.210 OA 
BRANCH  10  12
HETATM   12  C   UNL     1      -9.688  10.237  67.281  1.00  0.00    -0.199 C  
HETATM   13  C   UNL     1     -10.209  11.147  66.190  1.00  0.00    -0.293 A  
HETATM   14  C   UNL     1      -9.558  11.207  64.943  1.00  0.00    -0.279 A  
HETATM   15  C   UNL     1     -10.118  11.928  63.890  1.00  0.00    -0.396 A  
HETATM   16  C   UNL     1     -11.317  12.611  64.077  1.00  0.00    -0.466 A  
HETATM   17  C   UNL     1     -11.957  12.571  65.317  1.00  0.00    -0.490 A  
HETATM   18  C   UNL     1     -11.410  11.833  66.367  1.00  0.00    -0.297 A  
HETATM   19  O   UNL     1     -12.130  11.813  67.537  1.00  0.00    -0.599 OA 
HETATM   20  C   UNL     1     -11.633  11.116  68.612  1.00  0.00    -0.315 A  
HETATM   21  C   UNL     1     -12.382  11.184  69.788  1.00  0.00    -0.315 A  
HETATM   22  C   UNL     1     -11.964  10.499  70.928  1.00  0.00    -0.481 A  
HETATM   23  C   UNL     1     -10.788   9.752  70.898  1.00  0.00    -0.399 A  
HETATM   24  C   UNL     1     -10.033   9.687  69.727  1.00  0.00    -0.252 A  
HETATM   25  C   UNL     1     -10.459  10.360  68.569  1.00  0.00    -0.210 A  
ENDBRANCH  10  12
ENDBRANCH   9  10
ENDBRANCH   8   9
ENDBRANCH   7   8
ENDBRANCH   3   7
ENDBRANCH   2   3
TORSDOF 7
ENDMDL
MODEL       73
REMARK 921   NORMALIZED FREE ENERGY PREDICTED BY IDOCK:   -4.66 KCAL/MOL
REMARK 922        TOTAL FREE ENERGY PREDICTED BY IDOCK:   -7.89 KCAL/MOL
REMARK 923 INTER-LIGAND FREE ENERGY PREDICTED BY IDOCK:   -7.12 KCAL/MOL
REMARK 924 INTRA-LIGAND FREE ENERGY PREDICTED BY IDOCK:   -0.77 KCAL/MOL
REMARK 927      BINDING AFFINITY PREDICTED BY RF-SCORE:    0.00 PKD
ROOT
HETATM    1  C   UNL     1     -14.125  15.920  72.909  1.00  0.00    -0.276 C  
HETATM    2  C   UNL     1     -14.025  15.203  71.573  1.00  0.00    -0.522 C  
ENDROOT
BRANCH   2   3
HETATM    3  N   UNL     1     -12.659  14.514  71.312  1.00  0.00    -0.322 N  
HETATM    4  C   UNL     1     -11.530  15.512  71.625  1.00  0.00    -0.423 C  
BRANCH   3   5
HETATM    5  C   UNL     1     -12.451  13.252  72.169  1.00  0.00     0.235 C  
HETATM    6  C   UNL     1     -13.515  12.186  71.957  1.00  0.00    -0.388 C  
ENDBRANCH   3   5
BRANCH   3   7
HETATM    7  C   UNL     1     -12.631  14.202  69.787  1.00  0.00    -0.103 C  
BRANCH   7   8
HETATM    8  C   UNL     1     -11.230  13.991  69.208  1.00  0.00    -0.261 C  
BRANCH   8   9
HETATM    9  O   UNL     1     -10.853  12.613  69.248  1.00  0.00    -0.132 OA 
BRANCH   9  10
HETATM   10  C   UNL     1     -11.201  11.904  68.129  1.00  0.00    -0.258 C  
HETATM   11  O   UNL     1     -12.284  11.343  68.001  1.00  0.00    -0.607 OA 
BRANCH  10  12
HETATM   12  C   UNL     1     -10.153  12.048  67.032  1.00  0.00    -0.221 C  
HETATM   13  C   UNL     1      -9.418  10.731  66.918  1.00  0.00    -0.192 A  
HETATM   14  C   UNL     1      -8.709  10.215  68.019  1.00  0.00    -0.122 A  
HETATM   15  C   UNL     1      -8.157   8.936  67.965  1.00  0.00    -0.106 A  
HETATM   16  C   UNL     1      -8.288   8.172  66.808  1.00  0.00    -0.115 A  
HETATM   17  C   UNL     1      -8.974   8.687  65.706  1.00  0.00    -0.244 A  
HETATM   18  C   UNL     1      -9.546   9.958  65.764  1.00  0.00    -0.250 A  
HETATM   19  O   UNL     1     -10.240  10.365  64.651  1.00  0.00    -0.346 OA 
HETATM   20  C   UNL     1     -10.811  11.615  64.644  1.00  0.00    -0.314 A  
HETATM   21  C   UNL     1     -11.451  11.991  63.461  1.00  0.00    -0.536 A  
HETATM   22  C   UNL     1     -12.071  13.236  63.364  1.00  0.00    -0.508 A  
HETATM   23  C   UNL     1     -12.044  14.114  64.446  1.00  0.00    -0.486 A  
HETATM   24  C   UNL     1     -11.400  13.744  65.627  1.00  0.00    -0.311 A  
HETATM   25  C   UNL     1     -10.788  12.483  65.737  1.00  0.00    -0.310 A  
ENDBRANCH  10  12
ENDBRANCH   9  10
ENDBRANCH   8   9
ENDBRANCH   7   8
ENDBRANCH   3   7
ENDBRANCH   2   3
TORSDOF 7
ENDMDL
MODEL       74
REMARK 921   NORMALIZED FREE ENERGY PREDICTED BY IDOCK:   -4.65 KCAL/MOL
REMARK 922        TOTAL FREE ENERGY PREDICTED BY IDOCK:   -7.87 KCAL/MOL
REMARK 923 INTER-LIGAND FREE ENERGY PREDICTED BY IDOCK:   -7.12 KCAL/MOL
REMARK 924 INTRA-LIGAND FREE ENERGY PREDICTED BY IDOCK:   -0.76 KCAL/MOL
REMARK 927      BINDING AFFINITY PREDICTED BY RF-SCORE:    0.00 PKD
ROOT
HETATM    1  C   UNL     1      -6.179  17.937  69.434  1.00  0.00    -0.248 C  
HETATM    2  C   UNL     1      -6.997  16.705  69.085  1.00  0.00    -0.227 C  
ENDROOT
BRANCH   2   3
HETATM    3  N   UNL     1      -8.079  16.938  67.997  1.00  0.00    -0.189 N  
HETATM    4  C   UNL     1      -9.433  17.186  68.686  1.00  0.00    -0.275 C  
BRANCH   3   5
HETATM    5  C   UNL     1      -7.764  18.139  67.086  1.00  0.00    -0.219 C  
HETATM    6  C   UNL     1      -6.860  17.796  65.912  1.00  0.00    -0.290 C  
ENDBRANCH   3   5
BRANCH   3   7
HETATM    7  C   UNL     1      -8.169  15.603  67.201  1.00  0.00    -0.213 C  
BRANCH   7   8
HETATM    8  C   UNL     1      -8.570  14.388  68.042  1.00  0.00    -0.166 C  
BRANCH   8   9
HETATM    9  O   UNL     1      -9.559  13.600  67.375  1.00  0.00    -0.215 OA 
BRANCH   9  10
HETATM   10  C   UNL     1     -10.705  13.409  68.100  1.00  0.00    -0.253 C  
HETATM   11  O   UNL     1     -11.089  14.186  68.966  1.00  0.00    -0.247 OA 
BRANCH  10  12
HETATM   12  C   UNL     1     -11.500  12.219  67.575  1.00  0.00    -0.414 C  
HETATM   13  C   UNL     1     -11.722  12.427  66.094  1.00  0.00    -0.460 A  
HETATM   14  C   UNL     1     -12.427  13.554  65.632  1.00  0.00    -0.528 A  
HETATM   15  C   UNL     1     -12.505  13.826  64.267  1.00  0.00    -0.308 A  
HETATM   16  C   UNL     1     -11.900  12.967  63.353  1.00  0.00    -0.543 A  
HETATM   17  C   UNL     1     -11.215  11.837  63.805  1.00  0.00    -0.518 A  
HETATM   18  C   UNL     1     -11.118  11.574  65.171  1.00  0.00    -0.194 A  
HETATM   19  O   UNL     1     -10.387  10.466  65.526  1.00  0.00    -0.264 OA 
HETATM   20  C   UNL     1     -10.270  10.146  66.857  1.00  0.00    -0.236 A  
HETATM   21  C   UNL     1      -9.566   8.976  67.148  1.00  0.00    -0.218 A  
HETATM   22  C   UNL     1      -9.384   8.576  68.471  1.00  0.00    -0.139 A  
HETATM   23  C   UNL     1      -9.916   9.340  69.508  1.00  0.00    -0.194 A  
HETATM   24  C   UNL     1     -10.625  10.506  69.221  1.00  0.00    -0.265 A  
HETATM   25  C   UNL     1     -10.797  10.924  67.890  1.00  0.00    -0.295 A  
ENDBRANCH  10  12
ENDBRANCH   9  10
ENDBRANCH   8   9
ENDBRANCH   7   8
ENDBRANCH   3   7
ENDBRANCH   2   3
TORSDOF 7
ENDMDL
MODEL       75
REMARK 921   NORMALIZED FREE ENERGY PREDICTED BY IDOCK:   -4.63 KCAL/MOL
REMARK 922        TOTAL FREE ENERGY PREDICTED BY IDOCK:   -7.85 KCAL/MOL
REMARK 923 INTER-LIGAND FREE ENERGY PREDICTED BY IDOCK:   -7.04 KCAL/MOL
REMARK 924 INTRA-LIGAND FREE ENERGY PREDICTED BY IDOCK:   -0.81 KCAL/MOL
REMARK 927      BINDING AFFINITY PREDICTED BY RF-SCORE:    0.00 PKD
ROOT
HETATM    1  C   UNL     1     -13.270  12.417  72.017  1.00  0.00    -0.514 C  
HETATM    2  C   UNL     1     -12.586  13.384  71.065  1.00  0.00    -0.343 C  
ENDROOT
BRANCH   2   3
HETATM    3  N   UNL     1     -12.679  14.875  71.484  1.00  0.00    -0.310 N  
HETATM    4  C   UNL     1     -14.161  15.255  71.653  1.00  0.00    -0.541 C  
BRANCH   3   5
HETATM    5  C   UNL     1     -11.943  15.173  72.804  1.00  0.00    -0.377 C  
HETATM    6  C   UNL     1     -12.744  16.031  73.772  1.00  0.00    -0.719 C  
ENDBRANCH   3   5
BRANCH   3   7
HETATM    7  C   UNL     1     -12.096  15.684  70.290  1.00  0.00    -0.385 C  
BRANCH   7   8
HETATM    8  C   UNL     1     -10.744  15.178  69.779  1.00  0.00    -0.274 C  
BRANCH   8   9
HETATM    9  O   UNL     1      -9.935  16.254  69.297  1.00  0.00    -0.245 OA 
BRANCH   9  10
HETATM   10  C   UNL     1      -9.815  16.297  67.933  1.00  0.00    -0.237 C  
HETATM   11  O   UNL     1     -10.765  16.484  67.182  1.00  0.00    -0.303 OA 
BRANCH  10  12
HETATM   12  C   UNL     1      -8.353  16.253  67.505  1.00  0.00    -0.174 C  
HETATM   13  C   UNL     1      -7.669  17.481  68.063  1.00  0.00    -0.211 A  
HETATM   14  C   UNL     1      -8.106  18.767  67.694  1.00  0.00    -0.270 A  
HETATM   15  C   UNL     1      -7.578  19.896  68.318  1.00  0.00    -0.306 A  
HETATM   16  C   UNL     1      -6.597  19.754  69.296  1.00  0.00    -0.387 A  
HETATM   17  C   UNL     1      -6.146  18.481  69.652  1.00  0.00    -0.269 A  
HETATM   18  C   UNL     1      -6.688  17.348  69.045  1.00  0.00    -0.243 A  
HETATM   19  O   UNL     1      -6.217  16.136  69.489  1.00  0.00    -0.159 OA 
HETATM   20  C   UNL     1      -6.702  14.985  68.916  1.00  0.00    -0.099 A  
HETATM   21  C   UNL     1      -6.140  13.790  69.370  1.00  0.00    -0.103 A  
HETATM   22  C   UNL     1      -6.576  12.569  68.857  1.00  0.00    -0.095 A  
HETATM   23  C   UNL     1      -7.569  12.541  67.879  1.00  0.00    -0.133 A  
HETATM   24  C   UNL     1      -8.128  13.733  67.419  1.00  0.00    -0.188 A  
HETATM   25  C   UNL     1      -7.705  14.965  67.945  1.00  0.00    -0.151 A  
ENDBRANCH  10  12
ENDBRANCH   9  10
ENDBRANCH   8   9
ENDBRANCH   7   8
ENDBRANCH   3   7
ENDBRANCH   2   3
TORSDOF 7
ENDMDL
MODEL       76
REMARK 921   NORMALIZED FREE ENERGY PREDICTED BY IDOCK:   -4.62 KCAL/MOL
REMARK 922        TOTAL FREE ENERGY PREDICTED BY IDOCK:   -7.83 KCAL/MOL
REMARK 923 INTER-LIGAND FREE ENERGY PREDICTED BY IDOCK:   -6.74 KCAL/MOL
REMARK 924 INTRA-LIGAND FREE ENERGY PREDICTED BY IDOCK:   -1.09 KCAL/MOL
REMARK 927      BINDING AFFINITY PREDICTED BY RF-SCORE:    0.00 PKD
ROOT
HETATM    1  C   UNL     1     -11.841  12.748  65.762  1.00  0.00    -0.484 C  
HETATM    2  C   UNL     1     -10.507  12.240  65.242  1.00  0.00    -0.282 C  
ENDROOT
BRANCH   2   3
HETATM    3  N   UNL     1      -9.913  11.052  66.044  1.00  0.00    -0.228 N  
HETATM    4  C   UNL     1     -10.711  10.884  67.350  1.00  0.00    -0.257 C  
BRANCH   3   5
HETATM    5  C   UNL     1      -9.956   9.722  65.268  1.00  0.00    -0.181 C  
HETATM    6  C   UNL     1      -9.606   8.508  66.114  1.00  0.00    -0.276 C  
ENDBRANCH   3   5
BRANCH   3   7
HETATM    7  C   UNL     1      -8.459  11.475  66.406  1.00  0.00    -0.138 C  
BRANCH   7   8
HETATM    8  C   UNL     1      -8.340  12.307  67.685  1.00  0.00    -0.166 C  
BRANCH   8   9
HETATM    9  O   UNL     1      -8.169  13.695  67.387  1.00  0.00    -0.167 OA 
BRANCH   9  10
HETATM   10  C   UNL     1      -8.644  14.539  68.355  1.00  0.00    -0.172 C  
HETATM   11  O   UNL     1      -8.021  14.805  69.377  1.00  0.00    -0.147 OA 
BRANCH  10  12
HETATM   12  C   UNL     1      -9.939  15.213  67.917  1.00  0.00    -0.221 C  
HETATM   13  C   UNL     1     -10.981  14.949  68.981  1.00  0.00    -0.251 A  
HETATM   14  C   UNL     1     -11.358  13.630  69.295  1.00  0.00    -0.323 A  
HETATM   15  C   UNL     1     -12.205  13.377  70.373  1.00  0.00    -0.415 A  
HETATM   16  C   UNL     1     -12.698  14.435  71.130  1.00  0.00    -0.422 A  
HETATM   17  C   UNL     1     -12.343  15.747  70.811  1.00  0.00    -0.435 A  
HETATM   18  C   UNL     1     -11.479  16.003  69.747  1.00  0.00    -0.318 A  
HETATM   19  O   UNL     1     -11.148  17.319  69.534  1.00  0.00     0.153 OA 
HETATM   20  C   UNL     1     -10.313  17.633  68.488  1.00  0.00    -0.370 A  
HETATM   21  C   UNL     1     -10.064  18.993  68.290  1.00  0.00    -0.466 A  
HETATM   22  C   UNL     1      -9.219  19.409  67.262  1.00  0.00    -0.378 A  
HETATM   23  C   UNL     1      -8.629  18.466  66.421  1.00  0.00    -0.264 A  
HETATM   24  C   UNL     1      -8.881  17.108  66.613  1.00  0.00    -0.279 A  
HETATM   25  C   UNL     1      -9.718  16.681  67.659  1.00  0.00    -0.250 A  
ENDBRANCH  10  12
ENDBRANCH   9  10
ENDBRANCH   8   9
ENDBRANCH   7   8
ENDBRANCH   3   7
ENDBRANCH   2   3
TORSDOF 7
ENDMDL
MODEL       77
REMARK 921   NORMALIZED FREE ENERGY PREDICTED BY IDOCK:   -4.60 KCAL/MOL
REMARK 922        TOTAL FREE ENERGY PREDICTED BY IDOCK:   -7.80 KCAL/MOL
REMARK 923 INTER-LIGAND FREE ENERGY PREDICTED BY IDOCK:   -6.93 KCAL/MOL
REMARK 924 INTRA-LIGAND FREE ENERGY PREDICTED BY IDOCK:   -0.87 KCAL/MOL
REMARK 927      BINDING AFFINITY PREDICTED BY RF-SCORE:    0.00 PKD
ROOT
HETATM    1  C   UNL     1     -13.346   9.079  72.293  1.00  0.00    -0.523 C  
HETATM    2  C   UNL     1     -12.574   7.972  71.594  1.00  0.00    -0.322 C  
ENDROOT
BRANCH   2   3
HETATM    3  N   UNL     1     -11.082   8.302  71.320  1.00  0.00    -0.244 N  
HETATM    4  C   UNL     1     -10.295   8.184  72.637  1.00  0.00    -0.328 C  
BRANCH   3   5
HETATM    5  C   UNL     1     -10.442   7.364  70.279  1.00  0.00    -0.221 C  
HETATM    6  C   UNL     1     -11.256   6.110  70.002  1.00  0.00    -0.471 C  
ENDBRANCH   3   5
BRANCH   3   7
HETATM    7  C   UNL     1     -11.058   9.790  70.864  1.00  0.00    -0.357 C  
BRANCH   7   8
HETATM    8  C   UNL     1      -9.910  10.146  69.916  1.00  0.00    -0.177 C  
BRANCH   8   9
HETATM    9  O   UNL     1     -10.366  10.952  68.828  1.00  0.00    -0.181 OA 
BRANCH   9  10
HETATM   10  C   UNL     1     -10.175  10.389  67.594  1.00  0.00    -0.201 C  
HETATM   11  O   UNL     1     -10.570   9.267  67.301  1.00  0.00    -0.264 OA 
BRANCH  10  12
HETATM   12  C   UNL     1      -9.571  11.390  66.616  1.00  0.00    -0.211 C  
HETATM   13  C   UNL     1      -8.341  10.756  66.005  1.00  0.00    -0.163 A  
HETATM   14  C   UNL     1      -7.263  10.365  66.821  1.00  0.00    -0.109 A  
HETATM   15  C   UNL     1      -6.196   9.648  66.283  1.00  0.00    -0.068 A  
HETATM   16  C   UNL     1      -6.184   9.334  64.927  1.00  0.00    -0.067 A  
HETATM   17  C   UNL     1      -7.242   9.736  64.109  1.00  0.00    -0.129 A  
HETATM   18  C   UNL     1      -8.322  10.435  64.648  1.00  0.00    -0.155 A  
HETATM   19  O   UNL     1      -9.338  10.750  63.779  1.00  0.00    -0.224 OA 
HETATM   20  C   UNL     1     -10.421  11.453  64.249  1.00  0.00    -0.342 A  
HETATM   21  C   UNL     1     -11.390  11.793  63.303  1.00  0.00    -0.347 A  
HETATM   22  C   UNL     1     -12.531  12.495  63.688  1.00  0.00    -0.570 A  
HETATM   23  C   UNL     1     -12.701  12.870  65.020  1.00  0.00    -0.474 A  
HETATM   24  C   UNL     1     -11.732  12.538  65.966  1.00  0.00    -0.472 A  
HETATM   25  C   UNL     1     -10.588  11.814  65.588  1.00  0.00    -0.314 A  
ENDBRANCH  10  12
ENDBRANCH   9  10
ENDBRANCH   8   9
ENDBRANCH   7   8
ENDBRANCH   3   7
ENDBRANCH   2   3
TORSDOF 7
ENDMDL
MODEL       78
REMARK 921   NORMALIZED FREE ENERGY PREDICTED BY IDOCK:   -4.58 KCAL/MOL
REMARK 922        TOTAL FREE ENERGY PREDICTED BY IDOCK:   -7.77 KCAL/MOL
REMARK 923 INTER-LIGAND FREE ENERGY PREDICTED BY IDOCK:   -7.00 KCAL/MOL
REMARK 924 INTRA-LIGAND FREE ENERGY PREDICTED BY IDOCK:   -0.78 KCAL/MOL
REMARK 927      BINDING AFFINITY PREDICTED BY RF-SCORE:    0.00 PKD
ROOT
HETATM    1  C   UNL     1     -13.908  12.671  72.205  1.00  0.00    -0.263 C  
HETATM    2  C   UNL     1     -12.586  13.419  72.158  1.00  0.00     0.028 C  
ENDROOT
BRANCH   2   3
HETATM    3  N   UNL     1     -12.698  14.896  71.693  1.00  0.00    -0.310 N  
HETATM    4  C   UNL     1     -14.171  15.209  71.376  1.00  0.00    -0.498 C  
BRANCH   3   5
HETATM    5  C   UNL     1     -12.200  15.897  72.752  1.00  0.00    -0.500 C  
HETATM    6  C   UNL     1     -12.521  15.488  74.181  1.00  0.00    -0.805 C  
ENDBRANCH   3   5
BRANCH   3   7
HETATM    7  C   UNL     1     -11.881  14.983  70.371  1.00  0.00    -0.297 C  
BRANCH   7   8
HETATM    8  C   UNL     1     -12.280  13.955  69.309  1.00  0.00    -0.277 C  
BRANCH   8   9
HETATM    9  O   UNL     1     -11.189  13.088  68.990  1.00  0.00    -0.254 OA 
BRANCH   9  10
HETATM   10  C   UNL     1     -11.569  11.853  68.535  1.00  0.00    -0.318 C  
HETATM   11  O   UNL     1     -12.466  11.196  69.049  1.00  0.00    -0.439 OA 
BRANCH  10  12
HETATM   12  C   UNL     1     -10.854  11.498  67.236  1.00  0.00    -0.301 C  
HETATM   13  C   UNL     1     -11.100  12.619  66.251  1.00  0.00    -0.330 A  
HETATM   14  C   UNL     1     -12.411  12.944  65.855  1.00  0.00    -0.378 A  
HETATM   15  C   UNL     1     -12.651  14.068  65.066  1.00  0.00    -0.416 A  
HETATM   16  C   UNL     1     -11.586  14.862  64.649  1.00  0.00    -0.395 A  
HETATM   17  C   UNL     1     -10.282  14.534  65.022  1.00  0.00    -0.398 A  
HETATM   18  C   UNL     1     -10.040  13.422  65.829  1.00  0.00    -0.288 A  
HETATM   19  O   UNL     1      -8.732  13.201  66.184  1.00  0.00     0.198 OA 
HETATM   20  C   UNL     1      -8.431  12.111  66.965  1.00  0.00    -0.183 A  
HETATM   21  C   UNL     1      -7.076  11.909  67.241  1.00  0.00    -0.143 A  
HETATM   22  C   UNL     1      -6.674  10.836  68.035  1.00  0.00    -0.064 A  
HETATM   23  C   UNL     1      -7.625   9.955  68.548  1.00  0.00    -0.080 A  
HETATM   24  C   UNL     1      -8.977  10.150  68.269  1.00  0.00    -0.120 A  
HETATM   25  C   UNL     1      -9.391  11.240  67.483  1.00  0.00    -0.166 A  
ENDBRANCH  10  12
ENDBRANCH   9  10
ENDBRANCH   8   9
ENDBRANCH   7   8
ENDBRANCH   3   7
ENDBRANCH   2   3
TORSDOF 7
ENDMDL
MODEL       79
REMARK 921   NORMALIZED FREE ENERGY PREDICTED BY IDOCK:   -4.56 KCAL/MOL
REMARK 922        TOTAL FREE ENERGY PREDICTED BY IDOCK:   -7.75 KCAL/MOL
REMARK 923 INTER-LIGAND FREE ENERGY PREDICTED BY IDOCK:   -7.23 KCAL/MOL
REMARK 924 INTRA-LIGAND FREE ENERGY PREDICTED BY IDOCK:   -0.52 KCAL/MOL
REMARK 927      BINDING AFFINITY PREDICTED BY RF-SCORE:    0.00 PKD
ROOT
HETATM    1  C   UNL     1     -11.227  16.030  70.495  1.00  0.00    -0.397 C  
HETATM    2  C   UNL     1     -11.513  16.134  69.006  1.00  0.00    -0.323 C  
ENDROOT
BRANCH   2   3
HETATM    3  N   UNL     1     -10.247  16.179  68.109  1.00  0.00    -0.241 N  
HETATM    4  C   UNL     1     -10.662  15.930  66.648  1.00  0.00    -0.270 C  
BRANCH   3   5
HETATM    5  C   UNL     1      -9.504  17.526  68.186  1.00  0.00    -0.291 C  
HETATM    6  C   UNL     1     -10.368  18.723  67.823  1.00  0.00    -0.467 C  
ENDBRANCH   3   5
BRANCH   3   7
HETATM    7  C   UNL     1      -9.358  14.989  68.578  1.00  0.00    -0.196 C  
BRANCH   7   8
HETATM    8  C   UNL     1      -9.351  13.790  67.627  1.00  0.00    -0.213 C  
BRANCH   8   9
HETATM    9  O   UNL     1      -9.690  12.582  68.312  1.00  0.00    -0.219 OA 
BRANCH   9  10
HETATM   10  C   UNL     1     -11.035  12.332  68.375  1.00  0.00    -0.236 C  
HETATM   11  O   UNL     1     -11.833  13.085  68.922  1.00  0.00    -0.302 OA 
BRANCH  10  12
HETATM   12  C   UNL     1     -11.410  11.109  67.546  1.00  0.00    -0.351 C  
HETATM   13  C   UNL     1     -11.259  11.474  66.086  1.00  0.00    -0.265 A  
HETATM   14  C   UNL     1     -12.018  12.522  65.533  1.00  0.00    -0.500 A  
HETATM   15  C   UNL     1     -11.775  12.958  64.232  1.00  0.00    -0.445 A  
HETATM   16  C   UNL     1     -10.789  12.340  63.466  1.00  0.00    -0.508 A  
HETATM   17  C   UNL     1     -10.046  11.287  64.003  1.00  0.00    -0.382 A  
HETATM   18  C   UNL     1     -10.272  10.863  65.313  1.00  0.00    -0.288 A  
HETATM   19  O   UNL     1      -9.464   9.852  65.773  1.00  0.00    -0.185 OA 
HETATM   20  C   UNL     1      -9.652   9.380  67.050  1.00  0.00    -0.158 A  
HETATM   21  C   UNL     1      -8.838   8.313  67.436  1.00  0.00    -0.135 A  
HETATM   22  C   UNL     1      -8.947   7.775  68.718  1.00  0.00    -0.141 A  
HETATM   23  C   UNL     1      -9.879   8.296  69.615  1.00  0.00    -0.184 A  
HETATM   24  C   UNL     1     -10.697   9.358  69.230  1.00  0.00    -0.228 A  
HETATM   25  C   UNL     1     -10.580   9.916  67.945  1.00  0.00    -0.303 A  
ENDBRANCH  10  12
ENDBRANCH   9  10
ENDBRANCH   8   9
ENDBRANCH   7   8
ENDBRANCH   3   7
ENDBRANCH   2   3
TORSDOF 7
ENDMDL
MODEL       80
REMARK 921   NORMALIZED FREE ENERGY PREDICTED BY IDOCK:   -4.54 KCAL/MOL
REMARK 922        TOTAL FREE ENERGY PREDICTED BY IDOCK:   -7.71 KCAL/MOL
REMARK 923 INTER-LIGAND FREE ENERGY PREDICTED BY IDOCK:   -6.94 KCAL/MOL
REMARK 924 INTRA-LIGAND FREE ENERGY PREDICTED BY IDOCK:   -0.77 KCAL/MOL
REMARK 927      BINDING AFFINITY PREDICTED BY RF-SCORE:    0.00 PKD
ROOT
HETATM    1  C   UNL     1      -7.737   6.341  66.720  1.00  0.00    -0.100 C  
HETATM    2  C   UNL     1      -8.342   7.616  66.157  1.00  0.00    -0.134 C  
ENDROOT
BRANCH   2   3
HETATM    3  N   UNL     1      -9.266   8.380  67.143  1.00  0.00    -0.139 N  
HETATM    4  C   UNL     1     -10.641   7.691  67.173  1.00  0.00    -0.340 C  
BRANCH   3   5
HETATM    5  C   UNL     1      -8.707   8.423  68.577  1.00  0.00    -0.136 C  
HETATM    6  C   UNL     1      -7.715   9.552  68.814  1.00  0.00    -0.080 C  
ENDBRANCH   3   5
BRANCH   3   7
HETATM    7  C   UNL     1      -9.441   9.803  66.537  1.00  0.00    -0.177 C  
BRANCH   7   8
HETATM    8  C   UNL     1     -10.724  10.521  66.962  1.00  0.00    -0.250 C  
BRANCH   8   9
HETATM    9  O   UNL     1     -10.455  11.527  67.942  1.00  0.00    -0.176 OA 
BRANCH   9  10
HETATM   10  C   UNL     1     -11.566  11.974  68.606  1.00  0.00    -0.319 C  
HETATM   11  O   UNL     1     -12.641  12.180  68.054  1.00  0.00     0.190 OA 
BRANCH  10  12
HETATM   12  C   UNL     1     -11.332  12.015  70.112  1.00  0.00     0.057 C  
HETATM   13  C   UNL     1     -12.032  13.241  70.656  1.00  0.00    -0.268 A  
HETATM   14  C   UNL     1     -11.670  14.524  70.207  1.00  0.00    -0.356 A  
HETATM   15  C   UNL     1     -12.410  15.641  70.593  1.00  0.00    -0.457 A  
HETATM   16  C   UNL     1     -13.501  15.489  71.444  1.00  0.00    -0.583 A  
HETATM   17  C   UNL     1     -13.853  14.221  71.908  1.00  0.00    -0.545 A  
HETATM   18  C   UNL     1     -13.128  13.099  71.507  1.00  0.00    -0.315 A  
HETATM   19  O   UNL     1     -13.574  11.887  71.976  1.00  0.00    -0.339 OA 
HETATM   20  C   UNL     1     -12.888  10.747  71.627  1.00  0.00    -0.457 A  
HETATM   21  C   UNL     1     -13.356   9.555  72.185  1.00  0.00    -0.545 A  
HETATM   22  C   UNL     1     -12.734   8.346  71.880  1.00  0.00    -0.390 A  
HETATM   23  C   UNL     1     -11.633   8.326  71.025  1.00  0.00    -0.301 A  
HETATM   24  C   UNL     1     -11.159   9.515  70.471  1.00  0.00    -0.342 A  
HETATM   25  C   UNL     1     -11.794  10.736  70.761  1.00  0.00    -0.443 A  
ENDBRANCH  10  12
ENDBRANCH   9  10
ENDBRANCH   8   9
ENDBRANCH   7   8
ENDBRANCH   3   7
ENDBRANCH   2   3
TORSDOF 7
ENDMDL
MODEL       81
REMARK 921   NORMALIZED FREE ENERGY PREDICTED BY IDOCK:   -4.53 KCAL/MOL
REMARK 922        TOTAL FREE ENERGY PREDICTED BY IDOCK:   -7.71 KCAL/MOL
REMARK 923 INTER-LIGAND FREE ENERGY PREDICTED BY IDOCK:   -6.98 KCAL/MOL
REMARK 924 INTRA-LIGAND FREE ENERGY PREDICTED BY IDOCK:   -0.73 KCAL/MOL
REMARK 927      BINDING AFFINITY PREDICTED BY RF-SCORE:    0.00 PKD
ROOT
HETATM    1  C   UNL     1      -8.692  10.670  67.639  1.00  0.00    -0.121 C  
HETATM    2  C   UNL     1      -9.419  11.326  68.802  1.00  0.00    -0.139 C  
ENDROOT
BRANCH   2   3
HETATM    3  N   UNL     1     -10.928  11.586  68.552  1.00  0.00    -0.207 N  
HETATM    4  C   UNL     1     -11.262  11.224  67.094  1.00  0.00    -0.275 C  
BRANCH   3   5
HETATM    5  C   UNL     1     -11.840  10.765  69.483  1.00  0.00    -0.308 C  
HETATM    6  C   UNL     1     -11.088   9.770  70.354  1.00  0.00    -0.367 C  
ENDBRANCH   3   5
BRANCH   3   7
HETATM    7  C   UNL     1     -11.127  13.119  68.737  1.00  0.00    -0.269 C  
BRANCH   7   8
HETATM    8  C   UNL     1     -11.878  13.804  67.592  1.00  0.00    -0.378 C  
BRANCH   8   9
HETATM    9  O   UNL     1     -11.018  14.680  66.859  1.00  0.00    -0.309 OA 
BRANCH   9  10
HETATM   10  C   UNL     1     -10.638  15.800  67.549  1.00  0.00    -0.309 C  
HETATM   11  O   UNL     1     -11.255  16.234  68.515  1.00  0.00    -0.350 OA 
BRANCH  10  12
HETATM   12  C   UNL     1      -9.289  16.318  67.066  1.00  0.00    -0.235 C  
HETATM   13  C   UNL     1      -9.379  17.824  66.966  1.00  0.00    -0.259 A  
HETATM   14  C   UNL     1     -10.316  18.425  66.105  1.00  0.00    -0.431 A  
HETATM   15  C   UNL     1     -10.504  19.806  66.121  1.00  0.00    -0.613 A  
HETATM   16  C   UNL     1      -9.745  20.600  66.978  1.00  0.00    -0.485 A  
HETATM   17  C   UNL     1      -8.801  20.011  67.821  1.00  0.00    -0.379 A  
HETATM   18  C   UNL     1      -8.625  18.627  67.823  1.00  0.00    -0.275 A  
HETATM   19  O   UNL     1      -7.707  18.131  68.716  1.00  0.00    -0.297 OA 
HETATM   20  C   UNL     1      -7.479  16.776  68.751  1.00  0.00    -0.231 A  
HETATM   21  C   UNL     1      -6.492  16.343  69.639  1.00  0.00    -0.201 A  
HETATM   22  C   UNL     1      -6.199  14.985  69.754  1.00  0.00    -0.143 A  
HETATM   23  C   UNL     1      -6.885  14.056  68.974  1.00  0.00    -0.111 A  
HETATM   24  C   UNL     1      -7.868  14.486  68.083  1.00  0.00    -0.135 A  
HETATM   25  C   UNL     1      -8.180  15.852  67.975  1.00  0.00    -0.150 A  
ENDBRANCH  10  12
ENDBRANCH   9  10
ENDBRANCH   8   9
ENDBRANCH   7   8
ENDBRANCH   3   7
ENDBRANCH   2   3
TORSDOF 7
ENDMDL
MODEL       82
REMARK 921   NORMALIZED FREE ENERGY PREDICTED BY IDOCK:   -4.53 KCAL/MOL
REMARK 922        TOTAL FREE ENERGY PREDICTED BY IDOCK:   -7.70 KCAL/MOL
REMARK 923 INTER-LIGAND FREE ENERGY PREDICTED BY IDOCK:   -7.63 KCAL/MOL
REMARK 924 INTRA-LIGAND FREE ENERGY PREDICTED BY IDOCK:   -0.07 KCAL/MOL
REMARK 927      BINDING AFFINITY PREDICTED BY RF-SCORE:    0.00 PKD
ROOT
HETATM    1  C   UNL     1     -14.014  16.171  73.157  1.00  0.00    -0.035 C  
HETATM    2  C   UNL     1     -13.758  15.279  71.954  1.00  0.00    -0.499 C  
ENDROOT
BRANCH   2   3
HETATM    3  N   UNL     1     -12.917  14.010  72.261  1.00  0.00    -0.373 N  
HETATM    4  C   UNL     1     -12.088  14.258  73.534  1.00  0.00     0.427 C  
BRANCH   3   5
HETATM    5  C   UNL     1     -13.783  12.755  72.476  1.00  0.00    -0.232 C  
HETATM    6  C   UNL     1     -13.149  11.476  71.950  1.00  0.00    -0.492 C  
ENDBRANCH   3   5
BRANCH   3   7
HETATM    7  C   UNL     1     -11.941  13.853  71.059  1.00  0.00    -0.180 C  
BRANCH   7   8
HETATM    8  C   UNL     1     -11.767  15.116  70.213  1.00  0.00    -0.300 C  
BRANCH   8   9
HETATM    9  O   UNL     1     -10.460  15.672  70.374  1.00  0.00    -0.315 OA 
BRANCH   9  10
HETATM   10  C   UNL     1      -9.893  16.118  69.209  1.00  0.00    -0.250 C  
HETATM   11  O   UNL     1      -8.698  16.007  68.961  1.00  0.00    -0.219 OA 
BRANCH  10  12
HETATM   12  C   UNL     1     -10.952  16.602  68.226  1.00  0.00    -0.341 C  
HETATM   13  C   UNL     1     -10.559  17.989  67.769  1.00  0.00    -0.409 A  
HETATM   14  C   UNL     1     -10.437  19.037  68.700  1.00  0.00    -0.130 A  
HETATM   15  C   UNL     1      -9.933  20.276  68.305  1.00  0.00    -0.372 A  
HETATM   16  C   UNL     1      -9.568  20.485  66.978  1.00  0.00    -0.540 A  
HETATM   17  C   UNL     1      -9.706  19.455  66.046  1.00  0.00    -0.334 A  
HETATM   18  C   UNL     1     -10.190  18.208  66.441  1.00  0.00    -0.399 A  
HETATM   19  O   UNL     1     -10.249  17.241  65.468  1.00  0.00    -0.602 OA 
HETATM   20  C   UNL     1     -10.733  15.997  65.795  1.00  0.00    -0.301 A  
HETATM   21  C   UNL     1     -10.823  15.078  64.747  1.00  0.00    -0.375 A  
HETATM   22  C   UNL     1     -11.291  13.787  64.985  1.00  0.00    -0.334 A  
HETATM   23  C   UNL     1     -11.681  13.413  66.270  1.00  0.00    -0.405 A  
HETATM   24  C   UNL     1     -11.599  14.330  67.317  1.00  0.00    -0.401 A  
HETATM   25  C   UNL     1     -11.111  15.628  67.088  1.00  0.00    -0.218 A  
ENDBRANCH  10  12
ENDBRANCH   9  10
ENDBRANCH   8   9
ENDBRANCH   7   8
ENDBRANCH   3   7
ENDBRANCH   2   3
TORSDOF 7
ENDMDL
MODEL       83
REMARK 921   NORMALIZED FREE ENERGY PREDICTED BY IDOCK:   -4.49 KCAL/MOL
REMARK 922        TOTAL FREE ENERGY PREDICTED BY IDOCK:   -7.65 KCAL/MOL
REMARK 923 INTER-LIGAND FREE ENERGY PREDICTED BY IDOCK:   -6.48 KCAL/MOL
REMARK 924 INTRA-LIGAND FREE ENERGY PREDICTED BY IDOCK:   -1.17 KCAL/MOL
REMARK 927      BINDING AFFINITY PREDICTED BY RF-SCORE:    0.00 PKD
ROOT
HETATM    1  C   UNL     1      -8.334   5.466  64.395  1.00  0.00    -0.129 C  
HETATM    2  C   UNL     1      -8.617   6.196  65.697  1.00  0.00    -0.145 C  
ENDROOT
BRANCH   2   3
HETATM    3  N   UNL     1      -9.711   5.539  66.580  1.00  0.00    -0.154 N  
HETATM    4  C   UNL     1     -10.408   4.432  65.768  1.00  0.00    -0.217 C  
BRANCH   3   5
HETATM    5  C   UNL     1      -9.147   4.919  67.872  1.00  0.00    -0.113 C  
HETATM    6  C   UNL     1      -9.851   5.390  69.135  1.00  0.00    -0.242 C  
ENDBRANCH   3   5
BRANCH   3   7
HETATM    7  C   UNL     1     -10.747   6.663  66.870  1.00  0.00    -0.331 C  
BRANCH   7   8
HETATM    8  C   UNL     1     -10.235   8.082  66.610  1.00  0.00    -0.245 C  
BRANCH   8   9
HETATM    9  O   UNL     1     -10.432   8.922  67.749  1.00  0.00    -0.237 OA 
BRANCH   9  10
HETATM   10  C   UNL     1      -9.300   9.136  68.490  1.00  0.00    -0.135 C  
HETATM   11  O   UNL     1      -8.212   8.648  68.208  1.00  0.00    -0.120 OA 
BRANCH  10  12
HETATM   12  C   UNL     1      -9.541  10.171  69.583  1.00  0.00    -0.237 C  
HETATM   13  C   UNL     1      -9.977  11.456  68.915  1.00  0.00    -0.146 A  
HETATM   14  C   UNL     1      -9.129  12.103  67.997  1.00  0.00    -0.190 A  
HETATM   15  C   UNL     1      -9.585  13.202  67.271  1.00  0.00    -0.233 A  
HETATM   16  C   UNL     1     -10.878  13.677  67.470  1.00  0.00    -0.275 A  
HETATM   17  C   UNL     1     -11.717  13.051  68.394  1.00  0.00    -0.386 A  
HETATM   18  C   UNL     1     -11.272  11.938  69.107  1.00  0.00    -0.255 A  
HETATM   19  O   UNL     1     -12.179  11.359  69.960  1.00  0.00    -0.309 OA 
HETATM   20  C   UNL     1     -11.791  10.269  70.702  1.00  0.00    -0.347 A  
HETATM   21  C   UNL     1     -12.740   9.764  71.593  1.00  0.00    -0.517 A  
HETATM   22  C   UNL     1     -12.443   8.652  72.380  1.00  0.00    -0.428 A  
HETATM   23  C   UNL     1     -11.191   8.047  72.285  1.00  0.00    -0.402 A  
HETATM   24  C   UNL     1     -10.238   8.553  71.400  1.00  0.00    -0.303 A  
HETATM   25  C   UNL     1     -10.538   9.663  70.592  1.00  0.00    -0.386 A  
ENDBRANCH  10  12
ENDBRANCH   9  10
ENDBRANCH   8   9
ENDBRANCH   7   8
ENDBRANCH   3   7
ENDBRANCH   2   3
TORSDOF 7
ENDMDL
MODEL       84
REMARK 921   NORMALIZED FREE ENERGY PREDICTED BY IDOCK:   -4.48 KCAL/MOL
REMARK 922        TOTAL FREE ENERGY PREDICTED BY IDOCK:   -7.63 KCAL/MOL
REMARK 923 INTER-LIGAND FREE ENERGY PREDICTED BY IDOCK:   -6.55 KCAL/MOL
REMARK 924 INTRA-LIGAND FREE ENERGY PREDICTED BY IDOCK:   -1.07 KCAL/MOL
REMARK 927      BINDING AFFINITY PREDICTED BY RF-SCORE:    0.00 PKD
ROOT
HETATM    1  C   UNL     1     -12.301   7.050  71.592  1.00  0.00    -0.407 C  
HETATM    2  C   UNL     1     -11.569   8.223  70.962  1.00  0.00    -0.275 C  
ENDROOT
BRANCH   2   3
HETATM    3  N   UNL     1     -10.482   7.824  69.929  1.00  0.00    -0.227 N  
HETATM    4  C   UNL     1      -9.129   7.699  70.652  1.00  0.00    -0.158 C  
BRANCH   3   5
HETATM    5  C   UNL     1     -10.787   6.489  69.223  1.00  0.00    -0.307 C  
HETATM    6  C   UNL     1     -10.853   6.599  67.708  1.00  0.00    -0.372 C  
ENDBRANCH   3   5
BRANCH   3   7
HETATM    7  C   UNL     1     -10.397   9.013  68.928  1.00  0.00    -0.215 C  
BRANCH   7   8
HETATM    8  C   UNL     1     -11.409  10.132  69.185  1.00  0.00    -0.143 C  
BRANCH   8   9
HETATM    9  O   UNL     1     -11.601  10.936  68.018  1.00  0.00    -0.464 OA 
BRANCH   9  10
HETATM   10  C   UNL     1     -11.240  12.248  68.175  1.00  0.00    -0.269 C  
HETATM   11  O   UNL     1     -11.528  12.908  69.167  1.00  0.00    -0.274 OA 
BRANCH  10  12
HETATM   12  C   UNL     1     -10.313  12.706  67.055  1.00  0.00    -0.241 C  
HETATM   13  C   UNL     1      -9.015  11.940  67.187  1.00  0.00    -0.178 A  
HETATM   14  C   UNL     1      -8.239  12.052  68.355  1.00  0.00    -0.151 A  
HETATM   15  C   UNL     1      -7.123  11.238  68.541  1.00  0.00    -0.083 A  
HETATM   16  C   UNL     1      -6.760  10.323  67.556  1.00  0.00    -0.071 A  
HETATM   17  C   UNL     1      -7.516  10.221  66.386  1.00  0.00    -0.114 A  
HETATM   18  C   UNL     1      -8.645  11.020  66.206  1.00  0.00    -0.167 A  
HETATM   19  O   UNL     1      -9.354  10.820  65.046  1.00  0.00    -0.200 OA 
HETATM   20  C   UNL     1     -10.467  11.590  64.807  1.00  0.00    -0.299 A  
HETATM   21  C   UNL     1     -11.107  11.379  63.583  1.00  0.00    -0.411 A  
HETATM   22  C   UNL     1     -12.252  12.104  63.257  1.00  0.00    -0.533 A  
HETATM   23  C   UNL     1     -12.755  13.050  64.148  1.00  0.00    -0.203 A  
HETATM   24  C   UNL     1     -12.114  13.268  65.368  1.00  0.00    -0.464 A  
HETATM   25  C   UNL     1     -10.970  12.527  65.711  1.00  0.00    -0.327 A  
ENDBRANCH  10  12
ENDBRANCH   9  10
ENDBRANCH   8   9
ENDBRANCH   7   8
ENDBRANCH   3   7
ENDBRANCH   2   3
TORSDOF 7
ENDMDL
MODEL       85
REMARK 921   NORMALIZED FREE ENERGY PREDICTED BY IDOCK:   -4.48 KCAL/MOL
REMARK 922        TOTAL FREE ENERGY PREDICTED BY IDOCK:   -7.63 KCAL/MOL
REMARK 923 INTER-LIGAND FREE ENERGY PREDICTED BY IDOCK:   -6.79 KCAL/MOL
REMARK 924 INTRA-LIGAND FREE ENERGY PREDICTED BY IDOCK:   -0.84 KCAL/MOL
REMARK 927      BINDING AFFINITY PREDICTED BY RF-SCORE:    0.00 PKD
ROOT
HETATM    1  C   UNL     1     -10.799   6.575  69.507  1.00  0.00    -0.360 C  
HETATM    2  C   UNL     1     -11.775   6.861  70.637  1.00  0.00    -0.367 C  
ENDROOT
BRANCH   2   3
HETATM    3  N   UNL     1     -11.317   7.974  71.617  1.00  0.00    -0.253 N  
HETATM    4  C   UNL     1     -12.560   8.606  72.269  1.00  0.00    -0.395 C  
BRANCH   3   5
HETATM    5  C   UNL     1     -10.391   7.450  72.730  1.00  0.00    -0.258 C  
HETATM    6  C   UNL     1     -10.839   6.123  73.324  1.00  0.00    -0.268 C  
ENDBRANCH   3   5
BRANCH   3   7
HETATM    7  C   UNL     1     -10.623   9.051  70.733  1.00  0.00    -0.240 C  
BRANCH   7   8
HETATM    8  C   UNL     1     -11.535  10.202  70.300  1.00  0.00    -0.306 C  
BRANCH   8   9
HETATM    9  O   UNL     1     -10.779  11.295  69.775  1.00  0.00    -0.116 OA 
BRANCH   9  10
HETATM   10  C   UNL     1     -11.111  11.643  68.493  1.00  0.00    -0.235 C  
HETATM   11  O   UNL     1     -12.262  11.635  68.073  1.00  0.00    -0.551 OA 
BRANCH  10  12
HETATM   12  C   UNL     1      -9.905  12.186  67.736  1.00  0.00    -0.199 C  
HETATM   13  C   UNL     1      -9.502  11.154  66.706  1.00  0.00    -0.203 A  
HETATM   14  C   UNL     1      -9.113   9.862  67.108  1.00  0.00    -0.154 A  
HETATM   15  C   UNL     1      -8.885   8.867  66.159  1.00  0.00    -0.193 A  
HETATM   16  C   UNL     1      -9.021   9.158  64.804  1.00  0.00    -0.177 A  
HETATM   17  C   UNL     1      -9.386  10.442  64.398  1.00  0.00    -0.321 A  
HETATM   18  C   UNL     1      -9.637  11.435  65.347  1.00  0.00    -0.228 A  
HETATM   19  O   UNL     1     -10.035  12.655  64.859  1.00  0.00    -0.237 OA 
HETATM   20  C   UNL     1     -10.279  13.677  65.745  1.00  0.00    -0.308 A  
HETATM   21  C   UNL     1     -10.623  14.908  65.183  1.00  0.00    -0.450 A  
HETATM   22  C   UNL     1     -10.902  16.001  66.003  1.00  0.00    -0.190 A  
HETATM   23  C   UNL     1     -10.827  15.869  67.388  1.00  0.00    -0.291 A  
HETATM   24  C   UNL     1     -10.478  14.642  67.953  1.00  0.00    -0.242 A  
HETATM   25  C   UNL     1     -10.213  13.532  67.133  1.00  0.00    -0.247 A  
ENDBRANCH  10  12
ENDBRANCH   9  10
ENDBRANCH   8   9
ENDBRANCH   7   8
ENDBRANCH   3   7
ENDBRANCH   2   3
TORSDOF 7
ENDMDL
MODEL       86
REMARK 921   NORMALIZED FREE ENERGY PREDICTED BY IDOCK:   -4.47 KCAL/MOL
REMARK 922        TOTAL FREE ENERGY PREDICTED BY IDOCK:   -7.62 KCAL/MOL
REMARK 923 INTER-LIGAND FREE ENERGY PREDICTED BY IDOCK:   -6.76 KCAL/MOL
REMARK 924 INTRA-LIGAND FREE ENERGY PREDICTED BY IDOCK:   -0.85 KCAL/MOL
REMARK 927      BINDING AFFINITY PREDICTED BY RF-SCORE:    0.00 PKD
ROOT
HETATM    1  C   UNL     1      -9.045  10.025  62.985  1.00  0.00    -0.298 C  
HETATM    2  C   UNL     1      -8.917   9.308  64.319  1.00  0.00    -0.096 C  
ENDROOT
BRANCH   2   3
HETATM    3  N   UNL     1      -9.213  10.195  65.558  1.00  0.00    -0.176 N  
HETATM    4  C   UNL     1     -10.250   9.483  66.445  1.00  0.00    -0.232 C  
BRANCH   3   5
HETATM    5  C   UNL     1      -7.959  10.482  66.404  1.00  0.00    -0.137 C  
HETATM    6  C   UNL     1      -6.654  10.140  65.700  1.00  0.00    -0.112 C  
ENDBRANCH   3   5
BRANCH   3   7
HETATM    7  C   UNL     1      -9.856  11.497  64.998  1.00  0.00    -0.257 C  
BRANCH   7   8
HETATM    8  C   UNL     1      -9.568  12.753  65.824  1.00  0.00    -0.092 C  
BRANCH   8   9
HETATM    9  O   UNL     1     -10.657  13.060  66.698  1.00  0.00    -0.263 OA 
BRANCH   9  10
HETATM   10  C   UNL     1     -10.311  13.831  67.776  1.00  0.00    -0.241 C  
HETATM   11  O   UNL     1      -9.243  13.717  68.366  1.00  0.00    -0.195 OA 
BRANCH  10  12
HETATM   12  C   UNL     1     -11.337  14.930  68.024  1.00  0.00    -0.337 C  
HETATM   13  C   UNL     1     -11.799  14.817  69.460  1.00  0.00    -0.366 A  
HETATM   14  C   UNL     1     -12.424  13.641  69.915  1.00  0.00    -0.226 A  
HETATM   15  C   UNL     1     -12.715  13.476  71.268  1.00  0.00    -0.432 A  
HETATM   16  C   UNL     1     -12.406  14.489  72.173  1.00  0.00    -0.341 A  
HETATM   17  C   UNL     1     -11.803  15.666  71.724  1.00  0.00    -0.524 A  
HETATM   18  C   UNL     1     -11.491  15.825  70.373  1.00  0.00    -0.365 A  
HETATM   19  O   UNL     1     -10.859  16.995  70.029  1.00  0.00    -0.130 OA 
HETATM   20  C   UNL     1     -10.542  17.215  68.710  1.00  0.00    -0.336 A  
HETATM   21  C   UNL     1      -9.954  18.448  68.418  1.00  0.00    -0.406 A  
HETATM   22  C   UNL     1      -9.586  18.757  67.110  1.00  0.00    -0.328 A  
HETATM   23  C   UNL     1      -9.813  17.838  66.086  1.00  0.00    -0.254 A  
HETATM   24  C   UNL     1     -10.405  16.609  66.374  1.00  0.00    -0.310 A  
HETATM   25  C   UNL     1     -10.762  16.284  67.694  1.00  0.00    -0.311 A  
ENDBRANCH  10  12
ENDBRANCH   9  10
ENDBRANCH   8   9
ENDBRANCH   7   8
ENDBRANCH   3   7
ENDBRANCH   2   3
TORSDOF 7
ENDMDL
MODEL       87
REMARK 921   NORMALIZED FREE ENERGY PREDICTED BY IDOCK:   -4.46 KCAL/MOL
REMARK 922        TOTAL FREE ENERGY PREDICTED BY IDOCK:   -7.61 KCAL/MOL
REMARK 923 INTER-LIGAND FREE ENERGY PREDICTED BY IDOCK:   -6.58 KCAL/MOL
REMARK 924 INTRA-LIGAND FREE ENERGY PREDICTED BY IDOCK:   -1.03 KCAL/MOL
REMARK 927      BINDING AFFINITY PREDICTED BY RF-SCORE:    0.00 PKD
ROOT
HETATM    1  C   UNL     1      -8.974   8.997  65.836  1.00  0.00    -0.233 C  
HETATM    2  C   UNL     1      -9.421   8.914  67.286  1.00  0.00    -0.154 C  
ENDROOT
BRANCH   2   3
HETATM    3  N   UNL     1      -9.787  10.280  67.926  1.00  0.00    -0.155 N  
HETATM    4  C   UNL     1     -11.133  10.755  67.350  1.00  0.00    -0.296 C  
BRANCH   3   5
HETATM    5  C   UNL     1      -9.906  10.211  69.460  1.00  0.00    -0.232 C  
HETATM    6  C   UNL     1     -11.235  10.724  69.995  1.00  0.00    -0.366 C  
ENDBRANCH   3   5
BRANCH   3   7
HETATM    7  C   UNL     1      -8.678  11.270  67.466  1.00  0.00    -0.138 C  
BRANCH   7   8
HETATM    8  C   UNL     1      -8.413  12.423  68.437  1.00  0.00    -0.131 C  
BRANCH   8   9
HETATM    9  O   UNL     1      -8.192  13.650  67.738  1.00  0.00    -0.150 OA 
BRANCH   9  10
HETATM   10  C   UNL     1      -9.338  14.325  67.412  1.00  0.00    -0.203 C  
HETATM   11  O   UNL     1     -10.304  14.408  68.162  1.00  0.00    -0.223 OA 
BRANCH  10  12
HETATM   12  C   UNL     1      -9.184  15.076  66.094  1.00  0.00    -0.294 C  
HETATM   13  C   UNL     1     -10.259  14.583  65.152  1.00  0.00    -0.420 A  
HETATM   14  C   UNL     1     -10.311  13.226  64.780  1.00  0.00    -0.381 A  
HETATM   15  C   UNL     1     -11.384  12.741  64.033  1.00  0.00    -0.468 A  
HETATM   16  C   UNL     1     -12.398  13.606  63.633  1.00  0.00    -0.328 A  
HETATM   17  C   UNL     1     -12.341  14.957  63.982  1.00  0.00    -0.089 A  
HETATM   18  C   UNL     1     -11.281  15.442  64.748  1.00  0.00    -0.395 A  
HETATM   19  O   UNL     1     -11.331  16.773  65.083  1.00  0.00    -0.040 OA 
HETATM   20  C   UNL     1     -10.304  17.311  65.821  1.00  0.00    -0.234 A  
HETATM   21  C   UNL     1     -10.385  18.681  66.077  1.00  0.00    -0.436 A  
HETATM   22  C   UNL     1      -9.396  19.314  66.830  1.00  0.00    -0.379 A  
HETATM   23  C   UNL     1      -8.318  18.580  67.320  1.00  0.00    -0.259 A  
HETATM   24  C   UNL     1      -8.231  17.212  67.061  1.00  0.00    -0.234 A  
HETATM   25  C   UNL     1      -9.233  16.565  66.318  1.00  0.00    -0.345 A  
ENDBRANCH  10  12
ENDBRANCH   9  10
ENDBRANCH   8   9
ENDBRANCH   7   8
ENDBRANCH   3   7
ENDBRANCH   2   3
TORSDOF 7
ENDMDL
MODEL       88
REMARK 921   NORMALIZED FREE ENERGY PREDICTED BY IDOCK:   -4.46 KCAL/MOL
REMARK 922        TOTAL FREE ENERGY PREDICTED BY IDOCK:   -7.60 KCAL/MOL
REMARK 923 INTER-LIGAND FREE ENERGY PREDICTED BY IDOCK:   -6.82 KCAL/MOL
REMARK 924 INTRA-LIGAND FREE ENERGY PREDICTED BY IDOCK:   -0.78 KCAL/MOL
REMARK 927      BINDING AFFINITY PREDICTED BY RF-SCORE:    0.00 PKD
ROOT
HETATM    1  C   UNL     1      -9.546   3.613  67.485  1.00  0.00    -0.194 C  
HETATM    2  C   UNL     1      -9.467   5.099  67.177  1.00  0.00    -0.131 C  
ENDROOT
BRANCH   2   3
HETATM    3  N   UNL     1      -9.618   6.022  68.415  1.00  0.00    -0.118 N  
HETATM    4  C   UNL     1     -11.116   6.242  68.693  1.00  0.00    -0.325 C  
BRANCH   3   5
HETATM    5  C   UNL     1      -8.965   5.438  69.682  1.00  0.00    -0.109 C  
HETATM    6  C   UNL     1      -9.955   5.120  70.791  1.00  0.00    -0.285 C  
ENDBRANCH   3   5
BRANCH   3   7
HETATM    7  C   UNL     1      -8.989   7.385  68.003  1.00  0.00    -0.132 C  
BRANCH   7   8
HETATM    8  C   UNL     1      -9.841   8.212  67.038  1.00  0.00    -0.232 C  
BRANCH   8   9
HETATM    9  O   UNL     1      -9.233   9.475  66.760  1.00  0.00    -0.142 OA 
BRANCH   9  10
HETATM   10  C   UNL     1      -9.590  10.473  67.627  1.00  0.00    -0.157 C  
HETATM   11  O   UNL     1      -8.779  11.098  68.301  1.00  0.00    -0.138 OA 
BRANCH  10  12
HETATM   12  C   UNL     1     -11.074  10.801  67.514  1.00  0.00    -0.374 C  
HETATM   13  C   UNL     1     -11.600  11.052  68.909  1.00  0.00    -0.383 A  
HETATM   14  C   UNL     1     -11.536  10.041  69.886  1.00  0.00    -0.237 A  
HETATM   15  C   UNL     1     -11.882  10.316  71.208  1.00  0.00    -0.425 A  
HETATM   16  C   UNL     1     -12.315  11.591  71.562  1.00  0.00    -0.136 A  
HETATM   17  C   UNL     1     -12.399  12.593  70.593  1.00  0.00    -0.375 A  
HETATM   18  C   UNL     1     -12.033  12.328  69.273  1.00  0.00    -0.253 A  
HETATM   19  O   UNL     1     -12.104  13.384  68.398  1.00  0.00    -0.343 OA 
HETATM   20  C   UNL     1     -11.773  13.178  67.080  1.00  0.00    -0.377 A  
HETATM   21  C   UNL     1     -11.923  14.276  66.231  1.00  0.00    -0.428 A  
HETATM   22  C   UNL     1     -11.599  14.168  64.879  1.00  0.00    -0.379 A  
HETATM   23  C   UNL     1     -11.133  12.957  64.370  1.00  0.00    -0.395 A  
HETATM   24  C   UNL     1     -10.988  11.856  65.214  1.00  0.00    -0.354 A  
HETATM   25  C   UNL     1     -11.296  11.964  66.581  1.00  0.00    -0.400 A  
ENDBRANCH  10  12
ENDBRANCH   9  10
ENDBRANCH   8   9
ENDBRANCH   7   8
ENDBRANCH   3   7
ENDBRANCH   2   3
TORSDOF 7
ENDMDL
MODEL       89
REMARK 921   NORMALIZED FREE ENERGY PREDICTED BY IDOCK:   -4.46 KCAL/MOL
REMARK 922        TOTAL FREE ENERGY PREDICTED BY IDOCK:   -7.60 KCAL/MOL
REMARK 923 INTER-LIGAND FREE ENERGY PREDICTED BY IDOCK:   -6.71 KCAL/MOL
REMARK 924 INTRA-LIGAND FREE ENERGY PREDICTED BY IDOCK:   -0.89 KCAL/MOL
REMARK 927      BINDING AFFINITY PREDICTED BY RF-SCORE:    0.00 PKD
ROOT
HETATM    1  C   UNL     1      -5.895  13.846  70.783  1.00  0.00    -0.197 C  
HETATM    2  C   UNL     1      -5.780  13.666  69.279  1.00  0.00    -0.084 C  
ENDROOT
BRANCH   2   3
HETATM    3  N   UNL     1      -6.582  12.466  68.710  1.00  0.00    -0.082 N  
HETATM    4  C   UNL     1      -5.891  11.967  67.428  1.00  0.00    -0.115 C  
BRANCH   3   5
HETATM    5  C   UNL     1      -6.687  11.291  69.700  1.00  0.00    -0.122 C  
HETATM    6  C   UNL     1      -7.123   9.984  69.056  1.00  0.00    -0.069 C  
ENDBRANCH   3   5
BRANCH   3   7
HETATM    7  C   UNL     1      -7.978  13.038  68.326  1.00  0.00    -0.151 C  
BRANCH   7   8
HETATM    8  C   UNL     1      -7.959  14.031  67.161  1.00  0.00    -0.059 C  
BRANCH   8   9
HETATM    9  O   UNL     1      -8.799  15.157  67.425  1.00  0.00    -0.171 OA 
BRANCH   9  10
HETATM   10  C   UNL     1      -9.845  15.293  66.551  1.00  0.00    -0.266 C  
HETATM   11  O   UNL     1      -9.913  14.688  65.488  1.00  0.00    -0.344 OA 
BRANCH  10  12
HETATM   12  C   UNL     1     -10.958  16.146  67.149  1.00  0.00    -0.144 C  
HETATM   13  C   UNL     1     -11.330  15.549  68.488  1.00  0.00    -0.356 A  
HETATM   14  C   UNL     1     -11.815  14.230  68.568  1.00  0.00    -0.382 A  
HETATM   15  C   UNL     1     -12.017  13.629  69.809  1.00  0.00    -0.404 A  
HETATM   16  C   UNL     1     -11.760  14.343  70.977  1.00  0.00    -0.256 A  
HETATM   17  C   UNL     1     -11.298  15.658  70.903  1.00  0.00    -0.417 A  
HETATM   18  C   UNL     1     -11.074  16.256  69.662  1.00  0.00    -0.333 A  
HETATM   19  O   UNL     1     -10.576  17.536  69.685  1.00  0.00    -0.080 OA 
HETATM   20  C   UNL     1     -10.351  18.183  68.493  1.00  0.00    -0.336 A  
HETATM   21  C   UNL     1      -9.902  19.502  68.586  1.00  0.00    -0.530 A  
HETATM   22  C   UNL     1      -9.634  20.235  67.431  1.00  0.00    -0.569 A  
HETATM   23  C   UNL     1      -9.825  19.654  66.178  1.00  0.00    -0.523 A  
HETATM   24  C   UNL     1     -10.280  18.339  66.082  1.00  0.00    -0.393 A  
HETATM   25  C   UNL     1     -10.534  17.589  67.243  1.00  0.00    -0.327 A  
ENDBRANCH  10  12
ENDBRANCH   9  10
ENDBRANCH   8   9
ENDBRANCH   7   8
ENDBRANCH   3   7
ENDBRANCH   2   3
TORSDOF 7
ENDMDL
MODEL       90
REMARK 921   NORMALIZED FREE ENERGY PREDICTED BY IDOCK:   -4.44 KCAL/MOL
REMARK 922        TOTAL FREE ENERGY PREDICTED BY IDOCK:   -7.58 KCAL/MOL
REMARK 923 INTER-LIGAND FREE ENERGY PREDICTED BY IDOCK:   -6.65 KCAL/MOL
REMARK 924 INTRA-LIGAND FREE ENERGY PREDICTED BY IDOCK:   -0.93 KCAL/MOL
REMARK 927      BINDING AFFINITY PREDICTED BY RF-SCORE:    0.00 PKD
ROOT
HETATM    1  C   UNL     1      -7.576  15.863  67.512  1.00  0.00    -0.186 C  
HETATM    2  C   UNL     1      -8.919  15.461  68.098  1.00  0.00    -0.176 C  
ENDROOT
BRANCH   2   3
HETATM    3  N   UNL     1     -10.133  15.730  67.170  1.00  0.00    -0.247 N  
HETATM    4  C   UNL     1     -10.289  17.249  66.980  1.00  0.00    -0.318 C  
BRANCH   3   5
HETATM    5  C   UNL     1      -9.985  15.074  65.784  1.00  0.00    -0.346 C  
HETATM    6  C   UNL     1     -10.865  15.701  64.713  1.00  0.00    -0.377 C  
ENDBRANCH   3   5
BRANCH   3   7
HETATM    7  C   UNL     1     -11.377  15.200  67.941  1.00  0.00    -0.338 C  
BRANCH   7   8
HETATM    8  C   UNL     1     -11.826  13.795  67.534  1.00  0.00    -0.387 C  
BRANCH   8   9
HETATM    9  O   UNL     1     -11.237  12.798  68.372  1.00  0.00    -0.243 OA 
BRANCH   9  10
HETATM   10  C   UNL     1     -10.293  12.027  67.747  1.00  0.00    -0.197 C  
HETATM   11  O   UNL     1      -9.091  12.259  67.809  1.00  0.00    -0.176 OA 
BRANCH  10  12
HETATM   12  C   UNL     1     -10.916  10.783  67.126  1.00  0.00    -0.324 C  
HETATM   13  C   UNL     1     -10.599  10.796  65.647  1.00  0.00    -0.199 A  
HETATM   14  C   UNL     1     -11.042  11.856  64.834  1.00  0.00    -0.363 A  
HETATM   15  C   UNL     1     -10.627  11.948  63.506  1.00  0.00    -0.507 A  
HETATM   16  C   UNL     1      -9.787  10.974  62.974  1.00  0.00    -0.370 A  
HETATM   17  C   UNL     1      -9.360   9.909  63.770  1.00  0.00    -0.250 A  
HETATM   18  C   UNL     1      -9.756   9.826  65.105  1.00  0.00    -0.268 A  
HETATM   19  O   UNL     1      -9.251   8.771  65.824  1.00  0.00    -0.214 OA 
HETATM   20  C   UNL     1      -9.620   8.628  67.141  1.00  0.00    -0.173 A  
HETATM   21  C   UNL     1      -9.120   7.502  67.799  1.00  0.00    -0.130 A  
HETATM   22  C   UNL     1      -9.429   7.278  69.140  1.00  0.00    -0.148 A  
HETATM   23  C   UNL     1     -10.248   8.174  69.824  1.00  0.00    -0.203 A  
HETATM   24  C   UNL     1     -10.754   9.296  69.168  1.00  0.00    -0.202 A  
HETATM   25  C   UNL     1     -10.432   9.537  67.821  1.00  0.00    -0.309 A  
ENDBRANCH  10  12
ENDBRANCH   9  10
ENDBRANCH   8   9
ENDBRANCH   7   8
ENDBRANCH   3   7
ENDBRANCH   2   3
TORSDOF 7
ENDMDL
MODEL       91
REMARK 921   NORMALIZED FREE ENERGY PREDICTED BY IDOCK:   -4.42 KCAL/MOL
REMARK 922        TOTAL FREE ENERGY PREDICTED BY IDOCK:   -7.56 KCAL/MOL
REMARK 923 INTER-LIGAND FREE ENERGY PREDICTED BY IDOCK:   -6.88 KCAL/MOL
REMARK 924 INTRA-LIGAND FREE ENERGY PREDICTED BY IDOCK:   -0.67 KCAL/MOL
REMARK 927      BINDING AFFINITY PREDICTED BY RF-SCORE:    0.00 PKD
ROOT
HETATM    1  C   UNL     1     -10.586   6.064  73.549  1.00  0.00    -0.284 C  
HETATM    2  C   UNL     1     -10.036   6.491  72.198  1.00  0.00    -0.179 C  
ENDROOT
BRANCH   2   3
HETATM    3  N   UNL     1      -8.937   7.584  72.266  1.00  0.00    -0.130 N  
HETATM    4  C   UNL     1      -8.624   7.886  73.742  1.00  0.00    -0.265 C  
BRANCH   3   5
HETATM    5  C   UNL     1      -7.631   7.166  71.563  1.00  0.00    -0.088 C  
HETATM    6  C   UNL     1      -6.374   7.550  72.328  1.00  0.00    -0.043 C  
ENDBRANCH   3   5
BRANCH   3   7
HETATM    7  C   UNL     1      -9.568   8.855  71.626  1.00  0.00    -0.293 C  
BRANCH   7   8
HETATM    8  C   UNL     1      -8.964   9.254  70.278  1.00  0.00    -0.229 C  
BRANCH   8   9
HETATM    9  O   UNL     1      -9.983   9.544  69.318  1.00  0.00    -0.172 OA 
BRANCH   9  10
HETATM   10  C   UNL     1      -9.864  10.774  68.727  1.00  0.00    -0.194 C  
HETATM   11  O   UNL     1      -8.805  11.389  68.667  1.00  0.00    -0.164 OA 
BRANCH  10  12
HETATM   12  C   UNL     1     -11.155  11.181  68.029  1.00  0.00    -0.334 C  
HETATM   13  C   UNL     1     -11.749  12.343  68.794  1.00  0.00    -0.379 A  
HETATM   14  C   UNL     1     -12.112  12.192  70.146  1.00  0.00    -0.368 A  
HETATM   15  C   UNL     1     -12.519  13.296  70.893  1.00  0.00    -0.424 A  
HETATM   16  C   UNL     1     -12.589  14.551  70.295  1.00  0.00    -0.378 A  
HETATM   17  C   UNL     1     -12.250  14.703  68.949  1.00  0.00    -0.174 A  
HETATM   18  C   UNL     1     -11.821  13.604  68.204  1.00  0.00    -0.372 A  
HETATM   19  O   UNL     1     -11.464  13.855  66.901  1.00  0.00    -0.321 OA 
HETATM   20  C   UNL     1     -11.050  12.808  66.113  1.00  0.00    -0.290 A  
HETATM   21  C   UNL     1     -10.759  13.119  64.783  1.00  0.00    -0.381 A  
HETATM   22  C   UNL     1     -10.319  12.125  63.910  1.00  0.00    -0.441 A  
HETATM   23  C   UNL     1     -10.179  10.813  64.362  1.00  0.00    -0.432 A  
HETATM   24  C   UNL     1     -10.475  10.498  65.688  1.00  0.00    -0.213 A  
HETATM   25  C   UNL     1     -10.902  11.499  66.577  1.00  0.00    -0.335 A  
ENDBRANCH  10  12
ENDBRANCH   9  10
ENDBRANCH   8   9
ENDBRANCH   7   8
ENDBRANCH   3   7
ENDBRANCH   2   3
TORSDOF 7
ENDMDL
MODEL       92
REMARK 921   NORMALIZED FREE ENERGY PREDICTED BY IDOCK:   -4.41 KCAL/MOL
REMARK 922        TOTAL FREE ENERGY PREDICTED BY IDOCK:   -7.54 KCAL/MOL
REMARK 923 INTER-LIGAND FREE ENERGY PREDICTED BY IDOCK:   -7.42 KCAL/MOL
REMARK 924 INTRA-LIGAND FREE ENERGY PREDICTED BY IDOCK:   -0.12 KCAL/MOL
REMARK 927      BINDING AFFINITY PREDICTED BY RF-SCORE:    0.00 PKD
ROOT
HETATM    1  C   UNL     1     -13.628  15.804  72.909  1.00  0.00    -0.660 C  
HETATM    2  C   UNL     1     -13.908  15.061  71.612  1.00  0.00    -0.480 C  
ENDROOT
BRANCH   2   3
HETATM    3  N   UNL     1     -12.641  14.532  70.888  1.00  0.00    -0.323 N  
HETATM    4  C   UNL     1     -11.400  15.210  71.494  1.00  0.00    -0.330 C  
BRANCH   3   5
HETATM    5  C   UNL     1     -12.475  13.005  71.010  1.00  0.00    -0.296 C  
HETATM    6  C   UNL     1     -13.350  12.378  72.084  1.00  0.00    -0.508 C  
ENDBRANCH   3   5
BRANCH   3   7
HETATM    7  C   UNL     1     -12.781  14.992  69.408  1.00  0.00     0.207 C  
BRANCH   7   8
HETATM    8  C   UNL     1     -11.612  14.590  68.505  1.00  0.00    -0.313 C  
BRANCH   8   9
HETATM    9  O   UNL     1     -11.961  13.490  67.662  1.00  0.00    -0.354 OA 
BRANCH   9  10
HETATM   10  C   UNL     1     -12.031  13.804  66.331  1.00  0.00    -0.438 C  
HETATM   11  O   UNL     1     -13.040  14.253  65.800  1.00  0.00    -0.452 OA 
BRANCH  10  12
HETATM   12  C   UNL     1     -10.668  13.679  65.660  1.00  0.00    -0.283 C  
HETATM   13  C   UNL     1      -9.876  14.926  65.985  1.00  0.00    -0.345 A  
HETATM   14  C   UNL     1     -10.349  16.192  65.591  1.00  0.00    -0.405 A  
HETATM   15  C   UNL     1      -9.702  17.351  66.016  1.00  0.00    -0.172 A  
HETATM   16  C   UNL     1      -8.567  17.256  66.818  1.00  0.00    -0.275 A  
HETATM   17  C   UNL     1      -8.082  16.003  67.196  1.00  0.00    -0.232 A  
HETATM   18  C   UNL     1      -8.740  14.842  66.790  1.00  0.00    -0.224 A  
HETATM   19  O   UNL     1      -8.219  13.656  67.246  1.00  0.00    -0.175 OA 
HETATM   20  C   UNL     1      -8.816  12.478  66.864  1.00  0.00    -0.203 A  
HETATM   21  C   UNL     1      -8.203  11.306  67.313  1.00  0.00    -0.140 A  
HETATM   22  C   UNL     1      -8.743  10.062  66.988  1.00  0.00    -0.137 A  
HETATM   23  C   UNL     1      -9.892   9.986  66.203  1.00  0.00    -0.309 A  
HETATM   24  C   UNL     1     -10.503  11.155  65.748  1.00  0.00    -0.305 A  
HETATM   25  C   UNL     1      -9.974  12.412  66.088  1.00  0.00    -0.267 A  
ENDBRANCH  10  12
ENDBRANCH   9  10
ENDBRANCH   8   9
ENDBRANCH   7   8
ENDBRANCH   3   7
ENDBRANCH   2   3
TORSDOF 7
ENDMDL
MODEL       93
REMARK 921   NORMALIZED FREE ENERGY PREDICTED BY IDOCK:   -4.41 KCAL/MOL
REMARK 922        TOTAL FREE ENERGY PREDICTED BY IDOCK:   -7.53 KCAL/MOL
REMARK 923 INTER-LIGAND FREE ENERGY PREDICTED BY IDOCK:   -6.75 KCAL/MOL
REMARK 924 INTRA-LIGAND FREE ENERGY PREDICTED BY IDOCK:   -0.79 KCAL/MOL
REMARK 927      BINDING AFFINITY PREDICTED BY RF-SCORE:    0.00 PKD
ROOT
HETATM    1  C   UNL     1     -10.922  16.512  64.942  1.00  0.00    -0.223 C  
HETATM    2  C   UNL     1     -10.097  16.955  66.138  1.00  0.00    -0.333 C  
ENDROOT
BRANCH   2   3
HETATM    3  N   UNL     1     -10.044  15.928  67.300  1.00  0.00    -0.255 N  
HETATM    4  C   UNL     1      -8.844  16.259  68.204  1.00  0.00    -0.183 C  
BRANCH   3   5
HETATM    5  C   UNL     1     -11.322  15.929  68.161  1.00  0.00    -0.311 C  
HETATM    6  C   UNL     1     -11.493  14.676  69.006  1.00  0.00    -0.317 C  
ENDBRANCH   3   5
BRANCH   3   7
HETATM    7  C   UNL     1      -9.789  14.547  66.628  1.00  0.00    -0.273 C  
BRANCH   7   8
HETATM    8  C   UNL     1      -8.616  13.761  67.219  1.00  0.00    -0.212 C  
BRANCH   8   9
HETATM    9  O   UNL     1      -8.626  12.402  66.774  1.00  0.00    -0.190 OA 
BRANCH   9  10
HETATM   10  C   UNL     1      -9.480  11.590  67.471  1.00  0.00    -0.169 C  
HETATM   11  O   UNL     1      -9.691  11.712  68.672  1.00  0.00    -0.192 OA 
BRANCH  10  12
HETATM   12  C   UNL     1     -10.236  10.650  66.539  1.00  0.00    -0.288 C  
HETATM   13  C   UNL     1     -11.034  11.499  65.574  1.00  0.00    -0.290 A  
HETATM   14  C   UNL     1     -12.016  12.387  66.052  1.00  0.00    -0.419 A  
HETATM   15  C   UNL     1     -12.647  13.275  65.183  1.00  0.00    -0.512 A  
HETATM   16  C   UNL     1     -12.321  13.270  63.829  1.00  0.00    -0.440 A  
HETATM   17  C   UNL     1     -11.362  12.378  63.346  1.00  0.00    -0.507 A  
HETATM   18  C   UNL     1     -10.713  11.503  64.217  1.00  0.00    -0.355 A  
HETATM   19  O   UNL     1      -9.752  10.693  63.662  1.00  0.00    -0.280 OA 
HETATM   20  C   UNL     1      -9.091   9.798  64.468  1.00  0.00    -0.249 A  
HETATM   21  C   UNL     1      -8.169   8.964  63.832  1.00  0.00    -0.171 A  
HETATM   22  C   UNL     1      -7.440   8.032  64.570  1.00  0.00    -0.102 A  
HETATM   23  C   UNL     1      -7.638   7.924  65.945  1.00  0.00    -0.083 A  
HETATM   24  C   UNL     1      -8.563   8.751  66.582  1.00  0.00    -0.120 A  
HETATM   25  C   UNL     1      -9.288   9.705  65.847  1.00  0.00    -0.275 A  
ENDBRANCH  10  12
ENDBRANCH   9  10
ENDBRANCH   8   9
ENDBRANCH   7   8
ENDBRANCH   3   7
ENDBRANCH   2   3
TORSDOF 7
ENDMDL
MODEL       94
REMARK 921   NORMALIZED FREE ENERGY PREDICTED BY IDOCK:   -4.38 KCAL/MOL
REMARK 922        TOTAL FREE ENERGY PREDICTED BY IDOCK:   -7.50 KCAL/MOL
REMARK 923 INTER-LIGAND FREE ENERGY PREDICTED BY IDOCK:   -6.68 KCAL/MOL
REMARK 924 INTRA-LIGAND FREE ENERGY PREDICTED BY IDOCK:   -0.82 KCAL/MOL
REMARK 927      BINDING AFFINITY PREDICTED BY RF-SCORE:    0.00 PKD
ROOT
HETATM    1  C   UNL     1     -10.996   6.463  67.819  1.00  0.00    -0.425 C  
HETATM    2  C   UNL     1      -9.948   7.246  68.594  1.00  0.00    -0.166 C  
ENDROOT
BRANCH   2   3
HETATM    3  N   UNL     1     -10.029   7.080  70.135  1.00  0.00    -0.182 N  
HETATM    4  C   UNL     1     -11.493   6.817  70.532  1.00  0.00    -0.360 C  
BRANCH   3   5
HETATM    5  C   UNL     1      -9.162   5.919  70.659  1.00  0.00    -0.153 C  
HETATM    6  C   UNL     1      -9.922   4.611  70.817  1.00  0.00    -0.284 C  
ENDBRANCH   3   5
BRANCH   3   7
HETATM    7  C   UNL     1      -9.596   8.452  70.729  1.00  0.00    -0.173 C  
BRANCH   7   8
HETATM    8  C   UNL     1     -10.756   9.393  71.063  1.00  0.00    -0.337 C  
BRANCH   8   9
HETATM    9  O   UNL     1     -10.735  10.557  70.234  1.00  0.00    -0.253 OA 
BRANCH   9  10
HETATM   10  C   UNL     1     -11.971  10.961  69.804  1.00  0.00    -0.351 C  
HETATM   11  O   UNL     1     -13.015  10.623  70.351  1.00  0.00    -0.304 OA 
BRANCH  10  12
HETATM   12  C   UNL     1     -11.860  11.995  68.689  1.00  0.00    -0.366 C  
HETATM   13  C   UNL     1     -11.674  13.351  69.333  1.00  0.00    -0.382 A  
HETATM   14  C   UNL     1     -12.656  13.869  70.198  1.00  0.00    -0.285 A  
HETATM   15  C   UNL     1     -12.421  15.046  70.906  1.00  0.00    -0.407 A  
HETATM   16  C   UNL     1     -11.217  15.727  70.742  1.00  0.00    -0.404 A  
HETATM   17  C   UNL     1     -10.247  15.228  69.870  1.00  0.00    -0.233 A  
HETATM   18  C   UNL     1     -10.470  14.038  69.176  1.00  0.00    -0.086 A  
HETATM   19  O   UNL     1      -9.443  13.599  68.376  1.00  0.00    -0.208 OA 
HETATM   20  C   UNL     1      -9.612  12.442  67.655  1.00  0.00    -0.193 A  
HETATM   21  C   UNL     1      -8.554  12.082  66.816  1.00  0.00    -0.177 A  
HETATM   22  C   UNL     1      -8.628  10.917  66.054  1.00  0.00    -0.179 A  
HETATM   23  C   UNL     1      -9.765  10.113  66.120  1.00  0.00    -0.275 A  
HETATM   24  C   UNL     1     -10.825  10.473  66.951  1.00  0.00    -0.252 A  
HETATM   25  C   UNL     1     -10.750  11.637  67.736  1.00  0.00    -0.244 A  
ENDBRANCH  10  12
ENDBRANCH   9  10
ENDBRANCH   8   9
ENDBRANCH   7   8
ENDBRANCH   3   7
ENDBRANCH   2   3
TORSDOF 7
ENDMDL
MODEL       95
REMARK 921   NORMALIZED FREE ENERGY PREDICTED BY IDOCK:   -4.38 KCAL/MOL
REMARK 922        TOTAL FREE ENERGY PREDICTED BY IDOCK:   -7.49 KCAL/MOL
REMARK 923 INTER-LIGAND FREE ENERGY PREDICTED BY IDOCK:   -6.80 KCAL/MOL
REMARK 924 INTRA-LIGAND FREE ENERGY PREDICTED BY IDOCK:   -0.69 KCAL/MOL
REMARK 927      BINDING AFFINITY PREDICTED BY RF-SCORE:    0.00 PKD
ROOT
HETATM    1  C   UNL     1      -7.266   5.391  71.615  1.00  0.00    -0.084 C  
HETATM    2  C   UNL     1      -8.316   6.478  71.455  1.00  0.00    -0.121 C  
ENDROOT
BRANCH   2   3
HETATM    3  N   UNL     1      -9.772   6.010  71.722  1.00  0.00    -0.151 N  
HETATM    4  C   UNL     1     -10.263   5.194  70.513  1.00  0.00    -0.260 C  
BRANCH   3   5
HETATM    5  C   UNL     1      -9.900   5.139  72.986  1.00  0.00    -0.154 C  
HETATM    6  C   UNL     1     -10.130   5.939  74.260  1.00  0.00    -0.292 C  
ENDBRANCH   3   5
BRANCH   3   7
HETATM    7  C   UNL     1     -10.621   7.311  71.816  1.00  0.00    -0.205 C  
BRANCH   7   8
HETATM    8  C   UNL     1     -11.362   7.680  70.528  1.00  0.00    -0.250 C  
BRANCH   8   9
HETATM    9  O   UNL     1     -10.478   8.265  69.570  1.00  0.00    -0.223 OA 
BRANCH   9  10
HETATM   10  C   UNL     1     -10.353   9.625  69.678  1.00  0.00    -0.227 C  
HETATM   11  O   UNL     1      -9.385  10.170  70.194  1.00  0.00    -0.127 OA 
BRANCH  10  12
HETATM   12  C   UNL     1     -11.474  10.344  68.936  1.00  0.00    -0.251 C  
HETATM   13  C   UNL     1     -12.056  11.381  69.872  1.00  0.00    -0.404 A  
HETATM   14  C   UNL     1     -12.635  10.991  71.093  1.00  0.00    -0.522 A  
HETATM   15  C   UNL     1     -13.037  11.950  72.021  1.00  0.00    -0.441 A  
HETATM   16  C   UNL     1     -12.885  13.303  71.729  1.00  0.00    -0.367 A  
HETATM   17  C   UNL     1     -12.330  13.696  70.510  1.00  0.00    -0.425 A  
HETATM   18  C   UNL     1     -11.907  12.738  69.589  1.00  0.00    -0.317 A  
HETATM   19  O   UNL     1     -11.330  13.215  68.437  1.00  0.00    -0.251 OA 
HETATM   20  C   UNL     1     -10.910  12.319  67.484  1.00  0.00    -0.234 A  
HETATM   21  C   UNL     1     -10.388  12.869  66.311  1.00  0.00    -0.278 A  
HETATM   22  C   UNL     1      -9.923  12.038  65.293  1.00  0.00    -0.273 A  
HETATM   23  C   UNL     1      -9.989  10.654  65.439  1.00  0.00    -0.343 A  
HETATM   24  C   UNL     1     -10.516  10.101  66.606  1.00  0.00    -0.254 A  
HETATM   25  C   UNL     1     -10.969  10.933  67.644  1.00  0.00    -0.350 A  
ENDBRANCH  10  12
ENDBRANCH   9  10
ENDBRANCH   8   9
ENDBRANCH   7   8
ENDBRANCH   3   7
ENDBRANCH   2   3
TORSDOF 7
ENDMDL
MODEL       96
REMARK 921   NORMALIZED FREE ENERGY PREDICTED BY IDOCK:   -4.38 KCAL/MOL
REMARK 922        TOTAL FREE ENERGY PREDICTED BY IDOCK:   -7.49 KCAL/MOL
REMARK 923 INTER-LIGAND FREE ENERGY PREDICTED BY IDOCK:   -6.56 KCAL/MOL
REMARK 924 INTRA-LIGAND FREE ENERGY PREDICTED BY IDOCK:   -0.93 KCAL/MOL
REMARK 927      BINDING AFFINITY PREDICTED BY RF-SCORE:    0.00 PKD
ROOT
HETATM    1  C   UNL     1      -6.062  12.827  69.743  1.00  0.00    -0.131 C  
HETATM    2  C   UNL     1      -6.079  12.201  68.358  1.00  0.00    -0.051 C  
ENDROOT
BRANCH   2   3
HETATM    3  N   UNL     1      -6.692  10.777  68.303  1.00  0.00    -0.062 N  
HETATM    4  C   UNL     1      -6.885  10.374  66.830  1.00  0.00    -0.091 C  
BRANCH   3   5
HETATM    5  C   UNL     1      -5.810   9.717  68.990  1.00  0.00    -0.035 C  
HETATM    6  C   UNL     1      -6.498   9.002  70.143  1.00  0.00    -0.044 C  
ENDBRANCH   3   5
BRANCH   3   7
HETATM    7  C   UNL     1      -8.094  10.897  68.968  1.00  0.00    -0.126 C  
BRANCH   7   8
HETATM    8  C   UNL     1      -9.237  11.193  67.994  1.00  0.00    -0.159 C  
BRANCH   8   9
HETATM    9  O   UNL     1     -10.135  12.168  68.528  1.00  0.00    -0.209 OA 
BRANCH   9  10
HETATM   10  C   UNL     1     -11.459  11.879  68.330  1.00  0.00    -0.311 C  
HETATM   11  O   UNL     1     -11.923  10.751  68.446  1.00  0.00    -0.508 OA 
BRANCH  10  12
HETATM   12  C   UNL     1     -12.277  13.148  68.118  1.00  0.00    -0.070 C  
HETATM   13  C   UNL     1     -12.067  14.040  69.321  1.00  0.00    -0.380 A  
HETATM   14  C   UNL     1     -12.428  13.597  70.607  1.00  0.00    -0.417 A  
HETATM   15  C   UNL     1     -12.100  14.353  71.731  1.00  0.00    -0.296 A  
HETATM   16  C   UNL     1     -11.431  15.565  71.581  1.00  0.00    -0.496 A  
HETATM   17  C   UNL     1     -11.087  16.019  70.306  1.00  0.00    -0.380 A  
HETATM   18  C   UNL     1     -11.394  15.254  69.181  1.00  0.00    -0.297 A  
HETATM   19  O   UNL     1     -10.978  15.756  67.972  1.00  0.00    -0.307 OA 
HETATM   20  C   UNL     1     -11.268  15.054  66.826  1.00  0.00    -0.322 A  
HETATM   21  C   UNL     1     -10.870  15.648  65.626  1.00  0.00    -0.336 A  
HETATM   22  C   UNL     1     -11.109  15.005  64.412  1.00  0.00    -0.120 A  
HETATM   23  C   UNL     1     -11.757  13.771  64.394  1.00  0.00    -0.436 A  
HETATM   24  C   UNL     1     -12.161  13.179  65.590  1.00  0.00    -0.521 A  
HETATM   25  C   UNL     1     -11.907  13.813  66.818  1.00  0.00    -0.454 A  
ENDBRANCH  10  12
ENDBRANCH   9  10
ENDBRANCH   8   9
ENDBRANCH   7   8
ENDBRANCH   3   7
ENDBRANCH   2   3
TORSDOF 7
ENDMDL
MODEL       97
REMARK 921   NORMALIZED FREE ENERGY PREDICTED BY IDOCK:   -4.38 KCAL/MOL
REMARK 922        TOTAL FREE ENERGY PREDICTED BY IDOCK:   -7.49 KCAL/MOL
REMARK 923 INTER-LIGAND FREE ENERGY PREDICTED BY IDOCK:   -6.51 KCAL/MOL
REMARK 924 INTRA-LIGAND FREE ENERGY PREDICTED BY IDOCK:   -0.97 KCAL/MOL
REMARK 927      BINDING AFFINITY PREDICTED BY RF-SCORE:    0.00 PKD
ROOT
HETATM    1  C   UNL     1     -11.126  10.814  67.271  1.00  0.00    -0.339 C  
HETATM    2  C   UNL     1     -10.343  11.812  68.109  1.00  0.00    -0.200 C  
ENDROOT
BRANCH   2   3
HETATM    3  N   UNL     1      -8.941  12.166  67.545  1.00  0.00    -0.170 N  
HETATM    4  C   UNL     1      -8.740  11.429  66.209  1.00  0.00    -0.173 C  
BRANCH   3   5
HETATM    5  C   UNL     1      -8.755  13.676  67.305  1.00  0.00    -0.218 C  
HETATM    6  C   UNL     1     -10.050  14.471  67.375  1.00  0.00    -0.235 C  
ENDBRANCH   3   5
BRANCH   3   7
HETATM    7  C   UNL     1      -7.920  11.604  68.577  1.00  0.00    -0.144 C  
BRANCH   7   8
HETATM    8  C   UNL     1      -8.224  10.185  69.063  1.00  0.00    -0.132 C  
BRANCH   8   9
HETATM    9  O   UNL     1      -8.012  10.063  70.472  1.00  0.00    -0.224 OA 
BRANCH   9  10
HETATM   10  C   UNL     1      -8.763   9.086  71.069  1.00  0.00    -0.222 C  
HETATM   11  O   UNL     1      -8.620   8.753  72.240  1.00  0.00    -0.377 OA 
BRANCH  10  12
HETATM   12  C   UNL     1      -9.880   8.605  70.150  1.00  0.00    -0.191 C  
HETATM   13  C   UNL     1      -9.649   7.137  69.870  1.00  0.00    -0.163 A  
HETATM   14  C   UNL     1      -8.465   6.711  69.239  1.00  0.00    -0.124 A  
HETATM   15  C   UNL     1      -8.183   5.352  69.114  1.00  0.00    -0.093 A  
HETATM   16  C   UNL     1      -9.087   4.409  69.595  1.00  0.00    -0.174 A  
HETATM   17  C   UNL     1     -10.272   4.825  70.205  1.00  0.00    -0.259 A  
HETATM   18  C   UNL     1     -10.547   6.185  70.351  1.00  0.00    -0.257 A  
HETATM   19  O   UNL     1     -11.714   6.502  71.003  1.00  0.00    -0.330 OA 
HETATM   20  C   UNL     1     -12.047   7.826  71.162  1.00  0.00    -0.286 A  
HETATM   21  C   UNL     1     -13.273   8.081  71.779  1.00  0.00    -0.367 A  
HETATM   22  C   UNL     1     -13.691   9.393  71.996  1.00  0.00    -0.466 A  
HETATM   23  C   UNL     1     -12.888  10.456  71.585  1.00  0.00    -0.579 A  
HETATM   24  C   UNL     1     -11.665  10.205  70.963  1.00  0.00    -0.470 A  
HETATM   25  C   UNL     1     -11.231   8.884  70.758  1.00  0.00    -0.321 A  
ENDBRANCH  10  12
ENDBRANCH   9  10
ENDBRANCH   8   9
ENDBRANCH   7   8
ENDBRANCH   3   7
ENDBRANCH   2   3
TORSDOF 7
ENDMDL
MODEL       98
REMARK 921   NORMALIZED FREE ENERGY PREDICTED BY IDOCK:   -4.37 KCAL/MOL
REMARK 922        TOTAL FREE ENERGY PREDICTED BY IDOCK:   -7.48 KCAL/MOL
REMARK 923 INTER-LIGAND FREE ENERGY PREDICTED BY IDOCK:   -6.69 KCAL/MOL
REMARK 924 INTRA-LIGAND FREE ENERGY PREDICTED BY IDOCK:   -0.78 KCAL/MOL
REMARK 927      BINDING AFFINITY PREDICTED BY RF-SCORE:    0.00 PKD
ROOT
HETATM    1  C   UNL     1     -10.620   5.616  68.816  1.00  0.00    -0.286 C  
HETATM    2  C   UNL     1     -10.088   6.397  70.006  1.00  0.00    -0.172 C  
ENDROOT
BRANCH   2   3
HETATM    3  N   UNL     1      -8.544   6.548  70.039  1.00  0.00    -0.138 N  
HETATM    4  C   UNL     1      -8.008   5.905  71.331  1.00  0.00    -0.113 C  
BRANCH   3   5
HETATM    5  C   UNL     1      -7.850   5.883  68.836  1.00  0.00    -0.095 C  
HETATM    6  C   UNL     1      -7.300   6.874  67.821  1.00  0.00    -0.097 C  
ENDBRANCH   3   5
BRANCH   3   7
HETATM    7  C   UNL     1      -8.273   8.079  70.102  1.00  0.00    -0.120 C  
BRANCH   7   8
HETATM    8  C   UNL     1      -8.958   8.798  71.266  1.00  0.00    -0.231 C  
BRANCH   8   9
HETATM    9  O   UNL     1      -9.824   9.835  70.798  1.00  0.00    -0.218 OA 
BRANCH   9  10
HETATM   10  C   UNL     1     -11.154   9.605  71.034  1.00  0.00    -0.368 C  
HETATM   11  O   UNL     1     -11.566   9.018  72.028  1.00  0.00    -0.361 OA 
BRANCH  10  12
HETATM   12  C   UNL     1     -12.030  10.308  70.005  1.00  0.00    -0.273 C  
HETATM   13  C   UNL     1     -12.448  11.640  70.586  1.00  0.00    -0.386 A  
HETATM   14  C   UNL     1     -13.193  11.693  71.779  1.00  0.00    -0.438 A  
HETATM   15  C   UNL     1     -13.452  12.917  72.395  1.00  0.00    -0.573 A  
HETATM   16  C   UNL     1     -12.990  14.096  71.816  1.00  0.00    -0.427 A  
HETATM   17  C   UNL     1     -12.267  14.051  70.623  1.00  0.00    -0.442 A  
HETATM   18  C   UNL     1     -11.988  12.827  70.015  1.00  0.00    -0.301 A  
HETATM   19  O   UNL     1     -11.232  12.875  68.869  1.00  0.00    -0.253 OA 
HETATM   20  C   UNL     1     -10.939  11.701  68.217  1.00  0.00    -0.226 A  
HETATM   21  C   UNL     1     -10.219  11.823  67.027  1.00  0.00    -0.240 A  
HETATM   22  C   UNL     1      -9.864  10.687  66.301  1.00  0.00    -0.263 A  
HETATM   23  C   UNL     1     -10.238   9.424  66.758  1.00  0.00    -0.320 A  
HETATM   24  C   UNL     1     -10.963   9.299  67.943  1.00  0.00    -0.076 A  
HETATM   25  C   UNL     1     -11.309  10.440  68.688  1.00  0.00    -0.277 A  
ENDBRANCH  10  12
ENDBRANCH   9  10
ENDBRANCH   8   9
ENDBRANCH   7   8
ENDBRANCH   3   7
ENDBRANCH   2   3
TORSDOF 7
ENDMDL
MODEL       99
REMARK 921   NORMALIZED FREE ENERGY PREDICTED BY IDOCK:   -4.36 KCAL/MOL
REMARK 922        TOTAL FREE ENERGY PREDICTED BY IDOCK:   -7.46 KCAL/MOL
REMARK 923 INTER-LIGAND FREE ENERGY PREDICTED BY IDOCK:   -6.70 KCAL/MOL
REMARK 924 INTRA-LIGAND FREE ENERGY PREDICTED BY IDOCK:   -0.76 KCAL/MOL
REMARK 927      BINDING AFFINITY PREDICTED BY RF-SCORE:    0.00 PKD
ROOT
HETATM    1  C   UNL     1     -11.308  15.750  71.290  1.00  0.00    -0.437 C  
HETATM    2  C   UNL     1     -11.774  15.891  69.850  1.00  0.00    -0.322 C  
ENDROOT
BRANCH   2   3
HETATM    3  N   UNL     1     -10.634  15.843  68.798  1.00  0.00    -0.233 N  
HETATM    4  C   UNL     1     -10.561  17.203  68.080  1.00  0.00    -0.380 C  
BRANCH   3   5
HETATM    5  C   UNL     1      -9.257  15.541  69.418  1.00  0.00    -0.280 C  
HETATM    6  C   UNL     1      -8.088  15.843  68.493  1.00  0.00    -0.157 C  
ENDBRANCH   3   5
BRANCH   3   7
HETATM    7  C   UNL     1     -11.063  14.763  67.763  1.00  0.00    -0.299 C  
BRANCH   7   8
HETATM    8  C   UNL     1     -12.030  13.710  68.308  1.00  0.00    -0.350 C  
BRANCH   8   9
HETATM    9  O   UNL     1     -11.366  12.801  69.189  1.00  0.00    -0.267 OA 
BRANCH   9  10
HETATM   10  C   UNL     1     -11.354  11.503  68.752  1.00  0.00    -0.265 C  
HETATM   11  O   UNL     1     -12.085  11.090  67.859  1.00  0.00    -0.600 OA 
BRANCH  10  12
HETATM   12  C   UNL     1     -10.222  10.711  69.395  1.00  0.00    -0.218 C  
HETATM   13  C   UNL     1     -10.830   9.511  70.085  1.00  0.00    -0.300 A  
HETATM   14  C   UNL     1     -11.771   9.684  71.117  1.00  0.00    -0.450 A  
HETATM   15  C   UNL     1     -12.442   8.585  71.651  1.00  0.00    -0.370 A  
HETATM   16  C   UNL     1     -12.166   7.306  71.176  1.00  0.00    -0.376 A  
HETATM   17  C   UNL     1     -11.219   7.126  70.166  1.00  0.00    -0.295 A  
HETATM   18  C   UNL     1     -10.562   8.225  69.614  1.00  0.00    -0.222 A  
HETATM   19  O   UNL     1      -9.681   7.959  68.594  1.00  0.00    -0.153 OA 
HETATM   20  C   UNL     1      -8.991   9.001  68.023  1.00  0.00    -0.132 A  
HETATM   21  C   UNL     1      -8.068   8.656  67.033  1.00  0.00    -0.100 A  
HETATM   22  C   UNL     1      -7.330   9.647  66.386  1.00  0.00    -0.094 A  
HETATM   23  C   UNL     1      -7.503  10.985  66.736  1.00  0.00    -0.139 A  
HETATM   24  C   UNL     1      -8.419  11.331  67.730  1.00  0.00    -0.126 A  
HETATM   25  C   UNL     1      -9.180  10.339  68.372  1.00  0.00    -0.136 A  
ENDBRANCH  10  12
ENDBRANCH   9  10
ENDBRANCH   8   9
ENDBRANCH   7   8
ENDBRANCH   3   7
ENDBRANCH   2   3
TORSDOF 7
ENDMDL
MODEL      100
REMARK 921   NORMALIZED FREE ENERGY PREDICTED BY IDOCK:   -4.36 KCAL/MOL
REMARK 922        TOTAL FREE ENERGY PREDICTED BY IDOCK:   -7.46 KCAL/MOL
REMARK 923 INTER-LIGAND FREE ENERGY PREDICTED BY IDOCK:   -6.71 KCAL/MOL
REMARK 924 INTRA-LIGAND FREE ENERGY PREDICTED BY IDOCK:   -0.75 KCAL/MOL
REMARK 927      BINDING AFFINITY PREDICTED BY RF-SCORE:    0.00 PKD
ROOT
HETATM    1  C   UNL     1     -12.353  15.102  64.418  1.00  0.00    -0.225 C  
HETATM    2  C   UNL     1     -12.556  14.170  65.602  1.00  0.00    -0.470 C  
ENDROOT
BRANCH   2   3
HETATM    3  N   UNL     1     -11.243  13.695  66.280  1.00  0.00    -0.302 N  
HETATM    4  C   UNL     1     -10.045  14.269  65.503  1.00  0.00    -0.345 C  
BRANCH   3   5
HETATM    5  C   UNL     1     -11.133  14.139  67.750  1.00  0.00    -0.276 C  
HETATM    6  C   UNL     1     -10.997  15.644  67.927  1.00  0.00    -0.319 C  
ENDBRANCH   3   5
BRANCH   3   7
HETATM    7  C   UNL     1     -11.230  12.146  66.131  1.00  0.00    -0.338 C  
BRANCH   7   8
HETATM    8  C   UNL     1     -11.350  11.380  67.450  1.00  0.00    -0.288 C  
BRANCH   8   9
HETATM    9  O   UNL     1     -10.159  10.642  67.733  1.00  0.00    -0.167 OA 
BRANCH   9  10
HETATM   10  C   UNL     1     -10.325   9.637  68.648  1.00  0.00    -0.203 C  
HETATM   11  O   UNL     1     -10.552   8.474  68.333  1.00  0.00    -0.193 OA 
BRANCH  10  12
HETATM   12  C   UNL     1     -10.028  10.121  70.063  1.00  0.00    -0.213 C  
HETATM   13  C   UNL     1     -11.215   9.767  70.931  1.00  0.00    -0.429 A  
HETATM   14  C   UNL     1     -12.490  10.287  70.640  1.00  0.00    -0.407 A  
HETATM   15  C   UNL     1     -13.609   9.848  71.346  1.00  0.00    -0.297 A  
HETATM   16  C   UNL     1     -13.463   8.904  72.359  1.00  0.00    -0.499 A  
HETATM   17  C   UNL     1     -12.198   8.399  72.665  1.00  0.00    -0.302 A  
HETATM   18  C   UNL     1     -11.079   8.821  71.947  1.00  0.00    -0.364 A  
HETATM   19  O   UNL     1      -9.883   8.237  72.286  1.00  0.00    -0.235 OA 
HETATM   20  C   UNL     1      -8.743   8.626  71.623  1.00  0.00    -0.203 A  
HETATM   21  C   UNL     1      -7.552   8.039  72.055  1.00  0.00    -0.108 A  
HETATM   22  C   UNL     1      -6.345   8.361  71.435  1.00  0.00    -0.045 A  
HETATM   23  C   UNL     1      -6.324   9.280  70.388  1.00  0.00    -0.060 A  
HETATM   24  C   UNL     1      -7.512   9.873  69.958  1.00  0.00    -0.173 A  
HETATM   25  C   UNL     1      -8.733   9.539  70.567  1.00  0.00    -0.247 A  
ENDBRANCH  10  12
ENDBRANCH   9  10
ENDBRANCH   8   9
ENDBRANCH   7   8
ENDBRANCH   3   7
ENDBRANCH   2   3
TORSDOF 7
ENDMDL
MODEL      101
REMARK 921   NORMALIZED FREE ENERGY PREDICTED BY IDOCK:   -4.36 KCAL/MOL
REMARK 922        TOTAL FREE ENERGY PREDICTED BY IDOCK:   -7.46 KCAL/MOL
REMARK 923 INTER-LIGAND FREE ENERGY PREDICTED BY IDOCK:   -6.35 KCAL/MOL
REMARK 924 INTRA-LIGAND FREE ENERGY PREDICTED BY IDOCK:   -1.11 KCAL/MOL
REMARK 927      BINDING AFFINITY PREDICTED BY RF-SCORE:    0.00 PKD
ROOT
HETATM    1  C   UNL     1     -10.535   5.164  66.337  1.00  0.00    -0.356 C  
HETATM    2  C   UNL     1     -10.959   6.412  67.094  1.00  0.00    -0.399 C  
ENDROOT
BRANCH   2   3
HETATM    3  N   UNL     1     -10.241   6.615  68.455  1.00  0.00    -0.160 N  
HETATM    4  C   UNL     1     -11.274   6.480  69.588  1.00  0.00    -0.384 C  
BRANCH   3   5
HETATM    5  C   UNL     1      -9.113   5.595  68.696  1.00  0.00    -0.118 C  
HETATM    6  C   UNL     1      -7.760   6.232  68.973  1.00  0.00    -0.100 C  
ENDBRANCH   3   5
BRANCH   3   7
HETATM    7  C   UNL     1      -9.716   8.080  68.439  1.00  0.00    -0.158 C  
BRANCH   7   8
HETATM    8  C   UNL     1     -10.698   9.113  68.998  1.00  0.00    -0.153 C  
BRANCH   8   9
HETATM    9  O   UNL     1     -11.117  10.032  67.987  1.00  0.00    -0.266 OA 
BRANCH   9  10
HETATM   10  C   UNL     1     -11.058  11.347  68.364  1.00  0.00    -0.242 C  
HETATM   11  O   UNL     1     -11.502  11.758  69.430  1.00  0.00    -0.267 OA 
BRANCH  10  12
HETATM   12  C   UNL     1     -10.237  12.171  67.379  1.00  0.00    -0.211 C  
HETATM   13  C   UNL     1      -8.823  11.633  67.392  1.00  0.00    -0.160 A  
HETATM   14  C   UNL     1      -8.068  11.647  68.580  1.00  0.00    -0.145 A  
HETATM   15  C   UNL     1      -6.824  11.020  68.632  1.00  0.00    -0.064 A  
HETATM   16  C   UNL     1      -6.315  10.395  67.496  1.00  0.00    -0.058 A  
HETATM   17  C   UNL     1      -7.052  10.394  66.310  1.00  0.00    -0.123 A  
HETATM   18  C   UNL     1      -8.306  11.002  66.261  1.00  0.00    -0.166 A  
HETATM   19  O   UNL     1      -8.979  10.914  65.067  1.00  0.00    -0.197 OA 
HETATM   20  C   UNL     1     -10.212  11.509  64.953  1.00  0.00    -0.275 A  
HETATM   21  C   UNL     1     -10.817  11.434  63.696  1.00  0.00    -0.459 A  
HETATM   22  C   UNL     1     -12.075  11.998  63.488  1.00  0.00    -0.628 A  
HETATM   23  C   UNL     1     -12.728  12.648  64.533  1.00  0.00    -0.439 A  
HETATM   24  C   UNL     1     -12.125  12.730  65.788  1.00  0.00    -0.505 A  
HETATM   25  C   UNL     1     -10.864  12.148  66.009  1.00  0.00    -0.318 A  
ENDBRANCH  10  12
ENDBRANCH   9  10
ENDBRANCH   8   9
ENDBRANCH   7   8
ENDBRANCH   3   7
ENDBRANCH   2   3
TORSDOF 7
ENDMDL
MODEL      102
REMARK 921   NORMALIZED FREE ENERGY PREDICTED BY IDOCK:   -4.35 KCAL/MOL
REMARK 922        TOTAL FREE ENERGY PREDICTED BY IDOCK:   -7.44 KCAL/MOL
REMARK 923 INTER-LIGAND FREE ENERGY PREDICTED BY IDOCK:   -6.55 KCAL/MOL
REMARK 924 INTRA-LIGAND FREE ENERGY PREDICTED BY IDOCK:   -0.89 KCAL/MOL
REMARK 927      BINDING AFFINITY PREDICTED BY RF-SCORE:    0.00 PKD
ROOT
HETATM    1  C   UNL     1      -5.907  20.439  67.390  1.00  0.00    -0.220 C  
HETATM    2  C   UNL     1      -7.370  20.850  67.353  1.00  0.00    -0.314 C  
ENDROOT
BRANCH   2   3
HETATM    3  N   UNL     1      -8.373  19.666  67.385  1.00  0.00    -0.290 N  
HETATM    4  C   UNL     1      -8.941  19.533  68.809  1.00  0.00    -0.315 C  
BRANCH   3   5
HETATM    5  C   UNL     1      -9.546  19.847  66.404  1.00  0.00    -0.431 C  
HETATM    6  C   UNL     1     -10.333  18.571  66.148  1.00  0.00    -0.457 C  
ENDBRANCH   3   5
BRANCH   3   7
HETATM    7  C   UNL     1      -7.532  18.395  67.069  1.00  0.00    -0.213 C  
BRANCH   7   8
HETATM    8  C   UNL     1      -7.675  17.268  68.094  1.00  0.00    -0.217 C  
BRANCH   8   9
HETATM    9  O   UNL     1      -7.602  15.985  67.469  1.00  0.00    -0.132 OA 
BRANCH   9  10
HETATM   10  C   UNL     1      -8.596  15.120  67.843  1.00  0.00    -0.153 C  
HETATM   11  O   UNL     1      -9.389  15.362  68.745  1.00  0.00    -0.188 OA 
BRANCH  10  12
HETATM   12  C   UNL     1      -8.680  13.929  66.896  1.00  0.00    -0.177 C  
HETATM   13  C   UNL     1      -8.456  12.674  67.711  1.00  0.00    -0.172 A  
HETATM   14  C   UNL     1      -7.249  12.486  68.409  1.00  0.00    -0.111 A  
HETATM   15  C   UNL     1      -7.097  11.405  69.277  1.00  0.00    -0.100 A  
HETATM   16  C   UNL     1      -8.138  10.494  69.438  1.00  0.00    -0.136 A  
HETATM   17  C   UNL     1      -9.331  10.665  68.733  1.00  0.00    -0.183 A  
HETATM   18  C   UNL     1      -9.493  11.757  67.880  1.00  0.00    -0.191 A  
HETATM   19  O   UNL     1     -10.715  11.871  67.263  1.00  0.00    -0.220 OA 
HETATM   20  C   UNL     1     -10.928  12.917  66.398  1.00  0.00    -0.285 A  
HETATM   21  C   UNL     1     -12.169  12.942  65.758  1.00  0.00    -0.498 A  
HETATM   22  C   UNL     1     -12.481  13.972  64.872  1.00  0.00    -0.419 A  
HETATM   23  C   UNL     1     -11.549  14.976  64.615  1.00  0.00    -0.386 A  
HETATM   24  C   UNL     1     -10.306  14.951  65.248  1.00  0.00    -0.424 A  
HETATM   25  C   UNL     1      -9.992  13.925  66.155  1.00  0.00    -0.322 A  
ENDBRANCH  10  12
ENDBRANCH   9  10
ENDBRANCH   8   9
ENDBRANCH   7   8
ENDBRANCH   3   7
ENDBRANCH   2   3
TORSDOF 7
ENDMDL
MODEL      103
REMARK 921   NORMALIZED FREE ENERGY PREDICTED BY IDOCK:   -4.35 KCAL/MOL
REMARK 922        TOTAL FREE ENERGY PREDICTED BY IDOCK:   -7.44 KCAL/MOL
REMARK 923 INTER-LIGAND FREE ENERGY PREDICTED BY IDOCK:   -6.70 KCAL/MOL
REMARK 924 INTRA-LIGAND FREE ENERGY PREDICTED BY IDOCK:   -0.74 KCAL/MOL
REMARK 927      BINDING AFFINITY PREDICTED BY RF-SCORE:    0.00 PKD
ROOT
HETATM    1  C   UNL     1      -9.423   9.426  66.467  1.00  0.00    -0.246 C  
HETATM    2  C   UNL     1      -8.516   9.190  67.663  1.00  0.00    -0.116 C  
ENDROOT
BRANCH   2   3
HETATM    3  N   UNL     1      -8.497  10.349  68.695  1.00  0.00    -0.121 N  
HETATM    4  C   UNL     1      -9.858  10.403  69.411  1.00  0.00    -0.213 C  
BRANCH   3   5
HETATM    5  C   UNL     1      -7.391  10.191  69.755  1.00  0.00    -0.158 C  
HETATM    6  C   UNL     1      -7.759   9.244  70.887  1.00  0.00    -0.134 C  
ENDBRANCH   3   5
BRANCH   3   7
HETATM    7  C   UNL     1      -8.328  11.652  67.860  1.00  0.00    -0.143 C  
BRANCH   7   8
HETATM    8  C   UNL     1      -8.025  12.903  68.689  1.00  0.00    -0.024 C  
BRANCH   8   9
HETATM    9  O   UNL     1      -9.148  13.786  68.725  1.00  0.00    -0.108 OA 
BRANCH   9  10
HETATM   10  C   UNL     1      -9.086  14.810  67.817  1.00  0.00    -0.186 C  
HETATM   11  O   UNL     1      -8.076  15.079  67.178  1.00  0.00    -0.192 OA 
BRANCH  10  12
HETATM   12  C   UNL     1     -10.457  15.438  67.596  1.00  0.00    -0.272 C  
HETATM   13  C   UNL     1     -10.272  16.937  67.516  1.00  0.00    -0.295 A  
HETATM   14  C   UNL     1      -9.730  17.646  68.605  1.00  0.00    -0.332 A  
HETATM   15  C   UNL     1      -9.420  18.999  68.481  1.00  0.00    -0.436 A  
HETATM   16  C   UNL     1      -9.668  19.661  67.281  1.00  0.00    -0.474 A  
HETATM   17  C   UNL     1     -10.224  18.967  66.204  1.00  0.00    -0.508 A  
HETATM   18  C   UNL     1     -10.514  17.608  66.317  1.00  0.00    -0.292 A  
HETATM   19  O   UNL     1     -11.016  16.997  65.194  1.00  0.00    -0.528 OA 
HETATM   20  C   UNL     1     -11.337  15.662  65.251  1.00  0.00    -0.139 A  
HETATM   21  C   UNL     1     -11.897  15.116  64.094  1.00  0.00    -0.164 A  
HETATM   22  C   UNL     1     -12.244  13.766  64.052  1.00  0.00    -0.429 A  
HETATM   23  C   UNL     1     -12.042  12.960  65.171  1.00  0.00    -0.489 A  
HETATM   24  C   UNL     1     -11.489  13.504  66.330  1.00  0.00    -0.356 A  
HETATM   25  C   UNL     1     -11.120  14.860  66.373  1.00  0.00    -0.342 A  
ENDBRANCH  10  12
ENDBRANCH   9  10
ENDBRANCH   8   9
ENDBRANCH   7   8
ENDBRANCH   3   7
ENDBRANCH   2   3
TORSDOF 7
ENDMDL
MODEL      104
REMARK 921   NORMALIZED FREE ENERGY PREDICTED BY IDOCK:   -4.33 KCAL/MOL
REMARK 922        TOTAL FREE ENERGY PREDICTED BY IDOCK:   -7.42 KCAL/MOL
REMARK 923 INTER-LIGAND FREE ENERGY PREDICTED BY IDOCK:   -7.01 KCAL/MOL
REMARK 924 INTRA-LIGAND FREE ENERGY PREDICTED BY IDOCK:   -0.42 KCAL/MOL
REMARK 927      BINDING AFFINITY PREDICTED BY RF-SCORE:    0.00 PKD
ROOT
HETATM    1  C   UNL     1     -11.184   6.477  69.683  1.00  0.00    -0.446 C  
HETATM    2  C   UNL     1     -11.836   7.476  70.625  1.00  0.00    -0.179 C  
ENDROOT
BRANCH   2   3
HETATM    3  N   UNL     1     -11.135   8.860  70.680  1.00  0.00    -0.255 N  
HETATM    4  C   UNL     1     -12.138   9.906  71.200  1.00  0.00    -0.374 C  
BRANCH   3   5
HETATM    5  C   UNL     1      -9.897   8.870  71.596  1.00  0.00    -0.317 C  
HETATM    6  C   UNL     1      -8.581   9.007  70.846  1.00  0.00    -0.263 C  
ENDBRANCH   3   5
BRANCH   3   7
HETATM    7  C   UNL     1     -10.779   9.210  69.206  1.00  0.00    -0.183 C  
BRANCH   7   8
HETATM    8  C   UNL     1     -11.242  10.597  68.752  1.00  0.00    -0.279 C  
BRANCH   8   9
HETATM    9  O   UNL     1     -11.424  10.645  67.335  1.00  0.00    -0.436 OA 
BRANCH   9  10
HETATM   10  C   UNL     1     -10.446  10.005  66.622  1.00  0.00    -0.174 C  
HETATM   11  O   UNL     1     -10.401   8.787  66.491  1.00  0.00    -0.279 OA 
BRANCH  10  12
HETATM   12  C   UNL     1      -9.549  10.999  65.895  1.00  0.00    -0.255 C  
HETATM   13  C   UNL     1     -10.436  11.909  65.075  1.00  0.00    -0.333 A  
HETATM   14  C   UNL     1     -11.262  11.378  64.067  1.00  0.00    -0.350 A  
HETATM   15  C   UNL     1     -12.187  12.190  63.413  1.00  0.00    -0.635 A  
HETATM   16  C   UNL     1     -12.279  13.540  63.742  1.00  0.00    -0.449 A  
HETATM   17  C   UNL     1     -11.448  14.077  64.727  1.00  0.00    -0.371 A  
HETATM   18  C   UNL     1     -10.537  13.262  65.399  1.00  0.00    -0.296 A  
HETATM   19  O   UNL     1      -9.792  13.865  66.383  1.00  0.00    -0.278 OA 
HETATM   20  C   UNL     1      -8.866  13.116  67.068  1.00  0.00    -0.210 A  
HETATM   21  C   UNL     1      -8.101  13.801  68.014  1.00  0.00    -0.163 A  
HETATM   22  C   UNL     1      -7.143  13.123  68.768  1.00  0.00    -0.098 A  
HETATM   23  C   UNL     1      -6.940  11.758  68.569  1.00  0.00    -0.083 A  
HETATM   24  C   UNL     1      -7.698  11.072  67.621  1.00  0.00    -0.112 A  
HETATM   25  C   UNL     1      -8.677  11.747  66.871  1.00  0.00    -0.189 A  
ENDBRANCH  10  12
ENDBRANCH   9  10
ENDBRANCH   8   9
ENDBRANCH   7   8
ENDBRANCH   3   7
ENDBRANCH   2   3
TORSDOF 7
ENDMDL
MODEL      105
REMARK 921   NORMALIZED FREE ENERGY PREDICTED BY IDOCK:   -4.31 KCAL/MOL
REMARK 922        TOTAL FREE ENERGY PREDICTED BY IDOCK:   -7.39 KCAL/MOL
REMARK 923 INTER-LIGAND FREE ENERGY PREDICTED BY IDOCK:   -6.24 KCAL/MOL
REMARK 924 INTRA-LIGAND FREE ENERGY PREDICTED BY IDOCK:   -1.15 KCAL/MOL
REMARK 927      BINDING AFFINITY PREDICTED BY RF-SCORE:    0.00 PKD
ROOT
HETATM    1  C   UNL     1      -9.877  17.434  67.983  1.00  0.00    -0.288 C  
HETATM    2  C   UNL     1      -8.869  16.492  68.619  1.00  0.00    -0.237 C  
ENDROOT
BRANCH   2   3
HETATM    3  N   UNL     1      -8.140  15.556  67.618  1.00  0.00    -0.138 N  
HETATM    4  C   UNL     1      -8.932  15.525  66.299  1.00  0.00    -0.327 C  
BRANCH   3   5
HETATM    5  C   UNL     1      -6.699  16.008  67.314  1.00  0.00    -0.197 C  
HETATM    6  C   UNL     1      -5.717  15.718  68.438  1.00  0.00    -0.110 C  
ENDBRANCH   3   5
BRANCH   3   7
HETATM    7  C   UNL     1      -8.190  14.138  68.256  1.00  0.00    -0.148 C  
BRANCH   7   8
HETATM    8  C   UNL     1      -8.007  12.988  67.263  1.00  0.00    -0.138 C  
BRANCH   8   9
HETATM    9  O   UNL     1      -8.709  11.818  67.689  1.00  0.00    -0.148 OA 
BRANCH   9  10
HETATM   10  C   UNL     1      -9.541  11.287  66.739  1.00  0.00    -0.193 C  
HETATM   11  O   UNL     1      -9.158  10.948  65.626  1.00  0.00    -0.192 OA 
BRANCH  10  12
HETATM   12  C   UNL     1     -10.933  11.026  67.305  1.00  0.00    -0.356 C  
HETATM   13  C   UNL     1     -10.851   9.802  68.189  1.00  0.00    -0.264 A  
HETATM   14  C   UNL     1     -10.450   8.564  67.655  1.00  0.00    -0.308 A  
HETATM   15  C   UNL     1     -10.231   7.472  68.492  1.00  0.00    -0.216 A  
HETATM   16  C   UNL     1     -10.431   7.599  69.865  1.00  0.00    -0.231 A  
HETATM   17  C   UNL     1     -10.847   8.820  70.399  1.00  0.00    -0.256 A  
HETATM   18  C   UNL     1     -11.047   9.921  69.565  1.00  0.00    -0.217 A  
HETATM   19  O   UNL     1     -11.412  11.093  70.182  1.00  0.00    -0.296 OA 
HETATM   20  C   UNL     1     -11.639  12.207  69.410  1.00  0.00    -0.317 A  
HETATM   21  C   UNL     1     -12.064  13.350  70.092  1.00  0.00    -0.415 A  
HETATM   22  C   UNL     1     -12.308  14.532  69.395  1.00  0.00    -0.213 A  
HETATM   23  C   UNL     1     -12.137  14.574  68.012  1.00  0.00    -0.233 A  
HETATM   24  C   UNL     1     -11.718  13.433  67.328  1.00  0.00    -0.424 A  
HETATM   25  C   UNL     1     -11.453  12.242  68.027  1.00  0.00    -0.378 A  
ENDBRANCH  10  12
ENDBRANCH   9  10
ENDBRANCH   8   9
ENDBRANCH   7   8
ENDBRANCH   3   7
ENDBRANCH   2   3
TORSDOF 7
ENDMDL
MODEL      106
REMARK 921   NORMALIZED FREE ENERGY PREDICTED BY IDOCK:   -4.30 KCAL/MOL
REMARK 922        TOTAL FREE ENERGY PREDICTED BY IDOCK:   -7.37 KCAL/MOL
REMARK 923 INTER-LIGAND FREE ENERGY PREDICTED BY IDOCK:   -6.33 KCAL/MOL
REMARK 924 INTRA-LIGAND FREE ENERGY PREDICTED BY IDOCK:   -1.05 KCAL/MOL
REMARK 927      BINDING AFFINITY PREDICTED BY RF-SCORE:    0.00 PKD
ROOT
HETATM    1  C   UNL     1      -8.384   7.253  73.380  1.00  0.00    -0.147 C  
HETATM    2  C   UNL     1      -8.179   5.788  73.029  1.00  0.00    -0.118 C  
ENDROOT
BRANCH   2   3
HETATM    3  N   UNL     1      -8.971   5.308  71.783  1.00  0.00    -0.134 N  
HETATM    4  C   UNL     1      -8.752   3.795  71.606  1.00  0.00    -0.098 C  
BRANCH   3   5
HETATM    5  C   UNL     1     -10.483   5.576  71.893  1.00  0.00    -0.225 C  
HETATM    6  C   UNL     1     -11.157   4.826  73.032  1.00  0.00    -0.352 C  
ENDBRANCH   3   5
BRANCH   3   7
HETATM    7  C   UNL     1      -8.330   6.043  70.570  1.00  0.00    -0.128 C  
BRANCH   7   8
HETATM    8  C   UNL     1      -9.279   6.269  69.390  1.00  0.00    -0.138 C  
BRANCH   8   9
HETATM    9  O   UNL     1      -8.894   7.414  68.626  1.00  0.00    -0.128 OA 
BRANCH   9  10
HETATM   10  C   UNL     1      -9.946   8.173  68.186  1.00  0.00    -0.186 C  
HETATM   11  O   UNL     1     -10.905   7.705  67.583  1.00  0.00    -0.197 OA 
BRANCH  10  12
HETATM   12  C   UNL     1      -9.839   9.610  68.683  1.00  0.00    -0.171 C  
HETATM   13  C   UNL     1     -10.007  10.526  67.491  1.00  0.00    -0.204 A  
HETATM   14  C   UNL     1      -9.108  10.459  66.410  1.00  0.00    -0.177 A  
HETATM   15  C   UNL     1      -9.345  11.194  65.250  1.00  0.00    -0.243 A  
HETATM   16  C   UNL     1     -10.465  12.016  65.166  1.00  0.00    -0.328 A  
HETATM   17  C   UNL     1     -11.350  12.102  66.243  1.00  0.00    -0.411 A  
HETATM   18  C   UNL     1     -11.128  11.351  67.397  1.00  0.00    -0.289 A  
HETATM   19  O   UNL     1     -12.074  11.463  68.387  1.00  0.00    -0.575 OA 
HETATM   20  C   UNL     1     -11.899  10.760  69.555  1.00  0.00    -0.308 A  
HETATM   21  C   UNL     1     -12.864  10.963  70.544  1.00  0.00    -0.301 A  
HETATM   22  C   UNL     1     -12.779  10.283  71.758  1.00  0.00    -0.535 A  
HETATM   23  C   UNL     1     -11.721   9.406  71.992  1.00  0.00    -0.269 A  
HETATM   24  C   UNL     1     -10.752   9.206  71.009  1.00  0.00    -0.363 A  
HETATM   25  C   UNL     1     -10.842   9.874  69.776  1.00  0.00    -0.300 A  
ENDBRANCH  10  12
ENDBRANCH   9  10
ENDBRANCH   8   9
ENDBRANCH   7   8
ENDBRANCH   3   7
ENDBRANCH   2   3
TORSDOF 7
ENDMDL
MODEL      107
REMARK 921   NORMALIZED FREE ENERGY PREDICTED BY IDOCK:   -4.29 KCAL/MOL
REMARK 922        TOTAL FREE ENERGY PREDICTED BY IDOCK:   -7.37 KCAL/MOL
REMARK 923 INTER-LIGAND FREE ENERGY PREDICTED BY IDOCK:   -6.90 KCAL/MOL
REMARK 924 INTRA-LIGAND FREE ENERGY PREDICTED BY IDOCK:   -0.47 KCAL/MOL
REMARK 927      BINDING AFFINITY PREDICTED BY RF-SCORE:    0.00 PKD
ROOT
HETATM    1  C   UNL     1     -13.531  12.569  71.971  1.00  0.00    -0.486 C  
HETATM    2  C   UNL     1     -12.312  13.476  71.929  1.00  0.00     0.154 C  
ENDROOT
BRANCH   2   3
HETATM    3  N   UNL     1     -12.629  14.967  71.635  1.00  0.00    -0.310 N  
HETATM    4  C   UNL     1     -14.154  15.169  71.672  1.00  0.00    -0.549 C  
BRANCH   3   5
HETATM    5  C   UNL     1     -11.981  15.929  72.648  1.00  0.00    -0.504 C  
HETATM    6  C   UNL     1     -12.614  15.879  74.031  1.00  0.00    -0.755 C  
ENDBRANCH   3   5
BRANCH   3   7
HETATM    7  C   UNL     1     -12.133  15.222  70.182  1.00  0.00    -0.358 C  
BRANCH   7   8
HETATM    8  C   UNL     1     -12.337  14.045  69.225  1.00  0.00    -0.171 C  
BRANCH   8   9
HETATM    9  O   UNL     1     -11.140  13.750  68.502  1.00  0.00    -0.245 OA 
BRANCH   9  10
HETATM   10  C   UNL     1     -11.200  14.058  67.169  1.00  0.00    -0.313 C  
HETATM   11  O   UNL     1     -12.198  14.527  66.633  1.00  0.00    -0.379 OA 
BRANCH  10  12
HETATM   12  C   UNL     1      -9.839  13.900  66.501  1.00  0.00    -0.296 C  
HETATM   13  C   UNL     1      -8.788  14.393  67.471  1.00  0.00    -0.197 A  
HETATM   14  C   UNL     1      -8.806  15.725  67.923  1.00  0.00    -0.175 A  
HETATM   15  C   UNL     1      -7.933  16.142  68.926  1.00  0.00    -0.223 A  
HETATM   16  C   UNL     1      -7.021  15.241  69.470  1.00  0.00    -0.191 A  
HETATM   17  C   UNL     1      -6.985  13.922  69.012  1.00  0.00    -0.109 A  
HETATM   18  C   UNL     1      -7.873  13.497  68.023  1.00  0.00    -0.147 A  
HETATM   19  O   UNL     1      -7.796  12.173  67.666  1.00  0.00    -0.131 OA 
HETATM   20  C   UNL     1      -8.634  11.700  66.685  1.00  0.00    -0.179 A  
HETATM   21  C   UNL     1      -8.466  10.360  66.327  1.00  0.00    -0.145 A  
HETATM   22  C   UNL     1      -9.278   9.788  65.350  1.00  0.00    -0.282 A  
HETATM   23  C   UNL     1     -10.255  10.556  64.719  1.00  0.00    -0.373 A  
HETATM   24  C   UNL     1     -10.422  11.896  65.070  1.00  0.00    -0.333 A  
HETATM   25  C   UNL     1      -9.618  12.474  66.067  1.00  0.00    -0.205 A  
ENDBRANCH  10  12
ENDBRANCH   9  10
ENDBRANCH   8   9
ENDBRANCH   7   8
ENDBRANCH   3   7
ENDBRANCH   2   3
TORSDOF 7
ENDMDL
MODEL      108
REMARK 921   NORMALIZED FREE ENERGY PREDICTED BY IDOCK:   -4.28 KCAL/MOL
REMARK 922        TOTAL FREE ENERGY PREDICTED BY IDOCK:   -7.35 KCAL/MOL
REMARK 923 INTER-LIGAND FREE ENERGY PREDICTED BY IDOCK:   -6.37 KCAL/MOL
REMARK 924 INTRA-LIGAND FREE ENERGY PREDICTED BY IDOCK:   -0.98 KCAL/MOL
REMARK 927      BINDING AFFINITY PREDICTED BY RF-SCORE:    0.00 PKD
ROOT
HETATM    1  C   UNL     1      -9.045   4.879  66.977  1.00  0.00    -0.120 C  
HETATM    2  C   UNL     1      -8.827   6.383  66.999  1.00  0.00    -0.115 C  
ENDROOT
BRANCH   2   3
HETATM    3  N   UNL     1      -7.348   6.816  67.180  1.00  0.00    -0.084 N  
HETATM    4  C   UNL     1      -7.234   7.686  68.445  1.00  0.00    -0.090 C  
BRANCH   3   5
HETATM    5  C   UNL     1      -6.385   5.622  67.317  1.00  0.00    -0.042 C  
HETATM    6  C   UNL     1      -5.410   5.485  66.158  1.00  0.00    -0.012 C  
ENDBRANCH   3   5
BRANCH   3   7
HETATM    7  C   UNL     1      -7.015   7.701  65.943  1.00  0.00    -0.061 C  
BRANCH   7   8
HETATM    8  C   UNL     1      -7.169   9.205  66.179  1.00  0.00    -0.090 C  
BRANCH   8   9
HETATM    9  O   UNL     1      -8.350   9.710  65.553  1.00  0.00    -0.130 OA 
BRANCH   9  10
HETATM   10  C   UNL     1      -8.934  10.756  66.217  1.00  0.00    -0.170 C  
HETATM   11  O   UNL     1      -8.308  11.736  66.606  1.00  0.00    -0.175 OA 
BRANCH  10  12
HETATM   12  C   UNL     1     -10.451  10.613  66.253  1.00  0.00    -0.268 C  
HETATM   13  C   UNL     1     -10.870  10.490  67.701  1.00  0.00    -0.355 A  
HETATM   14  C   UNL     1     -10.397   9.425  68.490  1.00  0.00    -0.236 A  
HETATM   15  C   UNL     1     -10.660   9.390  69.858  1.00  0.00    -0.258 A  
HETATM   16  C   UNL     1     -11.415  10.403  70.445  1.00  0.00    -0.420 A  
HETATM   17  C   UNL     1     -11.904  11.451  69.663  1.00  0.00    -0.431 A  
HETATM   18  C   UNL     1     -11.623  11.501  68.298  1.00  0.00    -0.308 A  
HETATM   19  O   UNL     1     -12.106  12.591  67.617  1.00  0.00    -0.436 OA 
HETATM   20  C   UNL     1     -11.876  12.685  66.265  1.00  0.00    -0.410 A  
HETATM   21  C   UNL     1     -12.443  13.787  65.621  1.00  0.00    -0.541 A  
HETATM   22  C   UNL     1     -12.254  13.975  64.253  1.00  0.00    -0.453 A  
HETATM   23  C   UNL     1     -11.505  13.055  63.521  1.00  0.00    -0.403 A  
HETATM   24  C   UNL     1     -10.942  11.950  64.160  1.00  0.00    -0.430 A  
HETATM   25  C   UNL     1     -11.114  11.765  65.543  1.00  0.00    -0.336 A  
ENDBRANCH  10  12
ENDBRANCH   9  10
ENDBRANCH   8   9
ENDBRANCH   7   8
ENDBRANCH   3   7
ENDBRANCH   2   3
TORSDOF 7
ENDMDL
MODEL      109
REMARK 921   NORMALIZED FREE ENERGY PREDICTED BY IDOCK:   -4.28 KCAL/MOL
REMARK 922        TOTAL FREE ENERGY PREDICTED BY IDOCK:   -7.35 KCAL/MOL
REMARK 923 INTER-LIGAND FREE ENERGY PREDICTED BY IDOCK:   -6.40 KCAL/MOL
REMARK 924 INTRA-LIGAND FREE ENERGY PREDICTED BY IDOCK:   -0.95 KCAL/MOL
REMARK 927      BINDING AFFINITY PREDICTED BY RF-SCORE:    0.00 PKD
ROOT
HETATM    1  C   UNL     1      -8.744  15.217  68.790  1.00  0.00    -0.194 C  
HETATM    2  C   UNL     1      -9.745  14.074  68.844  1.00  0.00    -0.043 C  
ENDROOT
BRANCH   2   3
HETATM    3  N   UNL     1     -11.223  14.519  68.997  1.00  0.00    -0.254 N  
HETATM    4  C   UNL     1     -11.292  16.055  68.924  1.00  0.00    -0.370 C  
BRANCH   3   5
HETATM    5  C   UNL     1     -12.142  13.935  67.907  1.00  0.00    -0.283 C  
HETATM    6  C   UNL     1     -11.689  14.253  66.490  1.00  0.00    -0.409 C  
ENDBRANCH   3   5
BRANCH   3   7
HETATM    7  C   UNL     1     -11.650  14.074  70.426  1.00  0.00    -0.139 C  
BRANCH   7   8
HETATM    8  C   UNL     1     -12.424  12.754  70.476  1.00  0.00    -0.202 C  
BRANCH   8   9
HETATM    9  O   UNL     1     -11.538  11.636  70.557  1.00  0.00    -0.212 OA 
BRANCH   9  10
HETATM   10  C   UNL     1     -12.170  10.421  70.600  1.00  0.00    -0.347 C  
HETATM   11  O   UNL     1     -13.362  10.295  70.855  1.00  0.00    -0.370 OA 
BRANCH  10  12
HETATM   12  C   UNL     1     -11.248   9.300  70.135  1.00  0.00    -0.237 C  
HETATM   13  C   UNL     1     -10.385   9.845  69.019  1.00  0.00    -0.224 A  
HETATM   14  C   UNL     1     -10.973  10.332  67.837  1.00  0.00    -0.350 A  
HETATM   15  C   UNL     1     -10.195  10.969  66.872  1.00  0.00    -0.263 A  
HETATM   16  C   UNL     1      -8.823  11.105  67.067  1.00  0.00    -0.149 A  
HETATM   17  C   UNL     1      -8.230  10.606  68.229  1.00  0.00    -0.120 A  
HETATM   18  C   UNL     1      -9.010   9.988  69.206  1.00  0.00    -0.178 A  
HETATM   19  O   UNL     1      -8.350   9.568  70.336  1.00  0.00    -0.179 OA 
HETATM   20  C   UNL     1      -9.064   8.937  71.326  1.00  0.00    -0.253 A  
HETATM   21  C   UNL     1      -8.325   8.482  72.421  1.00  0.00    -0.177 A  
HETATM   22  C   UNL     1      -8.963   7.841  73.481  1.00  0.00    -0.327 A  
HETATM   23  C   UNL     1     -10.342   7.642  73.445  1.00  0.00    -0.374 A  
HETATM   24  C   UNL     1     -11.082   8.089  72.351  1.00  0.00    -0.416 A  
HETATM   25  C   UNL     1     -10.447   8.752  71.287  1.00  0.00    -0.326 A  
ENDBRANCH  10  12
ENDBRANCH   9  10
ENDBRANCH   8   9
ENDBRANCH   7   8
ENDBRANCH   3   7
ENDBRANCH   2   3
TORSDOF 7
ENDMDL
MODEL      110
REMARK 921   NORMALIZED FREE ENERGY PREDICTED BY IDOCK:   -4.28 KCAL/MOL
REMARK 922        TOTAL FREE ENERGY PREDICTED BY IDOCK:   -7.35 KCAL/MOL
REMARK 923 INTER-LIGAND FREE ENERGY PREDICTED BY IDOCK:   -6.51 KCAL/MOL
REMARK 924 INTRA-LIGAND FREE ENERGY PREDICTED BY IDOCK:   -0.83 KCAL/MOL
REMARK 927      BINDING AFFINITY PREDICTED BY RF-SCORE:    0.00 PKD
ROOT
HETATM    1  C   UNL     1      -9.929   4.619  71.908  1.00  0.00    -0.254 C  
HETATM    2  C   UNL     1      -9.197   5.775  71.248  1.00  0.00    -0.146 C  
ENDROOT
BRANCH   2   3
HETATM    3  N   UNL     1     -10.054   7.055  71.057  1.00  0.00    -0.196 N  
HETATM    4  C   UNL     1     -11.362   6.677  70.340  1.00  0.00    -0.365 C  
BRANCH   3   5
HETATM    5  C   UNL     1     -10.405   7.745  72.388  1.00  0.00    -0.253 C  
HETATM    6  C   UNL     1     -11.900   7.903  72.620  1.00  0.00    -0.352 C  
ENDBRANCH   3   5
BRANCH   3   7
HETATM    7  C   UNL     1      -9.226   7.979  70.116  1.00  0.00    -0.152 C  
BRANCH   7   8
HETATM    8  C   UNL     1      -9.139   9.437  70.573  1.00  0.00    -0.256 C  
BRANCH   8   9
HETATM    9  O   UNL     1      -9.570  10.330  69.544  1.00  0.00    -0.224 OA 
BRANCH   9  10
HETATM   10  C   UNL     1     -10.925  10.341  69.341  1.00  0.00    -0.247 C  
HETATM   11  O   UNL     1     -11.739  10.308  70.256  1.00  0.00    -0.268 OA 
BRANCH  10  12
HETATM   12  C   UNL     1     -11.263  10.564  67.872  1.00  0.00    -0.358 C  
HETATM   13  C   UNL     1     -11.187  12.049  67.600  1.00  0.00    -0.343 A  
HETATM   14  C   UNL     1     -12.023  12.944  68.294  1.00  0.00    -0.297 A  
HETATM   15  C   UNL     1     -11.853  14.320  68.156  1.00  0.00    -0.374 A  
HETATM   16  C   UNL     1     -10.865  14.815  67.308  1.00  0.00    -0.309 A  
HETATM   17  C   UNL     1     -10.046  13.932  66.602  1.00  0.00    -0.273 A  
HETATM   18  C   UNL     1     -10.199  12.554  66.755  1.00  0.00    -0.231 A  
HETATM   19  O   UNL     1      -9.320  11.763  66.056  1.00  0.00    -0.226 OA 
HETATM   20  C   UNL     1      -9.434  10.397  66.155  1.00  0.00    -0.181 A  
HETATM   21  C   UNL     1      -8.549   9.650  65.374  1.00  0.00    -0.167 A  
HETATM   22  C   UNL     1      -8.580   8.257  65.417  1.00  0.00    -0.176 A  
HETATM   23  C   UNL     1      -9.504   7.606  66.233  1.00  0.00    -0.176 A  
HETATM   24  C   UNL     1     -10.393   8.349  67.009  1.00  0.00    -0.385 A  
HETATM   25  C   UNL     1     -10.355   9.754  66.984  1.00  0.00    -0.305 A  
ENDBRANCH  10  12
ENDBRANCH   9  10
ENDBRANCH   8   9
ENDBRANCH   7   8
ENDBRANCH   3   7
ENDBRANCH   2   3
TORSDOF 7
ENDMDL
MODEL      111
REMARK 921   NORMALIZED FREE ENERGY PREDICTED BY IDOCK:   -4.27 KCAL/MOL
REMARK 922        TOTAL FREE ENERGY PREDICTED BY IDOCK:   -7.34 KCAL/MOL
REMARK 923 INTER-LIGAND FREE ENERGY PREDICTED BY IDOCK:   -6.27 KCAL/MOL
REMARK 924 INTRA-LIGAND FREE ENERGY PREDICTED BY IDOCK:   -1.07 KCAL/MOL
REMARK 927      BINDING AFFINITY PREDICTED BY RF-SCORE:    0.00 PKD
ROOT
HETATM    1  C   UNL     1     -10.086   8.298  66.763  1.00  0.00    -0.373 C  
HETATM    2  C   UNL     1      -9.489   8.895  65.500  1.00  0.00    -0.092 C  
ENDROOT
BRANCH   2   3
HETATM    3  N   UNL     1      -7.949   8.744  65.382  1.00  0.00    -0.106 N  
HETATM    4  C   UNL     1      -7.434   7.930  66.582  1.00  0.00    -0.089 C  
BRANCH   3   5
HETATM    5  C   UNL     1      -7.513   8.036  64.086  1.00  0.00    -0.107 C  
HETATM    6  C   UNL     1      -6.783   8.943  63.107  1.00  0.00    -0.090 C  
ENDBRANCH   3   5
BRANCH   3   7
HETATM    7  C   UNL     1      -7.377  10.188  65.484  1.00  0.00    -0.143 C  
BRANCH   7   8
HETATM    8  C   UNL     1      -7.219  10.709  66.915  1.00  0.00    -0.110 C  
BRANCH   8   9
HETATM    9  O   UNL     1      -7.636  12.072  67.020  1.00  0.00    -0.149 OA 
BRANCH   9  10
HETATM   10  C   UNL     1      -8.988  12.235  67.169  1.00  0.00    -0.192 C  
HETATM   11  O   UNL     1      -9.688  11.464  67.815  1.00  0.00    -0.170 OA 
BRANCH  10  12
HETATM   12  C   UNL     1      -9.455  13.561  66.581  1.00  0.00    -0.271 C  
HETATM   13  C   UNL     1     -10.400  13.254  65.441  1.00  0.00    -0.316 A  
HETATM   14  C   UNL     1      -9.958  12.511  64.331  1.00  0.00    -0.206 A  
HETATM   15  C   UNL     1     -10.862  12.100  63.352  1.00  0.00    -0.474 A  
HETATM   16  C   UNL     1     -12.207  12.445  63.462  1.00  0.00    -0.661 A  
HETATM   17  C   UNL     1     -12.648  13.198  64.551  1.00  0.00    -0.344 A  
HETATM   18  C   UNL     1     -11.750  13.593  65.543  1.00  0.00    -0.337 A  
HETATM   19  O   UNL     1     -12.279  14.291  66.601  1.00  0.00    -0.449 OA 
HETATM   20  C   UNL     1     -11.439  14.721  67.600  1.00  0.00    -0.347 A  
HETATM   21  C   UNL     1     -12.030  15.477  68.616  1.00  0.00    -0.231 A  
HETATM   22  C   UNL     1     -11.261  15.946  69.679  1.00  0.00    -0.331 A  
HETATM   23  C   UNL     1      -9.895  15.670  69.726  1.00  0.00    -0.260 A  
HETATM   24  C   UNL     1      -9.301  14.921  68.710  1.00  0.00    -0.203 A  
HETATM   25  C   UNL     1     -10.075  14.430  67.645  1.00  0.00    -0.222 A  
ENDBRANCH  10  12
ENDBRANCH   9  10
ENDBRANCH   8   9
ENDBRANCH   7   8
ENDBRANCH   3   7
ENDBRANCH   2   3
TORSDOF 7
ENDMDL
MODEL      112
REMARK 921   NORMALIZED FREE ENERGY PREDICTED BY IDOCK:   -4.27 KCAL/MOL
REMARK 922        TOTAL FREE ENERGY PREDICTED BY IDOCK:   -7.34 KCAL/MOL
REMARK 923 INTER-LIGAND FREE ENERGY PREDICTED BY IDOCK:   -6.41 KCAL/MOL
REMARK 924 INTRA-LIGAND FREE ENERGY PREDICTED BY IDOCK:   -0.93 KCAL/MOL
REMARK 927      BINDING AFFINITY PREDICTED BY RF-SCORE:    0.00 PKD
ROOT
HETATM    1  C   UNL     1     -11.951  14.033  68.656  1.00  0.00    -0.389 C  
HETATM    2  C   UNL     1     -11.005  14.525  67.572  1.00  0.00    -0.293 C  
ENDROOT
BRANCH   2   3
HETATM    3  N   UNL     1     -10.599  13.444  66.534  1.00  0.00    -0.285 N  
HETATM    4  C   UNL     1     -11.605  12.282  66.605  1.00  0.00    -0.375 C  
BRANCH   3   5
HETATM    5  C   UNL     1     -10.570  13.981  65.091  1.00  0.00    -0.386 C  
HETATM    6  C   UNL     1     -11.941  14.053  64.436  1.00  0.00    -0.480 C  
ENDBRANCH   3   5
BRANCH   3   7
HETATM    7  C   UNL     1      -9.208  12.921  66.996  1.00  0.00    -0.226 C  
BRANCH   7   8
HETATM    8  C   UNL     1      -9.150  11.413  67.252  1.00  0.00    -0.162 C  
BRANCH   8   9
HETATM    9  O   UNL     1      -8.385  11.114  68.422  1.00  0.00    -0.134 OA 
BRANCH   9  10
HETATM   10  C   UNL     1      -8.655   9.888  68.970  1.00  0.00    -0.149 C  
HETATM   11  O   UNL     1      -7.932   9.353  69.802  1.00  0.00    -0.092 OA 
BRANCH  10  12
HETATM   12  C   UNL     1     -10.024   9.377  68.539  1.00  0.00    -0.190 C  
HETATM   13  C   UNL     1      -9.824   8.054  67.835  1.00  0.00    -0.204 A  
HETATM   14  C   UNL     1      -9.037   7.980  66.671  1.00  0.00    -0.199 A  
HETATM   15  C   UNL     1      -8.729   6.743  66.105  1.00  0.00    -0.156 A  
HETATM   16  C   UNL     1      -9.220   5.575  66.683  1.00  0.00    -0.137 A  
HETATM   17  C   UNL     1     -10.017   5.644  67.827  1.00  0.00    -0.175 A  
HETATM   18  C   UNL     1     -10.309   6.878  68.408  1.00  0.00    -0.190 A  
HETATM   19  O   UNL     1     -11.062   6.847  69.556  1.00  0.00    -0.252 OA 
HETATM   20  C   UNL     1     -11.396   8.034  70.164  1.00  0.00    -0.078 A  
HETATM   21  C   UNL     1     -12.212   7.937  71.293  1.00  0.00    -0.314 A  
HETATM   22  C   UNL     1     -12.593   9.086  71.985  1.00  0.00    -0.464 A  
HETATM   23  C   UNL     1     -12.168  10.337  71.542  1.00  0.00    -0.449 A  
HETATM   24  C   UNL     1     -11.359  10.438  70.411  1.00  0.00    -0.417 A  
HETATM   25  C   UNL     1     -10.956   9.282  69.720  1.00  0.00    -0.213 A  
ENDBRANCH  10  12
ENDBRANCH   9  10
ENDBRANCH   8   9
ENDBRANCH   7   8
ENDBRANCH   3   7
ENDBRANCH   2   3
TORSDOF 7
ENDMDL
MODEL      113
REMARK 921   NORMALIZED FREE ENERGY PREDICTED BY IDOCK:   -4.27 KCAL/MOL
REMARK 922        TOTAL FREE ENERGY PREDICTED BY IDOCK:   -7.33 KCAL/MOL
REMARK 923 INTER-LIGAND FREE ENERGY PREDICTED BY IDOCK:   -6.64 KCAL/MOL
REMARK 924 INTRA-LIGAND FREE ENERGY PREDICTED BY IDOCK:   -0.69 KCAL/MOL
REMARK 927      BINDING AFFINITY PREDICTED BY RF-SCORE:    0.00 PKD
ROOT
HETATM    1  C   UNL     1     -13.705   9.322  71.519  1.00  0.00    -0.382 C  
HETATM    2  C   UNL     1     -12.365   9.872  71.058  1.00  0.00    -0.357 C  
ENDROOT
BRANCH   2   3
HETATM    3  N   UNL     1     -11.309   8.788  70.710  1.00  0.00    -0.269 N  
HETATM    4  C   UNL     1     -10.163   8.863  71.735  1.00  0.00    -0.344 C  
BRANCH   3   5
HETATM    5  C   UNL     1     -11.888   7.361  70.724  1.00  0.00    -0.258 C  
HETATM    6  C   UNL     1     -11.186   6.425  71.695  1.00  0.00    -0.327 C  
ENDBRANCH   3   5
BRANCH   3   7
HETATM    7  C   UNL     1     -10.748   9.182  69.313  1.00  0.00    -0.183 C  
BRANCH   7   8
HETATM    8  C   UNL     1      -9.724  10.320  69.338  1.00  0.00    -0.222 C  
BRANCH   8   9
HETATM    9  O   UNL     1     -10.336  11.575  69.032  1.00  0.00    -0.194 OA 
BRANCH   9  10
HETATM   10  C   UNL     1      -9.803  12.208  67.940  1.00  0.00    -0.199 C  
HETATM   11  O   UNL     1      -8.868  11.753  67.292  1.00  0.00    -0.157 OA 
BRANCH  10  12
HETATM   12  C   UNL     1     -10.622  13.434  67.556  1.00  0.00    -0.255 C  
HETATM   13  C   UNL     1      -9.736  14.650  67.711  1.00  0.00    -0.215 A  
HETATM   14  C   UNL     1      -9.184  14.973  68.965  1.00  0.00    -0.205 A  
HETATM   15  C   UNL     1      -8.251  16.002  69.081  1.00  0.00    -0.241 A  
HETATM   16  C   UNL     1      -7.878  16.730  67.954  1.00  0.00    -0.178 A  
HETATM   17  C   UNL     1      -8.436  16.426  66.711  1.00  0.00    -0.279 A  
HETATM   18  C   UNL     1      -9.354  15.383  66.587  1.00  0.00    -0.263 A  
HETATM   19  O   UNL     1      -9.817  15.126  65.320  1.00  0.00    -0.313 OA 
HETATM   20  C   UNL     1     -10.736  14.121  65.139  1.00  0.00    -0.388 A  
HETATM   21  C   UNL     1     -11.211  13.950  63.837  1.00  0.00     0.120 A  
HETATM   22  C   UNL     1     -12.137  12.947  63.554  1.00  0.00    -0.633 A  
HETATM   23  C   UNL     1     -12.599  12.118  64.574  1.00  0.00    -0.323 A  
HETATM   24  C   UNL     1     -12.132  12.290  65.877  1.00  0.00    -0.261 A  
HETATM   25  C   UNL     1     -11.185  13.288  66.166  1.00  0.00    -0.317 A  
ENDBRANCH  10  12
ENDBRANCH   9  10
ENDBRANCH   8   9
ENDBRANCH   7   8
ENDBRANCH   3   7
ENDBRANCH   2   3
TORSDOF 7
ENDMDL
MODEL      114
REMARK 921   NORMALIZED FREE ENERGY PREDICTED BY IDOCK:   -4.25 KCAL/MOL
REMARK 922        TOTAL FREE ENERGY PREDICTED BY IDOCK:   -7.31 KCAL/MOL
REMARK 923 INTER-LIGAND FREE ENERGY PREDICTED BY IDOCK:   -6.29 KCAL/MOL
REMARK 924 INTRA-LIGAND FREE ENERGY PREDICTED BY IDOCK:   -1.02 KCAL/MOL
REMARK 927      BINDING AFFINITY PREDICTED BY RF-SCORE:    0.00 PKD
ROOT
HETATM    1  C   UNL     1      -8.767  14.365  66.927  1.00  0.00    -0.218 C  
HETATM    2  C   UNL     1      -9.641  13.151  67.195  1.00  0.00    -0.235 C  
ENDROOT
BRANCH   2   3
HETATM    3  N   UNL     1     -11.167  13.428  67.124  1.00  0.00    -0.293 N  
HETATM    4  C   UNL     1     -11.405  14.943  67.258  1.00  0.00    -0.349 C  
BRANCH   3   5
HETATM    5  C   UNL     1     -11.804  12.946  65.808  1.00  0.00    -0.419 C  
HETATM    6  C   UNL     1     -12.649  14.002  65.113  1.00  0.00    -0.453 C  
ENDBRANCH   3   5
BRANCH   3   7
HETATM    7  C   UNL     1     -11.780  12.721  68.368  1.00  0.00    -0.339 C  
BRANCH   7   8
HETATM    8  C   UNL     1     -10.862  11.690  69.029  1.00  0.00    -0.203 C  
BRANCH   8   9
HETATM    9  O   UNL     1     -11.170  10.365  68.592  1.00  0.00    -0.256 OA 
BRANCH   9  10
HETATM   10  C   UNL     1     -10.072   9.605  68.289  1.00  0.00    -0.177 C  
HETATM   11  O   UNL     1      -8.988   9.740  68.846  1.00  0.00    -0.133 OA 
BRANCH  10  12
HETATM   12  C   UNL     1     -10.423   8.489  67.311  1.00  0.00    -0.366 C  
HETATM   13  C   UNL     1      -9.634   8.720  66.042  1.00  0.00    -0.297 A  
HETATM   14  C   UNL     1      -9.808   9.905  65.302  1.00  0.00    -0.373 A  
HETATM   15  C   UNL     1      -8.978  10.187  64.218  1.00  0.00    -0.267 A  
HETATM   16  C   UNL     1      -7.986   9.282  63.850  1.00  0.00    -0.141 A  
HETATM   17  C   UNL     1      -7.821   8.096  64.568  1.00  0.00    -0.138 A  
HETATM   18  C   UNL     1      -8.635   7.821  65.667  1.00  0.00    -0.127 A  
HETATM   19  O   UNL     1      -8.373   6.653  66.342  1.00  0.00    -0.112 OA 
HETATM   20  C   UNL     1      -9.154   6.321  67.422  1.00  0.00    -0.111 A  
HETATM   21  C   UNL     1      -8.874   5.093  68.027  1.00  0.00    -0.106 A  
HETATM   22  C   UNL     1      -9.604   4.675  69.138  1.00  0.00    -0.245 A  
HETATM   23  C   UNL     1     -10.626   5.479  69.642  1.00  0.00    -0.375 A  
HETATM   24  C   UNL     1     -10.912   6.703  69.037  1.00  0.00    -0.332 A  
HETATM   25  C   UNL     1     -10.167   7.138  67.927  1.00  0.00    -0.231 A  
ENDBRANCH  10  12
ENDBRANCH   9  10
ENDBRANCH   8   9
ENDBRANCH   7   8
ENDBRANCH   3   7
ENDBRANCH   2   3
TORSDOF 7
ENDMDL
MODEL      115
REMARK 921   NORMALIZED FREE ENERGY PREDICTED BY IDOCK:   -4.25 KCAL/MOL
REMARK 922        TOTAL FREE ENERGY PREDICTED BY IDOCK:   -7.30 KCAL/MOL
REMARK 923 INTER-LIGAND FREE ENERGY PREDICTED BY IDOCK:   -6.70 KCAL/MOL
REMARK 924 INTRA-LIGAND FREE ENERGY PREDICTED BY IDOCK:   -0.60 KCAL/MOL
REMARK 927      BINDING AFFINITY PREDICTED BY RF-SCORE:    0.00 PKD
ROOT
HETATM    1  C   UNL     1      -8.463  15.032  68.727  1.00  0.00    -0.180 C  
HETATM    2  C   UNL     1      -9.751  14.225  68.750  1.00  0.00    -0.173 C  
ENDROOT
BRANCH   2   3
HETATM    3  N   UNL     1     -10.615  14.353  67.467  1.00  0.00    -0.263 N  
HETATM    4  C   UNL     1     -11.091  15.811  67.331  1.00  0.00    -0.235 C  
BRANCH   3   5
HETATM    5  C   UNL     1      -9.850  13.965  66.188  1.00  0.00    -0.302 C  
HETATM    6  C   UNL     1     -10.555  14.377  64.905  1.00  0.00    -0.456 C  
ENDBRANCH   3   5
BRANCH   3   7
HETATM    7  C   UNL     1     -11.859  13.449  67.706  1.00  0.00    -0.358 C  
BRANCH   7   8
HETATM    8  C   UNL     1     -11.659  11.980  67.324  1.00  0.00    -0.313 C  
BRANCH   8   9
HETATM    9  O   UNL     1     -12.203  11.107  68.316  1.00  0.00    -0.613 OA 
BRANCH   9  10
HETATM   10  C   UNL     1     -11.429  10.982  69.439  1.00  0.00    -0.294 C  
HETATM   11  O   UNL     1     -11.537  11.718  70.412  1.00  0.00    -0.237 OA 
BRANCH  10  12
HETATM   12  C   UNL     1     -10.559   9.732  69.377  1.00  0.00    -0.248 C  
HETATM   13  C   UNL     1      -9.138  10.170  69.100  1.00  0.00    -0.189 A  
HETATM   14  C   UNL     1      -8.827  10.875  67.923  1.00  0.00    -0.134 A  
HETATM   15  C   UNL     1      -7.553  11.408  67.736  1.00  0.00    -0.105 A  
HETATM   16  C   UNL     1      -6.575  11.224  68.709  1.00  0.00    -0.062 A  
HETATM   17  C   UNL     1      -6.872  10.509  69.871  1.00  0.00    -0.149 A  
HETATM   18  C   UNL     1      -8.152   9.992  70.071  1.00  0.00    -0.136 A  
HETATM   19  O   UNL     1      -8.367   9.342  71.262  1.00  0.00    -0.308 OA 
HETATM   20  C   UNL     1      -9.605   8.798  71.507  1.00  0.00    -0.284 A  
HETATM   21  C   UNL     1      -9.740   8.099  72.709  1.00  0.00    -0.351 A  
HETATM   22  C   UNL     1     -10.962   7.523  73.052  1.00  0.00    -0.443 A  
HETATM   23  C   UNL     1     -12.051   7.633  72.188  1.00  0.00    -0.325 A  
HETATM   24  C   UNL     1     -11.917   8.325  70.984  1.00  0.00    -0.260 A  
HETATM   25  C   UNL     1     -10.692   8.923  70.641  1.00  0.00    -0.282 A  
ENDBRANCH  10  12
ENDBRANCH   9  10
ENDBRANCH   8   9
ENDBRANCH   7   8
ENDBRANCH   3   7
ENDBRANCH   2   3
TORSDOF 7
ENDMDL
MODEL      116
REMARK 921   NORMALIZED FREE ENERGY PREDICTED BY IDOCK:   -4.23 KCAL/MOL
REMARK 922        TOTAL FREE ENERGY PREDICTED BY IDOCK:   -7.28 KCAL/MOL
REMARK 923 INTER-LIGAND FREE ENERGY PREDICTED BY IDOCK:   -6.56 KCAL/MOL
REMARK 924 INTRA-LIGAND FREE ENERGY PREDICTED BY IDOCK:   -0.72 KCAL/MOL
REMARK 927      BINDING AFFINITY PREDICTED BY RF-SCORE:    0.00 PKD
ROOT
HETATM    1  C   UNL     1     -12.215  13.997  64.957  1.00  0.00    -0.448 C  
HETATM    2  C   UNL     1     -11.192  13.151  65.697  1.00  0.00    -0.283 C  
ENDROOT
BRANCH   2   3
HETATM    3  N   UNL     1     -11.170  13.366  67.234  1.00  0.00    -0.285 N  
HETATM    4  C   UNL     1      -9.750  13.780  67.659  1.00  0.00    -0.227 C  
BRANCH   3   5
HETATM    5  C   UNL     1     -12.158  14.451  67.702  1.00  0.00    -0.277 C  
HETATM    6  C   UNL     1     -11.492  15.624  68.404  1.00  0.00    -0.374 C  
ENDBRANCH   3   5
BRANCH   3   7
HETATM    7  C   UNL     1     -11.484  11.975  67.857  1.00  0.00    -0.330 C  
BRANCH   7   8
HETATM    8  C   UNL     1     -10.861  10.791  67.114  1.00  0.00    -0.277 C  
BRANCH   8   9
HETATM    9  O   UNL     1     -10.697   9.664  67.979  1.00  0.00    -0.240 OA 
BRANCH   9  10
HETATM   10  C   UNL     1      -9.447   9.556  68.528  1.00  0.00    -0.141 C  
HETATM   11  O   UNL     1      -8.690  10.510  68.665  1.00  0.00    -0.128 OA 
BRANCH  10  12
HETATM   12  C   UNL     1      -9.205   8.157  69.082  1.00  0.00    -0.151 C  
HETATM   13  C   UNL     1     -10.179   7.933  70.217  1.00  0.00    -0.200 A  
HETATM   14  C   UNL     1     -10.155   8.770  71.349  1.00  0.00    -0.354 A  
HETATM   15  C   UNL     1     -11.143   8.662  72.326  1.00  0.00    -0.395 A  
HETATM   16  C   UNL     1     -12.148   7.706  72.194  1.00  0.00    -0.325 A  
HETATM   17  C   UNL     1     -12.165   6.860  71.083  1.00  0.00    -0.428 A  
HETATM   18  C   UNL     1     -11.190   6.980  70.093  1.00  0.00    -0.284 A  
HETATM   19  O   UNL     1     -11.311   6.138  69.015  1.00  0.00    -0.390 OA 
HETATM   20  C   UNL     1     -10.369   6.199  68.015  1.00  0.00    -0.199 A  
HETATM   21  C   UNL     1     -10.516   5.276  66.977  1.00  0.00    -0.290 A  
HETATM   22  C   UNL     1      -9.617   5.270  65.912  1.00  0.00    -0.142 A  
HETATM   23  C   UNL     1      -8.561   6.180  65.886  1.00  0.00    -0.147 A  
HETATM   24  C   UNL     1      -8.408   7.098  66.925  1.00  0.00    -0.118 A  
HETATM   25  C   UNL     1      -9.322   7.122  67.992  1.00  0.00    -0.129 A  
ENDBRANCH  10  12
ENDBRANCH   9  10
ENDBRANCH   8   9
ENDBRANCH   7   8
ENDBRANCH   3   7
ENDBRANCH   2   3
TORSDOF 7
ENDMDL
MODEL      117
REMARK 921   NORMALIZED FREE ENERGY PREDICTED BY IDOCK:   -4.20 KCAL/MOL
REMARK 922        TOTAL FREE ENERGY PREDICTED BY IDOCK:   -7.24 KCAL/MOL
REMARK 923 INTER-LIGAND FREE ENERGY PREDICTED BY IDOCK:   -6.25 KCAL/MOL
REMARK 924 INTRA-LIGAND FREE ENERGY PREDICTED BY IDOCK:   -1.00 KCAL/MOL
REMARK 927      BINDING AFFINITY PREDICTED BY RF-SCORE:    0.00 PKD
ROOT
HETATM    1  C   UNL     1      -8.553   7.637  69.252  1.00  0.00    -0.136 C  
HETATM    2  C   UNL     1      -9.268   8.736  68.483  1.00  0.00    -0.141 C  
ENDROOT
BRANCH   2   3
HETATM    3  N   UNL     1      -8.342   9.607  67.593  1.00  0.00    -0.121 N  
HETATM    4  C   UNL     1      -6.879   9.203  67.851  1.00  0.00    -0.069 C  
BRANCH   3   5
HETATM    5  C   UNL     1      -8.636   9.450  66.089  1.00  0.00    -0.136 C  
HETATM    6  C   UNL     1      -7.717   8.465  65.384  1.00  0.00    -0.099 C  
ENDBRANCH   3   5
BRANCH   3   7
HETATM    7  C   UNL     1      -8.543  11.070  68.082  1.00  0.00    -0.140 C  
BRANCH   7   8
HETATM    8  C   UNL     1      -8.059  12.140  67.101  1.00  0.00    -0.175 C  
BRANCH   8   9
HETATM    9  O   UNL     1      -8.926  13.277  67.103  1.00  0.00    -0.212 OA 
BRANCH   9  10
HETATM   10  C   UNL     1      -9.907  13.235  66.147  1.00  0.00    -0.280 C  
HETATM   11  O   UNL     1      -9.790  12.620  65.094  1.00  0.00    -0.206 OA 
BRANCH  10  12
HETATM   12  C   UNL     1     -11.188  13.898  66.639  1.00  0.00    -0.328 C  
HETATM   13  C   UNL     1     -11.613  13.198  67.911  1.00  0.00    -0.375 A  
HETATM   14  C   UNL     1     -11.909  11.823  67.901  1.00  0.00    -0.289 A  
HETATM   15  C   UNL     1     -12.155  11.146  69.095  1.00  0.00    -0.352 A  
HETATM   16  C   UNL     1     -12.130  11.839  70.303  1.00  0.00    -0.426 A  
HETATM   17  C   UNL     1     -11.856  13.208  70.316  1.00  0.00    -0.299 A  
HETATM   18  C   UNL     1     -11.587  13.883  69.126  1.00  0.00    -0.313 A  
HETATM   19  O   UNL     1     -11.284  15.218  69.239  1.00  0.00    -0.250 OA 
HETATM   20  C   UNL     1     -11.027  15.940  68.098  1.00  0.00    -0.335 A  
HETATM   21  C   UNL     1     -10.784  17.304  68.276  1.00  0.00    -0.349 A  
HETATM   22  C   UNL     1     -10.501  18.115  67.178  1.00  0.00    -0.392 A  
HETATM   23  C   UNL     1     -10.472  17.568  65.897  1.00  0.00    -0.251 A  
HETATM   24  C   UNL     1     -10.720  16.208  65.715  1.00  0.00    -0.289 A  
HETATM   25  C   UNL     1     -10.988  15.381  66.819  1.00  0.00    -0.282 A  
ENDBRANCH  10  12
ENDBRANCH   9  10
ENDBRANCH   8   9
ENDBRANCH   7   8
ENDBRANCH   3   7
ENDBRANCH   2   3
TORSDOF 7
ENDMDL
MODEL      118
REMARK 921   NORMALIZED FREE ENERGY PREDICTED BY IDOCK:   -4.20 KCAL/MOL
REMARK 922        TOTAL FREE ENERGY PREDICTED BY IDOCK:   -7.23 KCAL/MOL
REMARK 923 INTER-LIGAND FREE ENERGY PREDICTED BY IDOCK:   -6.48 KCAL/MOL
REMARK 924 INTRA-LIGAND FREE ENERGY PREDICTED BY IDOCK:   -0.76 KCAL/MOL
REMARK 927      BINDING AFFINITY PREDICTED BY RF-SCORE:    0.00 PKD
ROOT
HETATM    1  C   UNL     1      -9.806  11.078  63.415  1.00  0.00    -0.404 C  
HETATM    2  C   UNL     1     -10.517  10.830  64.735  1.00  0.00    -0.265 C  
ENDROOT
BRANCH   2   3
HETATM    3  N   UNL     1      -9.573  10.697  65.960  1.00  0.00    -0.189 N  
HETATM    4  C   UNL     1      -8.114  10.725  65.471  1.00  0.00    -0.084 C  
BRANCH   3   5
HETATM    5  C   UNL     1      -9.767  11.824  66.991  1.00  0.00    -0.185 C  
HETATM    6  C   UNL     1      -9.417  13.206  66.461  1.00  0.00    -0.246 C  
ENDBRANCH   3   5
BRANCH   3   7
HETATM    7  C   UNL     1      -9.864   9.292  66.563  1.00  0.00    -0.263 C  
BRANCH   7   8
HETATM    8  C   UNL     1     -10.785   9.304  67.786  1.00  0.00    -0.207 C  
BRANCH   8   9
HETATM    9  O   UNL     1     -10.291   8.444  68.815  1.00  0.00    -0.208 OA 
BRANCH   9  10
HETATM   10  C   UNL     1      -9.738   9.105  69.880  1.00  0.00    -0.191 C  
HETATM   11  O   UNL     1      -9.224  10.213  69.787  1.00  0.00    -0.208 OA 
BRANCH  10  12
HETATM   12  C   UNL     1      -9.996   8.364  71.187  1.00  0.00    -0.245 C  
HETATM   13  C   UNL     1     -11.481   8.427  71.469  1.00  0.00    -0.335 A  
HETATM   14  C   UNL     1     -12.121   9.669  71.635  1.00  0.00    -0.481 A  
HETATM   15  C   UNL     1     -13.509   9.738  71.747  1.00  0.00    -0.463 A  
HETATM   16  C   UNL     1     -14.266   8.570  71.716  1.00  0.00    -0.525 A  
HETATM   17  C   UNL     1     -13.634   7.333  71.571  1.00  0.00    -0.442 A  
HETATM   18  C   UNL     1     -12.248   7.262  71.437  1.00  0.00    -0.349 A  
HETATM   19  O   UNL     1     -11.717   6.009  71.254  1.00  0.00    -0.225 OA 
HETATM   20  C   UNL     1     -10.355   5.875  71.133  1.00  0.00    -0.221 A  
HETATM   21  C   UNL     1      -9.875   4.570  71.008  1.00  0.00    -0.266 A  
HETATM   22  C   UNL     1      -8.508   4.335  70.867  1.00  0.00    -0.103 A  
HETATM   23  C   UNL     1      -7.614   5.405  70.862  1.00  0.00    -0.089 A  
HETATM   24  C   UNL     1      -8.090   6.710  70.992  1.00  0.00    -0.119 A  
HETATM   25  C   UNL     1      -9.469   6.954  71.117  1.00  0.00    -0.166 A  
ENDBRANCH  10  12
ENDBRANCH   9  10
ENDBRANCH   8   9
ENDBRANCH   7   8
ENDBRANCH   3   7
ENDBRANCH   2   3
TORSDOF 7
ENDMDL
MODEL      119
REMARK 921   NORMALIZED FREE ENERGY PREDICTED BY IDOCK:   -4.19 KCAL/MOL
REMARK 922        TOTAL FREE ENERGY PREDICTED BY IDOCK:   -7.23 KCAL/MOL
REMARK 923 INTER-LIGAND FREE ENERGY PREDICTED BY IDOCK:   -6.20 KCAL/MOL
REMARK 924 INTRA-LIGAND FREE ENERGY PREDICTED BY IDOCK:   -1.03 KCAL/MOL
REMARK 927      BINDING AFFINITY PREDICTED BY RF-SCORE:    0.00 PKD
ROOT
HETATM    1  C   UNL     1     -11.895  14.288  69.929  1.00  0.00    -0.382 C  
HETATM    2  C   UNL     1     -11.043  14.245  68.671  1.00  0.00    -0.253 C  
ENDROOT
BRANCH   2   3
HETATM    3  N   UNL     1     -11.005  12.863  67.965  1.00  0.00    -0.237 N  
HETATM    4  C   UNL     1     -12.027  11.931  68.639  1.00  0.00    -0.233 C  
BRANCH   3   5
HETATM    5  C   UNL     1     -11.333  12.948  66.463  1.00  0.00    -0.318 C  
HETATM    6  C   UNL     1     -12.534  13.826  66.147  1.00  0.00    -0.466 C  
ENDBRANCH   3   5
BRANCH   3   7
HETATM    7  C   UNL     1      -9.578  12.299  68.225  1.00  0.00    -0.212 C  
BRANCH   7   8
HETATM    8  C   UNL     1      -9.128  11.228  67.228  1.00  0.00    -0.156 C  
BRANCH   8   9
HETATM    9  O   UNL     1      -8.682  10.048  67.901  1.00  0.00    -0.124 OA 
BRANCH   9  10
HETATM   10  C   UNL     1      -9.641   9.077  68.025  1.00  0.00    -0.148 C  
HETATM   11  O   UNL     1     -10.593   8.973  67.260  1.00  0.00    -0.276 OA 
BRANCH  10  12
HETATM   12  C   UNL     1      -9.276   8.074  69.113  1.00  0.00    -0.151 C  
HETATM   13  C   UNL     1     -10.352   8.131  70.174  1.00  0.00    -0.215 A  
HETATM   14  C   UNL     1     -10.604   9.328  70.869  1.00  0.00    -0.366 A  
HETATM   15  C   UNL     1     -11.689   9.425  71.738  1.00  0.00    -0.444 A  
HETATM   16  C   UNL     1     -12.517   8.323  71.938  1.00  0.00    -0.376 A  
HETATM   17  C   UNL     1     -12.261   7.126  71.267  1.00  0.00    -0.403 A  
HETATM   18  C   UNL     1     -11.189   7.033  70.380  1.00  0.00    -0.299 A  
HETATM   19  O   UNL     1     -11.040   5.833  69.729  1.00  0.00    -0.369 OA 
HETATM   20  C   UNL     1      -9.990   5.676  68.856  1.00  0.00    -0.166 A  
HETATM   21  C   UNL     1      -9.860   4.414  68.273  1.00  0.00    -0.132 A  
HETATM   22  C   UNL     1      -8.833   4.163  67.364  1.00  0.00    -0.128 A  
HETATM   23  C   UNL     1      -7.926   5.172  67.042  1.00  0.00    -0.100 A  
HETATM   24  C   UNL     1      -8.050   6.432  67.627  1.00  0.00    -0.114 A  
HETATM   25  C   UNL     1      -9.093   6.696  68.531  1.00  0.00    -0.128 A  
ENDBRANCH  10  12
ENDBRANCH   9  10
ENDBRANCH   8   9
ENDBRANCH   7   8
ENDBRANCH   3   7
ENDBRANCH   2   3
TORSDOF 7
ENDMDL
MODEL      120
REMARK 921   NORMALIZED FREE ENERGY PREDICTED BY IDOCK:   -4.19 KCAL/MOL
REMARK 922        TOTAL FREE ENERGY PREDICTED BY IDOCK:   -7.23 KCAL/MOL
REMARK 923 INTER-LIGAND FREE ENERGY PREDICTED BY IDOCK:   -7.83 KCAL/MOL
REMARK 924 INTRA-LIGAND FREE ENERGY PREDICTED BY IDOCK:    0.61 KCAL/MOL
REMARK 927      BINDING AFFINITY PREDICTED BY RF-SCORE:    0.00 PKD
ROOT
HETATM    1  C   UNL     1     -10.955  16.637  65.156  1.00  0.00    -0.160 C  
HETATM    2  C   UNL     1     -10.771  18.056  65.669  1.00  0.00    -0.043 C  
ENDROOT
BRANCH   2   3
HETATM    3  N   UNL     1     -10.101  18.154  67.066  1.00  0.00    -0.334 N  
HETATM    4  C   UNL     1      -8.601  17.839  66.922  1.00  0.00    -0.244 C  
BRANCH   3   5
HETATM    5  C   UNL     1     -10.251  19.546  67.707  1.00  0.00    -0.429 C  
HETATM    6  C   UNL     1      -9.878  19.585  69.181  1.00  0.00    -0.431 C  
ENDBRANCH   3   5
BRANCH   3   7
HETATM    7  C   UNL     1     -10.759  17.036  67.926  1.00  0.00    -0.348 C  
BRANCH   7   8
HETATM    8  C   UNL     1      -9.767  16.072  68.581  1.00  0.00    -0.217 C  
BRANCH   8   9
HETATM    9  O   UNL     1     -10.441  15.098  69.381  1.00  0.00    -0.236 OA 
BRANCH   9  10
HETATM   10  C   UNL     1     -10.417  13.831  68.861  1.00  0.00    -0.169 C  
HETATM   11  O   UNL     1      -9.390  13.283  68.478  1.00  0.00    -0.182 OA 
BRANCH  10  12
HETATM   12  C   UNL     1     -11.779  13.157  68.981  1.00  0.00    -0.367 C  
HETATM   13  C   UNL     1     -11.553  11.663  69.031  1.00  0.00    -0.379 A  
HETATM   14  C   UNL     1     -10.925  11.001  67.960  1.00  0.00    -0.312 A  
HETATM   15  C   UNL     1     -10.583   9.655  68.065  1.00  0.00    -0.292 A  
HETATM   16  C   UNL     1     -10.883   8.952  69.230  1.00  0.00    -0.113 A  
HETATM   17  C   UNL     1     -11.523   9.598  70.289  1.00  0.00    -0.288 A  
HETATM   18  C   UNL     1     -11.848  10.951  70.195  1.00  0.00    -0.353 A  
HETATM   19  O   UNL     1     -12.435  11.515  71.301  1.00  0.00    -0.353 OA 
HETATM   20  C   UNL     1     -12.793  12.841  71.260  1.00  0.00    -0.262 A  
HETATM   21  C   UNL     1     -13.439  13.338  72.395  1.00  0.00    -0.670 A  
HETATM   22  C   UNL     1     -13.828  14.675  72.452  1.00  0.00    -0.580 A  
HETATM   23  C   UNL     1     -13.583  15.518  71.369  1.00  0.00    -0.561 A  
HETATM   24  C   UNL     1     -12.944  15.024  70.232  1.00  0.00    -0.206 A  
HETATM   25  C   UNL     1     -12.533  13.681  70.176  1.00  0.00    -0.305 A  
ENDBRANCH  10  12
ENDBRANCH   9  10
ENDBRANCH   8   9
ENDBRANCH   7   8
ENDBRANCH   3   7
ENDBRANCH   2   3
TORSDOF 7
ENDMDL
MODEL      121
REMARK 921   NORMALIZED FREE ENERGY PREDICTED BY IDOCK:   -4.14 KCAL/MOL
REMARK 922        TOTAL FREE ENERGY PREDICTED BY IDOCK:   -7.15 KCAL/MOL
REMARK 923 INTER-LIGAND FREE ENERGY PREDICTED BY IDOCK:   -6.41 KCAL/MOL
REMARK 924 INTRA-LIGAND FREE ENERGY PREDICTED BY IDOCK:   -0.74 KCAL/MOL
REMARK 927      BINDING AFFINITY PREDICTED BY RF-SCORE:    0.00 PKD
ROOT
HETATM    1  C   UNL     1      -9.447  10.468  64.076  1.00  0.00    -0.337 C  
HETATM    2  C   UNL     1     -10.477  11.527  64.430  1.00  0.00    -0.325 C  
ENDROOT
BRANCH   2   3
HETATM    3  N   UNL     1     -10.272  12.186  65.820  1.00  0.00    -0.247 N  
HETATM    4  C   UNL     1      -8.812  11.977  66.260  1.00  0.00    -0.075 C  
BRANCH   3   5
HETATM    5  C   UNL     1     -10.572  13.697  65.819  1.00  0.00    -0.285 C  
HETATM    6  C   UNL     1     -11.463  14.143  64.669  1.00  0.00    -0.392 C  
ENDBRANCH   3   5
BRANCH   3   7
HETATM    7  C   UNL     1     -11.197  11.403  66.796  1.00  0.00    -0.252 C  
BRANCH   7   8
HETATM    8  C   UNL     1     -10.456  10.544  67.823  1.00  0.00    -0.224 C  
BRANCH   8   9
HETATM    9  O   UNL     1     -10.694   9.152  67.604  1.00  0.00    -0.262 OA 
BRANCH   9  10
HETATM   10  C   UNL     1     -10.042   8.326  68.481  1.00  0.00    -0.197 C  
HETATM   11  O   UNL     1      -8.912   8.550  68.899  1.00  0.00    -0.144 OA 
BRANCH  10  12
HETATM   12  C   UNL     1     -10.958   7.215  68.981  1.00  0.00    -0.122 C  
HETATM   13  C   UNL     1     -10.511   5.922  68.335  1.00  0.00    -0.294 A  
HETATM   14  C   UNL     1     -10.523   5.786  66.934  1.00  0.00    -0.348 A  
HETATM   15  C   UNL     1      -9.974   4.655  66.331  1.00  0.00    -0.267 A  
HETATM   16  C   UNL     1      -9.431   3.644  67.119  1.00  0.00    -0.229 A  
HETATM   17  C   UNL     1      -9.435   3.764  68.510  1.00  0.00    -0.211 A  
HETATM   18  C   UNL     1      -9.963   4.904  69.116  1.00  0.00    -0.182 A  
HETATM   19  O   UNL     1      -9.883   4.958  70.486  1.00  0.00    -0.191 OA 
HETATM   20  C   UNL     1     -10.403   6.049  71.139  1.00  0.00    -0.214 A  
HETATM   21  C   UNL     1     -10.344   6.015  72.534  1.00  0.00    -0.222 A  
HETATM   22  C   UNL     1     -10.834   7.083  73.284  1.00  0.00    -0.345 A  
HETATM   23  C   UNL     1     -11.397   8.185  72.642  1.00  0.00    -0.450 A  
HETATM   24  C   UNL     1     -11.463   8.219  71.249  1.00  0.00    -0.314 A  
HETATM   25  C   UNL     1     -10.954   7.154  70.487  1.00  0.00    -0.287 A  
ENDBRANCH  10  12
ENDBRANCH   9  10
ENDBRANCH   8   9
ENDBRANCH   7   8
ENDBRANCH   3   7
ENDBRANCH   2   3
TORSDOF 7
ENDMDL
MODEL      122
REMARK 921   NORMALIZED FREE ENERGY PREDICTED BY IDOCK:   -4.13 KCAL/MOL
REMARK 922        TOTAL FREE ENERGY PREDICTED BY IDOCK:   -7.14 KCAL/MOL
REMARK 923 INTER-LIGAND FREE ENERGY PREDICTED BY IDOCK:   -6.31 KCAL/MOL
REMARK 924 INTRA-LIGAND FREE ENERGY PREDICTED BY IDOCK:   -0.84 KCAL/MOL
REMARK 927      BINDING AFFINITY PREDICTED BY RF-SCORE:    0.00 PKD
ROOT
HETATM    1  C   UNL     1      -9.960   9.949  65.367  1.00  0.00    -0.349 C  
HETATM    2  C   UNL     1      -8.506  10.390  65.385  1.00  0.00    -0.168 C  
ENDROOT
BRANCH   2   3
HETATM    3  N   UNL     1      -7.592   9.556  66.323  1.00  0.00    -0.097 N  
HETATM    4  C   UNL     1      -7.759   8.064  65.984  1.00  0.00    -0.088 C  
BRANCH   3   5
HETATM    5  C   UNL     1      -6.102   9.925  66.192  1.00  0.00    -0.067 C  
HETATM    6  C   UNL     1      -5.680  10.274  64.773  1.00  0.00    -0.130 C  
ENDBRANCH   3   5
BRANCH   3   7
HETATM    7  C   UNL     1      -8.134   9.798  67.762  1.00  0.00    -0.113 C  
BRANCH   7   8
HETATM    8  C   UNL     1      -8.544   8.527  68.508  1.00  0.00    -0.138 C  
BRANCH   8   9
HETATM    9  O   UNL     1      -7.906   8.444  69.784  1.00  0.00    -0.094 OA 
BRANCH   9  10
HETATM   10  C   UNL     1      -8.765   8.533  70.848  1.00  0.00    -0.166 C  
HETATM   11  O   UNL     1      -8.458   9.051  71.915  1.00  0.00    -0.363 OA 
BRANCH  10  12
HETATM   12  C   UNL     1     -10.165   8.065  70.470  1.00  0.00    -0.201 C  
HETATM   13  C   UNL     1     -10.416   6.747  71.170  1.00  0.00    -0.239 A  
HETATM   14  C   UNL     1      -9.591   5.637  70.912  1.00  0.00    -0.212 A  
HETATM   15  C   UNL     1      -9.726   4.469  71.662  1.00  0.00    -0.241 A  
HETATM   16  C   UNL     1     -10.697   4.392  72.657  1.00  0.00    -0.204 A  
HETATM   17  C   UNL     1     -11.531   5.484  72.904  1.00  0.00    -0.327 A  
HETATM   18  C   UNL     1     -11.384   6.661  72.170  1.00  0.00    -0.274 A  
HETATM   19  O   UNL     1     -12.217   7.699  72.511  1.00  0.00    -0.219 OA 
HETATM   20  C   UNL     1     -12.130   8.878  71.811  1.00  0.00    -0.362 A  
HETATM   21  C   UNL     1     -13.045   9.872  72.168  1.00  0.00    -0.497 A  
HETATM   22  C   UNL     1     -13.025  11.108  71.522  1.00  0.00    -0.542 A  
HETATM   23  C   UNL     1     -12.098  11.350  70.510  1.00  0.00    -0.487 A  
HETATM   24  C   UNL     1     -11.187  10.358  70.148  1.00  0.00    -0.393 A  
HETATM   25  C   UNL     1     -11.190   9.116  70.807  1.00  0.00    -0.336 A  
ENDBRANCH  10  12
ENDBRANCH   9  10
ENDBRANCH   8   9
ENDBRANCH   7   8
ENDBRANCH   3   7
ENDBRANCH   2   3
TORSDOF 7
ENDMDL
MODEL      123
REMARK 921   NORMALIZED FREE ENERGY PREDICTED BY IDOCK:   -4.10 KCAL/MOL
REMARK 922        TOTAL FREE ENERGY PREDICTED BY IDOCK:   -7.10 KCAL/MOL
REMARK 923 INTER-LIGAND FREE ENERGY PREDICTED BY IDOCK:   -5.85 KCAL/MOL
REMARK 924 INTRA-LIGAND FREE ENERGY PREDICTED BY IDOCK:   -1.26 KCAL/MOL
REMARK 927      BINDING AFFINITY PREDICTED BY RF-SCORE:    0.00 PKD
ROOT
HETATM    1  C   UNL     1     -10.496   4.523  65.716  1.00  0.00    -0.268 C  
HETATM    2  C   UNL     1     -10.481   5.274  67.037  1.00  0.00    -0.229 C  
ENDROOT
BRANCH   2   3
HETATM    3  N   UNL     1      -9.126   5.949  67.378  1.00  0.00    -0.111 N  
HETATM    4  C   UNL     1      -7.984   5.098  66.795  1.00  0.00    -0.104 C  
BRANCH   3   5
HETATM    5  C   UNL     1      -9.009   7.378  66.816  1.00  0.00    -0.141 C  
HETATM    6  C   UNL     1     -10.135   8.302  67.253  1.00  0.00    -0.315 C  
ENDBRANCH   3   5
BRANCH   3   7
HETATM    7  C   UNL     1      -9.020   5.918  68.931  1.00  0.00    -0.118 C  
BRANCH   7   8
HETATM    8  C   UNL     1     -10.205   5.251  69.635  1.00  0.00    -0.278 C  
BRANCH   8   9
HETATM    9  O   UNL     1     -10.894   6.175  70.480  1.00  0.00    -0.257 OA 
BRANCH   9  10
HETATM   10  C   UNL     1     -10.492   6.146  71.789  1.00  0.00    -0.216 C  
HETATM   11  O   UNL     1     -10.267   5.106  72.397  1.00  0.00    -0.185 OA 
BRANCH  10  12
HETATM   12  C   UNL     1     -10.208   7.548  72.314  1.00  0.00    -0.252 C  
HETATM   13  C   UNL     1      -8.854   7.973  71.792  1.00  0.00    -0.184 A  
HETATM   14  C   UNL     1      -7.702   7.234  72.120  1.00  0.00    -0.090 A  
HETATM   15  C   UNL     1      -6.478   7.534  71.523  1.00  0.00    -0.039 A  
HETATM   16  C   UNL     1      -6.390   8.584  70.614  1.00  0.00    -0.037 A  
HETATM   17  C   UNL     1      -7.525   9.333  70.299  1.00  0.00    -0.113 A  
HETATM   18  C   UNL     1      -8.756   9.022  70.878  1.00  0.00    -0.229 A  
HETATM   19  O   UNL     1      -9.827   9.782  70.477  1.00  0.00    -0.260 OA 
HETATM   20  C   UNL     1     -11.061   9.532  71.026  1.00  0.00    -0.363 A  
HETATM   21  C   UNL     1     -12.096  10.378  70.621  1.00  0.00    -0.443 A  
HETATM   22  C   UNL     1     -13.387  10.195  71.114  1.00  0.00    -0.372 A  
HETATM   23  C   UNL     1     -13.646   9.172  72.024  1.00  0.00    -0.520 A  
HETATM   24  C   UNL     1     -12.613   8.329  72.436  1.00  0.00    -0.323 A  
HETATM   25  C   UNL     1     -11.314   8.497  71.929  1.00  0.00    -0.399 A  
ENDBRANCH  10  12
ENDBRANCH   9  10
ENDBRANCH   8   9
ENDBRANCH   7   8
ENDBRANCH   3   7
ENDBRANCH   2   3
TORSDOF 7
ENDMDL
MODEL      124
REMARK 921   NORMALIZED FREE ENERGY PREDICTED BY IDOCK:   -4.10 KCAL/MOL
REMARK 922        TOTAL FREE ENERGY PREDICTED BY IDOCK:   -7.10 KCAL/MOL
REMARK 923 INTER-LIGAND FREE ENERGY PREDICTED BY IDOCK:   -6.45 KCAL/MOL
REMARK 924 INTRA-LIGAND FREE ENERGY PREDICTED BY IDOCK:   -0.65 KCAL/MOL
REMARK 927      BINDING AFFINITY PREDICTED BY RF-SCORE:    0.00 PKD
ROOT
HETATM    1  C   UNL     1     -10.585   7.566  67.236  1.00  0.00    -0.394 C  
HETATM    2  C   UNL     1      -9.496   8.319  67.982  1.00  0.00    -0.140 C  
ENDROOT
BRANCH   2   3
HETATM    3  N   UNL     1      -9.747   8.472  69.506  1.00  0.00    -0.174 N  
HETATM    4  C   UNL     1     -11.038   7.720  69.876  1.00  0.00    -0.136 C  
BRANCH   3   5
HETATM    5  C   UNL     1      -8.593   7.919  70.362  1.00  0.00    -0.132 C  
HETATM    6  C   UNL     1      -8.601   8.422  71.798  1.00  0.00    -0.234 C  
ENDBRANCH   3   5
BRANCH   3   7
HETATM    7  C   UNL     1      -9.979   9.993  69.742  1.00  0.00    -0.241 C  
BRANCH   7   8
HETATM    8  C   UNL     1      -9.355  10.903  68.681  1.00  0.00    -0.187 C  
BRANCH   8   9
HETATM    9  O   UNL     1      -9.882  12.230  68.760  1.00  0.00    -0.136 OA 
BRANCH   9  10
HETATM   10  C   UNL     1      -9.333  13.105  67.861  1.00  0.00    -0.215 C  
HETATM   11  O   UNL     1      -8.450  12.790  67.071  1.00  0.00    -0.193 OA 
BRANCH  10  12
HETATM   12  C   UNL     1     -10.072  14.439  67.865  1.00  0.00    -0.228 C  
HETATM   13  C   UNL     1      -9.043  15.537  68.016  1.00  0.00    -0.182 A  
HETATM   14  C   UNL     1      -8.218  15.587  69.155  1.00  0.00    -0.247 A  
HETATM   15  C   UNL     1      -7.172  16.505  69.229  1.00  0.00    -0.213 A  
HETATM   16  C   UNL     1      -6.955  17.394  68.179  1.00  0.00    -0.190 A  
HETATM   17  C   UNL     1      -7.782  17.362  67.055  1.00  0.00    -0.235 A  
HETATM   18  C   UNL     1      -8.816  16.430  66.969  1.00  0.00    -0.199 A  
HETATM   19  O   UNL     1      -9.550  16.441  65.808  1.00  0.00    -0.452 OA 
HETATM   20  C   UNL     1     -10.593  15.556  65.673  1.00  0.00    -0.373 A  
HETATM   21  C   UNL     1     -11.336  15.658  64.495  1.00  0.00    -0.327 A  
HETATM   22  C   UNL     1     -12.406  14.794  64.262  1.00  0.00    -0.345 A  
HETATM   23  C   UNL     1     -12.742  13.832  65.213  1.00  0.00    -0.481 A  
HETATM   24  C   UNL     1     -12.006  13.731  66.393  1.00  0.00    -0.473 A  
HETATM   25  C   UNL     1     -10.916  14.587  66.625  1.00  0.00    -0.321 A  
ENDBRANCH  10  12
ENDBRANCH   9  10
ENDBRANCH   8   9
ENDBRANCH   7   8
ENDBRANCH   3   7
ENDBRANCH   2   3
TORSDOF 7
ENDMDL
MODEL      125
REMARK 921   NORMALIZED FREE ENERGY PREDICTED BY IDOCK:   -4.10 KCAL/MOL
REMARK 922        TOTAL FREE ENERGY PREDICTED BY IDOCK:   -7.09 KCAL/MOL
REMARK 923 INTER-LIGAND FREE ENERGY PREDICTED BY IDOCK:   -6.29 KCAL/MOL
REMARK 924 INTRA-LIGAND FREE ENERGY PREDICTED BY IDOCK:   -0.80 KCAL/MOL
REMARK 927      BINDING AFFINITY PREDICTED BY RF-SCORE:    0.00 PKD
ROOT
HETATM    1  C   UNL     1      -6.500   5.619  71.316  1.00  0.00    -0.044 C  
HETATM    2  C   UNL     1      -7.430   6.754  70.917  1.00  0.00    -0.083 C  
ENDROOT
BRANCH   2   3
HETATM    3  N   UNL     1      -8.682   6.308  70.115  1.00  0.00    -0.137 N  
HETATM    4  C   UNL     1      -8.225   5.666  68.793  1.00  0.00    -0.103 C  
BRANCH   3   5
HETATM    5  C   UNL     1      -9.553   5.293  70.878  1.00  0.00    -0.175 C  
HETATM    6  C   UNL     1     -10.737   5.922  71.598  1.00  0.00    -0.308 C  
ENDBRANCH   3   5
BRANCH   3   7
HETATM    7  C   UNL     1      -9.456   7.618  69.785  1.00  0.00    -0.156 C  
BRANCH   7   8
HETATM    8  C   UNL     1      -9.641   7.886  68.289  1.00  0.00    -0.156 C  
BRANCH   8   9
HETATM    9  O   UNL     1      -8.684   8.834  67.810  1.00  0.00    -0.134 OA 
BRANCH   9  10
HETATM   10  C   UNL     1      -9.074  10.140  67.943  1.00  0.00    -0.131 C  
HETATM   11  O   UNL     1      -8.323  11.027  68.333  1.00  0.00    -0.125 OA 
BRANCH  10  12
HETATM   12  C   UNL     1     -10.478  10.359  67.394  1.00  0.00    -0.299 C  
HETATM   13  C   UNL     1     -11.208  11.284  68.343  1.00  0.00    -0.324 A  
HETATM   14  C   UNL     1     -11.408  10.912  69.685  1.00  0.00    -0.362 A  
HETATM   15  C   UNL     1     -11.945  11.820  70.596  1.00  0.00    -0.320 A  
HETATM   16  C   UNL     1     -12.307  13.096  70.171  1.00  0.00    -0.284 A  
HETATM   17  C   UNL     1     -12.129  13.464  68.837  1.00  0.00    -0.289 A  
HETATM   18  C   UNL     1     -11.571  12.565  67.927  1.00  0.00    -0.347 A  
HETATM   19  O   UNL     1     -11.391  13.027  66.647  1.00  0.00    -0.299 OA 
HETATM   20  C   UNL     1     -10.862  12.180  65.703  1.00  0.00    -0.284 A  
HETATM   21  C   UNL     1     -10.760  12.692  64.407  1.00  0.00    -0.384 A  
HETATM   22  C   UNL     1     -10.223  11.912  63.385  1.00  0.00    -0.478 A  
HETATM   23  C   UNL     1      -9.796  10.612  63.652  1.00  0.00    -0.392 A  
HETATM   24  C   UNL     1      -9.902  10.096  64.943  1.00  0.00    -0.390 A  
HETATM   25  C   UNL     1     -10.426  10.884  65.982  1.00  0.00    -0.287 A  
ENDBRANCH  10  12
ENDBRANCH   9  10
ENDBRANCH   8   9
ENDBRANCH   7   8
ENDBRANCH   3   7
ENDBRANCH   2   3
TORSDOF 7
ENDMDL
MODEL      126
REMARK 921   NORMALIZED FREE ENERGY PREDICTED BY IDOCK:   -4.09 KCAL/MOL
REMARK 922        TOTAL FREE ENERGY PREDICTED BY IDOCK:   -7.09 KCAL/MOL
REMARK 923 INTER-LIGAND FREE ENERGY PREDICTED BY IDOCK:   -6.22 KCAL/MOL
REMARK 924 INTRA-LIGAND FREE ENERGY PREDICTED BY IDOCK:   -0.87 KCAL/MOL
REMARK 927      BINDING AFFINITY PREDICTED BY RF-SCORE:    0.00 PKD
ROOT
HETATM    1  C   UNL     1     -10.596   5.003  66.164  1.00  0.00    -0.321 C  
HETATM    2  C   UNL     1     -10.949   6.226  66.994  1.00  0.00    -0.364 C  
ENDROOT
BRANCH   2   3
HETATM    3  N   UNL     1     -10.235   6.298  68.370  1.00  0.00    -0.156 N  
HETATM    4  C   UNL     1     -11.298   6.328  69.483  1.00  0.00    -0.404 C  
BRANCH   3   5
HETATM    5  C   UNL     1      -9.295   5.104  68.621  1.00  0.00    -0.125 C  
HETATM    6  C   UNL     1      -7.951   5.496  69.215  1.00  0.00    -0.095 C  
ENDBRANCH   3   5
BRANCH   3   7
HETATM    7  C   UNL     1      -9.475   7.656  68.379  1.00  0.00    -0.150 C  
BRANCH   7   8
HETATM    8  C   UNL     1     -10.367   8.882  68.591  1.00  0.00    -0.204 C  
BRANCH   8   9
HETATM    9  O   UNL     1     -10.279   9.786  67.487  1.00  0.00    -0.191 OA 
BRANCH   9  10
HETATM   10  C   UNL     1      -9.428  10.840  67.691  1.00  0.00    -0.154 C  
HETATM   11  O   UNL     1      -8.835  11.027  68.747  1.00  0.00    -0.161 OA 
BRANCH  10  12
HETATM   12  C   UNL     1      -9.200  11.625  66.406  1.00  0.00    -0.219 C  
HETATM   13  C   UNL     1      -8.655  10.669  65.369  1.00  0.00    -0.185 A  
HETATM   14  C   UNL     1      -7.439   9.996  65.592  1.00  0.00    -0.137 A  
HETATM   15  C   UNL     1      -7.008   9.006  64.711  1.00  0.00    -0.084 A  
HETATM   16  C   UNL     1      -7.775   8.694  63.591  1.00  0.00    -0.136 A  
HETATM   17  C   UNL     1      -8.972   9.372  63.354  1.00  0.00    -0.150 A  
HETATM   18  C   UNL     1      -9.417  10.348  64.246  1.00  0.00    -0.294 A  
HETATM   19  O   UNL     1     -10.627  10.930  63.958  1.00  0.00    -0.372 OA 
HETATM   20  C   UNL     1     -11.107  11.911  64.791  1.00  0.00    -0.311 A  
HETATM   21  C   UNL     1     -12.314  12.503  64.411  1.00  0.00    -0.537 A  
HETATM   22  C   UNL     1     -12.886  13.499  65.200  1.00  0.00    -0.381 A  
HETATM   23  C   UNL     1     -12.249  13.914  66.368  1.00  0.00    -0.487 A  
HETATM   24  C   UNL     1     -11.041  13.329  66.748  1.00  0.00    -0.313 A  
HETATM   25  C   UNL     1     -10.468  12.312  65.966  1.00  0.00    -0.284 A  
ENDBRANCH  10  12
ENDBRANCH   9  10
ENDBRANCH   8   9
ENDBRANCH   7   8
ENDBRANCH   3   7
ENDBRANCH   2   3
TORSDOF 7
ENDMDL
MODEL      127
REMARK 921   NORMALIZED FREE ENERGY PREDICTED BY IDOCK:   -4.09 KCAL/MOL
REMARK 922        TOTAL FREE ENERGY PREDICTED BY IDOCK:   -7.08 KCAL/MOL
REMARK 923 INTER-LIGAND FREE ENERGY PREDICTED BY IDOCK:   -6.41 KCAL/MOL
REMARK 924 INTRA-LIGAND FREE ENERGY PREDICTED BY IDOCK:   -0.67 KCAL/MOL
REMARK 927      BINDING AFFINITY PREDICTED BY RF-SCORE:    0.00 PKD
ROOT
HETATM    1  C   UNL     1      -9.045  10.497  65.120  1.00  0.00    -0.227 C  
HETATM    2  C   UNL     1      -9.138  11.632  66.126  1.00  0.00    -0.203 C  
ENDROOT
BRANCH   2   3
HETATM    3  N   UNL     1     -10.273  12.652  65.843  1.00  0.00    -0.269 N  
HETATM    4  C   UNL     1     -10.454  12.787  64.321  1.00  0.00    -0.399 C  
BRANCH   3   5
HETATM    5  C   UNL     1     -11.621  12.236  66.462  1.00  0.00    -0.377 C  
HETATM    6  C   UNL     1     -11.489  11.239  67.603  1.00  0.00    -0.341 C  
ENDBRANCH   3   5
BRANCH   3   7
HETATM    7  C   UNL     1      -9.764  14.013  66.401  1.00  0.00    -0.296 C  
BRANCH   7   8
HETATM    8  C   UNL     1     -10.331  14.389  67.773  1.00  0.00    -0.238 C  
BRANCH   8   9
HETATM    9  O   UNL     1     -10.412  15.807  67.929  1.00  0.00    -0.257 OA 
BRANCH   9  10
HETATM   10  C   UNL     1     -10.124  16.249  69.193  1.00  0.00    -0.264 C  
HETATM   11  O   UNL     1     -10.707  15.847  70.193  1.00  0.00    -0.311 OA 
BRANCH  10  12
HETATM   12  C   UNL     1      -8.899  17.156  69.197  1.00  0.00    -0.002 C  
HETATM   13  C   UNL     1      -7.687  16.298  68.913  1.00  0.00    -0.219 A  
HETATM   14  C   UNL     1      -7.345  15.241  69.777  1.00  0.00    -0.138 A  
HETATM   15  C   UNL     1      -6.321  14.358  69.440  1.00  0.00    -0.122 A  
HETATM   16  C   UNL     1      -5.615  14.535  68.253  1.00  0.00    -0.118 A  
HETATM   17  C   UNL     1      -5.936  15.594  67.402  1.00  0.00    -0.052 A  
HETATM   18  C   UNL     1      -6.975  16.466  67.725  1.00  0.00    -0.138 A  
HETATM   19  O   UNL     1      -7.251  17.451  66.808  1.00  0.00    -0.179 OA 
HETATM   20  C   UNL     1      -8.253  18.351  67.080  1.00  0.00    -0.245 A  
HETATM   21  C   UNL     1      -8.444  19.362  66.136  1.00  0.00    -0.303 A  
HETATM   22  C   UNL     1      -9.446  20.314  66.319  1.00  0.00    -0.387 A  
HETATM   23  C   UNL     1     -10.254  20.264  67.454  1.00  0.00    -0.494 A  
HETATM   24  C   UNL     1     -10.063  19.259  68.402  1.00  0.00    -0.518 A  
HETATM   25  C   UNL     1      -9.066  18.286  68.214  1.00  0.00    -0.318 A  
ENDBRANCH  10  12
ENDBRANCH   9  10
ENDBRANCH   8   9
ENDBRANCH   7   8
ENDBRANCH   3   7
ENDBRANCH   2   3
TORSDOF 7
ENDMDL
MODEL      128
REMARK 921   NORMALIZED FREE ENERGY PREDICTED BY IDOCK:   -4.07 KCAL/MOL
REMARK 922        TOTAL FREE ENERGY PREDICTED BY IDOCK:   -7.05 KCAL/MOL
REMARK 923 INTER-LIGAND FREE ENERGY PREDICTED BY IDOCK:   -6.99 KCAL/MOL
REMARK 924 INTRA-LIGAND FREE ENERGY PREDICTED BY IDOCK:   -0.06 KCAL/MOL
REMARK 927      BINDING AFFINITY PREDICTED BY RF-SCORE:    0.00 PKD
ROOT
HETATM    1  C   UNL     1     -13.957  12.882  71.910  1.00  0.00     0.049 C  
HETATM    2  C   UNL     1     -12.839  13.796  72.382  1.00  0.00    -0.257 C  
ENDROOT
BRANCH   2   3
HETATM    3  N   UNL     1     -12.883  15.228  71.785  1.00  0.00    -0.349 N  
HETATM    4  C   UNL     1     -14.348  15.605  71.501  1.00  0.00    -0.141 C  
BRANCH   3   5
HETATM    5  C   UNL     1     -12.277  16.288  72.725  1.00  0.00    -0.500 C  
HETATM    6  C   UNL     1     -12.689  16.124  74.180  1.00  0.00    -0.582 C  
ENDBRANCH   3   5
BRANCH   3   7
HETATM    7  C   UNL     1     -12.124  15.142  70.429  1.00  0.00    -0.328 C  
BRANCH   7   8
HETATM    8  C   UNL     1     -12.447  13.896  69.599  1.00  0.00    -0.143 C  
BRANCH   8   9
HETATM    9  O   UNL     1     -11.330  13.006  69.543  1.00  0.00    -0.231 OA 
BRANCH   9  10
HETATM   10  C   UNL     1     -11.371  12.119  68.501  1.00  0.00    -0.275 C  
HETATM   11  O   UNL     1     -12.233  11.255  68.390  1.00  0.00    -0.604 OA 
BRANCH  10  12
HETATM   12  C   UNL     1     -10.326  12.456  67.444  1.00  0.00    -0.217 C  
HETATM   13  C   UNL     1      -9.229  11.419  67.530  1.00  0.00    -0.160 A  
HETATM   14  C   UNL     1      -8.491  11.260  68.718  1.00  0.00    -0.112 A  
HETATM   15  C   UNL     1      -7.585  10.210  68.850  1.00  0.00    -0.090 A  
HETATM   16  C   UNL     1      -7.391   9.324  67.793  1.00  0.00    -0.084 A  
HETATM   17  C   UNL     1      -8.106   9.488  66.605  1.00  0.00    -0.108 A  
HETATM   18  C   UNL     1      -9.030  10.525  66.477  1.00  0.00    -0.157 A  
HETATM   19  O   UNL     1      -9.720  10.583  65.291  1.00  0.00    -0.227 OA 
HETATM   20  C   UNL     1     -10.632  11.594  65.102  1.00  0.00    -0.290 A  
HETATM   21  C   UNL     1     -11.256  11.631  63.853  1.00  0.00    -0.479 A  
HETATM   22  C   UNL     1     -12.205  12.612  63.572  1.00  0.00    -0.638 A  
HETATM   23  C   UNL     1     -12.525  13.568  64.535  1.00  0.00    -0.344 A  
HETATM   24  C   UNL     1     -11.899  13.537  65.781  1.00  0.00    -0.403 A  
HETATM   25  C   UNL     1     -10.955  12.539  66.077  1.00  0.00    -0.318 A  
ENDBRANCH  10  12
ENDBRANCH   9  10
ENDBRANCH   8   9
ENDBRANCH   7   8
ENDBRANCH   3   7
ENDBRANCH   2   3
TORSDOF 7
ENDMDL
MODEL      129
REMARK 921   NORMALIZED FREE ENERGY PREDICTED BY IDOCK:   -4.06 KCAL/MOL
REMARK 922        TOTAL FREE ENERGY PREDICTED BY IDOCK:   -7.05 KCAL/MOL
REMARK 923 INTER-LIGAND FREE ENERGY PREDICTED BY IDOCK:   -5.98 KCAL/MOL
REMARK 924 INTRA-LIGAND FREE ENERGY PREDICTED BY IDOCK:   -1.07 KCAL/MOL
REMARK 927      BINDING AFFINITY PREDICTED BY RF-SCORE:    0.00 PKD
ROOT
HETATM    1  C   UNL     1      -9.701   8.701  65.956  1.00  0.00    -0.238 C  
HETATM    2  C   UNL     1      -8.432   9.038  66.721  1.00  0.00    -0.119 C  
ENDROOT
BRANCH   2   3
HETATM    3  N   UNL     1      -7.637  10.242  66.150  1.00  0.00    -0.118 N  
HETATM    4  C   UNL     1      -6.173  10.138  66.614  1.00  0.00    -0.070 C  
BRANCH   3   5
HETATM    5  C   UNL     1      -7.661  10.302  64.612  1.00  0.00    -0.103 C  
HETATM    6  C   UNL     1      -6.407   9.742  63.957  1.00  0.00    -0.118 C  
ENDBRANCH   3   5
BRANCH   3   7
HETATM    7  C   UNL     1      -8.270  11.508  66.798  1.00  0.00    -0.164 C  
BRANCH   7   8
HETATM    8  C   UNL     1      -8.384  11.451  68.323  1.00  0.00    -0.152 C  
BRANCH   8   9
HETATM    9  O   UNL     1      -9.609  12.034  68.774  1.00  0.00    -0.117 OA 
BRANCH   9  10
HETATM   10  C   UNL     1     -10.669  11.167  68.796  1.00  0.00    -0.199 C  
HETATM   11  O   UNL     1     -10.572  10.000  69.161  1.00  0.00    -0.196 OA 
BRANCH  10  12
HETATM   12  C   UNL     1     -11.976  11.881  68.476  1.00  0.00    -0.273 C  
HETATM   13  C   UNL     1     -12.382  12.673  69.698  1.00  0.00    -0.045 A  
HETATM   14  C   UNL     1     -12.627  12.020  70.920  1.00  0.00    -0.347 A  
HETATM   15  C   UNL     1     -12.856  12.758  72.081  1.00  0.00    -0.219 A  
HETATM   16  C   UNL     1     -12.863  14.149  72.028  1.00  0.00    -0.423 A  
HETATM   17  C   UNL     1     -12.640  14.802  70.814  1.00  0.00    -0.412 A  
HETATM   18  C   UNL     1     -12.390  14.068  69.655  1.00  0.00    -0.260 A  
HETATM   19  O   UNL     1     -12.136  14.794  68.517  1.00  0.00    -0.272 OA 
HETATM   20  C   UNL     1     -11.900  14.124  67.341  1.00  0.00    -0.413 A  
HETATM   21  C   UNL     1     -11.708  14.919  66.209  1.00  0.00    -0.178 A  
HETATM   22  C   UNL     1     -11.449  14.330  64.972  1.00  0.00    -0.364 A  
HETATM   23  C   UNL     1     -11.392  12.942  64.861  1.00  0.00    -0.340 A  
HETATM   24  C   UNL     1     -11.589  12.144  65.988  1.00  0.00    -0.420 A  
HETATM   25  C   UNL     1     -11.833  12.733  67.241  1.00  0.00    -0.414 A  
ENDBRANCH  10  12
ENDBRANCH   9  10
ENDBRANCH   8   9
ENDBRANCH   7   8
ENDBRANCH   3   7
ENDBRANCH   2   3
TORSDOF 7
ENDMDL
MODEL      130
REMARK 921   NORMALIZED FREE ENERGY PREDICTED BY IDOCK:   -4.03 KCAL/MOL
REMARK 922        TOTAL FREE ENERGY PREDICTED BY IDOCK:   -7.01 KCAL/MOL
REMARK 923 INTER-LIGAND FREE ENERGY PREDICTED BY IDOCK:   -6.12 KCAL/MOL
REMARK 924 INTRA-LIGAND FREE ENERGY PREDICTED BY IDOCK:   -0.89 KCAL/MOL
REMARK 927      BINDING AFFINITY PREDICTED BY RF-SCORE:    0.00 PKD
ROOT
HETATM    1  C   UNL     1     -11.637  15.097  68.584  1.00  0.00    -0.358 C  
HETATM    2  C   UNL     1     -12.141  13.798  67.975  1.00  0.00    -0.280 C  
ENDROOT
BRANCH   2   3
HETATM    3  N   UNL     1     -11.191  13.170  66.921  1.00  0.00    -0.287 N  
HETATM    4  C   UNL     1     -12.033  12.626  65.753  1.00  0.00    -0.446 C  
BRANCH   3   5
HETATM    5  C   UNL     1     -10.167  14.175  66.362  1.00  0.00    -0.290 C  
HETATM    6  C   UNL     1     -10.436  14.586  64.922  1.00  0.00    -0.435 C  
ENDBRANCH   3   5
BRANCH   3   7
HETATM    7  C   UNL     1     -10.507  11.968  67.636  1.00  0.00    -0.205 C  
BRANCH   7   8
HETATM    8  C   UNL     1     -11.373  10.711  67.735  1.00  0.00    -0.244 C  
BRANCH   8   9
HETATM    9  O   UNL     1     -10.853   9.797  68.703  1.00  0.00    -0.222 OA 
BRANCH   9  10
HETATM   10  C   UNL     1     -10.428   8.605  68.179  1.00  0.00    -0.187 C  
HETATM   11  O   UNL     1     -10.706   8.235  67.044  1.00  0.00    -0.307 OA 
BRANCH  10  12
HETATM   12  C   UNL     1      -9.450   7.906  69.115  1.00  0.00    -0.155 C  
HETATM   13  C   UNL     1      -8.202   8.756  69.201  1.00  0.00    -0.119 A  
HETATM   14  C   UNL     1      -7.448   9.033  68.045  1.00  0.00    -0.084 A  
HETATM   15  C   UNL     1      -6.387   9.934  68.094  1.00  0.00    -0.055 A  
HETATM   16  C   UNL     1      -6.055  10.550  69.298  1.00  0.00    -0.039 A  
HETATM   17  C   UNL     1      -6.787  10.265  70.452  1.00  0.00    -0.109 A  
HETATM   18  C   UNL     1      -7.864   9.380  70.402  1.00  0.00    -0.164 A  
HETATM   19  O   UNL     1      -8.555   9.194  71.574  1.00  0.00    -0.339 OA 
HETATM   20  C   UNL     1      -9.615   8.320  71.590  1.00  0.00    -0.198 A  
HETATM   21  C   UNL     1     -10.237   8.131  72.826  1.00  0.00    -0.372 A  
HETATM   22  C   UNL     1     -11.329   7.272  72.938  1.00  0.00    -0.290 A  
HETATM   23  C   UNL     1     -11.797   6.590  71.815  1.00  0.00    -0.384 A  
HETATM   24  C   UNL     1     -11.174   6.772  70.581  1.00  0.00    -0.361 A  
HETATM   25  C   UNL     1     -10.083   7.650  70.458  1.00  0.00    -0.189 A  
ENDBRANCH  10  12
ENDBRANCH   9  10
ENDBRANCH   8   9
ENDBRANCH   7   8
ENDBRANCH   3   7
ENDBRANCH   2   3
TORSDOF 7
ENDMDL
MODEL      131
REMARK 921   NORMALIZED FREE ENERGY PREDICTED BY IDOCK:   -4.03 KCAL/MOL
REMARK 922        TOTAL FREE ENERGY PREDICTED BY IDOCK:   -7.00 KCAL/MOL
REMARK 923 INTER-LIGAND FREE ENERGY PREDICTED BY IDOCK:   -5.82 KCAL/MOL
REMARK 924 INTRA-LIGAND FREE ENERGY PREDICTED BY IDOCK:   -1.17 KCAL/MOL
REMARK 927      BINDING AFFINITY PREDICTED BY RF-SCORE:    0.00 PKD
ROOT
HETATM    1  C   UNL     1     -10.315   4.869  66.126  1.00  0.00    -0.329 C  
HETATM    2  C   UNL     1     -10.479   5.446  67.523  1.00  0.00    -0.170 C  
ENDROOT
BRANCH   2   3
HETATM    3  N   UNL     1      -9.477   4.891  68.570  1.00  0.00    -0.135 N  
HETATM    4  C   UNL     1      -9.479   3.354  68.497  1.00  0.00    -0.142 C  
BRANCH   3   5
HETATM    5  C   UNL     1      -8.038   5.392  68.346  1.00  0.00    -0.091 C  
HETATM    6  C   UNL     1      -7.937   6.895  68.142  1.00  0.00    -0.115 C  
ENDBRANCH   3   5
BRANCH   3   7
HETATM    7  C   UNL     1     -10.039   5.319  69.957  1.00  0.00    -0.266 C  
BRANCH   7   8
HETATM    8  C   UNL     1     -11.356   6.098  69.896  1.00  0.00    -0.384 C  
BRANCH   8   9
HETATM    9  O   UNL     1     -11.125   7.509  69.901  1.00  0.00    -0.246 OA 
BRANCH   9  10
HETATM   10  C   UNL     1     -11.602   8.151  71.013  1.00  0.00    -0.279 C  
HETATM   11  O   UNL     1     -12.482   7.687  71.729  1.00  0.00    -0.309 OA 
BRANCH  10  12
HETATM   12  C   UNL     1     -10.791   9.404  71.320  1.00  0.00    -0.431 C  
HETATM   13  C   UNL     1      -9.419   8.965  71.782  1.00  0.00    -0.334 A  
HETATM   14  C   UNL     1      -9.277   8.163  72.929  1.00  0.00    -0.343 A  
HETATM   15  C   UNL     1      -8.034   7.635  73.272  1.00  0.00    -0.156 A  
HETATM   16  C   UNL     1      -6.919   7.921  72.487  1.00  0.00    -0.087 A  
HETATM   17  C   UNL     1      -7.050   8.732  71.358  1.00  0.00    -0.099 A  
HETATM   18  C   UNL     1      -8.297   9.244  71.001  1.00  0.00    -0.081 A  
HETATM   19  O   UNL     1      -8.340   9.994  69.851  1.00  0.00    -0.181 OA 
HETATM   20  C   UNL     1      -9.539  10.539  69.457  1.00  0.00    -0.098 A  
HETATM   21  C   UNL     1      -9.503  11.339  68.313  1.00  0.00    -0.190 A  
HETATM   22  C   UNL     1     -10.672  11.925  67.830  1.00  0.00    -0.243 A  
HETATM   23  C   UNL     1     -11.880  11.721  68.495  1.00  0.00    -0.365 A  
HETATM   24  C   UNL     1     -11.918  10.927  69.642  1.00  0.00    -0.414 A  
HETATM   25  C   UNL     1     -10.746  10.319  70.124  1.00  0.00    -0.334 A  
ENDBRANCH  10  12
ENDBRANCH   9  10
ENDBRANCH   8   9
ENDBRANCH   7   8
ENDBRANCH   3   7
ENDBRANCH   2   3
TORSDOF 7
ENDMDL
MODEL      132
REMARK 921   NORMALIZED FREE ENERGY PREDICTED BY IDOCK:   -4.02 KCAL/MOL
REMARK 922        TOTAL FREE ENERGY PREDICTED BY IDOCK:   -6.99 KCAL/MOL
REMARK 923 INTER-LIGAND FREE ENERGY PREDICTED BY IDOCK:   -6.29 KCAL/MOL
REMARK 924 INTRA-LIGAND FREE ENERGY PREDICTED BY IDOCK:   -0.70 KCAL/MOL
REMARK 927      BINDING AFFINITY PREDICTED BY RF-SCORE:    0.00 PKD
ROOT
HETATM    1  C   UNL     1     -11.257  15.541  70.957  1.00  0.00    -0.419 C  
HETATM    2  C   UNL     1     -10.453  16.242  69.874  1.00  0.00    -0.222 C  
ENDROOT
BRANCH   2   3
HETATM    3  N   UNL     1     -10.629  15.645  68.453  1.00  0.00    -0.244 N  
HETATM    4  C   UNL     1     -11.893  14.767  68.434  1.00  0.00    -0.286 C  
BRANCH   3   5
HETATM    5  C   UNL     1     -10.766  16.724  67.362  1.00  0.00    -0.244 C  
HETATM    6  C   UNL     1     -10.634  18.145  67.887  1.00  0.00    -0.389 C  
ENDBRANCH   3   5
BRANCH   3   7
HETATM    7  C   UNL     1      -9.391  14.731  68.224  1.00  0.00    -0.199 C  
BRANCH   7   8
HETATM    8  C   UNL     1      -9.113  14.392  66.757  1.00  0.00    -0.257 C  
BRANCH   8   9
HETATM    9  O   UNL     1      -9.857  13.246  66.339  1.00  0.00    -0.269 OA 
BRANCH   9  10
HETATM   10  C   UNL     1      -9.303  12.050  66.713  1.00  0.00    -0.205 C  
HETATM   11  O   UNL     1      -8.191  11.956  67.220  1.00  0.00    -0.154 OA 
BRANCH  10  12
HETATM   12  C   UNL     1     -10.302  10.908  66.572  1.00  0.00    -0.299 C  
HETATM   13  C   UNL     1      -9.692   9.870  65.656  1.00  0.00    -0.346 A  
HETATM   14  C   UNL     1      -9.347  10.204  64.333  1.00  0.00    -0.348 A  
HETATM   15  C   UNL     1      -8.650   9.297  63.536  1.00  0.00    -0.201 A  
HETATM   16  C   UNL     1      -8.312   8.045  64.044  1.00  0.00     0.021 A  
HETATM   17  C   UNL     1      -8.669   7.701  65.349  1.00  0.00    -0.029 A  
HETATM   18  C   UNL     1      -9.347   8.615  66.157  1.00  0.00    -0.226 A  
HETATM   19  O   UNL     1      -9.616   8.209  67.441  1.00  0.00    -0.148 OA 
HETATM   20  C   UNL     1     -10.297   9.060  68.277  1.00  0.00    -0.209 A  
HETATM   21  C   UNL     1     -10.592   8.564  69.550  1.00  0.00    -0.215 A  
HETATM   22  C   UNL     1     -11.269   9.360  70.473  1.00  0.00    -0.329 A  
HETATM   23  C   UNL     1     -11.664  10.650  70.123  1.00  0.00    -0.417 A  
HETATM   24  C   UNL     1     -11.376  11.146  68.852  1.00  0.00    -0.344 A  
HETATM   25  C   UNL     1     -10.678  10.355  67.922  1.00  0.00    -0.307 A  
ENDBRANCH  10  12
ENDBRANCH   9  10
ENDBRANCH   8   9
ENDBRANCH   7   8
ENDBRANCH   3   7
ENDBRANCH   2   3
TORSDOF 7
ENDMDL
MODEL      133
REMARK 921   NORMALIZED FREE ENERGY PREDICTED BY IDOCK:   -4.02 KCAL/MOL
REMARK 922        TOTAL FREE ENERGY PREDICTED BY IDOCK:   -6.98 KCAL/MOL
REMARK 923 INTER-LIGAND FREE ENERGY PREDICTED BY IDOCK:   -6.23 KCAL/MOL
REMARK 924 INTRA-LIGAND FREE ENERGY PREDICTED BY IDOCK:   -0.76 KCAL/MOL
REMARK 927      BINDING AFFINITY PREDICTED BY RF-SCORE:    0.00 PKD
ROOT
HETATM    1  C   UNL     1      -8.017   6.987  64.901  1.00  0.00    -0.127 C  
HETATM    2  C   UNL     1      -7.122   8.087  65.448  1.00  0.00    -0.060 C  
ENDROOT
BRANCH   2   3
HETATM    3  N   UNL     1      -7.610   9.528  65.140  1.00  0.00    -0.108 N  
HETATM    4  C   UNL     1      -6.717  10.133  64.042  1.00  0.00    -0.107 C  
BRANCH   3   5
HETATM    5  C   UNL     1      -9.074   9.576  64.664  1.00  0.00    -0.210 C  
HETATM    6  C   UNL     1      -9.380  10.746  63.742  1.00  0.00    -0.295 C  
ENDBRANCH   3   5
BRANCH   3   7
HETATM    7  C   UNL     1      -7.392  10.335  66.453  1.00  0.00    -0.114 C  
BRANCH   7   8
HETATM    8  C   UNL     1      -8.028   9.709  67.696  1.00  0.00    -0.106 C  
BRANCH   8   9
HETATM    9  O   UNL     1      -8.984  10.591  68.290  1.00  0.00    -0.131 OA 
BRANCH   9  10
HETATM   10  C   UNL     1      -9.466  10.165  69.499  1.00  0.00    -0.214 C  
HETATM   11  O   UNL     1      -8.773  10.087  70.507  1.00  0.00    -0.033 OA 
BRANCH  10  12
HETATM   12  C   UNL     1     -10.977   9.971  69.456  1.00  0.00    -0.289 C  
HETATM   13  C   UNL     1     -11.293   8.652  70.126  1.00  0.00    -0.083 A  
HETATM   14  C   UNL     1     -10.768   7.450  69.615  1.00  0.00    -0.245 A  
HETATM   15  C   UNL     1     -10.934   6.255  70.313  1.00  0.00    -0.400 A  
HETATM   16  C   UNL     1     -11.642   6.245  71.511  1.00  0.00    -0.345 A  
HETATM   17  C   UNL     1     -12.182   7.430  72.013  1.00  0.00    -0.315 A  
HETATM   18  C   UNL     1     -11.999   8.632  71.329  1.00  0.00    -0.293 A  
HETATM   19  O   UNL     1     -12.525   9.755  71.919  1.00  0.00    -0.381 OA 
HETATM   20  C   UNL     1     -12.391  10.965  71.282  1.00  0.00    -0.343 A  
HETATM   21  C   UNL     1     -13.000  12.057  71.904  1.00  0.00    -0.428 A  
HETATM   22  C   UNL     1     -12.907  13.328  71.340  1.00  0.00    -0.411 A  
HETATM   23  C   UNL     1     -12.214  13.510  70.144  1.00  0.00    -0.400 A  
HETATM   24  C   UNL     1     -11.611  12.420  69.516  1.00  0.00    -0.353 A  
HETATM   25  C   UNL     1     -11.686  11.140  70.090  1.00  0.00    -0.439 A  
ENDBRANCH  10  12
ENDBRANCH   9  10
ENDBRANCH   8   9
ENDBRANCH   7   8
ENDBRANCH   3   7
ENDBRANCH   2   3
TORSDOF 7
ENDMDL
MODEL      134
REMARK 921   NORMALIZED FREE ENERGY PREDICTED BY IDOCK:   -4.02 KCAL/MOL
REMARK 922        TOTAL FREE ENERGY PREDICTED BY IDOCK:   -6.98 KCAL/MOL
REMARK 923 INTER-LIGAND FREE ENERGY PREDICTED BY IDOCK:   -6.27 KCAL/MOL
REMARK 924 INTRA-LIGAND FREE ENERGY PREDICTED BY IDOCK:   -0.70 KCAL/MOL
REMARK 927      BINDING AFFINITY PREDICTED BY RF-SCORE:    0.00 PKD
ROOT
HETATM    1  C   UNL     1     -10.998  16.559  64.780  1.00  0.00    -0.192 C  
HETATM    2  C   UNL     1     -10.394  17.165  66.036  1.00  0.00    -0.309 C  
ENDROOT
BRANCH   2   3
HETATM    3  N   UNL     1      -9.818  16.128  67.038  1.00  0.00    -0.240 N  
HETATM    4  C   UNL     1      -8.338  15.876  66.698  1.00  0.00    -0.293 C  
BRANCH   3   5
HETATM    5  C   UNL     1      -9.913  16.594  68.503  1.00  0.00    -0.261 C  
HETATM    6  C   UNL     1     -10.170  18.085  68.656  1.00  0.00    -0.385 C  
ENDBRANCH   3   5
BRANCH   3   7
HETATM    7  C   UNL     1     -10.613  14.814  66.785  1.00  0.00    -0.302 C  
BRANCH   7   8
HETATM    8  C   UNL     1     -10.317  13.692  67.783  1.00  0.00    -0.241 C  
BRANCH   8   9
HETATM    9  O   UNL     1     -10.047  12.459  67.112  1.00  0.00    -0.211 OA 
BRANCH   9  10
HETATM   10  C   UNL     1     -11.099  11.582  67.105  1.00  0.00    -0.297 C  
HETATM   11  O   UNL     1     -12.268  11.938  67.009  1.00  0.00    -0.492 OA 
BRANCH  10  12
HETATM   12  C   UNL     1     -10.616  10.137  67.064  1.00  0.00    -0.290 C  
HETATM   13  C   UNL     1      -9.661  10.001  65.899  1.00  0.00    -0.309 A  
HETATM   14  C   UNL     1     -10.097  10.265  64.587  1.00  0.00    -0.317 A  
HETATM   15  C   UNL     1      -9.187  10.286  63.532  1.00  0.00    -0.321 A  
HETATM   16  C   UNL     1      -7.841  10.022  63.773  1.00  0.00    -0.152 A  
HETATM   17  C   UNL     1      -7.405   9.741  65.069  1.00  0.00    -0.128 A  
HETATM   18  C   UNL     1      -8.311   9.741  66.131  1.00  0.00    -0.120 A  
HETATM   19  O   UNL     1      -7.787   9.498  67.377  1.00  0.00    -0.101 OA 
HETATM   20  C   UNL     1      -8.634   9.469  68.459  1.00  0.00    -0.119 A  
HETATM   21  C   UNL     1      -8.048   9.159  69.688  1.00  0.00    -0.106 A  
HETATM   22  C   UNL     1      -8.824   9.118  70.845  1.00  0.00    -0.292 A  
HETATM   23  C   UNL     1     -10.192   9.376  70.775  1.00  0.00    -0.368 A  
HETATM   24  C   UNL     1     -10.782   9.680  69.548  1.00  0.00    -0.252 A  
HETATM   25  C   UNL     1     -10.001   9.740  68.381  1.00  0.00    -0.176 A  
ENDBRANCH  10  12
ENDBRANCH   9  10
ENDBRANCH   8   9
ENDBRANCH   7   8
ENDBRANCH   3   7
ENDBRANCH   2   3
TORSDOF 7
ENDMDL
MODEL      135
REMARK 921   NORMALIZED FREE ENERGY PREDICTED BY IDOCK:   -4.01 KCAL/MOL
REMARK 922        TOTAL FREE ENERGY PREDICTED BY IDOCK:   -6.97 KCAL/MOL
REMARK 923 INTER-LIGAND FREE ENERGY PREDICTED BY IDOCK:   -6.17 KCAL/MOL
REMARK 924 INTRA-LIGAND FREE ENERGY PREDICTED BY IDOCK:   -0.81 KCAL/MOL
REMARK 927      BINDING AFFINITY PREDICTED BY RF-SCORE:    0.00 PKD
ROOT
HETATM    1  C   UNL     1     -10.046   7.526  73.433  1.00  0.00    -0.393 C  
HETATM    2  C   UNL     1      -9.806   7.330  71.945  1.00  0.00    -0.162 C  
ENDROOT
BRANCH   2   3
HETATM    3  N   UNL     1     -10.627   8.278  71.030  1.00  0.00    -0.201 N  
HETATM    4  C   UNL     1     -11.126   7.484  69.810  1.00  0.00    -0.129 C  
BRANCH   3   5
HETATM    5  C   UNL     1     -11.843   8.896  71.744  1.00  0.00    -0.358 C  
HETATM    6  C   UNL     1     -12.180  10.303  71.275  1.00  0.00    -0.496 C  
ENDBRANCH   3   5
BRANCH   3   7
HETATM    7  C   UNL     1      -9.622   9.359  70.537  1.00  0.00    -0.271 C  
BRANCH   7   8
HETATM    8  C   UNL     1      -9.407   9.382  69.021  1.00  0.00    -0.153 C  
BRANCH   8   9
HETATM    9  O   UNL     1      -9.777  10.645  68.463  1.00  0.00    -0.160 OA 
BRANCH   9  10
HETATM   10  C   UNL     1      -8.723  11.492  68.244  1.00  0.00    -0.162 C  
HETATM   11  O   UNL     1      -7.824  11.667  69.059  1.00  0.00    -0.080 OA 
BRANCH  10  12
HETATM   12  C   UNL     1      -8.737  12.037  66.822  1.00  0.00    -0.192 C  
HETATM   13  C   UNL     1      -8.374  10.904  65.888  1.00  0.00    -0.149 A  
HETATM   14  C   UNL     1      -7.131  10.256  66.005  1.00  0.00    -0.128 A  
HETATM   15  C   UNL     1      -6.854   9.119  65.248  1.00  0.00    -0.077 A  
HETATM   16  C   UNL     1      -7.805   8.633  64.353  1.00  0.00    -0.138 A  
HETATM   17  C   UNL     1      -9.033   9.284  64.219  1.00  0.00    -0.142 A  
HETATM   18  C   UNL     1      -9.321  10.409  64.991  1.00  0.00    -0.229 A  
HETATM   19  O   UNL     1     -10.570  10.957  64.825  1.00  0.00    -0.315 OA 
HETATM   20  C   UNL     1     -10.904  12.078  65.547  1.00  0.00    -0.292 A  
HETATM   21  C   UNL     1     -12.165  12.620  65.289  1.00  0.00    -0.532 A  
HETATM   22  C   UNL     1     -12.598  13.750  65.982  1.00  0.00    -0.458 A  
HETATM   23  C   UNL     1     -11.767  14.348  66.927  1.00  0.00    -0.422 A  
HETATM   24  C   UNL     1     -10.505  13.812  67.183  1.00  0.00    -0.272 A  
HETATM   25  C   UNL     1     -10.069  12.663  66.501  1.00  0.00    -0.257 A  
ENDBRANCH  10  12
ENDBRANCH   9  10
ENDBRANCH   8   9
ENDBRANCH   7   8
ENDBRANCH   3   7
ENDBRANCH   2   3
TORSDOF 7
ENDMDL
MODEL      136
REMARK 921   NORMALIZED FREE ENERGY PREDICTED BY IDOCK:   -3.99 KCAL/MOL
REMARK 922        TOTAL FREE ENERGY PREDICTED BY IDOCK:   -6.94 KCAL/MOL
REMARK 923 INTER-LIGAND FREE ENERGY PREDICTED BY IDOCK:   -5.94 KCAL/MOL
REMARK 924 INTRA-LIGAND FREE ENERGY PREDICTED BY IDOCK:   -1.01 KCAL/MOL
REMARK 927      BINDING AFFINITY PREDICTED BY RF-SCORE:    0.00 PKD
ROOT
HETATM    1  C   UNL     1      -6.938  10.176  67.063  1.00  0.00    -0.088 C  
HETATM    2  C   UNL     1      -8.199   9.354  66.851  1.00  0.00    -0.116 C  
ENDROOT
BRANCH   2   3
HETATM    3  N   UNL     1      -9.520  10.116  67.142  1.00  0.00    -0.156 N  
HETATM    4  C   UNL     1      -9.275  11.122  68.280  1.00  0.00    -0.169 C  
BRANCH   3   5
HETATM    5  C   UNL     1     -10.053  10.881  65.916  1.00  0.00    -0.252 C  
HETATM    6  C   UNL     1      -9.890  10.127  64.605  1.00  0.00    -0.361 C  
ENDBRANCH   3   5
BRANCH   3   7
HETATM    7  C   UNL     1     -10.524   9.038  67.645  1.00  0.00    -0.260 C  
BRANCH   7   8
HETATM    8  C   UNL     1      -9.876   7.724  68.088  1.00  0.00    -0.167 C  
BRANCH   8   9
HETATM    9  O   UNL     1     -10.224   7.402  69.437  1.00  0.00    -0.190 OA 
BRANCH   9  10
HETATM   10  C   UNL     1      -9.273   7.746  70.360  1.00  0.00    -0.156 C  
HETATM   11  O   UNL     1      -8.133   8.080  70.055  1.00  0.00    -0.111 OA 
BRANCH  10  12
HETATM   12  C   UNL     1      -9.862   7.816  71.763  1.00  0.00    -0.210 C  
HETATM   13  C   UNL     1     -11.183   8.547  71.675  1.00  0.00    -0.361 A  
HETATM   14  C   UNL     1     -11.232   9.872  71.205  1.00  0.00    -0.404 A  
HETATM   15  C   UNL     1     -12.458  10.497  70.982  1.00  0.00    -0.501 A  
HETATM   16  C   UNL     1     -13.642   9.813  71.246  1.00  0.00    -0.285 A  
HETATM   17  C   UNL     1     -13.599   8.504  71.731  1.00  0.00    -0.419 A  
HETATM   18  C   UNL     1     -12.374   7.870  71.935  1.00  0.00    -0.315 A  
HETATM   19  O   UNL     1     -12.428   6.568  72.370  1.00  0.00    -0.126 OA 
HETATM   20  C   UNL     1     -11.252   5.897  72.605  1.00  0.00    -0.291 A  
HETATM   21  C   UNL     1     -11.376   4.598  73.103  1.00  0.00    -0.355 A  
HETATM   22  C   UNL     1     -10.238   3.833  73.359  1.00  0.00    -0.218 A  
HETATM   23  C   UNL     1      -8.972   4.370  73.129  1.00  0.00    -0.120 A  
HETATM   24  C   UNL     1      -8.845   5.669  72.638  1.00  0.00    -0.123 A  
HETATM   25  C   UNL     1      -9.988   6.438  72.361  1.00  0.00    -0.183 A  
ENDBRANCH  10  12
ENDBRANCH   9  10
ENDBRANCH   8   9
ENDBRANCH   7   8
ENDBRANCH   3   7
ENDBRANCH   2   3
TORSDOF 7
ENDMDL
MODEL      137
REMARK 921   NORMALIZED FREE ENERGY PREDICTED BY IDOCK:   -3.99 KCAL/MOL
REMARK 922        TOTAL FREE ENERGY PREDICTED BY IDOCK:   -6.94 KCAL/MOL
REMARK 923 INTER-LIGAND FREE ENERGY PREDICTED BY IDOCK:   -5.80 KCAL/MOL
REMARK 924 INTRA-LIGAND FREE ENERGY PREDICTED BY IDOCK:   -1.14 KCAL/MOL
REMARK 927      BINDING AFFINITY PREDICTED BY RF-SCORE:    0.00 PKD
ROOT
HETATM    1  C   UNL     1     -10.808   6.670  69.503  1.00  0.00    -0.339 C  
HETATM    2  C   UNL     1     -11.775   7.208  70.545  1.00  0.00    -0.272 C  
ENDROOT
BRANCH   2   3
HETATM    3  N   UNL     1     -11.270   8.465  71.303  1.00  0.00    -0.250 N  
HETATM    4  C   UNL     1     -12.483   9.240  71.847  1.00  0.00    -0.382 C  
BRANCH   3   5
HETATM    5  C   UNL     1     -10.339   8.121  72.481  1.00  0.00    -0.330 C  
HETATM    6  C   UNL     1     -10.874   7.020  73.384  1.00  0.00    -0.332 C  
ENDBRANCH   3   5
BRANCH   3   7
HETATM    7  C   UNL     1     -10.563   9.345  70.232  1.00  0.00    -0.250 C  
BRANCH   7   8
HETATM    8  C   UNL     1     -11.403  10.517  69.718  1.00  0.00    -0.300 C  
BRANCH   8   9
HETATM    9  O   UNL     1     -10.642  11.358  68.848  1.00  0.00    -0.197 OA 
BRANCH   9  10
HETATM   10  C   UNL     1     -11.149  11.458  67.580  1.00  0.00    -0.281 C  
HETATM   11  O   UNL     1     -12.333  11.674  67.346  1.00  0.00    -0.199 OA 
BRANCH  10  12
HETATM   12  C   UNL     1     -10.040  11.433  66.535  1.00  0.00    -0.250 C  
HETATM   13  C   UNL     1      -9.132  12.614  66.796  1.00  0.00    -0.214 A  
HETATM   14  C   UNL     1      -9.639  13.926  66.741  1.00  0.00    -0.288 A  
HETATM   15  C   UNL     1      -8.845  15.005  67.125  1.00  0.00    -0.233 A  
HETATM   16  C   UNL     1      -7.535  14.788  67.545  1.00  0.00    -0.221 A  
HETATM   17  C   UNL     1      -7.021  13.491  67.583  1.00  0.00    -0.176 A  
HETATM   18  C   UNL     1      -7.820  12.406  67.220  1.00  0.00    -0.166 A  
HETATM   19  O   UNL     1      -7.246  11.163  67.332  1.00  0.00    -0.096 OA 
HETATM   20  C   UNL     1      -7.979  10.058  66.972  1.00  0.00    -0.106 A  
HETATM   21  C   UNL     1      -7.319   8.830  67.052  1.00  0.00    -0.080 A  
HETATM   22  C   UNL     1      -7.985   7.652  66.720  1.00  0.00    -0.111 A  
HETATM   23  C   UNL     1      -9.312   7.698  66.295  1.00  0.00    -0.189 A  
HETATM   24  C   UNL     1      -9.973   8.924  66.208  1.00  0.00    -0.337 A  
HETATM   25  C   UNL     1      -9.312  10.113  66.559  1.00  0.00    -0.200 A  
ENDBRANCH  10  12
ENDBRANCH   9  10
ENDBRANCH   8   9
ENDBRANCH   7   8
ENDBRANCH   3   7
ENDBRANCH   2   3
TORSDOF 7
ENDMDL
MODEL      138
REMARK 921   NORMALIZED FREE ENERGY PREDICTED BY IDOCK:   -3.99 KCAL/MOL
REMARK 922        TOTAL FREE ENERGY PREDICTED BY IDOCK:   -6.94 KCAL/MOL
REMARK 923 INTER-LIGAND FREE ENERGY PREDICTED BY IDOCK:   -6.17 KCAL/MOL
REMARK 924 INTRA-LIGAND FREE ENERGY PREDICTED BY IDOCK:   -0.77 KCAL/MOL
REMARK 927      BINDING AFFINITY PREDICTED BY RF-SCORE:    0.00 PKD
ROOT
HETATM    1  C   UNL     1     -10.009  10.230  65.017  1.00  0.00    -0.393 C  
HETATM    2  C   UNL     1     -10.799  10.548  66.276  1.00  0.00     0.007 C  
ENDROOT
BRANCH   2   3
HETATM    3  N   UNL     1      -9.930  10.753  67.546  1.00  0.00    -0.171 N  
HETATM    4  C   UNL     1     -10.334   9.707  68.600  1.00  0.00    -0.203 C  
BRANCH   3   5
HETATM    5  C   UNL     1      -8.421  10.615  67.269  1.00  0.00    -0.126 C  
HETATM    6  C   UNL     1      -7.546  10.959  68.464  1.00  0.00    -0.111 C  
ENDBRANCH   3   5
BRANCH   3   7
HETATM    7  C   UNL     1     -10.303  12.165  68.085  1.00  0.00    -0.207 C  
BRANCH   7   8
HETATM    8  C   UNL     1      -9.902  13.322  67.166  1.00  0.00    -0.237 C  
BRANCH   8   9
HETATM    9  O   UNL     1     -10.183  14.586  67.770  1.00  0.00    -0.224 OA 
BRANCH   9  10
HETATM   10  C   UNL     1      -9.269  15.564  67.477  1.00  0.00    -0.198 C  
HETATM   11  O   UNL     1      -8.739  15.678  66.378  1.00  0.00    -0.286 OA 
BRANCH  10  12
HETATM   12  C   UNL     1      -9.136  16.560  68.623  1.00  0.00    -0.239 C  
HETATM   13  C   UNL     1      -7.768  16.374  69.241  1.00  0.00    -0.171 A  
HETATM   14  C   UNL     1      -7.405  15.137  69.806  1.00  0.00    -0.141 A  
HETATM   15  C   UNL     1      -6.099  14.917  70.241  1.00  0.00    -0.158 A  
HETATM   16  C   UNL     1      -5.153  15.933  70.138  1.00  0.00    -0.132 A  
HETATM   17  C   UNL     1      -5.513  17.169  69.597  1.00  0.00    -0.189 A  
HETATM   18  C   UNL     1      -6.813  17.385  69.141  1.00  0.00    -0.228 A  
HETATM   19  O   UNL     1      -7.065  18.615  68.582  1.00  0.00    -0.269 OA 
HETATM   20  C   UNL     1      -8.333  18.892  68.130  1.00  0.00    -0.309 A  
HETATM   21  C   UNL     1      -8.539  20.179  67.629  1.00  0.00    -0.369 A  
HETATM   22  C   UNL     1      -9.789  20.549  67.135  1.00  0.00    -0.567 A  
HETATM   23  C   UNL     1     -10.842  19.635  67.152  1.00  0.00    -0.526 A  
HETATM   24  C   UNL     1     -10.642  18.351  67.658  1.00  0.00    -0.437 A  
HETATM   25  C   UNL     1      -9.379  17.967  68.140  1.00  0.00    -0.286 A  
ENDBRANCH  10  12
ENDBRANCH   9  10
ENDBRANCH   8   9
ENDBRANCH   7   8
ENDBRANCH   3   7
ENDBRANCH   2   3
TORSDOF 7
ENDMDL
MODEL      139
REMARK 921   NORMALIZED FREE ENERGY PREDICTED BY IDOCK:   -3.98 KCAL/MOL
REMARK 922        TOTAL FREE ENERGY PREDICTED BY IDOCK:   -6.92 KCAL/MOL
REMARK 923 INTER-LIGAND FREE ENERGY PREDICTED BY IDOCK:   -5.58 KCAL/MOL
REMARK 924 INTRA-LIGAND FREE ENERGY PREDICTED BY IDOCK:   -1.34 KCAL/MOL
REMARK 927      BINDING AFFINITY PREDICTED BY RF-SCORE:    0.00 PKD
ROOT
HETATM    1  C   UNL     1      -7.288   6.000  65.792  1.00  0.00    -0.076 C  
HETATM    2  C   UNL     1      -8.076   4.873  66.439  1.00  0.00    -0.107 C  
ENDROOT
BRANCH   2   3
HETATM    3  N   UNL     1      -9.360   5.327  67.182  1.00  0.00    -0.118 N  
HETATM    4  C   UNL     1     -10.564   5.177  66.234  1.00  0.00    -0.266 C  
BRANCH   3   5
HETATM    5  C   UNL     1      -9.636   4.511  68.458  1.00  0.00    -0.149 C  
HETATM    6  C   UNL     1      -9.567   5.332  69.737  1.00  0.00    -0.230 C  
ENDBRANCH   3   5
BRANCH   3   7
HETATM    7  C   UNL     1      -9.157   6.841  67.484  1.00  0.00    -0.117 C  
BRANCH   7   8
HETATM    8  C   UNL     1     -10.332   7.733  67.076  1.00  0.00    -0.334 C  
BRANCH   8   9
HETATM    9  O   UNL     1     -10.866   8.434  68.202  1.00  0.00    -0.085 OA 
BRANCH   9  10
HETATM   10  C   UNL     1     -10.605   9.778  68.201  1.00  0.00    -0.231 C  
HETATM   11  O   UNL     1     -10.891  10.516  67.265  1.00  0.00    -0.275 OA 
BRANCH  10  12
HETATM   12  C   UNL     1     -10.081  10.242  69.555  1.00  0.00    -0.260 C  
HETATM   13  C   UNL     1     -11.109   9.872  70.601  1.00  0.00    -0.409 A  
HETATM   14  C   UNL     1     -12.414  10.395  70.530  1.00  0.00    -0.403 A  
HETATM   15  C   UNL     1     -13.403   9.942  71.403  1.00  0.00    -0.447 A  
HETATM   16  C   UNL     1     -13.093   8.984  72.365  1.00  0.00    -0.487 A  
HETATM   17  C   UNL     1     -11.795   8.476  72.452  1.00  0.00    -0.437 A  
HETATM   18  C   UNL     1     -10.809   8.911  71.566  1.00  0.00    -0.326 A  
HETATM   19  O   UNL     1      -9.574   8.325  71.696  1.00  0.00    -0.165 OA 
HETATM   20  C   UNL     1      -8.558   8.725  70.862  1.00  0.00    -0.192 A  
HETATM   21  C   UNL     1      -7.312   8.134  71.084  1.00  0.00    -0.065 A  
HETATM   22  C   UNL     1      -6.223   8.468  70.280  1.00  0.00    -0.034 A  
HETATM   23  C   UNL     1      -6.374   9.403  69.257  1.00  0.00    -0.044 A  
HETATM   24  C   UNL     1      -7.615  10.000  69.036  1.00  0.00    -0.090 A  
HETATM   25  C   UNL     1      -8.721   9.654  69.832  1.00  0.00    -0.236 A  
ENDBRANCH  10  12
ENDBRANCH   9  10
ENDBRANCH   8   9
ENDBRANCH   7   8
ENDBRANCH   3   7
ENDBRANCH   2   3
TORSDOF 7
ENDMDL
MODEL      140
REMARK 921   NORMALIZED FREE ENERGY PREDICTED BY IDOCK:   -3.97 KCAL/MOL
REMARK 922        TOTAL FREE ENERGY PREDICTED BY IDOCK:   -6.92 KCAL/MOL
REMARK 923 INTER-LIGAND FREE ENERGY PREDICTED BY IDOCK:   -5.77 KCAL/MOL
REMARK 924 INTRA-LIGAND FREE ENERGY PREDICTED BY IDOCK:   -1.15 KCAL/MOL
REMARK 927      BINDING AFFINITY PREDICTED BY RF-SCORE:    0.00 PKD
ROOT
HETATM    1  C   UNL     1     -13.497   8.944  72.192  1.00  0.00    -0.497 C  
HETATM    2  C   UNL     1     -12.110   9.301  71.683  1.00  0.00    -0.379 C  
ENDROOT
BRANCH   2   3
HETATM    3  N   UNL     1     -11.102   8.121  71.680  1.00  0.00    -0.245 N  
HETATM    4  C   UNL     1     -11.494   7.129  72.789  1.00  0.00    -0.195 C  
BRANCH   3   5
HETATM    5  C   UNL     1     -11.065   7.367  70.337  1.00  0.00    -0.265 C  
HETATM    6  C   UNL     1     -10.962   5.857  70.486  1.00  0.00    -0.362 C  
ENDBRANCH   3   5
BRANCH   3   7
HETATM    7  C   UNL     1      -9.724   8.746  72.042  1.00  0.00    -0.300 C  
BRANCH   7   8
HETATM    8  C   UNL     1      -8.718   8.777  70.888  1.00  0.00    -0.194 C  
BRANCH   8   9
HETATM    9  O   UNL     1      -8.892   9.941  70.078  1.00  0.00    -0.207 OA 
BRANCH   9  10
HETATM   10  C   UNL     1      -7.858  10.184  69.214  1.00  0.00    -0.134 C  
HETATM   11  O   UNL     1      -6.680  10.149  69.552  1.00  0.00    -0.050 OA 
BRANCH  10  12
HETATM   12  C   UNL     1      -8.355  10.330  67.781  1.00  0.00    -0.110 C  
HETATM   13  C   UNL     1      -8.826   8.971  67.314  1.00  0.00    -0.126 A  
HETATM   14  C   UNL     1      -7.932   7.885  67.268  1.00  0.00    -0.118 A  
HETATM   15  C   UNL     1      -8.395   6.602  66.981  1.00  0.00    -0.113 A  
HETATM   16  C   UNL     1      -9.747   6.396  66.717  1.00  0.00    -0.199 A  
HETATM   17  C   UNL     1     -10.635   7.472  66.742  1.00  0.00    -0.269 A  
HETATM   18  C   UNL     1     -10.179   8.754  67.050  1.00  0.00    -0.281 A  
HETATM   19  O   UNL     1     -11.130   9.744  67.096  1.00  0.00    -0.139 OA 
HETATM   20  C   UNL     1     -10.737  11.030  67.378  1.00  0.00    -0.257 A  
HETATM   21  C   UNL     1     -11.742  11.999  67.351  1.00  0.00    -0.352 A  
HETATM   22  C   UNL     1     -11.442  13.330  67.636  1.00  0.00    -0.360 A  
HETATM   23  C   UNL     1     -10.132  13.699  67.939  1.00  0.00    -0.244 A  
HETATM   24  C   UNL     1      -9.125  12.735  67.960  1.00  0.00    -0.207 A  
HETATM   25  C   UNL     1      -9.424  11.388  67.691  1.00  0.00    -0.165 A  
ENDBRANCH  10  12
ENDBRANCH   9  10
ENDBRANCH   8   9
ENDBRANCH   7   8
ENDBRANCH   3   7
ENDBRANCH   2   3
TORSDOF 7
ENDMDL
MODEL      141
REMARK 921   NORMALIZED FREE ENERGY PREDICTED BY IDOCK:   -3.96 KCAL/MOL
REMARK 922        TOTAL FREE ENERGY PREDICTED BY IDOCK:   -6.91 KCAL/MOL
REMARK 923 INTER-LIGAND FREE ENERGY PREDICTED BY IDOCK:   -5.94 KCAL/MOL
REMARK 924 INTRA-LIGAND FREE ENERGY PREDICTED BY IDOCK:   -0.96 KCAL/MOL
REMARK 927      BINDING AFFINITY PREDICTED BY RF-SCORE:    0.00 PKD
ROOT
HETATM    1  C   UNL     1     -12.904  13.863  65.447  1.00  0.00    -0.466 C  
HETATM    2  C   UNL     1     -11.518  14.426  65.179  1.00  0.00    -0.362 C  
ENDROOT
BRANCH   2   3
HETATM    3  N   UNL     1     -10.748  14.875  66.449  1.00  0.00    -0.309 N  
HETATM    4  C   UNL     1     -10.152  16.273  66.204  1.00  0.00    -0.344 C  
BRANCH   3   5
HETATM    5  C   UNL     1     -11.641  14.935  67.702  1.00  0.00    -0.339 C  
HETATM    6  C   UNL     1     -11.401  16.163  68.567  1.00  0.00    -0.359 C  
ENDBRANCH   3   5
BRANCH   3   7
HETATM    7  C   UNL     1      -9.577  13.862  66.610  1.00  0.00    -0.289 C  
BRANCH   7   8
HETATM    8  C   UNL     1      -9.759  12.856  67.749  1.00  0.00    -0.214 C  
BRANCH   8   9
HETATM    9  O   UNL     1      -9.366  11.541  67.349  1.00  0.00    -0.164 OA 
BRANCH   9  10
HETATM   10  C   UNL     1     -10.317  10.580  67.568  1.00  0.00    -0.223 C  
HETATM   11  O   UNL     1     -11.289  10.753  68.294  1.00  0.00    -0.280 OA 
BRANCH  10  12
HETATM   12  C   UNL     1     -10.092   9.365  66.676  1.00  0.00    -0.332 C  
HETATM   13  C   UNL     1      -9.811   9.864  65.277  1.00  0.00    -0.373 A  
HETATM   14  C   UNL     1     -10.768  10.633  64.590  1.00  0.00    -0.031 A  
HETATM   15  C   UNL     1     -10.455  11.218  63.364  1.00  0.00    -0.424 A  
HETATM   16  C   UNL     1      -9.195  11.021  62.803  1.00  0.00    -0.374 A  
HETATM   17  C   UNL     1      -8.248  10.243  63.471  1.00  0.00    -0.159 A  
HETATM   18  C   UNL     1      -8.551   9.674  64.709  1.00  0.00    -0.179 A  
HETATM   19  O   UNL     1      -7.544   8.963  65.314  1.00  0.00    -0.094 OA 
HETATM   20  C   UNL     1      -7.790   8.365  66.527  1.00  0.00    -0.092 A  
HETATM   21  C   UNL     1      -6.745   7.607  67.060  1.00  0.00    -0.067 A  
HETATM   22  C   UNL     1      -6.896   6.974  68.293  1.00  0.00    -0.074 A  
HETATM   23  C   UNL     1      -8.096   7.087  68.992  1.00  0.00    -0.121 A  
HETATM   24  C   UNL     1      -9.144   7.838  68.459  1.00  0.00    -0.132 A  
HETATM   25  C   UNL     1      -8.992   8.494  67.225  1.00  0.00    -0.141 A  
ENDBRANCH  10  12
ENDBRANCH   9  10
ENDBRANCH   8   9
ENDBRANCH   7   8
ENDBRANCH   3   7
ENDBRANCH   2   3
TORSDOF 7
ENDMDL
MODEL      142
REMARK 921   NORMALIZED FREE ENERGY PREDICTED BY IDOCK:   -3.96 KCAL/MOL
REMARK 922        TOTAL FREE ENERGY PREDICTED BY IDOCK:   -6.90 KCAL/MOL
REMARK 923 INTER-LIGAND FREE ENERGY PREDICTED BY IDOCK:   -5.73 KCAL/MOL
REMARK 924 INTRA-LIGAND FREE ENERGY PREDICTED BY IDOCK:   -1.18 KCAL/MOL
REMARK 927      BINDING AFFINITY PREDICTED BY RF-SCORE:    0.00 PKD
ROOT
HETATM    1  C   UNL     1     -10.511  13.255  66.676  1.00  0.00    -0.279 C  
HETATM    2  C   UNL     1     -10.549  12.740  68.106  1.00  0.00    -0.229 C  
ENDROOT
BRANCH   2   3
HETATM    3  N   UNL     1     -10.432  11.198  68.238  1.00  0.00    -0.182 N  
HETATM    4  C   UNL     1     -10.651  10.561  66.854  1.00  0.00    -0.243 C  
BRANCH   3   5
HETATM    5  C   UNL     1      -9.062  10.744  68.776  1.00  0.00    -0.178 C  
HETATM    6  C   UNL     1      -8.379   9.699  67.908  1.00  0.00    -0.117 C  
ENDBRANCH   3   5
BRANCH   3   7
HETATM    7  C   UNL     1     -11.602  10.767  69.170  1.00  0.00    -0.305 C  
BRANCH   7   8
HETATM    8  C   UNL     1     -11.167  10.018  70.432  1.00  0.00    -0.323 C  
BRANCH   8   9
HETATM    9  O   UNL     1     -12.226   9.208  70.946  1.00  0.00    -0.274 OA 
BRANCH   9  10
HETATM   10  C   UNL     1     -11.931   7.873  71.010  1.00  0.00    -0.252 C  
HETATM   11  O   UNL     1     -12.773   7.010  71.228  1.00  0.00    -0.377 OA 
BRANCH  10  12
HETATM   12  C   UNL     1     -10.483   7.605  70.617  1.00  0.00    -0.217 C  
HETATM   13  C   UNL     1      -9.775   7.029  71.823  1.00  0.00    -0.165 A  
HETATM   14  C   UNL     1      -9.685   7.770  73.017  1.00  0.00    -0.329 A  
HETATM   15  C   UNL     1      -9.166   7.187  74.171  1.00  0.00    -0.276 A  
HETATM   16  C   UNL     1      -8.713   5.870  74.140  1.00  0.00    -0.122 A  
HETATM   17  C   UNL     1      -8.781   5.137  72.954  1.00  0.00    -0.118 A  
HETATM   18  C   UNL     1      -9.320   5.711  71.802  1.00  0.00    -0.145 A  
HETATM   19  O   UNL     1      -9.389   4.902  70.694  1.00  0.00    -0.145 OA 
HETATM   20  C   UNL     1      -9.895   5.418  69.525  1.00  0.00    -0.196 A  
HETATM   21  C   UNL     1      -9.882   4.563  68.421  1.00  0.00    -0.153 A  
HETATM   22  C   UNL     1     -10.387   4.993  67.194  1.00  0.00    -0.217 A  
HETATM   23  C   UNL     1     -10.895   6.284  67.065  1.00  0.00    -0.458 A  
HETATM   24  C   UNL     1     -10.903   7.143  68.164  1.00  0.00    -0.170 A  
HETATM   25  C   UNL     1     -10.413   6.709  69.408  1.00  0.00    -0.254 A  
ENDBRANCH  10  12
ENDBRANCH   9  10
ENDBRANCH   8   9
ENDBRANCH   7   8
ENDBRANCH   3   7
ENDBRANCH   2   3
TORSDOF 7
ENDMDL
MODEL      143
REMARK 921   NORMALIZED FREE ENERGY PREDICTED BY IDOCK:   -3.95 KCAL/MOL
REMARK 922        TOTAL FREE ENERGY PREDICTED BY IDOCK:   -6.89 KCAL/MOL
REMARK 923 INTER-LIGAND FREE ENERGY PREDICTED BY IDOCK:   -6.17 KCAL/MOL
REMARK 924 INTRA-LIGAND FREE ENERGY PREDICTED BY IDOCK:   -0.72 KCAL/MOL
REMARK 927      BINDING AFFINITY PREDICTED BY RF-SCORE:    0.00 PKD
ROOT
HETATM    1  C   UNL     1      -6.059  18.730  64.816  1.00  0.00    -0.217 C  
HETATM    2  C   UNL     1      -5.802  18.860  66.309  1.00  0.00    -0.158 C  
ENDROOT
BRANCH   2   3
HETATM    3  N   UNL     1      -6.656  17.913  67.194  1.00  0.00    -0.169 N  
HETATM    4  C   UNL     1      -5.715  17.038  68.041  1.00  0.00    -0.120 C  
BRANCH   3   5
HETATM    5  C   UNL     1      -7.606  18.671  68.140  1.00  0.00    -0.271 C  
HETATM    6  C   UNL     1      -8.320  19.841  67.482  1.00  0.00    -0.351 C  
ENDBRANCH   3   5
BRANCH   3   7
HETATM    7  C   UNL     1      -7.425  16.992  66.202  1.00  0.00    -0.220 C  
BRANCH   7   8
HETATM    8  C   UNL     1      -8.595  16.226  66.825  1.00  0.00    -0.237 C  
BRANCH   8   9
HETATM    9  O   UNL     1      -8.820  14.985  66.150  1.00  0.00    -0.217 OA 
BRANCH   9  10
HETATM   10  C   UNL     1      -8.443  13.881  66.867  1.00  0.00    -0.069 C  
HETATM   11  O   UNL     1      -7.297  13.697  67.261  1.00  0.00    -0.145 OA 
BRANCH  10  12
HETATM   12  C   UNL     1      -9.647  13.023  67.238  1.00  0.00    -0.225 C  
HETATM   13  C   UNL     1     -10.503  13.817  68.199  1.00  0.00    -0.252 A  
HETATM   14  C   UNL     1      -9.978  14.242  69.434  1.00  0.00     0.163 A  
HETATM   15  C   UNL     1     -10.712  15.098  70.254  1.00  0.00    -0.232 A  
HETATM   16  C   UNL     1     -11.980  15.518  69.861  1.00  0.00    -0.381 A  
HETATM   17  C   UNL     1     -12.513  15.084  68.646  1.00  0.00     0.216 A  
HETATM   18  C   UNL     1     -11.773  14.245  67.812  1.00  0.00    -0.374 A  
HETATM   19  O   UNL     1     -12.358  13.905  66.617  1.00  0.00    -0.435 OA 
HETATM   20  C   UNL     1     -11.683  13.067  65.762  1.00  0.00    -0.382 A  
HETATM   21  C   UNL     1     -12.356  12.713  64.591  1.00  0.00    -0.546 A  
HETATM   22  C   UNL     1     -11.747  11.877  63.656  1.00  0.00    -0.572 A  
HETATM   23  C   UNL     1     -10.466  11.383  63.895  1.00  0.00    -0.444 A  
HETATM   24  C   UNL     1      -9.793  11.730  65.066  1.00  0.00    -0.257 A  
HETATM   25  C   UNL     1     -10.394  12.587  66.004  1.00  0.00    -0.277 A  
ENDBRANCH  10  12
ENDBRANCH   9  10
ENDBRANCH   8   9
ENDBRANCH   7   8
ENDBRANCH   3   7
ENDBRANCH   2   3
TORSDOF 7
ENDMDL
MODEL      144
REMARK 921   NORMALIZED FREE ENERGY PREDICTED BY IDOCK:   -3.92 KCAL/MOL
REMARK 922        TOTAL FREE ENERGY PREDICTED BY IDOCK:   -6.84 KCAL/MOL
REMARK 923 INTER-LIGAND FREE ENERGY PREDICTED BY IDOCK:   -6.45 KCAL/MOL
REMARK 924 INTRA-LIGAND FREE ENERGY PREDICTED BY IDOCK:   -0.40 KCAL/MOL
REMARK 927      BINDING AFFINITY PREDICTED BY RF-SCORE:    0.00 PKD
ROOT
HETATM    1  C   UNL     1     -13.299   9.911  71.583  1.00  0.00    -0.481 C  
HETATM    2  C   UNL     1     -12.973  10.000  70.101  1.00  0.00     0.251 C  
ENDROOT
BRANCH   2   3
HETATM    3  N   UNL     1     -11.727  10.864  69.767  1.00  0.00    -0.307 N  
HETATM    4  C   UNL     1     -11.917  12.267  70.371  1.00  0.00    -0.263 C  
BRANCH   3   5
HETATM    5  C   UNL     1     -10.418  10.266  70.316  1.00  0.00    -0.146 C  
HETATM    6  C   UNL     1      -9.351  10.051  69.255  1.00  0.00    -0.224 C  
ENDBRANCH   3   5
BRANCH   3   7
HETATM    7  C   UNL     1     -11.710  10.993  68.216  1.00  0.00    -0.229 C  
BRANCH   7   8
HETATM    8  C   UNL     1     -12.159  12.358  67.688  1.00  0.00    -0.006 C  
BRANCH   8   9
HETATM    9  O   UNL     1     -12.389  12.319  66.278  1.00  0.00    -0.556 OA 
BRANCH   9  10
HETATM   10  C   UNL     1     -12.206  13.520  65.646  1.00  0.00    -0.458 C  
HETATM   11  O   UNL     1     -13.109  14.331  65.474  1.00  0.00    -0.639 OA 
BRANCH  10  12
HETATM   12  C   UNL     1     -10.733  13.771  65.347  1.00  0.00    -0.320 C  
HETATM   13  C   UNL     1     -10.093  14.320  66.603  1.00  0.00    -0.274 A  
HETATM   14  C   UNL     1     -10.549  15.526  67.165  1.00  0.00    -0.300 A  
HETATM   15  C   UNL     1     -10.065  15.957  68.399  1.00  0.00    -0.223 A  
HETATM   16  C   UNL     1      -9.107  15.201  69.070  1.00  0.00    -0.218 A  
HETATM   17  C   UNL     1      -8.636  14.013  68.508  1.00  0.00    -0.147 A  
HETATM   18  C   UNL     1      -9.135  13.568  67.284  1.00  0.00    -0.225 A  
HETATM   19  O   UNL     1      -8.648  12.367  66.829  1.00  0.00    -0.190 OA 
HETATM   20  C   UNL     1      -9.090  11.886  65.619  1.00  0.00     0.021 A  
HETATM   21  C   UNL     1      -8.513  10.691  65.186  1.00  0.00    -0.146 A  
HETATM   22  C   UNL     1      -8.907  10.119  63.977  1.00  0.00    -0.247 A  
HETATM   23  C   UNL     1      -9.873  10.746  63.192  1.00  0.00    -0.378 A  
HETATM   24  C   UNL     1     -10.447  11.943  63.619  1.00  0.00    -0.493 A  
HETATM   25  C   UNL     1     -10.067  12.516  64.845  1.00  0.00    -0.249 A  
ENDBRANCH  10  12
ENDBRANCH   9  10
ENDBRANCH   8   9
ENDBRANCH   7   8
ENDBRANCH   3   7
ENDBRANCH   2   3
TORSDOF 7
ENDMDL
MODEL      145
REMARK 921   NORMALIZED FREE ENERGY PREDICTED BY IDOCK:   -3.92 KCAL/MOL
REMARK 922        TOTAL FREE ENERGY PREDICTED BY IDOCK:   -6.84 KCAL/MOL
REMARK 923 INTER-LIGAND FREE ENERGY PREDICTED BY IDOCK:   -6.52 KCAL/MOL
REMARK 924 INTRA-LIGAND FREE ENERGY PREDICTED BY IDOCK:   -0.32 KCAL/MOL
REMARK 927      BINDING AFFINITY PREDICTED BY RF-SCORE:    0.00 PKD
ROOT
HETATM    1  C   UNL     1     -10.691   7.013  67.283  1.00  0.00    -0.412 C  
HETATM    2  C   UNL     1      -9.450   7.734  67.782  1.00  0.00    -0.143 C  
ENDROOT
BRANCH   2   3
HETATM    3  N   UNL     1      -9.396   7.932  69.321  1.00  0.00    -0.149 N  
HETATM    4  C   UNL     1     -10.768   7.569  69.918  1.00  0.00    -0.246 C  
BRANCH   3   5
HETATM    5  C   UNL     1      -8.320   7.065  70.000  1.00  0.00    -0.138 C  
HETATM    6  C   UNL     1      -7.755   5.975  69.102  1.00  0.00    -0.095 C  
ENDBRANCH   3   5
BRANCH   3   7
HETATM    7  C   UNL     1      -9.150   9.453  69.540  1.00  0.00    -0.165 C  
BRANCH   7   8
HETATM    8  C   UNL     1      -8.893  10.246  68.256  1.00  0.00    -0.126 C  
BRANCH   8   9
HETATM    9  O   UNL     1      -9.534  11.523  68.297  1.00  0.00    -0.178 OA 
BRANCH   9  10
HETATM   10  C   UNL     1     -10.088  11.911  67.106  1.00  0.00    -0.204 C  
HETATM   11  O   UNL     1      -9.689  11.510  66.019  1.00  0.00    -0.212 OA 
BRANCH  10  12
HETATM   12  C   UNL     1     -11.341  12.751  67.326  1.00  0.00    -0.364 C  
HETATM   13  C   UNL     1     -11.884  12.423  68.699  1.00  0.00    -0.348 A  
HETATM   14  C   UNL     1     -12.281  11.110  69.011  1.00  0.00    -0.194 A  
HETATM   15  C   UNL     1     -12.641  10.773  70.315  1.00  0.00    -0.350 A  
HETATM   16  C   UNL     1     -12.628  11.747  71.311  1.00  0.00    -0.401 A  
HETATM   17  C   UNL     1     -12.253  13.056  71.003  1.00  0.00    -0.232 A  
HETATM   18  C   UNL     1     -11.872  13.391  69.703  1.00  0.00    -0.331 A  
HETATM   19  O   UNL     1     -11.475  14.690  69.501  1.00  0.00    -0.266 OA 
HETATM   20  C   UNL     1     -11.105  15.083  68.238  1.00  0.00    -0.286 A  
HETATM   21  C   UNL     1     -10.770  16.431  68.087  1.00  0.00    -0.336 A  
HETATM   22  C   UNL     1     -10.369  16.920  66.845  1.00  0.00    -0.304 A  
HETATM   23  C   UNL     1     -10.312  16.065  65.745  1.00  0.00    -0.398 A  
HETATM   24  C   UNL     1     -10.652  14.720  65.891  1.00  0.00    -0.322 A  
HETATM   25  C   UNL     1     -11.040  14.217  67.145  1.00  0.00    -0.315 A  
ENDBRANCH  10  12
ENDBRANCH   9  10
ENDBRANCH   8   9
ENDBRANCH   7   8
ENDBRANCH   3   7
ENDBRANCH   2   3
TORSDOF 7
ENDMDL
MODEL      146
REMARK 921   NORMALIZED FREE ENERGY PREDICTED BY IDOCK:   -3.88 KCAL/MOL
REMARK 922        TOTAL FREE ENERGY PREDICTED BY IDOCK:   -6.79 KCAL/MOL
REMARK 923 INTER-LIGAND FREE ENERGY PREDICTED BY IDOCK:   -6.08 KCAL/MOL
REMARK 924 INTRA-LIGAND FREE ENERGY PREDICTED BY IDOCK:   -0.70 KCAL/MOL
REMARK 927      BINDING AFFINITY PREDICTED BY RF-SCORE:    0.00 PKD
ROOT
HETATM    1  C   UNL     1     -13.685   8.855  72.027  1.00  0.00    -0.509 C  
HETATM    2  C   UNL     1     -12.240   9.323  71.990  1.00  0.00    -0.348 C  
ENDROOT
BRANCH   2   3
HETATM    3  N   UNL     1     -11.201   8.187  71.787  1.00  0.00    -0.258 N  
HETATM    4  C   UNL     1      -9.814   8.697  72.218  1.00  0.00    -0.289 C  
BRANCH   3   5
HETATM    5  C   UNL     1     -11.532   6.920  72.597  1.00  0.00    -0.196 C  
HETATM    6  C   UNL     1     -10.513   6.602  73.680  1.00  0.00    -0.353 C  
ENDBRANCH   3   5
BRANCH   3   7
HETATM    7  C   UNL     1     -11.171   7.915  70.255  1.00  0.00    -0.200 C  
BRANCH   7   8
HETATM    8  C   UNL     1      -9.971   8.524  69.525  1.00  0.00    -0.193 C  
BRANCH   8   9
HETATM    9  O   UNL     1     -10.388   9.328  68.420  1.00  0.00    -0.196 OA 
BRANCH   9  10
HETATM   10  C   UNL     1     -10.167   8.756  67.195  1.00  0.00    -0.276 C  
HETATM   11  O   UNL     1     -10.896   7.895  66.716  1.00  0.00    -0.234 OA 
BRANCH  10  12
HETATM   12  C   UNL     1      -9.021   9.442  66.461  1.00  0.00    -0.176 C  
HETATM   13  C   UNL     1      -8.129   8.364  65.887  1.00  0.00    -0.110 A  
HETATM   14  C   UNL     1      -7.499   7.435  66.736  1.00  0.00    -0.096 A  
HETATM   15  C   UNL     1      -6.798   6.355  66.203  1.00  0.00    -0.057 A  
HETATM   16  C   UNL     1      -6.702   6.204  64.822  1.00  0.00    -0.043 A  
HETATM   17  C   UNL     1      -7.308   7.134  63.974  1.00  0.00    -0.081 A  
HETATM   18  C   UNL     1      -8.028   8.204  64.505  1.00  0.00    -0.142 A  
HETATM   19  O   UNL     1      -8.629   9.043  63.598  1.00  0.00    -0.192 OA 
HETATM   20  C   UNL     1      -9.337  10.125  64.062  1.00  0.00    -0.287 A  
HETATM   21  C   UNL     1      -9.873  10.971  63.088  1.00  0.00    -0.398 A  
HETATM   22  C   UNL     1     -10.619  12.088  63.462  1.00  0.00    -0.514 A  
HETATM   23  C   UNL     1     -10.822  12.369  64.812  1.00  0.00    -0.340 A  
HETATM   24  C   UNL     1     -10.284  11.530  65.787  1.00  0.00    -0.293 A  
HETATM   25  C   UNL     1      -9.546  10.392  65.416  1.00  0.00    -0.303 A  
ENDBRANCH  10  12
ENDBRANCH   9  10
ENDBRANCH   8   9
ENDBRANCH   7   8
ENDBRANCH   3   7
ENDBRANCH   2   3
TORSDOF 7
ENDMDL
MODEL      147
REMARK 921   NORMALIZED FREE ENERGY PREDICTED BY IDOCK:   -3.87 KCAL/MOL
REMARK 922        TOTAL FREE ENERGY PREDICTED BY IDOCK:   -6.77 KCAL/MOL
REMARK 923 INTER-LIGAND FREE ENERGY PREDICTED BY IDOCK:   -5.95 KCAL/MOL
REMARK 924 INTRA-LIGAND FREE ENERGY PREDICTED BY IDOCK:   -0.82 KCAL/MOL
REMARK 927      BINDING AFFINITY PREDICTED BY RF-SCORE:    0.00 PKD
ROOT
HETATM    1  C   UNL     1     -10.141   4.990  66.367  1.00  0.00    -0.278 C  
HETATM    2  C   UNL     1      -8.824   5.570  66.854  1.00  0.00    -0.112 C  
ENDROOT
BRANCH   2   3
HETATM    3  N   UNL     1      -8.320   4.983  68.199  1.00  0.00    -0.096 N  
HETATM    4  C   UNL     1      -8.831   3.537  68.334  1.00  0.00    -0.117 C  
BRANCH   3   5
HETATM    5  C   UNL     1      -6.784   4.973  68.312  1.00  0.00    -0.054 C  
HETATM    6  C   UNL     1      -6.073   4.789  66.980  1.00  0.00    -0.031 C  
ENDBRANCH   3   5
BRANCH   3   7
HETATM    7  C   UNL     1      -8.986   5.846  69.310  1.00  0.00    -0.117 C  
BRANCH   7   8
HETATM    8  C   UNL     1      -8.925   7.355  69.064  1.00  0.00    -0.131 C  
BRANCH   8   9
HETATM    9  O   UNL     1     -10.101   8.008  69.547  1.00  0.00    -0.187 OA 
BRANCH   9  10
HETATM   10  C   UNL     1     -10.001   9.373  69.607  1.00  0.00    -0.197 C  
HETATM   11  O   UNL     1      -9.054   9.953  70.125  1.00  0.00    -0.223 OA 
BRANCH  10  12
HETATM   12  C   UNL     1     -11.114  10.046  68.812  1.00  0.00    -0.219 C  
HETATM   13  C   UNL     1     -11.810  11.025  69.730  1.00  0.00    -0.421 A  
HETATM   14  C   UNL     1     -12.439  10.575  70.905  1.00  0.00    -0.488 A  
HETATM   15  C   UNL     1     -12.951  11.488  71.825  1.00  0.00    -0.500 A  
HETATM   16  C   UNL     1     -12.861  12.854  71.571  1.00  0.00    -0.380 A  
HETATM   17  C   UNL     1     -12.255  13.306  70.397  1.00  0.00    -0.404 A  
HETATM   18  C   UNL     1     -11.722  12.396  69.484  1.00  0.00    -0.322 A  
HETATM   19  O   UNL     1     -11.106  12.931  68.380  1.00  0.00    -0.235 OA 
HETATM   20  C   UNL     1     -10.577  12.082  67.437  1.00  0.00    -0.223 A  
HETATM   21  C   UNL     1     -10.017  12.689  66.311  1.00  0.00    -0.266 A  
HETATM   22  C   UNL     1      -9.444  11.910  65.306  1.00  0.00    -0.089 A  
HETATM   23  C   UNL     1      -9.439  10.521  65.420  1.00  0.00    -0.273 A  
HETATM   24  C   UNL     1     -10.003   9.912  66.541  1.00  0.00    -0.291 A  
HETATM   25  C   UNL     1     -10.566  10.692  67.565  1.00  0.00    -0.297 A  
ENDBRANCH  10  12
ENDBRANCH   9  10
ENDBRANCH   8   9
ENDBRANCH   7   8
ENDBRANCH   3   7
ENDBRANCH   2   3
TORSDOF 7
ENDMDL
MODEL      148
REMARK 921   NORMALIZED FREE ENERGY PREDICTED BY IDOCK:   -3.86 KCAL/MOL
REMARK 922        TOTAL FREE ENERGY PREDICTED BY IDOCK:   -6.76 KCAL/MOL
REMARK 923 INTER-LIGAND FREE ENERGY PREDICTED BY IDOCK:   -5.83 KCAL/MOL
REMARK 924 INTRA-LIGAND FREE ENERGY PREDICTED BY IDOCK:   -0.93 KCAL/MOL
REMARK 927      BINDING AFFINITY PREDICTED BY RF-SCORE:    0.00 PKD
ROOT
HETATM    1  C   UNL     1      -9.719  17.274  66.769  1.00  0.00    -0.285 C  
HETATM    2  C   UNL     1      -9.560  16.177  67.809  1.00  0.00    -0.223 C  
ENDROOT
BRANCH   2   3
HETATM    3  N   UNL     1     -10.116  14.794  67.376  1.00  0.00    -0.231 N  
HETATM    4  C   UNL     1     -11.622  14.742  67.692  1.00  0.00    -0.354 C  
BRANCH   3   5
HETATM    5  C   UNL     1      -9.920  14.512  65.875  1.00  0.00    -0.329 C  
HETATM    6  C   UNL     1     -11.214  14.522  65.075  1.00  0.00    -0.384 C  
ENDBRANCH   3   5
BRANCH   3   7
HETATM    7  C   UNL     1      -9.388  13.750  68.271  1.00  0.00    -0.209 C  
BRANCH   7   8
HETATM    8  C   UNL     1      -7.917  13.524  67.915  1.00  0.00    -0.162 C  
BRANCH   8   9
HETATM    9  O   UNL     1      -7.767  12.451  66.983  1.00  0.00    -0.144 OA 
BRANCH   9  10
HETATM   10  C   UNL     1      -7.581  11.225  67.563  1.00  0.00    -0.110 C  
HETATM   11  O   UNL     1      -6.752  11.018  68.442  1.00  0.00    -0.057 OA 
BRANCH  10  12
HETATM   12  C   UNL     1      -8.634  10.226  67.097  1.00  0.00    -0.126 C  
HETATM   13  C   UNL     1      -9.848  10.386  67.984  1.00  0.00    -0.170 A  
HETATM   14  C   UNL     1      -9.749  10.173  69.371  1.00  0.00    -0.247 A  
HETATM   15  C   UNL     1     -10.826  10.463  70.208  1.00  0.00    -0.308 A  
HETATM   16  C   UNL     1     -12.014  10.946  69.667  1.00  0.00    -0.414 A  
HETATM   17  C   UNL     1     -12.125  11.141  68.289  1.00  0.00    -0.011 A  
HETATM   18  C   UNL     1     -11.042  10.872  67.451  1.00  0.00    -0.307 A  
HETATM   19  O   UNL     1     -11.226  11.136  66.116  1.00  0.00    -0.161 OA 
HETATM   20  C   UNL     1     -10.200  10.874  65.240  1.00  0.00    -0.288 A  
HETATM   21  C   UNL     1     -10.471  11.108  63.890  1.00  0.00    -0.445 A  
HETATM   22  C   UNL     1      -9.487  10.884  62.927  1.00  0.00    -0.377 A  
HETATM   23  C   UNL     1      -8.232  10.415  63.311  1.00  0.00    -0.148 A  
HETATM   24  C   UNL     1      -7.960  10.174  64.658  1.00  0.00    -0.145 A  
HETATM   25  C   UNL     1      -8.942  10.415  65.634  1.00  0.00    -0.198 A  
ENDBRANCH  10  12
ENDBRANCH   9  10
ENDBRANCH   8   9
ENDBRANCH   7   8
ENDBRANCH   3   7
ENDBRANCH   2   3
TORSDOF 7
ENDMDL
MODEL      149
REMARK 921   NORMALIZED FREE ENERGY PREDICTED BY IDOCK:   -3.83 KCAL/MOL
REMARK 922        TOTAL FREE ENERGY PREDICTED BY IDOCK:   -6.72 KCAL/MOL
REMARK 923 INTER-LIGAND FREE ENERGY PREDICTED BY IDOCK:   -5.81 KCAL/MOL
REMARK 924 INTRA-LIGAND FREE ENERGY PREDICTED BY IDOCK:   -0.91 KCAL/MOL
REMARK 927      BINDING AFFINITY PREDICTED BY RF-SCORE:    0.00 PKD
ROOT
HETATM    1  C   UNL     1     -11.723  10.146  70.529  1.00  0.00    -0.407 C  
HETATM    2  C   UNL     1     -11.954   9.357  71.808  1.00  0.00    -0.382 C  
ENDROOT
BRANCH   2   3
HETATM    3  N   UNL     1     -11.817   7.819  71.648  1.00  0.00    -0.276 N  
HETATM    4  C   UNL     1     -11.238   7.233  72.948  1.00  0.00    -0.292 C  
BRANCH   3   5
HETATM    5  C   UNL     1     -13.160   7.126  71.353  1.00  0.00    -0.352 C  
HETATM    6  C   UNL     1     -14.375   7.936  71.778  1.00  0.00    -0.589 C  
ENDBRANCH   3   5
BRANCH   3   7
HETATM    7  C   UNL     1     -10.781   7.606  70.507  1.00  0.00    -0.236 C  
BRANCH   7   8
HETATM    8  C   UNL     1     -11.105   6.444  69.564  1.00  0.00    -0.396 C  
BRANCH   8   9
HETATM    9  O   UNL     1      -9.913   5.841  69.055  1.00  0.00    -0.146 OA 
BRANCH   9  10
HETATM   10  C   UNL     1      -9.169   6.663  68.251  1.00  0.00    -0.121 C  
HETATM   11  O   UNL     1      -8.091   7.138  68.592  1.00  0.00    -0.121 OA 
BRANCH  10  12
HETATM   12  C   UNL     1      -9.768   6.763  66.853  1.00  0.00    -0.215 C  
HETATM   13  C   UNL     1      -9.765   8.221  66.452  1.00  0.00    -0.300 A  
HETATM   14  C   UNL     1     -10.477   9.169  67.210  1.00  0.00    -0.335 A  
HETATM   15  C   UNL     1     -10.356  10.530  66.931  1.00  0.00    -0.293 A  
HETATM   16  C   UNL     1      -9.543  10.953  65.882  1.00  0.00    -0.257 A  
HETATM   17  C   UNL     1      -8.850  10.016  65.115  1.00  0.00    -0.207 A  
HETATM   18  C   UNL     1      -8.952   8.655  65.405  1.00  0.00    -0.130 A  
HETATM   19  O   UNL     1      -8.200   7.809  64.627  1.00  0.00    -0.140 OA 
HETATM   20  C   UNL     1      -8.273   6.456  64.855  1.00  0.00    -0.110 A  
HETATM   21  C   UNL     1      -7.530   5.647  63.991  1.00  0.00    -0.067 A  
HETATM   22  C   UNL     1      -7.531   4.262  64.153  1.00  0.00    -0.070 A  
HETATM   23  C   UNL     1      -8.284   3.681  65.171  1.00  0.00    -0.097 A  
HETATM   24  C   UNL     1      -9.031   4.485  66.031  1.00  0.00    -0.122 A  
HETATM   25  C   UNL     1      -9.020   5.883  65.885  1.00  0.00    -0.149 A  
ENDBRANCH  10  12
ENDBRANCH   9  10
ENDBRANCH   8   9
ENDBRANCH   7   8
ENDBRANCH   3   7
ENDBRANCH   2   3
TORSDOF 7
ENDMDL
MODEL      150
REMARK 921   NORMALIZED FREE ENERGY PREDICTED BY IDOCK:   -3.83 KCAL/MOL
REMARK 922        TOTAL FREE ENERGY PREDICTED BY IDOCK:   -6.71 KCAL/MOL
REMARK 923 INTER-LIGAND FREE ENERGY PREDICTED BY IDOCK:   -6.11 KCAL/MOL
REMARK 924 INTRA-LIGAND FREE ENERGY PREDICTED BY IDOCK:   -0.60 KCAL/MOL
REMARK 927      BINDING AFFINITY PREDICTED BY RF-SCORE:    0.00 PKD
ROOT
HETATM    1  C   UNL     1      -9.483   9.168  66.002  1.00  0.00    -0.321 C  
HETATM    2  C   UNL     1     -10.187   9.884  67.143  1.00  0.00    -0.228 C  
ENDROOT
BRANCH   2   3
HETATM    3  N   UNL     1      -9.567   9.629  68.542  1.00  0.00    -0.144 N  
HETATM    4  C   UNL     1     -10.694   9.611  69.591  1.00  0.00    -0.240 C  
BRANCH   3   5
HETATM    5  C   UNL     1      -8.799   8.296  68.625  1.00  0.00    -0.133 C  
HETATM    6  C   UNL     1      -9.368   7.324  69.647  1.00  0.00    -0.153 C  
ENDBRANCH   3   5
BRANCH   3   7
HETATM    7  C   UNL     1      -8.650  10.854  68.825  1.00  0.00    -0.159 C  
BRANCH   7   8
HETATM    8  C   UNL     1      -8.859  12.036  67.876  1.00  0.00    -0.174 C  
BRANCH   8   9
HETATM    9  O   UNL     1      -8.855  13.278  68.584  1.00  0.00    -0.097 OA 
BRANCH   9  10
HETATM   10  C   UNL     1      -8.645  14.375  67.792  1.00  0.00    -0.171 C  
HETATM   11  O   UNL     1      -7.541  14.686  67.358  1.00  0.00    -0.182 OA 
BRANCH  10  12
HETATM   12  C   UNL     1      -9.960  15.037  67.399  1.00  0.00    -0.226 C  
HETATM   13  C   UNL     1     -10.610  14.180  66.335  1.00  0.00    -0.280 A  
HETATM   14  C   UNL     1      -9.954  13.945  65.113  1.00  0.00    -0.249 A  
HETATM   15  C   UNL     1     -10.479  13.039  64.193  1.00  0.00    -0.395 A  
HETATM   16  C   UNL     1     -11.672  12.378  64.475  1.00  0.00    -0.427 A  
HETATM   17  C   UNL     1     -12.337  12.621  65.678  1.00  0.00    -0.390 A  
HETATM   18  C   UNL     1     -11.802  13.511  66.610  1.00  0.00    -0.407 A  
HETATM   19  O   UNL     1     -12.500  13.654  67.784  1.00  0.00    -0.117 OA 
HETATM   20  C   UNL     1     -12.031  14.530  68.733  1.00  0.00    -0.280 A  
HETATM   21  C   UNL     1     -12.818  14.673  69.879  1.00  0.00    -0.007 A  
HETATM   22  C   UNL     1     -12.416  15.530  70.903  1.00  0.00    -0.494 A  
HETATM   23  C   UNL     1     -11.232  16.255  70.780  1.00  0.00    -0.293 A  
HETATM   24  C   UNL     1     -10.448  16.119  69.635  1.00  0.00    -0.291 A  
HETATM   25  C   UNL     1     -10.837  15.243  68.607  1.00  0.00    -0.253 A  
ENDBRANCH  10  12
ENDBRANCH   9  10
ENDBRANCH   8   9
ENDBRANCH   7   8
ENDBRANCH   3   7
ENDBRANCH   2   3
TORSDOF 7
ENDMDL
MODEL      151
REMARK 921   NORMALIZED FREE ENERGY PREDICTED BY IDOCK:   -3.82 KCAL/MOL
REMARK 922        TOTAL FREE ENERGY PREDICTED BY IDOCK:   -6.70 KCAL/MOL
REMARK 923 INTER-LIGAND FREE ENERGY PREDICTED BY IDOCK:   -5.73 KCAL/MOL
REMARK 924 INTRA-LIGAND FREE ENERGY PREDICTED BY IDOCK:   -0.98 KCAL/MOL
REMARK 927      BINDING AFFINITY PREDICTED BY RF-SCORE:    0.00 PKD
ROOT
HETATM    1  C   UNL     1     -10.152   3.871  64.553  1.00  0.00    -0.224 C  
HETATM    2  C   UNL     1      -9.440   4.978  65.314  1.00  0.00    -0.048 C  
ENDROOT
BRANCH   2   3
HETATM    3  N   UNL     1      -9.351   4.752  66.846  1.00  0.00    -0.126 N  
HETATM    4  C   UNL     1      -9.372   3.239  67.129  1.00  0.00    -0.181 C  
BRANCH   3   5
HETATM    5  C   UNL     1      -8.074   5.349  67.467  1.00  0.00    -0.101 C  
HETATM    6  C   UNL     1      -7.208   6.109  66.474  1.00  0.00    -0.073 C  
ENDBRANCH   3   5
BRANCH   3   7
HETATM    7  C   UNL     1     -10.644   5.382  67.440  1.00  0.00    -0.153 C  
BRANCH   7   8
HETATM    8  C   UNL     1     -10.617   6.909  67.541  1.00  0.00    -0.281 C  
BRANCH   8   9
HETATM    9  O   UNL     1     -10.762   7.342  68.896  1.00  0.00    -0.200 OA 
BRANCH   9  10
HETATM   10  C   UNL     1      -9.736   8.129  69.346  1.00  0.00    -0.170 C  
HETATM   11  O   UNL     1      -8.985   8.745  68.598  1.00  0.00    -0.137 OA 
BRANCH  10  12
HETATM   12  C   UNL     1      -9.764   8.261  70.864  1.00  0.00    -0.204 C  
HETATM   13  C   UNL     1     -10.999   9.050  71.237  1.00  0.00    -0.384 A  
HETATM   14  C   UNL     1     -11.174  10.364  70.765  1.00  0.00    -0.293 A  
HETATM   15  C   UNL     1     -12.375  11.037  70.983  1.00  0.00    -0.490 A  
HETATM   16  C   UNL     1     -13.400  10.415  71.691  1.00  0.00    -0.432 A  
HETATM   17  C   UNL     1     -13.225   9.119  72.178  1.00  0.00    -0.524 A  
HETATM   18  C   UNL     1     -12.033   8.434  71.943  1.00  0.00    -0.338 A  
HETATM   19  O   UNL     1     -11.966   7.148  72.420  1.00  0.00    -0.239 OA 
HETATM   20  C   UNL     1     -10.809   6.429  72.234  1.00  0.00    -0.239 A  
HETATM   21  C   UNL     1     -10.784   5.150  72.794  1.00  0.00    -0.294 A  
HETATM   22  C   UNL     1      -9.659   4.341  72.646  1.00  0.00    -0.175 A  
HETATM   23  C   UNL     1      -8.549   4.813  71.946  1.00  0.00    -0.128 A  
HETATM   24  C   UNL     1      -8.569   6.093  71.391  1.00  0.00    -0.128 A  
HETATM   25  C   UNL     1      -9.707   6.906  71.521  1.00  0.00    -0.164 A  
ENDBRANCH  10  12
ENDBRANCH   9  10
ENDBRANCH   8   9
ENDBRANCH   7   8
ENDBRANCH   3   7
ENDBRANCH   2   3
TORSDOF 7
ENDMDL
MODEL      152
REMARK 921   NORMALIZED FREE ENERGY PREDICTED BY IDOCK:   -3.80 KCAL/MOL
REMARK 922        TOTAL FREE ENERGY PREDICTED BY IDOCK:   -6.67 KCAL/MOL
REMARK 923 INTER-LIGAND FREE ENERGY PREDICTED BY IDOCK:   -5.57 KCAL/MOL
REMARK 924 INTRA-LIGAND FREE ENERGY PREDICTED BY IDOCK:   -1.11 KCAL/MOL
REMARK 927      BINDING AFFINITY PREDICTED BY RF-SCORE:    0.00 PKD
ROOT
HETATM    1  C   UNL     1      -6.714   9.606  67.870  1.00  0.00    -0.066 C  
HETATM    2  C   UNL     1      -7.805   9.503  66.817  1.00  0.00    -0.101 C  
ENDROOT
BRANCH   2   3
HETATM    3  N   UNL     1      -9.169  10.109  67.241  1.00  0.00    -0.138 N  
HETATM    4  C   UNL     1      -9.153  10.360  68.760  1.00  0.00    -0.165 C  
BRANCH   3   5
HETATM    5  C   UNL     1      -9.484  11.437  66.528  1.00  0.00    -0.200 C  
HETATM    6  C   UNL     1     -10.683  12.173  67.105  1.00  0.00    -0.267 C  
ENDBRANCH   3   5
BRANCH   3   7
HETATM    7  C   UNL     1     -10.230   9.011  66.935  1.00  0.00    -0.269 C  
BRANCH   7   8
HETATM    8  C   UNL     1     -10.001   7.686  67.665  1.00  0.00    -0.175 C  
BRANCH   8   9
HETATM    9  O   UNL     1     -11.010   7.455  68.651  1.00  0.00    -0.092 OA 
BRANCH   9  10
HETATM   10  C   UNL     1     -10.948   6.220  69.239  1.00  0.00    -0.369 C  
HETATM   11  O   UNL     1     -10.860   5.177  68.600  1.00  0.00     0.048 OA 
BRANCH  10  12
HETATM   12  C   UNL     1     -10.837   6.332  70.754  1.00  0.00    -0.339 C  
HETATM   13  C   UNL     1      -9.440   6.812  71.081  1.00  0.00    -0.164 A  
HETATM   14  C   UNL     1      -8.319   6.052  70.701  1.00  0.00    -0.125 A  
HETATM   15  C   UNL     1      -7.032   6.562  70.867  1.00  0.00    -0.068 A  
HETATM   16  C   UNL     1      -6.853   7.821  71.434  1.00  0.00    -0.049 A  
HETATM   17  C   UNL     1      -7.961   8.571  71.832  1.00  0.00    -0.170 A  
HETATM   18  C   UNL     1      -9.251   8.074  71.647  1.00  0.00    -0.150 A  
HETATM   19  O   UNL     1     -10.282   8.899  72.025  1.00  0.00    -0.334 OA 
HETATM   20  C   UNL     1     -11.575   8.455  71.882  1.00  0.00    -0.329 A  
HETATM   21  C   UNL     1     -12.574   9.317  72.341  1.00  0.00    -0.348 A  
HETATM   22  C   UNL     1     -13.916   8.959  72.226  1.00  0.00    -0.531 A  
HETATM   23  C   UNL     1     -14.264   7.732  71.663  1.00  0.00    -0.572 A  
HETATM   24  C   UNL     1     -13.269   6.867  71.209  1.00  0.00    -0.237 A  
HETATM   25  C   UNL     1     -11.914   7.229  71.306  1.00  0.00    -0.359 A  
ENDBRANCH  10  12
ENDBRANCH   9  10
ENDBRANCH   8   9
ENDBRANCH   7   8
ENDBRANCH   3   7
ENDBRANCH   2   3
TORSDOF 7
ENDMDL
MODEL      153
REMARK 921   NORMALIZED FREE ENERGY PREDICTED BY IDOCK:   -3.79 KCAL/MOL
REMARK 922        TOTAL FREE ENERGY PREDICTED BY IDOCK:   -6.66 KCAL/MOL
REMARK 923 INTER-LIGAND FREE ENERGY PREDICTED BY IDOCK:   -5.88 KCAL/MOL
REMARK 924 INTRA-LIGAND FREE ENERGY PREDICTED BY IDOCK:   -0.78 KCAL/MOL
REMARK 927      BINDING AFFINITY PREDICTED BY RF-SCORE:    0.00 PKD
ROOT
HETATM    1  C   UNL     1      -5.528   8.850  69.944  1.00  0.00    -0.029 C  
HETATM    2  C   UNL     1      -6.305  10.154  70.016  1.00  0.00    -0.088 C  
ENDROOT
BRANCH   2   3
HETATM    3  N   UNL     1      -7.359  10.338  68.891  1.00  0.00    -0.083 N  
HETATM    4  C   UNL     1      -7.176   9.221  67.849  1.00  0.00    -0.079 C  
BRANCH   3   5
HETATM    5  C   UNL     1      -8.807  10.291  69.413  1.00  0.00    -0.163 C  
HETATM    6  C   UNL     1      -9.016   9.303  70.550  1.00  0.00    -0.296 C  
ENDBRANCH   3   5
BRANCH   3   7
HETATM    7  C   UNL     1      -7.020  11.700  68.218  1.00  0.00    -0.074 C  
BRANCH   7   8
HETATM    8  C   UNL     1      -7.911  12.865  68.658  1.00  0.00    -0.044 C  
BRANCH   8   9
HETATM    9  O   UNL     1      -8.572  13.464  67.541  1.00  0.00    -0.176 OA 
BRANCH   9  10
HETATM   10  C   UNL     1      -9.422  14.484  67.873  1.00  0.00    -0.212 C  
HETATM   11  O   UNL     1      -9.034  15.594  68.220  1.00  0.00    -0.177 OA 
BRANCH  10  12
HETATM   12  C   UNL     1     -10.873  14.110  67.596  1.00  0.00    -0.266 C  
HETATM   13  C   UNL     1     -10.899  13.247  66.353  1.00  0.00    -0.296 A  
HETATM   14  C   UNL     1     -10.424  13.751  65.128  1.00  0.00    -0.399 A  
HETATM   15  C   UNL     1     -10.308  12.914  64.019  1.00  0.00    -0.346 A  
HETATM   16  C   UNL     1     -10.685  11.577  64.117  1.00  0.00    -0.428 A  
HETATM   17  C   UNL     1     -11.175  11.077  65.325  1.00  0.00     0.104 A  
HETATM   18  C   UNL     1     -11.272  11.906  66.442  1.00  0.00    -0.331 A  
HETATM   19  O   UNL     1     -11.721  11.318  67.600  1.00  0.00    -0.564 OA 
HETATM   20  C   UNL     1     -11.853  12.090  68.729  1.00  0.00    -0.302 A  
HETATM   21  C   UNL     1     -12.371  11.446  69.855  1.00  0.00    -0.280 A  
HETATM   22  C   UNL     1     -12.530  12.144  71.051  1.00  0.00    -0.369 A  
HETATM   23  C   UNL     1     -12.181  13.492  71.123  1.00  0.00    -0.283 A  
HETATM   24  C   UNL     1     -11.670  14.139  69.998  1.00  0.00    -0.358 A  
HETATM   25  C   UNL     1     -11.491  13.436  68.794  1.00  0.00    -0.344 A  
ENDBRANCH  10  12
ENDBRANCH   9  10
ENDBRANCH   8   9
ENDBRANCH   7   8
ENDBRANCH   3   7
ENDBRANCH   2   3
TORSDOF 7
ENDMDL
MODEL      154
REMARK 921   NORMALIZED FREE ENERGY PREDICTED BY IDOCK:   -3.76 KCAL/MOL
REMARK 922        TOTAL FREE ENERGY PREDICTED BY IDOCK:   -6.62 KCAL/MOL
REMARK 923 INTER-LIGAND FREE ENERGY PREDICTED BY IDOCK:   -6.10 KCAL/MOL
REMARK 924 INTRA-LIGAND FREE ENERGY PREDICTED BY IDOCK:   -0.52 KCAL/MOL
REMARK 927      BINDING AFFINITY PREDICTED BY RF-SCORE:    0.00 PKD
ROOT
HETATM    1  C   UNL     1      -6.324  10.084  64.828  1.00  0.00    -0.127 C  
HETATM    2  C   UNL     1      -6.175   9.544  66.241  1.00  0.00    -0.068 C  
ENDROOT
BRANCH   2   3
HETATM    3  N   UNL     1      -7.310   9.964  67.213  1.00  0.00    -0.087 N  
HETATM    4  C   UNL     1      -8.622   9.297  66.764  1.00  0.00    -0.127 C  
BRANCH   3   5
HETATM    5  C   UNL     1      -7.029   9.560  68.673  1.00  0.00    -0.064 C  
HETATM    6  C   UNL     1      -5.667   8.913  68.878  1.00  0.00    -0.040 C  
ENDBRANCH   3   5
BRANCH   3   7
HETATM    7  C   UNL     1      -7.457  11.504  67.046  1.00  0.00    -0.151 C  
BRANCH   7   8
HETATM    8  C   UNL     1      -8.087  12.215  68.246  1.00  0.00    -0.166 C  
BRANCH   8   9
HETATM    9  O   UNL     1      -9.515  12.191  68.174  1.00  0.00    -0.194 OA 
BRANCH   9  10
HETATM   10  C   UNL     1     -10.088  13.421  67.993  1.00  0.00    -0.241 C  
HETATM   11  O   UNL     1     -10.845  13.935  68.809  1.00  0.00    -0.252 OA 
BRANCH  10  12
HETATM   12  C   UNL     1      -9.537  14.113  66.751  1.00  0.00    -0.290 C  
HETATM   13  C   UNL     1     -10.425  13.744  65.583  1.00  0.00    -0.312 A  
HETATM   14  C   UNL     1     -10.574  12.398  65.201  1.00  0.00    -0.324 A  
HETATM   15  C   UNL     1     -11.503  12.041  64.224  1.00  0.00    -0.435 A  
HETATM   16  C   UNL     1     -12.272  13.024  63.608  1.00  0.00    -0.568 A  
HETATM   17  C   UNL     1     -12.115  14.363  63.970  1.00  0.00    -0.312 A  
HETATM   18  C   UNL     1     -11.202  14.721  64.962  1.00  0.00    -0.395 A  
HETATM   19  O   UNL     1     -11.146  16.055  65.285  1.00  0.00    -0.297 OA 
HETATM   20  C   UNL     1     -10.253  16.469  66.243  1.00  0.00    -0.332 A  
HETATM   21  C   UNL     1     -10.204  17.845  66.483  1.00  0.00    -0.379 A  
HETATM   22  C   UNL     1      -9.337  18.359  67.447  1.00  0.00    -0.275 A  
HETATM   23  C   UNL     1      -8.508  17.500  68.167  1.00  0.00    -0.254 A  
HETATM   24  C   UNL     1      -8.550  16.127  67.925  1.00  0.00    -0.169 A  
HETATM   25  C   UNL     1      -9.435  15.601  66.968  1.00  0.00    -0.236 A  
ENDBRANCH  10  12
ENDBRANCH   9  10
ENDBRANCH   8   9
ENDBRANCH   7   8
ENDBRANCH   3   7
ENDBRANCH   2   3
TORSDOF 7
ENDMDL
MODEL      155
REMARK 921   NORMALIZED FREE ENERGY PREDICTED BY IDOCK:   -3.75 KCAL/MOL
REMARK 922        TOTAL FREE ENERGY PREDICTED BY IDOCK:   -6.60 KCAL/MOL
REMARK 923 INTER-LIGAND FREE ENERGY PREDICTED BY IDOCK:   -5.62 KCAL/MOL
REMARK 924 INTRA-LIGAND FREE ENERGY PREDICTED BY IDOCK:   -0.99 KCAL/MOL
REMARK 927      BINDING AFFINITY PREDICTED BY RF-SCORE:    0.00 PKD
ROOT
HETATM    1  C   UNL     1      -9.219   7.160  74.100  1.00  0.00    -0.276 C  
HETATM    2  C   UNL     1      -8.727   5.750  74.382  1.00  0.00    -0.118 C  
ENDROOT
BRANCH   2   3
HETATM    3  N   UNL     1      -9.345   4.658  73.468  1.00  0.00    -0.121 N  
HETATM    4  C   UNL     1      -8.745   3.293  73.847  1.00  0.00    -0.076 C  
BRANCH   3   5
HETATM    5  C   UNL     1     -10.878   4.571  73.590  1.00  0.00    -0.294 C  
HETATM    6  C   UNL     1     -11.411   3.147  73.618  1.00  0.00    -0.228 C  
ENDBRANCH   3   5
BRANCH   3   7
HETATM    7  C   UNL     1      -8.890   5.013  72.023  1.00  0.00    -0.129 C  
BRANCH   7   8
HETATM    8  C   UNL     1     -10.035   5.296  71.047  1.00  0.00    -0.201 C  
BRANCH   8   9
HETATM    9  O   UNL     1      -9.562   5.947  69.866  1.00  0.00    -0.152 OA 
BRANCH   9  10
HETATM   10  C   UNL     1     -10.292   7.047  69.501  1.00  0.00    -0.213 C  
HETATM   11  O   UNL     1     -11.243   6.995  68.730  1.00  0.00    -0.083 OA 
BRANCH  10  12
HETATM   12  C   UNL     1      -9.874   8.278  70.297  1.00  0.00    -0.186 C  
HETATM   13  C   UNL     1      -9.060   9.166  69.381  1.00  0.00    -0.148 A  
HETATM   14  C   UNL     1      -7.865   8.693  68.809  1.00  0.00    -0.106 A  
HETATM   15  C   UNL     1      -7.193   9.451  67.852  1.00  0.00    -0.082 A  
HETATM   16  C   UNL     1      -7.694  10.694  67.474  1.00  0.00    -0.101 A  
HETATM   17  C   UNL     1      -8.870  11.177  68.053  1.00  0.00    -0.142 A  
HETATM   18  C   UNL     1      -9.556  10.412  68.995  1.00  0.00    -0.204 A  
HETATM   19  O   UNL     1     -10.727  10.946  69.477  1.00  0.00    -0.234 OA 
HETATM   20  C   UNL     1     -11.438  10.244  70.421  1.00  0.00    -0.335 A  
HETATM   21  C   UNL     1     -12.586  10.868  70.914  1.00  0.00    -0.494 A  
HETATM   22  C   UNL     1     -13.379  10.228  71.865  1.00  0.00    -0.487 A  
HETATM   23  C   UNL     1     -13.021   8.966  72.335  1.00  0.00    -0.467 A  
HETATM   24  C   UNL     1     -11.872   8.343  71.850  1.00  0.00    -0.398 A  
HETATM   25  C   UNL     1     -11.077   8.975  70.878  1.00  0.00    -0.343 A  
ENDBRANCH  10  12
ENDBRANCH   9  10
ENDBRANCH   8   9
ENDBRANCH   7   8
ENDBRANCH   3   7
ENDBRANCH   2   3
TORSDOF 7
ENDMDL
MODEL      156
REMARK 921   NORMALIZED FREE ENERGY PREDICTED BY IDOCK:   -3.75 KCAL/MOL
REMARK 922        TOTAL FREE ENERGY PREDICTED BY IDOCK:   -6.60 KCAL/MOL
REMARK 923 INTER-LIGAND FREE ENERGY PREDICTED BY IDOCK:   -5.45 KCAL/MOL
REMARK 924 INTRA-LIGAND FREE ENERGY PREDICTED BY IDOCK:   -1.14 KCAL/MOL
REMARK 927      BINDING AFFINITY PREDICTED BY RF-SCORE:    0.00 PKD
ROOT
HETATM    1  C   UNL     1     -11.227  11.428  68.617  1.00  0.00    -0.303 C  
HETATM    2  C   UNL     1      -9.724  11.386  68.396  1.00  0.00    -0.203 C  
ENDROOT
BRANCH   2   3
HETATM    3  N   UNL     1      -9.272  11.793  66.968  1.00  0.00    -0.182 N  
HETATM    4  C   UNL     1      -7.934  11.101  66.652  1.00  0.00    -0.159 C  
BRANCH   3   5
HETATM    5  C   UNL     1     -10.294  11.406  65.882  1.00  0.00    -0.250 C  
HETATM    6  C   UNL     1     -10.806  12.588  65.074  1.00  0.00    -0.324 C  
ENDBRANCH   3   5
BRANCH   3   7
HETATM    7  C   UNL     1      -9.030  13.329  67.026  1.00  0.00    -0.228 C  
BRANCH   7   8
HETATM    8  C   UNL     1      -7.628  13.734  67.490  1.00  0.00    -0.173 C  
BRANCH   8   9
HETATM    9  O   UNL     1      -7.465  15.154  67.470  1.00  0.00    -0.163 OA 
BRANCH   9  10
HETATM   10  C   UNL     1      -7.087  15.692  68.672  1.00  0.00    -0.127 C  
HETATM   11  O   UNL     1      -6.063  15.366  69.259  1.00  0.00    -0.105 OA 
BRANCH  10  12
HETATM   12  C   UNL     1      -8.004  16.840  69.078  1.00  0.00    -0.188 C  
HETATM   13  C   UNL     1      -7.720  18.007  68.158  1.00  0.00    -0.274 A  
HETATM   14  C   UNL     1      -6.436  18.580  68.113  1.00  0.00    -0.212 A  
HETATM   15  C   UNL     1      -6.132  19.554  67.164  1.00  0.00    -0.192 A  
HETATM   16  C   UNL     1      -7.110  19.979  66.268  1.00  0.00    -0.282 A  
HETATM   17  C   UNL     1      -8.391  19.428  66.321  1.00  0.00    -0.346 A  
HETATM   18  C   UNL     1      -8.693  18.437  67.256  1.00  0.00    -0.259 A  
HETATM   19  O   UNL     1      -9.964  17.920  67.205  1.00  0.00    -0.301 OA 
HETATM   20  C   UNL     1     -10.324  16.953  68.113  1.00  0.00    -0.336 A  
HETATM   21  C   UNL     1     -11.648  16.511  68.047  1.00  0.00     0.160 A  
HETATM   22  C   UNL     1     -12.102  15.523  68.919  1.00  0.00    -0.219 A  
HETATM   23  C   UNL     1     -11.237  14.980  69.868  1.00  0.00    -0.303 A  
HETATM   24  C   UNL     1      -9.917  15.423  69.941  1.00  0.00    -0.229 A  
HETATM   25  C   UNL     1      -9.448  16.407  69.053  1.00  0.00    -0.258 A  
ENDBRANCH  10  12
ENDBRANCH   9  10
ENDBRANCH   8   9
ENDBRANCH   7   8
ENDBRANCH   3   7
ENDBRANCH   2   3
TORSDOF 7
ENDMDL
MODEL      157
REMARK 921   NORMALIZED FREE ENERGY PREDICTED BY IDOCK:   -3.74 KCAL/MOL
REMARK 922        TOTAL FREE ENERGY PREDICTED BY IDOCK:   -6.59 KCAL/MOL
REMARK 923 INTER-LIGAND FREE ENERGY PREDICTED BY IDOCK:   -6.34 KCAL/MOL
REMARK 924 INTRA-LIGAND FREE ENERGY PREDICTED BY IDOCK:   -0.25 KCAL/MOL
REMARK 927      BINDING AFFINITY PREDICTED BY RF-SCORE:    0.00 PKD
ROOT
HETATM    1  C   UNL     1      -5.430  14.099  69.086  1.00  0.00    -0.080 C  
HETATM    2  C   UNL     1      -6.048  13.485  67.840  1.00  0.00    -0.151 C  
ENDROOT
BRANCH   2   3
HETATM    3  N   UNL     1      -6.802  12.151  68.087  1.00  0.00    -0.069 N  
HETATM    4  C   UNL     1      -6.843  11.351  66.773  1.00  0.00    -0.132 C  
BRANCH   3   5
HETATM    5  C   UNL     1      -6.141  11.280  69.172  1.00  0.00    -0.053 C  
HETATM    6  C   UNL     1      -5.566   9.975  68.643  1.00  0.00    -0.038 C  
ENDBRANCH   3   5
BRANCH   3   7
HETATM    7  C   UNL     1      -8.258  12.555  68.463  1.00  0.00    -0.079 C  
BRANCH   7   8
HETATM    8  C   UNL     1      -8.767  13.817  67.763  1.00  0.00    -0.182 C  
BRANCH   8   9
HETATM    9  O   UNL     1      -9.224  14.787  68.709  1.00  0.00    -0.192 OA 
BRANCH   9  10
HETATM   10  C   UNL     1     -10.574  14.754  68.938  1.00  0.00    -0.250 C  
HETATM   11  O   UNL     1     -11.072  14.249  69.938  1.00  0.00    -0.191 OA 
BRANCH  10  12
HETATM   12  C   UNL     1     -11.334  15.559  67.891  1.00  0.00    -0.309 C  
HETATM   13  C   UNL     1     -10.590  16.859  67.677  1.00  0.00    -0.325 A  
HETATM   14  C   UNL     1     -10.404  17.756  68.745  1.00  0.00    -0.332 A  
HETATM   15  C   UNL     1      -9.595  18.880  68.589  1.00  0.00    -0.443 A  
HETATM   16  C   UNL     1      -8.983  19.129  67.363  1.00  0.00    -0.328 A  
HETATM   17  C   UNL     1      -9.180  18.253  66.294  1.00  0.00    -0.216 A  
HETATM   18  C   UNL     1      -9.972  17.116  66.453  1.00  0.00    -0.306 A  
HETATM   19  O   UNL     1     -10.072  16.287  65.363  1.00  0.00    -0.519 OA 
HETATM   20  C   UNL     1     -10.853  15.160  65.455  1.00  0.00    -0.381 A  
HETATM   21  C   UNL     1     -10.961  14.392  64.293  1.00  0.00    -0.005 A  
HETATM   22  C   UNL     1     -11.722  13.223  64.293  1.00  0.00    -0.454 A  
HETATM   23  C   UNL     1     -12.386  12.824  65.452  1.00  0.00    -0.528 A  
HETATM   24  C   UNL     1     -12.285  13.593  66.612  1.00  0.00    -0.437 A  
HETATM   25  C   UNL     1     -11.505  14.762  66.623  1.00  0.00    -0.339 A  
ENDBRANCH  10  12
ENDBRANCH   9  10
ENDBRANCH   8   9
ENDBRANCH   7   8
ENDBRANCH   3   7
ENDBRANCH   2   3
TORSDOF 7
ENDMDL
MODEL      158
REMARK 921   NORMALIZED FREE ENERGY PREDICTED BY IDOCK:   -3.72 KCAL/MOL
REMARK 922        TOTAL FREE ENERGY PREDICTED BY IDOCK:   -6.56 KCAL/MOL
REMARK 923 INTER-LIGAND FREE ENERGY PREDICTED BY IDOCK:   -5.88 KCAL/MOL
REMARK 924 INTRA-LIGAND FREE ENERGY PREDICTED BY IDOCK:   -0.68 KCAL/MOL
REMARK 927      BINDING AFFINITY PREDICTED BY RF-SCORE:    0.00 PKD
ROOT
HETATM    1  C   UNL     1     -10.699   5.542  66.716  1.00  0.00    -0.329 C  
HETATM    2  C   UNL     1     -10.897   6.881  67.406  1.00  0.00    -0.326 C  
ENDROOT
BRANCH   2   3
HETATM    3  N   UNL     1     -10.184   7.010  68.778  1.00  0.00    -0.170 N  
HETATM    4  C   UNL     1     -11.140   6.531  69.885  1.00  0.00    -0.371 C  
BRANCH   3   5
HETATM    5  C   UNL     1      -8.887   6.183  68.860  1.00  0.00    -0.122 C  
HETATM    6  C   UNL     1      -7.895   6.700  69.891  1.00  0.00    -0.115 C  
ENDBRANCH   3   5
BRANCH   3   7
HETATM    7  C   UNL     1      -9.924   8.532  68.975  1.00  0.00    -0.193 C  
BRANCH   7   8
HETATM    8  C   UNL     1     -11.006   9.441  68.388  1.00  0.00    -0.030 C  
BRANCH   8   9
HETATM    9  O   UNL     1     -10.491  10.237  67.318  1.00  0.00    -0.221 OA 
BRANCH   9  10
HETATM   10  C   UNL     1     -10.430  11.577  67.595  1.00  0.00    -0.189 C  
HETATM   11  O   UNL     1     -10.992  12.089  68.557  1.00  0.00    -0.214 OA 
BRANCH  10  12
HETATM   12  C   UNL     1      -9.457  12.292  66.665  1.00  0.00    -0.227 C  
HETATM   13  C   UNL     1     -10.265  13.174  65.740  1.00  0.00    -0.294 A  
HETATM   14  C   UNL     1     -11.227  12.612  64.880  1.00  0.00    -0.332 A  
HETATM   15  C   UNL     1     -12.074  13.432  64.137  1.00  0.00    -0.491 A  
HETATM   16  C   UNL     1     -11.954  14.816  64.228  1.00  0.00    -0.387 A  
HETATM   17  C   UNL     1     -10.989  15.380  65.064  1.00  0.00    -0.450 A  
HETATM   18  C   UNL     1     -10.154  14.562  65.826  1.00  0.00    -0.342 A  
HETATM   19  O   UNL     1      -9.266  15.203  66.655  1.00  0.00    -0.234 OA 
HETATM   20  C   UNL     1      -8.406  14.449  67.416  1.00  0.00    -0.201 A  
HETATM   21  C   UNL     1      -7.488  15.161  68.192  1.00  0.00    -0.118 A  
HETATM   22  C   UNL     1      -6.583  14.483  69.008  1.00  0.00    -0.100 A  
HETATM   23  C   UNL     1      -6.586  13.090  69.043  1.00  0.00    -0.105 A  
HETATM   24  C   UNL     1      -7.497  12.376  68.265  1.00  0.00    -0.124 A  
HETATM   25  C   UNL     1      -8.423  13.054  67.454  1.00  0.00    -0.200 A  
ENDBRANCH  10  12
ENDBRANCH   9  10
ENDBRANCH   8   9
ENDBRANCH   7   8
ENDBRANCH   3   7
ENDBRANCH   2   3
TORSDOF 7
ENDMDL
MODEL      159
REMARK 921   NORMALIZED FREE ENERGY PREDICTED BY IDOCK:   -3.71 KCAL/MOL
REMARK 922        TOTAL FREE ENERGY PREDICTED BY IDOCK:   -6.55 KCAL/MOL
REMARK 923 INTER-LIGAND FREE ENERGY PREDICTED BY IDOCK:   -5.63 KCAL/MOL
REMARK 924 INTRA-LIGAND FREE ENERGY PREDICTED BY IDOCK:   -0.92 KCAL/MOL
REMARK 927      BINDING AFFINITY PREDICTED BY RF-SCORE:    0.00 PKD
ROOT
HETATM    1  C   UNL     1      -6.254  10.845  65.841  1.00  0.00    -0.089 C  
HETATM    2  C   UNL     1      -6.179   9.998  64.582  1.00  0.00    -0.124 C  
ENDROOT
BRANCH   2   3
HETATM    3  N   UNL     1      -6.975   8.667  64.653  1.00  0.00    -0.073 N  
HETATM    4  C   UNL     1      -8.400   8.910  64.127  1.00  0.00    -0.163 C  
BRANCH   3   5
HETATM    5  C   UNL     1      -6.331   7.539  63.825  1.00  0.00    -0.053 C  
HETATM    6  C   UNL     1      -7.285   6.884  62.837  1.00  0.00    -0.067 C  
ENDBRANCH   3   5
BRANCH   3   7
HETATM    7  C   UNL     1      -7.062   8.310  66.166  1.00  0.00    -0.065 C  
BRANCH   7   8
HETATM    8  C   UNL     1      -8.483   8.071  66.681  1.00  0.00    -0.133 C  
BRANCH   8   9
HETATM    9  O   UNL     1      -8.573   8.311  68.087  1.00  0.00    -0.131 OA 
BRANCH   9  10
HETATM   10  C   UNL     1      -9.038   9.556  68.415  1.00  0.00    -0.127 C  
HETATM   11  O   UNL     1      -8.304  10.483  68.738  1.00  0.00    -0.119 OA 
BRANCH  10  12
HETATM   12  C   UNL     1     -10.538   9.671  68.166  1.00  0.00    -0.273 C  
HETATM   13  C   UNL     1     -11.241   9.515  69.496  1.00  0.00    -0.105 A  
HETATM   14  C   UNL     1     -11.097   8.330  70.242  1.00  0.00    -0.220 A  
HETATM   15  C   UNL     1     -11.621   8.240  71.530  1.00  0.00    -0.326 A  
HETATM   16  C   UNL     1     -12.309   9.321  72.076  1.00  0.00    -0.433 A  
HETATM   17  C   UNL     1     -12.472  10.492  71.333  1.00  0.00    -0.516 A  
HETATM   18  C   UNL     1     -11.931  10.593  70.052  1.00  0.00    -0.329 A  
HETATM   19  O   UNL     1     -12.100  11.797  69.413  1.00  0.00    -0.292 OA 
HETATM   20  C   UNL     1     -11.603  11.949  68.140  1.00  0.00    -0.334 A  
HETATM   21  C   UNL     1     -11.860  13.176  67.524  1.00  0.00    -0.409 A  
HETATM   22  C   UNL     1     -11.385  13.428  66.238  1.00  0.00    -0.329 A  
HETATM   23  C   UNL     1     -10.659  12.451  65.559  1.00  0.00    -0.307 A  
HETATM   24  C   UNL     1     -10.406  11.222  66.170  1.00  0.00    -0.300 A  
HETATM   25  C   UNL     1     -10.867  10.968  67.473  1.00  0.00    -0.314 A  
ENDBRANCH  10  12
ENDBRANCH   9  10
ENDBRANCH   8   9
ENDBRANCH   7   8
ENDBRANCH   3   7
ENDBRANCH   2   3
TORSDOF 7
ENDMDL
MODEL      160
REMARK 921   NORMALIZED FREE ENERGY PREDICTED BY IDOCK:   -3.71 KCAL/MOL
REMARK 922        TOTAL FREE ENERGY PREDICTED BY IDOCK:   -6.55 KCAL/MOL
REMARK 923 INTER-LIGAND FREE ENERGY PREDICTED BY IDOCK:   -5.79 KCAL/MOL
REMARK 924 INTRA-LIGAND FREE ENERGY PREDICTED BY IDOCK:   -0.76 KCAL/MOL
REMARK 927      BINDING AFFINITY PREDICTED BY RF-SCORE:    0.00 PKD
ROOT
HETATM    1  C   UNL     1      -7.256   8.356  71.186  1.00  0.00    -0.068 C  
HETATM    2  C   UNL     1      -7.917   8.212  69.825  1.00  0.00    -0.111 C  
ENDROOT
BRANCH   2   3
HETATM    3  N   UNL     1      -7.963   9.520  68.991  1.00  0.00    -0.089 N  
HETATM    4  C   UNL     1      -6.668  10.314  69.236  1.00  0.00    -0.063 C  
BRANCH   3   5
HETATM    5  C   UNL     1      -8.102   9.262  67.478  1.00  0.00    -0.107 C  
HETATM    6  C   UNL     1      -7.076  10.003  66.634  1.00  0.00    -0.091 C  
ENDBRANCH   3   5
BRANCH   3   7
HETATM    7  C   UNL     1      -9.158  10.339  69.559  1.00  0.00    -0.167 C  
BRANCH   7   8
HETATM    8  C   UNL     1      -9.808  11.295  68.556  1.00  0.00    -0.197 C  
BRANCH   8   9
HETATM    9  O   UNL     1     -10.568  12.307  69.220  1.00  0.00    -0.064 OA 
BRANCH   9  10
HETATM   10  C   UNL     1     -11.679  12.717  68.532  1.00  0.00    -0.330 C  
HETATM   11  O   UNL     1     -12.405  11.948  67.912  1.00  0.00    -0.367 OA 
BRANCH  10  12
HETATM   12  C   UNL     1     -11.971  14.192  68.779  1.00  0.00    -0.367 C  
HETATM   13  C   UNL     1     -12.315  14.356  70.243  1.00  0.00    -0.410 A  
HETATM   14  C   UNL     1     -13.419  13.680  70.795  1.00  0.00     0.186 A  
HETATM   15  C   UNL     1     -13.651  13.711  72.169  1.00  0.00    -0.632 A  
HETATM   16  C   UNL     1     -12.797  14.433  73.000  1.00  0.00    -0.521 A  
HETATM   17  C   UNL     1     -11.711  15.122  72.456  1.00  0.00    -0.475 A  
HETATM   18  C   UNL     1     -11.465  15.075  71.083  1.00  0.00    -0.309 A  
HETATM   19  O   UNL     1     -10.349  15.744  70.643  1.00  0.00    -0.107 OA 
HETATM   20  C   UNL     1     -10.065  15.748  69.298  1.00  0.00    -0.255 A  
HETATM   21  C   UNL     1      -8.951  16.495  68.908  1.00  0.00    -0.245 A  
HETATM   22  C   UNL     1      -8.576  16.548  67.566  1.00  0.00    -0.188 A  
HETATM   23  C   UNL     1      -9.321  15.863  66.608  1.00  0.00    -0.274 A  
HETATM   24  C   UNL     1     -10.437  15.120  66.993  1.00  0.00    -0.282 A  
HETATM   25  C   UNL     1     -10.809  15.048  68.346  1.00  0.00    -0.256 A  
ENDBRANCH  10  12
ENDBRANCH   9  10
ENDBRANCH   8   9
ENDBRANCH   7   8
ENDBRANCH   3   7
ENDBRANCH   2   3
TORSDOF 7
ENDMDL
MODEL      161
REMARK 921   NORMALIZED FREE ENERGY PREDICTED BY IDOCK:   -3.71 KCAL/MOL
REMARK 922        TOTAL FREE ENERGY PREDICTED BY IDOCK:   -6.54 KCAL/MOL
REMARK 923 INTER-LIGAND FREE ENERGY PREDICTED BY IDOCK:   -5.64 KCAL/MOL
REMARK 924 INTRA-LIGAND FREE ENERGY PREDICTED BY IDOCK:   -0.90 KCAL/MOL
REMARK 927      BINDING AFFINITY PREDICTED BY RF-SCORE:    0.00 PKD
ROOT
HETATM    1  C   UNL     1     -12.152  12.366  69.130  1.00  0.00    -0.195 C  
HETATM    2  C   UNL     1     -11.413  13.232  70.137  1.00  0.00     0.035 C  
ENDROOT
BRANCH   2   3
HETATM    3  N   UNL     1     -11.317  14.732  69.749  1.00  0.00    -0.272 N  
HETATM    4  C   UNL     1     -12.020  14.942  68.396  1.00  0.00    -0.221 C  
BRANCH   3   5
HETATM    5  C   UNL     1     -11.967  15.663  70.789  1.00  0.00    -0.398 C  
HETATM    6  C   UNL     1     -13.377  15.251  71.185  1.00  0.00    -0.568 C  
ENDBRANCH   3   5
BRANCH   3   7
HETATM    7  C   UNL     1      -9.799  15.022  69.565  1.00  0.00    -0.126 C  
BRANCH   7   8
HETATM    8  C   UNL     1      -9.180  14.400  68.311  1.00  0.00    -0.201 C  
BRANCH   8   9
HETATM    9  O   UNL     1      -8.384  13.258  68.637  1.00  0.00    -0.109 OA 
BRANCH   9  10
HETATM   10  C   UNL     1      -8.270  12.346  67.622  1.00  0.00    -0.169 C  
HETATM   11  O   UNL     1      -7.217  12.125  67.035  1.00  0.00    -0.134 OA 
BRANCH  10  12
HETATM   12  C   UNL     1      -9.556  11.548  67.447  1.00  0.00    -0.177 C  
HETATM   13  C   UNL     1      -9.975  11.658  65.998  1.00  0.00    -0.260 A  
HETATM   14  C   UNL     1     -10.260  12.915  65.433  1.00  0.00    -0.301 A  
HETATM   15  C   UNL     1     -10.501  13.036  64.066  1.00  0.00    -0.337 A  
HETATM   16  C   UNL     1     -10.481  11.904  63.256  1.00  0.00    -0.427 A  
HETATM   17  C   UNL     1     -10.218  10.651  63.813  1.00  0.00    -0.266 A  
HETATM   18  C   UNL     1      -9.955  10.530  65.178  1.00  0.00    -0.309 A  
HETATM   19  O   UNL     1      -9.662   9.267  65.631  1.00  0.00    -0.284 OA 
HETATM   20  C   UNL     1      -9.411   9.083  66.969  1.00  0.00    -0.163 A  
HETATM   21  C   UNL     1      -9.179   7.767  67.375  1.00  0.00    -0.156 A  
HETATM   22  C   UNL     1      -8.903   7.483  68.712  1.00  0.00    -0.131 A  
HETATM   23  C   UNL     1      -8.869   8.513  69.650  1.00  0.00    -0.137 A  
HETATM   24  C   UNL     1      -9.107   9.828  69.249  1.00  0.00    -0.189 A  
HETATM   25  C   UNL     1      -9.368  10.123  67.900  1.00  0.00    -0.151 A  
ENDBRANCH  10  12
ENDBRANCH   9  10
ENDBRANCH   8   9
ENDBRANCH   7   8
ENDBRANCH   3   7
ENDBRANCH   2   3
TORSDOF 7
ENDMDL
MODEL      162
REMARK 921   NORMALIZED FREE ENERGY PREDICTED BY IDOCK:   -3.70 KCAL/MOL
REMARK 922        TOTAL FREE ENERGY PREDICTED BY IDOCK:   -6.54 KCAL/MOL
REMARK 923 INTER-LIGAND FREE ENERGY PREDICTED BY IDOCK:   -5.86 KCAL/MOL
REMARK 924 INTRA-LIGAND FREE ENERGY PREDICTED BY IDOCK:   -0.68 KCAL/MOL
REMARK 927      BINDING AFFINITY PREDICTED BY RF-SCORE:    0.00 PKD
ROOT
HETATM    1  C   UNL     1     -11.285   5.867  70.671  1.00  0.00    -0.284 C  
HETATM    2  C   UNL     1     -11.259   7.365  70.419  1.00  0.00    -0.262 C  
ENDROOT
BRANCH   2   3
HETATM    3  N   UNL     1     -10.099   8.117  71.124  1.00  0.00    -0.181 N  
HETATM    4  C   UNL     1     -10.680   9.307  71.908  1.00  0.00    -0.139 C  
BRANCH   3   5
HETATM    5  C   UNL     1      -9.311   7.224  72.100  1.00  0.00    -0.135 C  
HETATM    6  C   UNL     1      -9.376   7.691  73.546  1.00  0.00    -0.339 C  
ENDBRANCH   3   5
BRANCH   3   7
HETATM    7  C   UNL     1      -9.202   8.673  69.979  1.00  0.00    -0.157 C  
BRANCH   7   8
HETATM    8  C   UNL     1      -9.912   8.821  68.631  1.00  0.00    -0.182 C  
BRANCH   8   9
HETATM    9  O   UNL     1      -9.483  10.000  67.946  1.00  0.00    -0.143 OA 
BRANCH   9  10
HETATM   10  C   UNL     1      -9.990  10.129  66.680  1.00  0.00    -0.216 C  
HETATM   11  O   UNL     1     -10.882   9.413  66.239  1.00  0.00     0.107 OA 
BRANCH  10  12
HETATM   12  C   UNL     1      -9.424  11.358  65.979  1.00  0.00    -0.245 C  
HETATM   13  C   UNL     1      -8.673  10.887  64.753  1.00  0.00    -0.055 A  
HETATM   14  C   UNL     1      -7.574  10.017  64.883  1.00  0.00    -0.139 A  
HETATM   15  C   UNL     1      -6.975   9.464  63.752  1.00  0.00    -0.095 A  
HETATM   16  C   UNL     1      -7.452   9.791  62.485  1.00  0.00    -0.120 A  
HETATM   17  C   UNL     1      -8.529  10.669  62.350  1.00  0.00    -0.277 A  
HETATM   18  C   UNL     1      -9.145  11.207  63.480  1.00  0.00    -0.124 A  
HETATM   19  O   UNL     1     -10.225  12.024  63.254  1.00  0.00    -0.438 OA 
HETATM   20  C   UNL     1     -10.862  12.596  64.329  1.00  0.00    -0.379 A  
HETATM   21  C   UNL     1     -11.915  13.463  64.028  1.00  0.00    -0.520 A  
HETATM   22  C   UNL     1     -12.629  14.082  65.053  1.00  0.00    -0.416 A  
HETATM   23  C   UNL     1     -12.286  13.844  66.383  1.00  0.00    -0.487 A  
HETATM   24  C   UNL     1     -11.230  12.984  66.686  1.00  0.00    -0.341 A  
HETATM   25  C   UNL     1     -10.518  12.343  65.658  1.00  0.00    -0.290 A  
ENDBRANCH  10  12
ENDBRANCH   9  10
ENDBRANCH   8   9
ENDBRANCH   7   8
ENDBRANCH   3   7
ENDBRANCH   2   3
TORSDOF 7
ENDMDL
MODEL      163
REMARK 921   NORMALIZED FREE ENERGY PREDICTED BY IDOCK:   -3.70 KCAL/MOL
REMARK 922        TOTAL FREE ENERGY PREDICTED BY IDOCK:   -6.53 KCAL/MOL
REMARK 923 INTER-LIGAND FREE ENERGY PREDICTED BY IDOCK:   -5.71 KCAL/MOL
REMARK 924 INTRA-LIGAND FREE ENERGY PREDICTED BY IDOCK:   -0.82 KCAL/MOL
REMARK 927      BINDING AFFINITY PREDICTED BY RF-SCORE:    0.00 PKD
ROOT
HETATM    1  C   UNL     1      -8.738  13.947  67.769  1.00  0.00    -0.187 C  
HETATM    2  C   UNL     1      -9.602  12.919  68.482  1.00  0.00    -0.111 C  
ENDROOT
BRANCH   2   3
HETATM    3  N   UNL     1     -11.125  13.066  68.221  1.00  0.00    -0.249 N  
HETATM    4  C   UNL     1     -11.587  14.444  68.728  1.00  0.00    -0.315 C  
BRANCH   3   5
HETATM    5  C   UNL     1     -11.492  12.944  66.730  1.00  0.00    -0.340 C  
HETATM    6  C   UNL     1     -10.999  11.659  66.081  1.00  0.00    -0.339 C  
ENDBRANCH   3   5
BRANCH   3   7
HETATM    7  C   UNL     1     -11.807  11.967  69.087  1.00  0.00    -0.311 C  
BRANCH   7   8
HETATM    8  C   UNL     1     -10.838  10.965  69.720  1.00  0.00    -0.187 C  
BRANCH   8   9
HETATM    9  O   UNL     1     -11.349   9.632  69.646  1.00  0.00    -0.185 OA 
BRANCH   9  10
HETATM   10  C   UNL     1     -10.426   8.661  69.931  1.00  0.00    -0.218 C  
HETATM   11  O   UNL     1      -9.412   8.872  70.586  1.00  0.00    -0.180 OA 
BRANCH  10  12
HETATM   12  C   UNL     1     -10.908   7.288  69.479  1.00  0.00    -0.224 C  
HETATM   13  C   UNL     1     -10.067   6.870  68.293  1.00  0.00    -0.182 A  
HETATM   14  C   UNL     1     -10.058   7.646  67.119  1.00  0.00    -0.323 A  
HETATM   15  C   UNL     1      -9.174   7.347  66.083  1.00  0.00    -0.148 A  
HETATM   16  C   UNL     1      -8.310   6.261  66.201  1.00  0.00    -0.130 A  
HETATM   17  C   UNL     1      -8.328   5.477  67.356  1.00  0.00    -0.103 A  
HETATM   18  C   UNL     1      -9.196   5.786  68.403  1.00  0.00    -0.117 A  
HETATM   19  O   UNL     1      -9.114   4.988  69.518  1.00  0.00    -0.103 OA 
HETATM   20  C   UNL     1      -9.957   5.234  70.575  1.00  0.00    -0.229 A  
HETATM   21  C   UNL     1      -9.864   4.351  71.652  1.00  0.00    -0.255 A  
HETATM   22  C   UNL     1     -10.670   4.528  72.776  1.00  0.00    -0.258 A  
HETATM   23  C   UNL     1     -11.580   5.583  72.821  1.00  0.00    -0.298 A  
HETATM   24  C   UNL     1     -11.679   6.463  71.744  1.00  0.00    -0.376 A  
HETATM   25  C   UNL     1     -10.857   6.301  70.616  1.00  0.00    -0.339 A  
ENDBRANCH  10  12
ENDBRANCH   9  10
ENDBRANCH   8   9
ENDBRANCH   7   8
ENDBRANCH   3   7
ENDBRANCH   2   3
TORSDOF 7
ENDMDL
MODEL      164
REMARK 921   NORMALIZED FREE ENERGY PREDICTED BY IDOCK:   -3.69 KCAL/MOL
REMARK 922        TOTAL FREE ENERGY PREDICTED BY IDOCK:   -6.52 KCAL/MOL
REMARK 923 INTER-LIGAND FREE ENERGY PREDICTED BY IDOCK:   -5.68 KCAL/MOL
REMARK 924 INTRA-LIGAND FREE ENERGY PREDICTED BY IDOCK:   -0.83 KCAL/MOL
REMARK 927      BINDING AFFINITY PREDICTED BY RF-SCORE:    0.00 PKD
ROOT
HETATM    1  C   UNL     1      -9.141  14.818  66.565  1.00  0.00    -0.291 C  
HETATM    2  C   UNL     1      -9.668  14.225  67.861  1.00  0.00    -0.222 C  
ENDROOT
BRANCH   2   3
HETATM    3  N   UNL     1     -10.801  13.180  67.677  1.00  0.00    -0.250 N  
HETATM    4  C   UNL     1     -12.017  13.609  68.518  1.00  0.00    -0.361 C  
BRANCH   3   5
HETATM    5  C   UNL     1     -11.247  13.032  66.210  1.00  0.00    -0.301 C  
HETATM    6  C   UNL     1     -12.614  13.635  65.921  1.00  0.00    -0.478 C  
ENDBRANCH   3   5
BRANCH   3   7
HETATM    7  C   UNL     1     -10.243  11.849  68.259  1.00  0.00    -0.204 C  
BRANCH   7   8
HETATM    8  C   UNL     1     -11.141  11.191  69.310  1.00  0.00    -0.259 C  
BRANCH   8   9
HETATM    9  O   UNL     1     -10.406  10.266  70.115  1.00  0.00    -0.256 OA 
BRANCH   9  10
HETATM   10  C   UNL     1     -11.146   9.209  70.573  1.00  0.00    -0.260 C  
HETATM   11  O   UNL     1     -12.335   9.298  70.859  1.00  0.00    -0.264 OA 
BRANCH  10  12
HETATM   12  C   UNL     1     -10.352   7.910  70.519  1.00  0.00    -0.205 C  
HETATM   13  C   UNL     1      -9.855   7.730  69.101  1.00  0.00    -0.173 A  
HETATM   14  C   UNL     1     -10.769   7.630  68.035  1.00  0.00    -0.152 A  
HETATM   15  C   UNL     1     -10.315   7.614  66.718  1.00  0.00    -0.343 A  
HETATM   16  C   UNL     1      -8.949   7.675  66.453  1.00  0.00    -0.198 A  
HETATM   17  C   UNL     1      -8.037   7.755  67.508  1.00  0.00    -0.124 A  
HETATM   18  C   UNL     1      -8.489   7.793  68.827  1.00  0.00    -0.129 A  
HETATM   19  O   UNL     1      -7.525   7.918  69.797  1.00  0.00    -0.083 OA 
HETATM   20  C   UNL     1      -7.909   7.944  71.116  1.00  0.00    -0.086 A  
HETATM   21  C   UNL     1      -6.877   8.012  72.055  1.00  0.00    -0.072 A  
HETATM   22  C   UNL     1      -7.169   8.056  73.417  1.00  0.00    -0.161 A  
HETATM   23  C   UNL     1      -8.495   8.020  73.847  1.00  0.00    -0.321 A  
HETATM   24  C   UNL     1      -9.527   7.945  72.912  1.00  0.00    -0.321 A  
HETATM   25  C   UNL     1      -9.240   7.919  71.537  1.00  0.00    -0.171 A  
ENDBRANCH  10  12
ENDBRANCH   9  10
ENDBRANCH   8   9
ENDBRANCH   7   8
ENDBRANCH   3   7
ENDBRANCH   2   3
TORSDOF 7
ENDMDL
MODEL      165
REMARK 921   NORMALIZED FREE ENERGY PREDICTED BY IDOCK:   -3.68 KCAL/MOL
REMARK 922        TOTAL FREE ENERGY PREDICTED BY IDOCK:   -6.51 KCAL/MOL
REMARK 923 INTER-LIGAND FREE ENERGY PREDICTED BY IDOCK:   -5.73 KCAL/MOL
REMARK 924 INTRA-LIGAND FREE ENERGY PREDICTED BY IDOCK:   -0.78 KCAL/MOL
REMARK 927      BINDING AFFINITY PREDICTED BY RF-SCORE:    0.00 PKD
ROOT
HETATM    1  C   UNL     1     -10.706  14.214  64.860  1.00  0.00    -0.444 C  
HETATM    2  C   UNL     1     -11.064  15.032  66.090  1.00  0.00    -0.329 C  
ENDROOT
BRANCH   2   3
HETATM    3  N   UNL     1     -10.354  14.578  67.393  1.00  0.00    -0.251 N  
HETATM    4  C   UNL     1      -9.376  13.438  67.058  1.00  0.00    -0.243 C  
BRANCH   3   5
HETATM    5  C   UNL     1      -9.568  15.715  68.075  1.00  0.00    -0.203 C  
HETATM    6  C   UNL     1      -9.382  15.519  69.571  1.00  0.00    -0.276 C  
ENDBRANCH   3   5
BRANCH   3   7
HETATM    7  C   UNL     1     -11.478  14.010  68.308  1.00  0.00    -0.304 C  
BRANCH   7   8
HETATM    8  C   UNL     1     -11.852  12.553  68.022  1.00  0.00    -0.325 C  
BRANCH   8   9
HETATM    9  O   UNL     1     -11.596  11.720  69.155  1.00  0.00    -0.257 OA 
BRANCH   9  10
HETATM   10  C   UNL     1     -10.977  10.536  68.852  1.00  0.00    -0.246 C  
HETATM   11  O   UNL     1     -11.069   9.993  67.757  1.00  0.00    -0.286 OA 
BRANCH  10  12
HETATM   12  C   UNL     1     -10.051  10.091  69.978  1.00  0.00    -0.289 C  
HETATM   13  C   UNL     1     -10.541   8.749  70.475  1.00  0.00    -0.252 A  
HETATM   14  C   UNL     1     -11.835   8.618  71.011  1.00  0.00    -0.303 A  
HETATM   15  C   UNL     1     -12.342   7.360  71.332  1.00  0.00    -0.394 A  
HETATM   16  C   UNL     1     -11.555   6.227  71.143  1.00  0.00    -0.339 A  
HETATM   17  C   UNL     1     -10.262   6.352  70.630  1.00  0.00    -0.229 A  
HETATM   18  C   UNL     1      -9.760   7.608  70.287  1.00  0.00    -0.179 A  
HETATM   19  O   UNL     1      -8.497   7.632  69.748  1.00  0.00    -0.131 OA 
HETATM   20  C   UNL     1      -7.944   8.843  69.407  1.00  0.00    -0.100 A  
HETATM   21  C   UNL     1      -6.635   8.804  68.920  1.00  0.00    -0.053 A  
HETATM   22  C   UNL     1      -5.994   9.981  68.536  1.00  0.00    -0.041 A  
HETATM   23  C   UNL     1      -6.656  11.203  68.648  1.00  0.00    -0.059 A  
HETATM   24  C   UNL     1      -7.960  11.245  69.140  1.00  0.00    -0.002 A  
HETATM   25  C   UNL     1      -8.618  10.061  69.512  1.00  0.00    -0.197 A  
ENDBRANCH  10  12
ENDBRANCH   9  10
ENDBRANCH   8   9
ENDBRANCH   7   8
ENDBRANCH   3   7
ENDBRANCH   2   3
TORSDOF 7
ENDMDL
MODEL      166
REMARK 921   NORMALIZED FREE ENERGY PREDICTED BY IDOCK:   -3.62 KCAL/MOL
REMARK 922        TOTAL FREE ENERGY PREDICTED BY IDOCK:   -6.42 KCAL/MOL
REMARK 923 INTER-LIGAND FREE ENERGY PREDICTED BY IDOCK:   -5.35 KCAL/MOL
REMARK 924 INTRA-LIGAND FREE ENERGY PREDICTED BY IDOCK:   -1.07 KCAL/MOL
REMARK 927      BINDING AFFINITY PREDICTED BY RF-SCORE:    0.00 PKD
ROOT
HETATM    1  C   UNL     1      -8.904   7.574  65.922  1.00  0.00    -0.157 C  
HETATM    2  C   UNL     1      -7.688   8.269  65.332  1.00  0.00    -0.103 C  
ENDROOT
BRANCH   2   3
HETATM    3  N   UNL     1      -7.977   9.667  64.724  1.00  0.00    -0.122 N  
HETATM    4  C   UNL     1      -6.642  10.326  64.332  1.00  0.00    -0.076 C  
BRANCH   3   5
HETATM    5  C   UNL     1      -8.878   9.604  63.477  1.00  0.00    -0.234 C  
HETATM    6  C   UNL     1      -9.999  10.633  63.478  1.00  0.00    -0.347 C  
ENDBRANCH   3   5
BRANCH   3   7
HETATM    7  C   UNL     1      -8.619  10.500  65.872  1.00  0.00    -0.164 C  
BRANCH   7   8
HETATM    8  C   UNL     1      -7.616  11.082  66.871  1.00  0.00    -0.133 C  
BRANCH   8   9
HETATM    9  O   UNL     1      -7.752  12.501  66.976  1.00  0.00    -0.135 OA 
BRANCH   9  10
HETATM   10  C   UNL     1      -8.183  12.935  68.201  1.00  0.00    -0.163 C  
HETATM   11  O   UNL     1      -7.758  12.484  69.259  1.00  0.00     0.210 OA 
BRANCH  10  12
HETATM   12  C   UNL     1      -9.111  14.136  68.069  1.00  0.00    -0.191 C  
HETATM   13  C   UNL     1      -8.251  15.365  67.874  1.00  0.00    -0.150 A  
HETATM   14  C   UNL     1      -7.319  15.746  68.857  1.00  0.00    -0.162 A  
HETATM   15  C   UNL     1      -6.425  16.787  68.616  1.00  0.00    -0.165 A  
HETATM   16  C   UNL     1      -6.467  17.471  67.404  1.00  0.00    -0.169 A  
HETATM   17  C   UNL     1      -7.402  17.111  66.432  1.00  0.00    -0.334 A  
HETATM   18  C   UNL     1      -8.284  16.055  66.661  1.00  0.00    -0.289 A  
HETATM   19  O   UNL     1      -9.139  15.741  65.633  1.00  0.00    -0.261 OA 
HETATM   20  C   UNL     1     -10.043  14.720  65.808  1.00  0.00    -0.339 A  
HETATM   21  C   UNL     1     -10.922  14.491  64.747  1.00  0.00    -0.404 A  
HETATM   22  C   UNL     1     -11.866  13.468  64.827  1.00  0.00    -0.412 A  
HETATM   23  C   UNL     1     -11.942  12.678  65.973  1.00  0.00    -0.478 A  
HETATM   24  C   UNL     1     -11.069  12.909  67.037  1.00  0.00    -0.309 A  
HETATM   25  C   UNL     1     -10.103  13.927  66.955  1.00  0.00    -0.260 A  
ENDBRANCH  10  12
ENDBRANCH   9  10
ENDBRANCH   8   9
ENDBRANCH   7   8
ENDBRANCH   3   7
ENDBRANCH   2   3
TORSDOF 7
ENDMDL
MODEL      167
REMARK 921   NORMALIZED FREE ENERGY PREDICTED BY IDOCK:   -3.62 KCAL/MOL
REMARK 922        TOTAL FREE ENERGY PREDICTED BY IDOCK:   -6.41 KCAL/MOL
REMARK 923 INTER-LIGAND FREE ENERGY PREDICTED BY IDOCK:   -5.49 KCAL/MOL
REMARK 924 INTRA-LIGAND FREE ENERGY PREDICTED BY IDOCK:   -0.92 KCAL/MOL
REMARK 927      BINDING AFFINITY PREDICTED BY RF-SCORE:    0.00 PKD
ROOT
HETATM    1  C   UNL     1     -14.410  15.562  71.819  1.00  0.00    -0.556 C  
HETATM    2  C   UNL     1     -14.042  14.261  71.124  1.00  0.00    -0.024 C  
ENDROOT
BRANCH   2   3
HETATM    3  N   UNL     1     -13.036  13.376  71.907  1.00  0.00    -0.384 N  
HETATM    4  C   UNL     1     -12.574  14.137  73.163  1.00  0.00    -0.050 C  
BRANCH   3   5
HETATM    5  C   UNL     1     -13.639  12.027  72.345  1.00  0.00     0.097 C  
HETATM    6  C   UNL     1     -12.804  10.823  71.938  1.00  0.00    -0.460 C  
ENDBRANCH   3   5
BRANCH   3   7
HETATM    7  C   UNL     1     -11.812  13.194  70.963  1.00  0.00     0.422 C  
BRANCH   7   8
HETATM    8  C   UNL     1     -11.985  13.815  69.574  1.00  0.00    -0.345 C  
BRANCH   8   9
HETATM    9  O   UNL     1     -12.129  12.807  68.570  1.00  0.00    -0.270 OA 
BRANCH   9  10
HETATM   10  C   UNL     1     -10.953  12.440  67.972  1.00  0.00    -0.225 C  
HETATM   11  O   UNL     1      -9.923  13.099  68.056  1.00  0.00    -0.220 OA 
BRANCH  10  12
HETATM   12  C   UNL     1     -11.058  11.053  67.349  1.00  0.00    -0.370 C  
HETATM   13  C   UNL     1     -10.649  11.165  65.897  1.00  0.00    -0.294 A  
HETATM   14  C   UNL     1     -11.363  12.002  65.019  1.00  0.00    -0.365 A  
HETATM   15  C   UNL     1     -10.901  12.223  63.723  1.00  0.00    -0.495 A  
HETATM   16  C   UNL     1      -9.738  11.595  63.285  1.00  0.00    -0.390 A  
HETATM   17  C   UNL     1      -9.035  10.749  64.145  1.00  0.00    -0.167 A  
HETATM   18  C   UNL     1      -9.483  10.543  65.450  1.00  0.00    -0.223 A  
HETATM   19  O   UNL     1      -8.705   9.731  66.239  1.00  0.00    -0.135 OA 
HETATM   20  C   UNL     1      -9.105   9.478  67.530  1.00  0.00    -0.130 A  
HETATM   21  C   UNL     1      -8.303   8.599  68.260  1.00  0.00    -0.127 A  
HETATM   22  C   UNL     1      -8.622   8.291  69.581  1.00  0.00    -0.129 A  
HETATM   23  C   UNL     1      -9.751   8.853  70.175  1.00  0.00    -0.199 A  
HETATM   24  C   UNL     1     -10.558   9.727  69.446  1.00  0.00    -0.248 A  
HETATM   25  C   UNL     1     -10.232  10.055  68.119  1.00  0.00    -0.205 A  
ENDBRANCH  10  12
ENDBRANCH   9  10
ENDBRANCH   8   9
ENDBRANCH   7   8
ENDBRANCH   3   7
ENDBRANCH   2   3
TORSDOF 7
ENDMDL
MODEL      168
REMARK 921   NORMALIZED FREE ENERGY PREDICTED BY IDOCK:   -3.61 KCAL/MOL
REMARK 922        TOTAL FREE ENERGY PREDICTED BY IDOCK:   -6.40 KCAL/MOL
REMARK 923 INTER-LIGAND FREE ENERGY PREDICTED BY IDOCK:   -5.43 KCAL/MOL
REMARK 924 INTRA-LIGAND FREE ENERGY PREDICTED BY IDOCK:   -0.97 KCAL/MOL
REMARK 927      BINDING AFFINITY PREDICTED BY RF-SCORE:    0.00 PKD
ROOT
HETATM    1  C   UNL     1      -7.821  10.739  69.373  1.00  0.00    -0.093 C  
HETATM    2  C   UNL     1      -8.937  10.560  68.356  1.00  0.00    -0.141 C  
ENDROOT
BRANCH   2   3
HETATM    3  N   UNL     1      -8.605  11.091  66.936  1.00  0.00    -0.139 N  
HETATM    4  C   UNL     1      -7.311  11.921  67.004  1.00  0.00    -0.118 C  
BRANCH   3   5
HETATM    5  C   UNL     1      -8.413   9.964  65.904  1.00  0.00    -0.130 C  
HETATM    6  C   UNL     1      -9.643   9.090  65.715  1.00  0.00    -0.287 C  
ENDBRANCH   3   5
BRANCH   3   7
HETATM    7  C   UNL     1      -9.780  12.040  66.558  1.00  0.00    -0.216 C  
BRANCH   7   8
HETATM    8  C   UNL     1      -9.534  13.515  66.885  1.00  0.00    -0.258 C  
BRANCH   8   9
HETATM    9  O   UNL     1     -10.064  13.859  68.167  1.00  0.00    -0.235 OA 
BRANCH   9  10
HETATM   10  C   UNL     1      -9.744  15.123  68.586  1.00  0.00    -0.216 C  
HETATM   11  O   UNL     1     -10.256  15.654  69.565  1.00  0.00    -0.239 OA 
BRANCH  10  12
HETATM   12  C   UNL     1      -8.575  15.692  67.790  1.00  0.00    -0.168 C  
HETATM   13  C   UNL     1      -9.020  17.008  67.192  1.00  0.00    -0.234 A  
HETATM   14  C   UNL     1     -10.108  17.052  66.301  1.00  0.00    -0.330 A  
HETATM   15  C   UNL     1     -10.613  18.276  65.866  1.00  0.00    -0.274 A  
HETATM   16  C   UNL     1     -10.024  19.462  66.296  1.00  0.00    -0.509 A  
HETATM   17  C   UNL     1      -8.931  19.424  67.165  1.00  0.00    -0.347 A  
HETATM   18  C   UNL     1      -8.437  18.201  67.620  1.00  0.00    -0.244 A  
HETATM   19  O   UNL     1      -7.390  18.260  68.506  1.00  0.00    -0.267 OA 
HETATM   20  C   UNL     1      -6.850  17.086  68.976  1.00  0.00    -0.229 A  
HETATM   21  C   UNL     1      -5.751  17.214  69.827  1.00  0.00    -0.222 A  
HETATM   22  C   UNL     1      -5.144  16.079  70.364  1.00  0.00    -0.167 A  
HETATM   23  C   UNL     1      -5.628  14.812  70.043  1.00  0.00    -0.114 A  
HETATM   24  C   UNL     1      -6.722  14.681  69.188  1.00  0.00    -0.117 A  
HETATM   25  C   UNL     1      -7.350  15.822  68.658  1.00  0.00    -0.137 A  
ENDBRANCH  10  12
ENDBRANCH   9  10
ENDBRANCH   8   9
ENDBRANCH   7   8
ENDBRANCH   3   7
ENDBRANCH   2   3
TORSDOF 7
ENDMDL
MODEL      169
REMARK 921   NORMALIZED FREE ENERGY PREDICTED BY IDOCK:   -3.57 KCAL/MOL
REMARK 922        TOTAL FREE ENERGY PREDICTED BY IDOCK:   -6.35 KCAL/MOL
REMARK 923 INTER-LIGAND FREE ENERGY PREDICTED BY IDOCK:   -5.68 KCAL/MOL
REMARK 924 INTRA-LIGAND FREE ENERGY PREDICTED BY IDOCK:   -0.67 KCAL/MOL
REMARK 927      BINDING AFFINITY PREDICTED BY RF-SCORE:    0.00 PKD
ROOT
HETATM    1  C   UNL     1     -12.209  12.584  63.384  1.00  0.00    -0.613 C  
HETATM    2  C   UNL     1     -10.791  12.487  63.923  1.00  0.00    -0.431 C  
ENDROOT
BRANCH   2   3
HETATM    3  N   UNL     1     -10.634  12.921  65.404  1.00  0.00    -0.284 N  
HETATM    4  C   UNL     1     -10.022  14.333  65.448  1.00  0.00    -0.303 C  
BRANCH   3   5
HETATM    5  C   UNL     1     -11.971  12.943  66.168  1.00  0.00    -0.429 C  
HETATM    6  C   UNL     1     -12.029  13.985  67.274  1.00  0.00    -0.448 C  
ENDBRANCH   3   5
BRANCH   3   7
HETATM    7  C   UNL     1      -9.616  11.923  66.029  1.00  0.00    -0.235 C  
BRANCH   7   8
HETATM    8  C   UNL     1     -10.244  10.651  66.603  1.00  0.00    -0.231 C  
BRANCH   8   9
HETATM    9  O   UNL     1      -9.377   9.526  66.443  1.00  0.00    -0.157 OA 
BRANCH   9  10
HETATM   10  C   UNL     1      -9.837   8.376  67.027  1.00  0.00    -0.230 C  
HETATM   11  O   UNL     1     -11.012   8.029  66.992  1.00  0.00    -0.191 OA 
BRANCH  10  12
HETATM   12  C   UNL     1      -8.689   7.530  67.565  1.00  0.00    -0.125 C  
HETATM   13  C   UNL     1      -8.686   7.657  69.072  1.00  0.00    -0.136 A  
HETATM   14  C   UNL     1      -8.512   8.914  69.679  1.00  0.00    -0.129 A  
HETATM   15  C   UNL     1      -8.657   9.057  71.058  1.00  0.00    -0.264 A  
HETATM   16  C   UNL     1      -8.954   7.946  71.843  1.00  0.00    -0.180 A  
HETATM   17  C   UNL     1      -9.109   6.693  71.248  1.00  0.00    -0.151 A  
HETATM   18  C   UNL     1      -8.986   6.550  69.866  1.00  0.00    -0.143 A  
HETATM   19  O   UNL     1      -9.199   5.290  69.363  1.00  0.00    -0.108 OA 
HETATM   20  C   UNL     1      -9.074   5.085  68.010  1.00  0.00    -0.114 A  
HETATM   21  C   UNL     1      -9.244   3.770  67.570  1.00  0.00    -0.216 A  
HETATM   22  C   UNL     1      -9.149   3.467  66.212  1.00  0.00    -0.160 A  
HETATM   23  C   UNL     1      -8.872   4.475  65.291  1.00  0.00    -0.140 A  
HETATM   24  C   UNL     1      -8.696   5.788  65.728  1.00  0.00    -0.152 A  
HETATM   25  C   UNL     1      -8.808   6.104  67.093  1.00  0.00    -0.108 A  
ENDBRANCH  10  12
ENDBRANCH   9  10
ENDBRANCH   8   9
ENDBRANCH   7   8
ENDBRANCH   3   7
ENDBRANCH   2   3
TORSDOF 7
ENDMDL
MODEL      170
REMARK 921   NORMALIZED FREE ENERGY PREDICTED BY IDOCK:   -3.57 KCAL/MOL
REMARK 922        TOTAL FREE ENERGY PREDICTED BY IDOCK:   -6.34 KCAL/MOL
REMARK 923 INTER-LIGAND FREE ENERGY PREDICTED BY IDOCK:   -5.58 KCAL/MOL
REMARK 924 INTRA-LIGAND FREE ENERGY PREDICTED BY IDOCK:   -0.76 KCAL/MOL
REMARK 927      BINDING AFFINITY PREDICTED BY RF-SCORE:    0.00 PKD
ROOT
HETATM    1  C   UNL     1     -10.712   8.675  71.894  1.00  0.00    -0.414 C  
HETATM    2  C   UNL     1     -10.466   7.924  70.596  1.00  0.00    -0.213 C  
ENDROOT
BRANCH   2   3
HETATM    3  N   UNL     1      -9.043   8.110  70.005  1.00  0.00    -0.150 N  
HETATM    4  C   UNL     1      -8.057   8.382  71.155  1.00  0.00    -0.125 C  
BRANCH   3   5
HETATM    5  C   UNL     1      -8.554   6.878  69.220  1.00  0.00    -0.132 C  
HETATM    6  C   UNL     1      -7.062   6.893  68.924  1.00  0.00    -0.089 C  
ENDBRANCH   3   5
BRANCH   3   7
HETATM    7  C   UNL     1      -9.122   9.382  69.112  1.00  0.00    -0.148 C  
BRANCH   7   8
HETATM    8  C   UNL     1      -9.786   9.163  67.751  1.00  0.00    -0.174 C  
BRANCH   8   9
HETATM    9  O   UNL     1     -10.477  10.336  67.315  1.00  0.00    -0.221 OA 
BRANCH   9  10
HETATM   10  C   UNL     1      -9.663  11.300  66.782  1.00  0.00    -0.193 C  
HETATM   11  O   UNL     1      -8.856  11.076  65.887  1.00  0.00    -0.188 OA 
BRANCH  10  12
HETATM   12  C   UNL     1     -10.013  12.682  67.322  1.00  0.00    -0.212 C  
HETATM   13  C   UNL     1      -8.721  13.373  67.696  1.00  0.00    -0.198 A  
HETATM   14  C   UNL     1      -7.873  12.816  68.672  1.00  0.00    -0.044 A  
HETATM   15  C   UNL     1      -6.616  13.368  68.913  1.00  0.00    -0.107 A  
HETATM   16  C   UNL     1      -6.204  14.491  68.199  1.00  0.00    -0.146 A  
HETATM   17  C   UNL     1      -7.049  15.059  67.243  1.00  0.00    -0.134 A  
HETATM   18  C   UNL     1      -8.298  14.496  66.985  1.00  0.00    -0.167 A  
HETATM   19  O   UNL     1      -9.043  15.093  65.997  1.00  0.00    -0.289 OA 
HETATM   20  C   UNL     1     -10.290  14.592  65.711  1.00  0.00    -0.332 A  
HETATM   21  C   UNL     1     -11.019  15.281  64.738  1.00  0.00    -0.403 A  
HETATM   22  C   UNL     1     -12.290  14.840  64.371  1.00  0.00    -0.389 A  
HETATM   23  C   UNL     1     -12.840  13.715  64.983  1.00  0.00    -0.325 A  
HETATM   24  C   UNL     1     -12.117  13.029  65.959  1.00  0.00    -0.493 A  
HETATM   25  C   UNL     1     -10.829  13.458  66.321  1.00  0.00    -0.294 A  
ENDBRANCH  10  12
ENDBRANCH   9  10
ENDBRANCH   8   9
ENDBRANCH   7   8
ENDBRANCH   3   7
ENDBRANCH   2   3
TORSDOF 7
ENDMDL
MODEL      171
REMARK 921   NORMALIZED FREE ENERGY PREDICTED BY IDOCK:   -3.53 KCAL/MOL
REMARK 922        TOTAL FREE ENERGY PREDICTED BY IDOCK:   -6.29 KCAL/MOL
REMARK 923 INTER-LIGAND FREE ENERGY PREDICTED BY IDOCK:   -5.41 KCAL/MOL
REMARK 924 INTRA-LIGAND FREE ENERGY PREDICTED BY IDOCK:   -0.89 KCAL/MOL
REMARK 927      BINDING AFFINITY PREDICTED BY RF-SCORE:    0.00 PKD
ROOT
HETATM    1  C   UNL     1      -8.505   8.645  65.997  1.00  0.00    -0.151 C  
HETATM    2  C   UNL     1      -9.201   8.921  67.320  1.00  0.00    -0.138 C  
ENDROOT
BRANCH   2   3
HETATM    3  N   UNL     1      -9.610  10.403  67.534  1.00  0.00    -0.155 N  
HETATM    4  C   UNL     1      -8.965  11.263  66.433  1.00  0.00    -0.188 C  
BRANCH   3   5
HETATM    5  C   UNL     1     -11.135  10.616  67.493  1.00  0.00    -0.300 C  
HETATM    6  C   UNL     1     -11.729  11.053  68.823  1.00  0.00    -0.383 C  
ENDBRANCH   3   5
BRANCH   3   7
HETATM    7  C   UNL     1      -8.996  10.814  68.904  1.00  0.00    -0.153 C  
BRANCH   7   8
HETATM    8  C   UNL     1      -8.453   9.647  69.732  1.00  0.00    -0.190 C  
BRANCH   8   9
HETATM    9  O   UNL     1      -9.436   9.158  70.648  1.00  0.00    -0.218 OA 
BRANCH   9  10
HETATM   10  C   UNL     1      -8.916   8.507  71.735  1.00  0.00    -0.220 C  
HETATM   11  O   UNL     1      -8.030   8.979  72.438  1.00  0.00    -0.344 OA 
BRANCH  10  12
HETATM   12  C   UNL     1      -9.688   7.228  72.036  1.00  0.00    -0.177 C  
HETATM   13  C   UNL     1     -11.163   7.539  71.919  1.00  0.00    -0.286 A  
HETATM   14  C   UNL     1     -11.753   8.511  72.748  1.00  0.00    -0.150 A  
HETATM   15  C   UNL     1     -13.074   8.905  72.543  1.00  0.00    -0.426 A  
HETATM   16  C   UNL     1     -13.823   8.319  71.525  1.00  0.00    -0.382 A  
HETATM   17  C   UNL     1     -13.249   7.341  70.712  1.00  0.00     0.105 A  
HETATM   18  C   UNL     1     -11.920   6.959  70.901  1.00  0.00    -0.381 A  
HETATM   19  O   UNL     1     -11.426   6.023  70.026  1.00  0.00    -0.372 OA 
HETATM   20  C   UNL     1     -10.128   5.596  70.174  1.00  0.00    -0.227 A  
HETATM   21  C   UNL     1      -9.705   4.600  69.290  1.00  0.00    -0.266 A  
HETATM   22  C   UNL     1      -8.401   4.112  69.355  1.00  0.00    -0.080 A  
HETATM   23  C   UNL     1      -7.518   4.611  70.311  1.00  0.00    -0.050 A  
HETATM   24  C   UNL     1      -7.939   5.600  71.199  1.00  0.00    -0.112 A  
HETATM   25  C   UNL     1      -9.247   6.109  71.127  1.00  0.00    -0.161 A  
ENDBRANCH  10  12
ENDBRANCH   9  10
ENDBRANCH   8   9
ENDBRANCH   7   8
ENDBRANCH   3   7
ENDBRANCH   2   3
TORSDOF 7
ENDMDL
MODEL      172
REMARK 921   NORMALIZED FREE ENERGY PREDICTED BY IDOCK:   -3.52 KCAL/MOL
REMARK 922        TOTAL FREE ENERGY PREDICTED BY IDOCK:   -6.28 KCAL/MOL
REMARK 923 INTER-LIGAND FREE ENERGY PREDICTED BY IDOCK:   -5.53 KCAL/MOL
REMARK 924 INTRA-LIGAND FREE ENERGY PREDICTED BY IDOCK:   -0.74 KCAL/MOL
REMARK 927      BINDING AFFINITY PREDICTED BY RF-SCORE:    0.00 PKD
ROOT
HETATM    1  C   UNL     1     -12.775   8.256  72.093  1.00  0.00    -0.366 C  
HETATM    2  C   UNL     1     -12.027   8.932  70.956  1.00  0.00    -0.261 C  
ENDROOT
BRANCH   2   3
HETATM    3  N   UNL     1     -10.602   8.371  70.699  1.00  0.00    -0.204 N  
HETATM    4  C   UNL     1      -9.688   8.780  71.868  1.00  0.00    -0.316 C  
BRANCH   3   5
HETATM    5  C   UNL     1     -10.577   6.837  70.569  1.00  0.00    -0.225 C  
HETATM    6  C   UNL     1     -11.143   6.324  69.254  1.00  0.00    -0.461 C  
ENDBRANCH   3   5
BRANCH   3   7
HETATM    7  C   UNL     1     -10.098   9.080  69.408  1.00  0.00    -0.198 C  
BRANCH   7   8
HETATM    8  C   UNL     1      -9.234  10.318  69.660  1.00  0.00    -0.129 C  
BRANCH   8   9
HETATM    9  O   UNL     1      -8.115  10.358  68.771  1.00  0.00    -0.109 OA 
BRANCH   9  10
HETATM   10  C   UNL     1      -7.683  11.623  68.471  1.00  0.00    -0.134 C  
HETATM   11  O   UNL     1      -6.980  12.287  69.224  1.00  0.00    -0.083 OA 
BRANCH  10  12
HETATM   12  C   UNL     1      -8.046  12.008  67.042  1.00  0.00    -0.158 C  
HETATM   13  C   UNL     1      -7.888  10.778  66.176  1.00  0.00    -0.155 A  
HETATM   14  C   UNL     1      -6.636  10.144  66.063  1.00  0.00    -0.102 A  
HETATM   15  C   UNL     1      -6.519   8.930  65.389  1.00  0.00    -0.067 A  
HETATM   16  C   UNL     1      -7.642   8.351  64.804  1.00  0.00    -0.102 A  
HETATM   17  C   UNL     1      -8.883   8.985  64.896  1.00  0.00    -0.190 A  
HETATM   18  C   UNL     1      -9.007  10.189  65.589  1.00  0.00    -0.171 A  
HETATM   19  O   UNL     1     -10.273  10.718  65.667  1.00  0.00    -0.249 OA 
HETATM   20  C   UNL     1     -10.454  11.913  66.323  1.00  0.00    -0.239 A  
HETATM   21  C   UNL     1     -11.753  12.426  66.315  1.00  0.00    -0.457 A  
HETATM   22  C   UNL     1     -12.037  13.626  66.965  1.00  0.00    -0.423 A  
HETATM   23  C   UNL     1     -11.020  14.323  67.616  1.00  0.00    -0.286 A  
HETATM   24  C   UNL     1      -9.721  13.816  67.620  1.00  0.00    -0.227 A  
HETATM   25  C   UNL     1      -9.432  12.598  66.982  1.00  0.00    -0.220 A  
ENDBRANCH  10  12
ENDBRANCH   9  10
ENDBRANCH   8   9
ENDBRANCH   7   8
ENDBRANCH   3   7
ENDBRANCH   2   3
TORSDOF 7
ENDMDL
MODEL      173
REMARK 921   NORMALIZED FREE ENERGY PREDICTED BY IDOCK:   -3.50 KCAL/MOL
REMARK 922        TOTAL FREE ENERGY PREDICTED BY IDOCK:   -6.25 KCAL/MOL
REMARK 923 INTER-LIGAND FREE ENERGY PREDICTED BY IDOCK:   -5.69 KCAL/MOL
REMARK 924 INTRA-LIGAND FREE ENERGY PREDICTED BY IDOCK:   -0.56 KCAL/MOL
REMARK 927      BINDING AFFINITY PREDICTED BY RF-SCORE:    0.00 PKD
ROOT
HETATM    1  C   UNL     1     -11.935  13.587  69.298  1.00  0.00    -0.378 C  
HETATM    2  C   UNL     1     -10.620  13.834  68.576  1.00  0.00    -0.253 C  
ENDROOT
BRANCH   2   3
HETATM    3  N   UNL     1     -10.564  13.274  67.130  1.00  0.00    -0.258 N  
HETATM    4  C   UNL     1     -12.000  13.033  66.633  1.00  0.00    -0.387 C  
BRANCH   3   5
HETATM    5  C   UNL     1      -9.856  14.224  66.146  1.00  0.00    -0.316 C  
HETATM    6  C   UNL     1     -10.690  14.570  64.922  1.00  0.00    -0.448 C  
ENDBRANCH   3   5
BRANCH   3   7
HETATM    7  C   UNL     1      -9.844  11.898  67.240  1.00  0.00    -0.187 C  
BRANCH   7   8
HETATM    8  C   UNL     1     -10.173  10.917  66.112  1.00  0.00    -0.249 C  
BRANCH   8   9
HETATM    9  O   UNL     1      -9.971   9.564  66.526  1.00  0.00    -0.225 OA 
BRANCH   9  10
HETATM   10  C   UNL     1      -8.665   9.154  66.487  1.00  0.00    -0.128 C  
HETATM   11  O   UNL     1      -7.774   9.804  65.952  1.00  0.00    -0.101 OA 
BRANCH  10  12
HETATM   12  C   UNL     1      -8.452   7.898  67.324  1.00  0.00    -0.121 C  
HETATM   13  C   UNL     1      -9.203   8.077  68.624  1.00  0.00    -0.143 A  
HETATM   14  C   UNL     1      -8.881   9.137  69.492  1.00  0.00    -0.149 A  
HETATM   15  C   UNL     1      -9.666   9.392  70.615  1.00  0.00    -0.336 A  
HETATM   16  C   UNL     1     -10.762   8.580  70.894  1.00  0.00    -0.268 A  
HETATM   17  C   UNL     1     -11.075   7.515  70.048  1.00  0.00    -0.219 A  
HETATM   18  C   UNL     1     -10.304   7.270  68.911  1.00  0.00    -0.201 A  
HETATM   19  O   UNL     1     -10.712   6.230  68.112  1.00  0.00    -0.233 OA 
HETATM   20  C   UNL     1      -9.982   5.930  66.987  1.00  0.00    -0.166 A  
HETATM   21  C   UNL     1     -10.414   4.825  66.251  1.00  0.00    -0.311 A  
HETATM   22  C   UNL     1      -9.744   4.452  65.087  1.00  0.00    -0.186 A  
HETATM   23  C   UNL     1      -8.632   5.176  64.660  1.00  0.00    -0.142 A  
HETATM   24  C   UNL     1      -8.194   6.277  65.397  1.00  0.00    -0.142 A  
HETATM   25  C   UNL     1      -8.876   6.669  66.562  1.00  0.00    -0.144 A  
ENDBRANCH  10  12
ENDBRANCH   9  10
ENDBRANCH   8   9
ENDBRANCH   7   8
ENDBRANCH   3   7
ENDBRANCH   2   3
TORSDOF 7
ENDMDL
MODEL      174
REMARK 921   NORMALIZED FREE ENERGY PREDICTED BY IDOCK:   -3.49 KCAL/MOL
REMARK 922        TOTAL FREE ENERGY PREDICTED BY IDOCK:   -6.23 KCAL/MOL
REMARK 923 INTER-LIGAND FREE ENERGY PREDICTED BY IDOCK:   -5.18 KCAL/MOL
REMARK 924 INTRA-LIGAND FREE ENERGY PREDICTED BY IDOCK:   -1.05 KCAL/MOL
REMARK 927      BINDING AFFINITY PREDICTED BY RF-SCORE:    0.00 PKD
ROOT
HETATM    1  C   UNL     1     -11.421  13.172  66.482  1.00  0.00    -0.378 C  
HETATM    2  C   UNL     1     -10.162  12.851  65.692  1.00  0.00    -0.285 C  
ENDROOT
BRANCH   2   3
HETATM    3  N   UNL     1      -9.449  11.542  66.123  1.00  0.00    -0.215 N  
HETATM    4  C   UNL     1      -9.228  10.662  64.879  1.00  0.00    -0.217 C  
BRANCH   3   5
HETATM    5  C   UNL     1      -8.085  11.795  66.793  1.00  0.00    -0.133 C  
HETATM    6  C   UNL     1      -7.944  11.142  68.160  1.00  0.00    -0.125 C  
ENDBRANCH   3   5
BRANCH   3   7
HETATM    7  C   UNL     1     -10.444  10.814  67.072  1.00  0.00    -0.247 C  
BRANCH   7   8
HETATM    8  C   UNL     1     -10.634   9.325  66.771  1.00  0.00    -0.137 C  
BRANCH   8   9
HETATM    9  O   UNL     1     -10.652   8.551  67.973  1.00  0.00    -0.207 OA 
BRANCH   9  10
HETATM   10  C   UNL     1     -10.570   7.199  67.772  1.00  0.00    -0.225 C  
HETATM   11  O   UNL     1     -10.914   6.655  66.729  1.00  0.00    -0.347 OA 
BRANCH  10  12
HETATM   12  C   UNL     1      -9.855   6.508  68.927  1.00  0.00    -0.142 C  
HETATM   13  C   UNL     1      -8.381   6.829  68.817  1.00  0.00    -0.121 A  
HETATM   14  C   UNL     1      -7.654   6.448  67.674  1.00  0.00    -0.101 A  
HETATM   15  C   UNL     1      -6.336   6.871  67.504  1.00  0.00    -0.045 A  
HETATM   16  C   UNL     1      -5.728   7.656  68.480  1.00  0.00    -0.027 A  
HETATM   17  C   UNL     1      -6.438   8.020  69.625  1.00  0.00    -0.037 A  
HETATM   18  C   UNL     1      -7.764   7.617  69.788  1.00  0.00    -0.098 A  
HETATM   19  O   UNL     1      -8.399   8.060  70.923  1.00  0.00    -0.112 OA 
HETATM   20  C   UNL     1      -9.701   7.680  71.147  1.00  0.00    -0.162 A  
HETATM   21  C   UNL     1     -10.269   8.114  72.347  1.00  0.00    -0.368 A  
HETATM   22  C   UNL     1     -11.589   7.790  72.655  1.00  0.00    -0.398 A  
HETATM   23  C   UNL     1     -12.343   7.021  71.770  1.00  0.00    -0.391 A  
HETATM   24  C   UNL     1     -11.776   6.581  70.574  1.00  0.00    -0.438 A  
HETATM   25  C   UNL     1     -10.452   6.920  70.248  1.00  0.00    -0.227 A  
ENDBRANCH  10  12
ENDBRANCH   9  10
ENDBRANCH   8   9
ENDBRANCH   7   8
ENDBRANCH   3   7
ENDBRANCH   2   3
TORSDOF 7
ENDMDL
MODEL      175
REMARK 921   NORMALIZED FREE ENERGY PREDICTED BY IDOCK:   -3.48 KCAL/MOL
REMARK 922        TOTAL FREE ENERGY PREDICTED BY IDOCK:   -6.23 KCAL/MOL
REMARK 923 INTER-LIGAND FREE ENERGY PREDICTED BY IDOCK:   -5.02 KCAL/MOL
REMARK 924 INTRA-LIGAND FREE ENERGY PREDICTED BY IDOCK:   -1.21 KCAL/MOL
REMARK 927      BINDING AFFINITY PREDICTED BY RF-SCORE:    0.00 PKD
ROOT
HETATM    1  C   UNL     1      -9.832   9.438  65.724  1.00  0.00    -0.345 C  
HETATM    2  C   UNL     1     -10.043   9.561  67.224  1.00  0.00    -0.215 C  
ENDROOT
BRANCH   2   3
HETATM    3  N   UNL     1      -8.822  10.122  68.001  1.00  0.00    -0.125 N  
HETATM    4  C   UNL     1      -7.720   9.049  68.041  1.00  0.00    -0.097 C  
BRANCH   3   5
HETATM    5  C   UNL     1      -8.241  11.399  67.365  1.00  0.00    -0.145 C  
HETATM    6  C   UNL     1      -6.724  11.394  67.257  1.00  0.00    -0.111 C  
ENDBRANCH   3   5
BRANCH   3   7
HETATM    7  C   UNL     1      -9.325  10.366  69.454  1.00  0.00    -0.167 C  
BRANCH   7   8
HETATM    8  C   UNL     1     -10.634   9.652  69.801  1.00  0.00    -0.242 C  
BRANCH   8   9
HETATM    9  O   UNL     1     -10.405   8.544  70.675  1.00  0.00    -0.192 OA 
BRANCH   9  10
HETATM   10  C   UNL     1     -11.522   7.796  70.937  1.00  0.00    -0.279 C  
HETATM   11  O   UNL     1     -12.648   8.275  71.006  1.00  0.00    -0.202 OA 
BRANCH  10  12
HETATM   12  C   UNL     1     -11.199   6.307  70.961  1.00  0.00    -0.372 C  
HETATM   13  C   UNL     1     -10.545   5.954  69.643  1.00  0.00    -0.383 A  
HETATM   14  C   UNL     1     -11.236   6.146  68.433  1.00  0.00    -0.215 A  
HETATM   15  C   UNL     1     -10.586   5.963  67.213  1.00  0.00    -0.365 A  
HETATM   16  C   UNL     1      -9.251   5.567  67.192  1.00  0.00    -0.111 A  
HETATM   17  C   UNL     1      -8.566   5.356  68.390  1.00  0.00    -0.095 A  
HETATM   18  C   UNL     1      -9.207   5.559  69.612  1.00  0.00    -0.132 A  
HETATM   19  O   UNL     1      -8.444   5.373  70.739  1.00  0.00    -0.116 OA 
HETATM   20  C   UNL     1      -9.027   5.542  71.971  1.00  0.00    -0.134 A  
HETATM   21  C   UNL     1      -8.214   5.280  73.076  1.00  0.00    -0.112 A  
HETATM   22  C   UNL     1      -8.713   5.436  74.368  1.00  0.00    -0.118 A  
HETATM   23  C   UNL     1     -10.031   5.845  74.560  1.00  0.00    -0.301 A  
HETATM   24  C   UNL     1     -10.848   6.102  73.459  1.00  0.00    -0.207 A  
HETATM   25  C   UNL     1     -10.345   5.964  72.154  1.00  0.00    -0.241 A  
ENDBRANCH  10  12
ENDBRANCH   9  10
ENDBRANCH   8   9
ENDBRANCH   7   8
ENDBRANCH   3   7
ENDBRANCH   2   3
TORSDOF 7
ENDMDL
MODEL      176
REMARK 921   NORMALIZED FREE ENERGY PREDICTED BY IDOCK:   -3.46 KCAL/MOL
REMARK 922        TOTAL FREE ENERGY PREDICTED BY IDOCK:   -6.20 KCAL/MOL
REMARK 923 INTER-LIGAND FREE ENERGY PREDICTED BY IDOCK:   -5.10 KCAL/MOL
REMARK 924 INTRA-LIGAND FREE ENERGY PREDICTED BY IDOCK:   -1.10 KCAL/MOL
REMARK 927      BINDING AFFINITY PREDICTED BY RF-SCORE:    0.00 PKD
ROOT
HETATM    1  C   UNL     1     -12.396  12.743  65.227  1.00  0.00    -0.546 C  
HETATM    2  C   UNL     1     -11.247  12.337  66.135  1.00  0.00    -0.328 C  
ENDROOT
BRANCH   2   3
HETATM    3  N   UNL     1     -10.918  13.362  67.253  1.00  0.00    -0.269 N  
HETATM    4  C   UNL     1     -11.902  14.541  67.155  1.00  0.00    -0.387 C  
BRANCH   3   5
HETATM    5  C   UNL     1     -11.015  12.758  68.667  1.00  0.00    -0.260 C  
HETATM    6  C   UNL     1     -12.001  13.478  69.574  1.00  0.00    -0.390 C  
ENDBRANCH   3   5
BRANCH   3   7
HETATM    7  C   UNL     1      -9.487  13.886  66.935  1.00  0.00    -0.258 C  
BRANCH   7   8
HETATM    8  C   UNL     1      -8.414  13.451  67.935  1.00  0.00    -0.173 C  
BRANCH   8   9
HETATM    9  O   UNL     1      -7.397  12.672  67.301  1.00  0.00    -0.148 OA 
BRANCH   9  10
HETATM   10  C   UNL     1      -6.698  11.860  68.154  1.00  0.00    -0.062 C  
HETATM   11  O   UNL     1      -6.149  12.270  69.170  1.00  0.00    -0.070 OA 
BRANCH  10  12
HETATM   12  C   UNL     1      -6.839  10.394  67.764  1.00  0.00    -0.074 C  
HETATM   13  C   UNL     1      -8.153   9.891  68.319  1.00  0.00    -0.104 A  
HETATM   14  C   UNL     1      -8.394   9.913  69.706  1.00  0.00    -0.196 A  
HETATM   15  C   UNL     1      -9.655   9.591  70.207  1.00  0.00    -0.314 A  
HETATM   16  C   UNL     1     -10.676   9.226  69.334  1.00  0.00    -0.222 A  
HETATM   17  C   UNL     1     -10.437   9.184  67.959  1.00  0.00    -0.276 A  
HETATM   18  C   UNL     1      -9.183   9.526  67.452  1.00  0.00    -0.133 A  
HETATM   19  O   UNL     1      -9.052   9.501  66.085  1.00  0.00    -0.148 OA 
HETATM   20  C   UNL     1      -7.834   9.812  65.529  1.00  0.00    -0.120 A  
HETATM   21  C   UNL     1      -7.751   9.709  64.139  1.00  0.00    -0.129 A  
HETATM   22  C   UNL     1      -6.559  10.017  63.483  1.00  0.00    -0.132 A  
HETATM   23  C   UNL     1      -5.444  10.417  64.216  1.00  0.00    -0.145 A  
HETATM   24  C   UNL     1      -5.522  10.514  65.606  1.00  0.00    -0.109 A  
HETATM   25  C   UNL     1      -6.725  10.223  66.271  1.00  0.00    -0.105 A  
ENDBRANCH  10  12
ENDBRANCH   9  10
ENDBRANCH   8   9
ENDBRANCH   7   8
ENDBRANCH   3   7
ENDBRANCH   2   3
TORSDOF 7
ENDMDL
MODEL      177
REMARK 921   NORMALIZED FREE ENERGY PREDICTED BY IDOCK:   -3.44 KCAL/MOL
REMARK 922        TOTAL FREE ENERGY PREDICTED BY IDOCK:   -6.17 KCAL/MOL
REMARK 923 INTER-LIGAND FREE ENERGY PREDICTED BY IDOCK:   -5.25 KCAL/MOL
REMARK 924 INTRA-LIGAND FREE ENERGY PREDICTED BY IDOCK:   -0.92 KCAL/MOL
REMARK 927      BINDING AFFINITY PREDICTED BY RF-SCORE:    0.00 PKD
ROOT
HETATM    1  C   UNL     1      -9.274   3.755  68.187  1.00  0.00    -0.214 C  
HETATM    2  C   UNL     1      -9.944   4.902  67.448  1.00  0.00    -0.168 C  
ENDROOT
BRANCH   2   3
HETATM    3  N   UNL     1      -9.639   6.308  68.031  1.00  0.00    -0.115 N  
HETATM    4  C   UNL     1     -10.959   6.958  68.481  1.00  0.00    -0.136 C  
BRANCH   3   5
HETATM    5  C   UNL     1      -8.678   6.263  69.234  1.00  0.00    -0.124 C  
HETATM    6  C   UNL     1      -7.805   7.502  69.368  1.00  0.00    -0.121 C  
ENDBRANCH   3   5
BRANCH   3   7
HETATM    7  C   UNL     1      -9.060   7.137  66.847  1.00  0.00    -0.141 C  
BRANCH   7   8
HETATM    8  C   UNL     1      -9.910   8.343  66.442  1.00  0.00    -0.240 C  
BRANCH   8   9
HETATM    9  O   UNL     1      -9.447   8.916  65.216  1.00  0.00    -0.130 OA 
BRANCH   9  10
HETATM   10  C   UNL     1      -8.928  10.176  65.346  1.00  0.00    -0.177 C  
HETATM   11  O   UNL     1      -7.925  10.553  64.751  1.00  0.00    -0.135 OA 
BRANCH  10  12
HETATM   12  C   UNL     1      -9.841  11.069  66.178  1.00  0.00    -0.268 C  
HETATM   13  C   UNL     1      -8.974  11.851  67.139  1.00  0.00    -0.178 A  
HETATM   14  C   UNL     1      -8.177  11.181  68.086  1.00  0.00    -0.131 A  
HETATM   15  C   UNL     1      -7.268  11.889  68.870  1.00  0.00    -0.098 A  
HETATM   16  C   UNL     1      -7.161  13.270  68.732  1.00  0.00    -0.088 A  
HETATM   17  C   UNL     1      -7.963  13.943  67.808  1.00  0.00    -0.174 A  
HETATM   18  C   UNL     1      -8.858  13.235  67.006  1.00  0.00    -0.212 A  
HETATM   19  O   UNL     1      -9.572  13.973  66.094  1.00  0.00    -0.286 OA 
HETATM   20  C   UNL     1     -10.483  13.332  65.288  1.00  0.00    -0.313 A  
HETATM   21  C   UNL     1     -11.219  14.146  64.425  1.00  0.00    -0.290 A  
HETATM   22  C   UNL     1     -12.157  13.585  63.560  1.00  0.00    -0.425 A  
HETATM   23  C   UNL     1     -12.371  12.207  63.564  1.00  0.00    -0.682 A  
HETATM   24  C   UNL     1     -11.642  11.392  64.429  1.00  0.00    -0.075 A  
HETATM   25  C   UNL     1     -10.682  11.950  65.291  1.00  0.00    -0.331 A  
ENDBRANCH  10  12
ENDBRANCH   9  10
ENDBRANCH   8   9
ENDBRANCH   7   8
ENDBRANCH   3   7
ENDBRANCH   2   3
TORSDOF 7
ENDMDL
MODEL      178
REMARK 921   NORMALIZED FREE ENERGY PREDICTED BY IDOCK:   -3.44 KCAL/MOL
REMARK 922        TOTAL FREE ENERGY PREDICTED BY IDOCK:   -6.17 KCAL/MOL
REMARK 923 INTER-LIGAND FREE ENERGY PREDICTED BY IDOCK:   -6.16 KCAL/MOL
REMARK 924 INTRA-LIGAND FREE ENERGY PREDICTED BY IDOCK:   -0.01 KCAL/MOL
REMARK 927      BINDING AFFINITY PREDICTED BY RF-SCORE:    0.00 PKD
ROOT
HETATM    1  C   UNL     1      -6.010  20.931  68.236  1.00  0.00    -0.388 C  
HETATM    2  C   UNL     1      -7.030  20.934  67.109  1.00  0.00    -0.364 C  
ENDROOT
BRANCH   2   3
HETATM    3  N   UNL     1      -7.819  19.607  66.952  1.00  0.00    -0.264 N  
HETATM    4  C   UNL     1      -9.202  19.917  66.352  1.00  0.00    -0.380 C  
BRANCH   3   5
HETATM    5  C   UNL     1      -7.106  18.589  66.042  1.00  0.00    -0.271 C  
HETATM    6  C   UNL     1      -6.284  17.559  66.801  1.00  0.00    -0.218 C  
ENDBRANCH   3   5
BRANCH   3   7
HETATM    7  C   UNL     1      -8.020  19.064  68.397  1.00  0.00    -0.340 C  
BRANCH   7   8
HETATM    8  C   UNL     1      -9.401  18.460  68.662  1.00  0.00    -0.318 C  
BRANCH   8   9
HETATM    9  O   UNL     1      -9.307  17.070  68.982  1.00  0.00    -0.248 OA 
BRANCH   9  10
HETATM   10  C   UNL     1     -10.305  16.301  68.446  1.00  0.00    -0.271 C  
HETATM   11  O   UNL     1     -11.286  16.774  67.882  1.00  0.00    -0.249 OA 
BRANCH  10  12
HETATM   12  C   UNL     1      -9.953  14.819  68.496  1.00  0.00    -0.228 C  
HETATM   13  C   UNL     1     -10.523  14.165  67.257  1.00  0.00    -0.272 A  
HETATM   14  C   UNL     1     -11.909  14.190  67.014  1.00  0.00    -0.458 A  
HETATM   15  C   UNL     1     -12.421  13.721  65.806  1.00  0.00    -0.527 A  
HETATM   16  C   UNL     1     -11.560  13.205  64.841  1.00  0.00    -0.356 A  
HETATM   17  C   UNL     1     -10.186  13.160  65.085  1.00  0.00    -0.299 A  
HETATM   18  C   UNL     1      -9.668  13.648  66.284  1.00  0.00    -0.283 A  
HETATM   19  O   UNL     1      -8.302  13.606  66.419  1.00  0.00     0.302 OA 
HETATM   20  C   UNL     1      -7.735  14.057  67.587  1.00  0.00    -0.177 A  
HETATM   21  C   UNL     1      -6.348  13.932  67.685  1.00  0.00    -0.140 A  
HETATM   22  C   UNL     1      -5.681  14.374  68.827  1.00  0.00    -0.086 A  
HETATM   23  C   UNL     1      -6.402  14.934  69.880  1.00  0.00    -0.157 A  
HETATM   24  C   UNL     1      -7.789  15.055  69.788  1.00  0.00    -0.007 A  
HETATM   25  C   UNL     1      -8.464  14.628  68.632  1.00  0.00    -0.164 A  
ENDBRANCH  10  12
ENDBRANCH   9  10
ENDBRANCH   8   9
ENDBRANCH   7   8
ENDBRANCH   3   7
ENDBRANCH   2   3
TORSDOF 7
ENDMDL
MODEL      179
REMARK 921   NORMALIZED FREE ENERGY PREDICTED BY IDOCK:   -3.44 KCAL/MOL
REMARK 922        TOTAL FREE ENERGY PREDICTED BY IDOCK:   -6.16 KCAL/MOL
REMARK 923 INTER-LIGAND FREE ENERGY PREDICTED BY IDOCK:   -5.33 KCAL/MOL
REMARK 924 INTRA-LIGAND FREE ENERGY PREDICTED BY IDOCK:   -0.83 KCAL/MOL
REMARK 927      BINDING AFFINITY PREDICTED BY RF-SCORE:    0.00 PKD
ROOT
HETATM    1  C   UNL     1     -10.920   6.171  67.807  1.00  0.00    -0.400 C  
HETATM    2  C   UNL     1     -10.208   7.472  68.141  1.00  0.00    -0.189 C  
ENDROOT
BRANCH   2   3
HETATM    3  N   UNL     1      -9.461   7.465  69.502  1.00  0.00    -0.156 N  
HETATM    4  C   UNL     1     -10.417   7.966  70.599  1.00  0.00    -0.213 C  
BRANCH   3   5
HETATM    5  C   UNL     1      -8.949   6.067  69.898  1.00  0.00    -0.141 C  
HETATM    6  C   UNL     1      -9.403   5.618  71.279  1.00  0.00    -0.171 C  
ENDBRANCH   3   5
BRANCH   3   7
HETATM    7  C   UNL     1      -8.302   8.494  69.350  1.00  0.00    -0.119 C  
BRANCH   7   8
HETATM    8  C   UNL     1      -8.600   9.876  69.936  1.00  0.00    -0.194 C  
BRANCH   8   9
HETATM    9  O   UNL     1      -8.902  10.822  68.908  1.00  0.00    -0.154 OA 
BRANCH   9  10
HETATM   10  C   UNL     1      -7.906  11.733  68.674  1.00  0.00    -0.117 C  
HETATM   11  O   UNL     1      -6.856  11.755  69.306  1.00  0.00    -0.108 OA 
BRANCH  10  12
HETATM   12  C   UNL     1      -8.208  12.580  67.443  1.00  0.00    -0.183 C  
HETATM   13  C   UNL     1      -8.584  11.642  66.317  1.00  0.00    -0.103 A  
HETATM   14  C   UNL     1      -7.670  10.673  65.863  1.00  0.00    -0.146 A  
HETATM   15  C   UNL     1      -8.064   9.714  64.932  1.00  0.00    -0.133 A  
HETATM   16  C   UNL     1      -9.363   9.727  64.430  1.00  0.00    -0.278 A  
HETATM   17  C   UNL     1     -10.268  10.699  64.862  1.00  0.00    -0.395 A  
HETATM   18  C   UNL     1      -9.883  11.647  65.810  1.00  0.00    -0.239 A  
HETATM   19  O   UNL     1     -10.852  12.535  66.211  1.00  0.00    -0.258 OA 
HETATM   20  C   UNL     1     -10.526  13.502  67.130  1.00  0.00    -0.256 A  
HETATM   21  C   UNL     1     -11.538  14.410  67.450  1.00  0.00    -0.398 A  
HETATM   22  C   UNL     1     -11.306  15.420  68.383  1.00  0.00    -0.345 A  
HETATM   23  C   UNL     1     -10.057  15.532  68.992  1.00  0.00    -0.234 A  
HETATM   24  C   UNL     1      -9.042  14.631  68.670  1.00  0.00    -0.189 A  
HETATM   25  C   UNL     1      -9.276  13.600  67.743  1.00  0.00    -0.214 A  
ENDBRANCH  10  12
ENDBRANCH   9  10
ENDBRANCH   8   9
ENDBRANCH   7   8
ENDBRANCH   3   7
ENDBRANCH   2   3
TORSDOF 7
ENDMDL
MODEL      180
REMARK 921   NORMALIZED FREE ENERGY PREDICTED BY IDOCK:   -3.41 KCAL/MOL
REMARK 922        TOTAL FREE ENERGY PREDICTED BY IDOCK:   -6.13 KCAL/MOL
REMARK 923 INTER-LIGAND FREE ENERGY PREDICTED BY IDOCK:   -5.18 KCAL/MOL
REMARK 924 INTRA-LIGAND FREE ENERGY PREDICTED BY IDOCK:   -0.95 KCAL/MOL
REMARK 927      BINDING AFFINITY PREDICTED BY RF-SCORE:    0.00 PKD
ROOT
HETATM    1  C   UNL     1     -10.959   5.501  72.517  1.00  0.00    -0.316 C  
HETATM    2  C   UNL     1     -10.503   6.753  71.786  1.00  0.00    -0.207 C  
ENDROOT
BRANCH   2   3
HETATM    3  N   UNL     1     -11.651   7.710  71.369  1.00  0.00    -0.267 N  
HETATM    4  C   UNL     1     -12.953   6.899  71.239  1.00  0.00    -0.244 C  
BRANCH   3   5
HETATM    5  C   UNL     1     -11.880   8.849  72.380  1.00  0.00    -0.222 C  
HETATM    6  C   UNL     1     -13.185   9.601  72.169  1.00  0.00    -0.535 C  
ENDBRANCH   3   5
BRANCH   3   7
HETATM    7  C   UNL     1     -11.261   8.244  69.960  1.00  0.00    -0.081 C  
BRANCH   7   8
HETATM    8  C   UNL     1     -10.392   7.289  69.137  1.00  0.00    -0.205 C  
BRANCH   8   9
HETATM    9  O   UNL     1      -9.742   7.974  68.063  1.00  0.00    -0.152 OA 
BRANCH   9  10
HETATM   10  C   UNL     1      -8.596   8.629  68.428  1.00  0.00    -0.135 C  
HETATM   11  O   UNL     1      -7.812   8.194  69.264  1.00  0.00    -0.105 OA 
BRANCH  10  12
HETATM   12  C   UNL     1      -8.355   9.853  67.552  1.00  0.00    -0.114 C  
HETATM   13  C   UNL     1      -8.081   9.368  66.146  1.00  0.00    -0.111 A  
HETATM   14  C   UNL     1      -6.984   8.526  65.885  1.00  0.00    -0.071 A  
HETATM   15  C   UNL     1      -6.815   7.960  64.622  1.00  0.00    -0.062 A  
HETATM   16  C   UNL     1      -7.723   8.245  63.607  1.00  0.00    -0.146 A  
HETATM   17  C   UNL     1      -8.802   9.096  63.854  1.00  0.00    -0.104 A  
HETATM   18  C   UNL     1      -8.987   9.647  65.122  1.00  0.00    -0.207 A  
HETATM   19  O   UNL     1     -10.100  10.435  65.287  1.00  0.00    -0.293 OA 
HETATM   20  C   UNL     1     -10.325  11.020  66.510  1.00  0.00    -0.245 A  
HETATM   21  C   UNL     1     -11.440  11.856  66.595  1.00  0.00    -0.382 A  
HETATM   22  C   UNL     1     -11.757  12.483  67.799  1.00  0.00    -0.419 A  
HETATM   23  C   UNL     1     -10.952  12.285  68.920  1.00  0.00    -0.265 A  
HETATM   24  C   UNL     1      -9.834  11.455  68.837  1.00  0.00    -0.127 A  
HETATM   25  C   UNL     1      -9.520  10.806  67.631  1.00  0.00    -0.166 A  
ENDBRANCH  10  12
ENDBRANCH   9  10
ENDBRANCH   8   9
ENDBRANCH   7   8
ENDBRANCH   3   7
ENDBRANCH   2   3
TORSDOF 7
ENDMDL
MODEL      181
REMARK 921   NORMALIZED FREE ENERGY PREDICTED BY IDOCK:   -3.39 KCAL/MOL
REMARK 922        TOTAL FREE ENERGY PREDICTED BY IDOCK:   -6.10 KCAL/MOL
REMARK 923 INTER-LIGAND FREE ENERGY PREDICTED BY IDOCK:   -4.99 KCAL/MOL
REMARK 924 INTRA-LIGAND FREE ENERGY PREDICTED BY IDOCK:   -1.10 KCAL/MOL
REMARK 927      BINDING AFFINITY PREDICTED BY RF-SCORE:    0.00 PKD
ROOT
HETATM    1  C   UNL     1      -8.175   7.247  65.732  1.00  0.00    -0.135 C  
HETATM    2  C   UNL     1      -6.871   8.010  65.569  1.00  0.00    -0.059 C  
ENDROOT
BRANCH   2   3
HETATM    3  N   UNL     1      -6.954   9.230  64.613  1.00  0.00    -0.090 N  
HETATM    4  C   UNL     1      -5.568   9.894  64.531  1.00  0.00    -0.090 C  
BRANCH   3   5
HETATM    5  C   UNL     1      -7.400   8.847  63.190  1.00  0.00    -0.098 C  
HETATM    6  C   UNL     1      -8.670   9.551  62.736  1.00  0.00    -0.232 C  
ENDBRANCH   3   5
BRANCH   3   7
HETATM    7  C   UNL     1      -7.939  10.227  65.290  1.00  0.00    -0.148 C  
BRANCH   7   8
HETATM    8  C   UNL     1      -7.342  11.014  66.460  1.00  0.00    -0.144 C  
BRANCH   8   9
HETATM    9  O   UNL     1      -8.091  12.203  66.721  1.00  0.00    -0.147 OA 
BRANCH   9  10
HETATM   10  C   UNL     1      -8.239  12.491  68.052  1.00  0.00    -0.166 C  
HETATM   11  O   UNL     1      -7.378  13.058  68.715  1.00  0.00    -0.105 OA 
BRANCH  10  12
HETATM   12  C   UNL     1      -9.649  12.171  68.535  1.00  0.00    -0.137 C  
HETATM   13  C   UNL     1     -10.624  12.811  67.573  1.00  0.00    -0.240 A  
HETATM   14  C   UNL     1     -10.625  14.205  67.383  1.00  0.00    -0.279 A  
HETATM   15  C   UNL     1     -11.417  14.781  66.391  1.00  0.00    -0.319 A  
HETATM   16  C   UNL     1     -12.230  13.975  65.598  1.00  0.00    -0.462 A  
HETATM   17  C   UNL     1     -12.248  12.593  65.795  1.00  0.00    -0.427 A  
HETATM   18  C   UNL     1     -11.440  12.012  66.772  1.00  0.00    -0.345 A  
HETATM   19  O   UNL     1     -11.488  10.642  66.865  1.00  0.00    -0.241 OA 
HETATM   20  C   UNL     1     -10.727  10.014  67.821  1.00  0.00    -0.280 A  
HETATM   21  C   UNL     1     -10.866   8.627  67.903  1.00  0.00    -0.061 A  
HETATM   22  C   UNL     1     -10.124   7.901  68.834  1.00  0.00    -0.203 A  
HETATM   23  C   UNL     1      -9.248   8.561  69.694  1.00  0.00    -0.157 A  
HETATM   24  C   UNL     1      -9.111   9.947  69.619  1.00  0.00    -0.245 A  
HETATM   25  C   UNL     1      -9.843  10.683  68.671  1.00  0.00    -0.183 A  
ENDBRANCH  10  12
ENDBRANCH   9  10
ENDBRANCH   8   9
ENDBRANCH   7   8
ENDBRANCH   3   7
ENDBRANCH   2   3
TORSDOF 7
ENDMDL
MODEL      182
REMARK 921   NORMALIZED FREE ENERGY PREDICTED BY IDOCK:   -3.39 KCAL/MOL
REMARK 922        TOTAL FREE ENERGY PREDICTED BY IDOCK:   -6.09 KCAL/MOL
REMARK 923 INTER-LIGAND FREE ENERGY PREDICTED BY IDOCK:   -6.30 KCAL/MOL
REMARK 924 INTRA-LIGAND FREE ENERGY PREDICTED BY IDOCK:    0.21 KCAL/MOL
REMARK 927      BINDING AFFINITY PREDICTED BY RF-SCORE:    0.00 PKD
ROOT
HETATM    1  C   UNL     1     -13.438  15.960  72.882  1.00  0.00    -0.637 C  
HETATM    2  C   UNL     1     -13.810  15.108  71.679  1.00  0.00    -0.503 C  
ENDROOT
BRANCH   2   3
HETATM    3  N   UNL     1     -12.606  14.427  70.975  1.00  0.00    -0.326 N  
HETATM    4  C   UNL     1     -11.303  15.071  71.481  1.00  0.00    -0.269 C  
BRANCH   3   5
HETATM    5  C   UNL     1     -12.538  12.911  71.235  1.00  0.00    -0.256 C  
HETATM    6  C   UNL     1     -13.466  12.438  72.345  1.00  0.00    -0.294 C  
ENDBRANCH   3   5
BRANCH   3   7
HETATM    7  C   UNL     1     -12.764  14.758  69.462  1.00  0.00     0.133 C  
BRANCH   7   8
HETATM    8  C   UNL     1     -11.466  14.673  68.655  1.00  0.00    -0.300 C  
BRANCH   8   9
HETATM    9  O   UNL     1     -10.952  13.339  68.637  1.00  0.00    -0.248 OA 
BRANCH   9  10
HETATM   10  C   UNL     1     -10.974  12.746  67.402  1.00  0.00    -0.253 C  
HETATM   11  O   UNL     1     -11.929  12.101  66.986  1.00  0.00    -0.593 OA 
BRANCH  10  12
HETATM   12  C   UNL     1      -9.751  13.134  66.579  1.00  0.00    -0.268 C  
HETATM   13  C   UNL     1      -9.996  14.512  66.007  1.00  0.00    -0.343 A  
HETATM   14  C   UNL     1     -11.087  14.742  65.148  1.00  0.00    -0.389 A  
HETATM   15  C   UNL     1     -11.401  16.036  64.738  1.00  0.00    -0.285 A  
HETATM   16  C   UNL     1     -10.620  17.107  65.164  1.00  0.00     0.031 A  
HETATM   17  C   UNL     1      -9.525  16.883  66.001  1.00  0.00    -0.227 A  
HETATM   18  C   UNL     1      -9.220  15.591  66.430  1.00  0.00    -0.305 A  
HETATM   19  O   UNL     1      -8.154  15.471  67.287  1.00  0.00    -0.164 OA 
HETATM   20  C   UNL     1      -7.796  14.220  67.730  1.00  0.00    -0.165 A  
HETATM   21  C   UNL     1      -6.668  14.159  68.551  1.00  0.00    -0.101 A  
HETATM   22  C   UNL     1      -6.235  12.935  69.060  1.00  0.00    -0.095 A  
HETATM   23  C   UNL     1      -6.923  11.766  68.739  1.00  0.00    -0.103 A  
HETATM   24  C   UNL     1      -8.046  11.822  67.914  1.00  0.00    -0.144 A  
HETATM   25  C   UNL     1      -8.498  13.055  67.413  1.00  0.00    -0.200 A  
ENDBRANCH  10  12
ENDBRANCH   9  10
ENDBRANCH   8   9
ENDBRANCH   7   8
ENDBRANCH   3   7
ENDBRANCH   2   3
TORSDOF 7
ENDMDL
MODEL      183
REMARK 921   NORMALIZED FREE ENERGY PREDICTED BY IDOCK:   -3.39 KCAL/MOL
REMARK 922        TOTAL FREE ENERGY PREDICTED BY IDOCK:   -6.09 KCAL/MOL
REMARK 923 INTER-LIGAND FREE ENERGY PREDICTED BY IDOCK:   -5.34 KCAL/MOL
REMARK 924 INTRA-LIGAND FREE ENERGY PREDICTED BY IDOCK:   -0.75 KCAL/MOL
REMARK 927      BINDING AFFINITY PREDICTED BY RF-SCORE:    0.00 PKD
ROOT
HETATM    1  C   UNL     1      -6.047  17.358  66.174  1.00  0.00    -0.186 C  
HETATM    2  C   UNL     1      -7.407  18.018  66.332  1.00  0.00    -0.257 C  
ENDROOT
BRANCH   2   3
HETATM    3  N   UNL     1      -8.460  17.154  67.075  1.00  0.00    -0.202 N  
HETATM    4  C   UNL     1      -8.091  17.093  68.568  1.00  0.00    -0.260 C  
BRANCH   3   5
HETATM    5  C   UNL     1      -9.891  17.710  66.945  1.00  0.00    -0.306 C  
HETATM    6  C   UNL     1     -10.002  19.193  67.260  1.00  0.00    -0.436 C  
ENDBRANCH   3   5
BRANCH   3   7
HETATM    7  C   UNL     1      -8.328  15.724  66.475  1.00  0.00    -0.278 C  
BRANCH   7   8
HETATM    8  C   UNL     1      -9.547  15.255  65.677  1.00  0.00    -0.278 C  
BRANCH   8   9
HETATM    9  O   UNL     1      -9.487  13.851  65.415  1.00  0.00    -0.005 OA 
BRANCH   9  10
HETATM   10  C   UNL     1     -10.539  13.372  64.681  1.00  0.00    -0.415 C  
HETATM   11  O   UNL     1     -11.021  13.974  63.729  1.00  0.00     0.258 OA 
BRANCH  10  12
HETATM   12  C   UNL     1     -10.903  11.951  65.096  1.00  0.00    -0.350 C  
HETATM   13  C   UNL     1      -9.838  11.023  64.554  1.00  0.00    -0.343 A  
HETATM   14  C   UNL     1      -9.607  10.938  63.169  1.00  0.00    -0.384 A  
HETATM   15  C   UNL     1      -8.531  10.200  62.678  1.00  0.00    -0.183 A  
HETATM   16  C   UNL     1      -7.693   9.525  63.561  1.00  0.00    -0.123 A  
HETATM   17  C   UNL     1      -7.929   9.590  64.935  1.00  0.00    -0.121 A  
HETATM   18  C   UNL     1      -8.992  10.345  65.431  1.00  0.00    -0.183 A  
HETATM   19  O   UNL     1      -9.121  10.389  66.798  1.00  0.00    -0.143 OA 
HETATM   20  C   UNL     1     -10.160  11.104  67.344  1.00  0.00    -0.185 A  
HETATM   21  C   UNL     1     -10.271  11.060  68.736  1.00  0.00    -0.211 A  
HETATM   22  C   UNL     1     -11.286  11.764  69.382  1.00  0.00    -0.300 A  
HETATM   23  C   UNL     1     -12.201  12.507  68.637  1.00  0.00     0.041 A  
HETATM   24  C   UNL     1     -12.097  12.548  67.247  1.00  0.00    -0.133 A  
HETATM   25  C   UNL     1     -11.065  11.855  66.591  1.00  0.00    -0.360 A  
ENDBRANCH  10  12
ENDBRANCH   9  10
ENDBRANCH   8   9
ENDBRANCH   7   8
ENDBRANCH   3   7
ENDBRANCH   2   3
TORSDOF 7
ENDMDL
MODEL      184
REMARK 921   NORMALIZED FREE ENERGY PREDICTED BY IDOCK:   -3.39 KCAL/MOL
REMARK 922        TOTAL FREE ENERGY PREDICTED BY IDOCK:   -6.09 KCAL/MOL
REMARK 923 INTER-LIGAND FREE ENERGY PREDICTED BY IDOCK:   -5.76 KCAL/MOL
REMARK 924 INTRA-LIGAND FREE ENERGY PREDICTED BY IDOCK:   -0.33 KCAL/MOL
REMARK 927      BINDING AFFINITY PREDICTED BY RF-SCORE:    0.00 PKD
ROOT
HETATM    1  C   UNL     1      -9.978  21.071  66.984  1.00  0.00     0.136 C  
HETATM    2  C   UNL     1      -9.525  19.798  66.288  1.00  0.00    -0.406 C  
ENDROOT
BRANCH   2   3
HETATM    3  N   UNL     1      -9.048  18.674  67.247  1.00  0.00    -0.274 N  
HETATM    4  C   UNL     1      -8.197  17.668  66.452  1.00  0.00    -0.263 C  
BRANCH   3   5
HETATM    5  C   UNL     1      -8.208  19.206  68.423  1.00  0.00    -0.349 C  
HETATM    6  C   UNL     1      -7.114  18.252  68.875  1.00  0.00    -0.286 C  
ENDBRANCH   3   5
BRANCH   3   7
HETATM    7  C   UNL     1     -10.342  17.954  67.726  1.00  0.00    -0.387 C  
BRANCH   7   8
HETATM    8  C   UNL     1     -10.576  16.581  67.093  1.00  0.00    -0.270 C  
BRANCH   8   9
HETATM    9  O   UNL     1     -11.796  15.997  67.555  1.00  0.00     0.162 OA 
BRANCH   9  10
HETATM   10  C   UNL     1     -11.833  14.631  67.467  1.00  0.00    -0.347 C  
HETATM   11  O   UNL     1     -12.182  14.033  66.456  1.00  0.00    -0.447 OA 
BRANCH  10  12
HETATM   12  C   UNL     1     -11.236  13.979  68.709  1.00  0.00    -0.298 C  
HETATM   13  C   UNL     1      -9.730  14.084  68.608  1.00  0.00    -0.179 A  
HETATM   14  C   UNL     1      -9.047  13.487  67.532  1.00  0.00    -0.214 A  
HETATM   15  C   UNL     1      -7.682  13.706  67.356  1.00  0.00    -0.156 A  
HETATM   16  C   UNL     1      -6.985  14.503  68.261  1.00  0.00    -0.111 A  
HETATM   17  C   UNL     1      -7.654  15.082  69.340  1.00  0.00    -0.195 A  
HETATM   18  C   UNL     1      -9.024  14.882  69.508  1.00  0.00     0.027 A  
HETATM   19  O   UNL     1      -9.608  15.526  70.571  1.00  0.00     0.291 OA 
HETATM   20  C   UNL     1     -10.952  15.353  70.796  1.00  0.00    -0.311 A  
HETATM   21  C   UNL     1     -11.472  15.987  71.927  1.00  0.00    -0.409 A  
HETATM   22  C   UNL     1     -12.829  15.880  72.231  1.00  0.00    -0.503 A  
HETATM   23  C   UNL     1     -13.668  15.128  71.410  1.00  0.00    -0.577 A  
HETATM   24  C   UNL     1     -13.151  14.489  70.284  1.00  0.00    -0.027 A  
HETATM   25  C   UNL     1     -11.788  14.608  69.962  1.00  0.00    -0.363 A  
ENDBRANCH  10  12
ENDBRANCH   9  10
ENDBRANCH   8   9
ENDBRANCH   7   8
ENDBRANCH   3   7
ENDBRANCH   2   3
TORSDOF 7
ENDMDL
MODEL      185
REMARK 921   NORMALIZED FREE ENERGY PREDICTED BY IDOCK:   -3.38 KCAL/MOL
REMARK 922        TOTAL FREE ENERGY PREDICTED BY IDOCK:   -6.08 KCAL/MOL
REMARK 923 INTER-LIGAND FREE ENERGY PREDICTED BY IDOCK:   -5.09 KCAL/MOL
REMARK 924 INTRA-LIGAND FREE ENERGY PREDICTED BY IDOCK:   -0.99 KCAL/MOL
REMARK 927      BINDING AFFINITY PREDICTED BY RF-SCORE:    0.00 PKD
ROOT
HETATM    1  C   UNL     1     -11.553  12.351  64.224  1.00  0.00    -0.436 C  
HETATM    2  C   UNL     1     -10.508  13.409  64.540  1.00  0.00    -0.413 C  
ENDROOT
BRANCH   2   3
HETATM    3  N   UNL     1     -10.961  14.473  65.575  1.00  0.00    -0.319 N  
HETATM    4  C   UNL     1     -11.026  15.846  64.884  1.00  0.00    -0.411 C  
BRANCH   3   5
HETATM    5  C   UNL     1     -12.341  14.165  66.186  1.00  0.00    -0.436 C  
HETATM    6  C   UNL     1     -12.344  14.129  67.707  1.00  0.00    -0.050 C  
ENDBRANCH   3   5
BRANCH   3   7
HETATM    7  C   UNL     1      -9.838  14.516  66.652  1.00  0.00    -0.273 C  
BRANCH   7   8
HETATM    8  C   UNL     1      -8.895  13.310  66.634  1.00  0.00    -0.058 C  
BRANCH   8   9
HETATM    9  O   UNL     1      -9.434  12.219  67.384  1.00  0.00    -0.175 OA 
BRANCH   9  10
HETATM   10  C   UNL     1      -8.587  11.149  67.503  1.00  0.00    -0.129 C  
HETATM   11  O   UNL     1      -7.396  11.263  67.767  1.00  0.00    -0.088 OA 
BRANCH  10  12
HETATM   12  C   UNL     1      -9.348   9.830  67.433  1.00  0.00    -0.155 C  
HETATM   13  C   UNL     1      -8.958   9.138  66.146  1.00  0.00    -0.211 A  
HETATM   14  C   UNL     1      -9.205   9.754  64.905  1.00  0.00    -0.314 A  
HETATM   15  C   UNL     1      -8.715   9.191  63.728  1.00  0.00    -0.150 A  
HETATM   16  C   UNL     1      -7.996   7.999  63.777  1.00  0.00    -0.123 A  
HETATM   17  C   UNL     1      -7.765   7.373  65.003  1.00  0.00    -0.114 A  
HETATM   18  C   UNL     1      -8.235   7.946  66.185  1.00  0.00    -0.117 A  
HETATM   19  O   UNL     1      -7.922   7.286  67.348  1.00  0.00    -0.109 OA 
HETATM   20  C   UNL     1      -8.373   7.794  68.543  1.00  0.00    -0.129 A  
HETATM   21  C   UNL     1      -8.072   7.044  69.682  1.00  0.00    -0.130 A  
HETATM   22  C   UNL     1      -8.477   7.486  70.940  1.00  0.00    -0.125 A  
HETATM   23  C   UNL     1      -9.194   8.675  71.063  1.00  0.00    -0.253 A  
HETATM   24  C   UNL     1      -9.502   9.423  69.927  1.00  0.00    -0.235 A  
HETATM   25  C   UNL     1      -9.081   8.992  68.657  1.00  0.00    -0.137 A  
ENDBRANCH  10  12
ENDBRANCH   9  10
ENDBRANCH   8   9
ENDBRANCH   7   8
ENDBRANCH   3   7
ENDBRANCH   2   3
TORSDOF 7
ENDMDL
MODEL      186
REMARK 921   NORMALIZED FREE ENERGY PREDICTED BY IDOCK:   -3.38 KCAL/MOL
REMARK 922        TOTAL FREE ENERGY PREDICTED BY IDOCK:   -6.08 KCAL/MOL
REMARK 923 INTER-LIGAND FREE ENERGY PREDICTED BY IDOCK:   -5.66 KCAL/MOL
REMARK 924 INTRA-LIGAND FREE ENERGY PREDICTED BY IDOCK:   -0.42 KCAL/MOL
REMARK 927      BINDING AFFINITY PREDICTED BY RF-SCORE:    0.00 PKD
ROOT
HETATM    1  C   UNL     1      -9.008  15.568  68.152  1.00  0.00    -0.179 C  
HETATM    2  C   UNL     1      -8.165  14.649  67.284  1.00  0.00    -0.212 C  
ENDROOT
BRANCH   2   3
HETATM    3  N   UNL     1      -6.822  14.209  67.927  1.00  0.00    -0.148 N  
HETATM    4  C   UNL     1      -5.743  15.254  67.590  1.00  0.00    -0.055 C  
BRANCH   3   5
HETATM    5  C   UNL     1      -6.908  14.068  69.458  1.00  0.00    -0.052 C  
HETATM    6  C   UNL     1      -6.047  15.068  70.214  1.00  0.00    -0.144 C  
ENDBRANCH   3   5
BRANCH   3   7
HETATM    7  C   UNL     1      -6.444  12.869  67.233  1.00  0.00    -0.025 C  
BRANCH   7   8
HETATM    8  C   UNL     1      -7.311  11.675  67.642  1.00  0.00    -0.108 C  
BRANCH   8   9
HETATM    9  O   UNL     1      -8.702  11.968  67.491  1.00  0.00    -0.153 OA 
BRANCH   9  10
HETATM   10  C   UNL     1      -9.532  10.926  67.808  1.00  0.00    -0.157 C  
HETATM   11  O   UNL     1      -9.640  10.477  68.943  1.00  0.00    -0.176 OA 
BRANCH  10  12
HETATM   12  C   UNL     1     -10.402  10.530  66.621  1.00  0.00    -0.295 C  
HETATM   13  C   UNL     1     -10.966  11.796  66.017  1.00  0.00    -0.355 A  
HETATM   14  C   UNL     1     -11.783  12.648  66.784  1.00  0.00    -0.460 A  
HETATM   15  C   UNL     1     -12.181  13.885  66.281  1.00  0.00    -0.498 A  
HETATM   16  C   UNL     1     -11.787  14.273  65.003  1.00  0.00    -0.396 A  
HETATM   17  C   UNL     1     -10.993  13.424  64.229  1.00  0.00    -0.391 A  
HETATM   18  C   UNL     1     -10.575  12.194  64.739  1.00  0.00    -0.296 A  
HETATM   19  O   UNL     1      -9.759  11.445  63.927  1.00  0.00    -0.251 OA 
HETATM   20  C   UNL     1      -9.330  10.216  64.368  1.00  0.00    -0.293 A  
HETATM   21  C   UNL     1      -8.553   9.479  63.472  1.00  0.00    -0.221 A  
HETATM   22  C   UNL     1      -8.060   8.226  63.836  1.00  0.00    -0.124 A  
HETATM   23  C   UNL     1      -8.352   7.702  65.094  1.00  0.00    -0.100 A  
HETATM   24  C   UNL     1      -9.133   8.433  65.989  1.00  0.00    -0.235 A  
HETATM   25  C   UNL     1      -9.618   9.704  65.635  1.00  0.00    -0.338 A  
ENDBRANCH  10  12
ENDBRANCH   9  10
ENDBRANCH   8   9
ENDBRANCH   7   8
ENDBRANCH   3   7
ENDBRANCH   2   3
TORSDOF 7
ENDMDL
MODEL      187
REMARK 921   NORMALIZED FREE ENERGY PREDICTED BY IDOCK:   -3.37 KCAL/MOL
REMARK 922        TOTAL FREE ENERGY PREDICTED BY IDOCK:   -6.08 KCAL/MOL
REMARK 923 INTER-LIGAND FREE ENERGY PREDICTED BY IDOCK:   -5.26 KCAL/MOL
REMARK 924 INTRA-LIGAND FREE ENERGY PREDICTED BY IDOCK:   -0.81 KCAL/MOL
REMARK 927      BINDING AFFINITY PREDICTED BY RF-SCORE:    0.00 PKD
ROOT
HETATM    1  C   UNL     1     -12.639  12.863  64.860  1.00  0.00    -0.525 C  
HETATM    2  C   UNL     1     -11.484  12.449  65.757  1.00  0.00    -0.370 C  
ENDROOT
BRANCH   2   3
HETATM    3  N   UNL     1     -10.756  13.628  66.455  1.00  0.00    -0.280 N  
HETATM    4  C   UNL     1     -10.225  14.593  65.379  1.00  0.00    -0.387 C  
BRANCH   3   5
HETATM    5  C   UNL     1     -11.670  14.416  67.412  1.00  0.00    -0.397 C  
HETATM    6  C   UNL     1     -10.934  15.452  68.247  1.00  0.00    -0.288 C  
ENDBRANCH   3   5
BRANCH   3   7
HETATM    7  C   UNL     1      -9.540  12.994  67.191  1.00  0.00    -0.230 C  
BRANCH   7   8
HETATM    8  C   UNL     1      -9.864  11.715  67.967  1.00  0.00    -0.190 C  
BRANCH   8   9
HETATM    9  O   UNL     1      -9.029  10.631  67.553  1.00  0.00    -0.135 OA 
BRANCH   9  10
HETATM   10  C   UNL     1      -8.179  10.174  68.525  1.00  0.00    -0.111 C  
HETATM   11  O   UNL     1      -7.932  10.803  69.548  1.00  0.00    -0.118 OA 
BRANCH  10  12
HETATM   12  C   UNL     1      -7.732   8.745  68.244  1.00  0.00    -0.100 C  
HETATM   13  C   UNL     1      -8.889   7.826  68.564  1.00  0.00    -0.130 A  
HETATM   14  C   UNL     1      -9.421   7.779  69.866  1.00  0.00    -0.160 A  
HETATM   15  C   UNL     1     -10.578   7.047  70.129  1.00  0.00    -0.249 A  
HETATM   16  C   UNL     1     -11.200   6.341  69.102  1.00  0.00    -0.439 A  
HETATM   17  C   UNL     1     -10.666   6.368  67.813  1.00  0.00    -0.377 A  
HETATM   18  C   UNL     1      -9.520   7.116  67.542  1.00  0.00    -0.124 A  
HETATM   19  O   UNL     1      -9.092   7.122  66.237  1.00  0.00    -0.162 OA 
HETATM   20  C   UNL     1      -7.958   7.828  65.913  1.00  0.00    -0.107 A  
HETATM   21  C   UNL     1      -7.543   7.745  64.582  1.00  0.00    -0.113 A  
HETATM   22  C   UNL     1      -6.410   8.438  64.156  1.00  0.00    -0.067 A  
HETATM   23  C   UNL     1      -5.683   9.208  65.062  1.00  0.00    -0.058 A  
HETATM   24  C   UNL     1      -6.092   9.288  66.393  1.00  0.00    -0.063 A  
HETATM   25  C   UNL     1      -7.243   8.607  66.825  1.00  0.00    -0.078 A  
ENDBRANCH  10  12
ENDBRANCH   9  10
ENDBRANCH   8   9
ENDBRANCH   7   8
ENDBRANCH   3   7
ENDBRANCH   2   3
TORSDOF 7
ENDMDL
MODEL      188
REMARK 921   NORMALIZED FREE ENERGY PREDICTED BY IDOCK:   -3.37 KCAL/MOL
REMARK 922        TOTAL FREE ENERGY PREDICTED BY IDOCK:   -6.07 KCAL/MOL
REMARK 923 INTER-LIGAND FREE ENERGY PREDICTED BY IDOCK:   -5.10 KCAL/MOL
REMARK 924 INTRA-LIGAND FREE ENERGY PREDICTED BY IDOCK:   -0.98 KCAL/MOL
REMARK 927      BINDING AFFINITY PREDICTED BY RF-SCORE:    0.00 PKD
ROOT
HETATM    1  C   UNL     1     -10.160   5.329  69.278  1.00  0.00    -0.300 C  
HETATM    2  C   UNL     1     -11.191   6.444  69.241  1.00  0.00    -0.375 C  
ENDROOT
BRANCH   2   3
HETATM    3  N   UNL     1     -11.122   7.425  70.442  1.00  0.00    -0.262 N  
HETATM    4  C   UNL     1     -12.484   7.434  71.158  1.00  0.00    -0.308 C  
BRANCH   3   5
HETATM    5  C   UNL     1     -10.033   7.047  71.463  1.00  0.00    -0.180 C  
HETATM    6  C   UNL     1     -10.446   7.272  72.910  1.00  0.00    -0.326 C  
ENDBRANCH   3   5
BRANCH   3   7
HETATM    7  C   UNL     1     -10.883   8.832  69.821  1.00  0.00    -0.193 C  
BRANCH   7   8
HETATM    8  C   UNL     1      -9.443   9.339  69.933  1.00  0.00    -0.197 C  
BRANCH   8   9
HETATM    9  O   UNL     1      -9.299  10.629  69.333  1.00  0.00    -0.163 OA 
BRANCH   9  10
HETATM   10  C   UNL     1      -8.058  10.866  68.804  1.00  0.00    -0.145 C  
HETATM   11  O   UNL     1      -7.055  11.023  69.491  1.00  0.00    -0.126 OA 
BRANCH  10  12
HETATM   12  C   UNL     1      -8.070  10.742  67.285  1.00  0.00    -0.117 C  
HETATM   13  C   UNL     1      -8.057   9.269  66.941  1.00  0.00    -0.108 A  
HETATM   14  C   UNL     1      -6.989   8.452  67.353  1.00  0.00    -0.071 A  
HETATM   15  C   UNL     1      -7.045   7.071  67.168  1.00  0.00    -0.083 A  
HETATM   16  C   UNL     1      -8.155   6.499  66.551  1.00  0.00    -0.111 A  
HETATM   17  C   UNL     1      -9.209   7.307  66.123  1.00  0.00    -0.136 A  
HETATM   18  C   UNL     1      -9.166   8.687  66.326  1.00  0.00    -0.202 A  
HETATM   19  O   UNL     1     -10.267   9.398  65.914  1.00  0.00    -0.259 OA 
HETATM   20  C   UNL     1     -10.273  10.763  66.073  1.00  0.00    -0.251 A  
HETATM   21  C   UNL     1     -11.395  11.432  65.579  1.00  0.00    -0.067 A  
HETATM   22  C   UNL     1     -11.499  12.817  65.706  1.00  0.00    -0.388 A  
HETATM   23  C   UNL     1     -10.474  13.538  66.318  1.00  0.00    -0.290 A  
HETATM   24  C   UNL     1      -9.350  12.873  66.806  1.00  0.00    -0.243 A  
HETATM   25  C   UNL     1      -9.248  11.475  66.697  1.00  0.00    -0.194 A  
ENDBRANCH  10  12
ENDBRANCH   9  10
ENDBRANCH   8   9
ENDBRANCH   7   8
ENDBRANCH   3   7
ENDBRANCH   2   3
TORSDOF 7
ENDMDL
MODEL      189
REMARK 921   NORMALIZED FREE ENERGY PREDICTED BY IDOCK:   -3.35 KCAL/MOL
REMARK 922        TOTAL FREE ENERGY PREDICTED BY IDOCK:   -6.04 KCAL/MOL
REMARK 923 INTER-LIGAND FREE ENERGY PREDICTED BY IDOCK:   -5.36 KCAL/MOL
REMARK 924 INTRA-LIGAND FREE ENERGY PREDICTED BY IDOCK:   -0.68 KCAL/MOL
REMARK 927      BINDING AFFINITY PREDICTED BY RF-SCORE:    0.00 PKD
ROOT
HETATM    1  C   UNL     1     -10.742   6.136  73.214  1.00  0.00    -0.282 C  
HETATM    2  C   UNL     1     -10.555   6.828  71.874  1.00  0.00    -0.209 C  
ENDROOT
BRANCH   2   3
HETATM    3  N   UNL     1      -9.289   7.723  71.783  1.00  0.00    -0.137 N  
HETATM    4  C   UNL     1      -8.940   8.238  73.190  1.00  0.00    -0.231 C  
BRANCH   3   5
HETATM    5  C   UNL     1      -8.067   6.976  71.216  1.00  0.00    -0.108 C  
HETATM    6  C   UNL     1      -6.789   7.203  72.008  1.00  0.00    -0.056 C  
ENDBRANCH   3   5
BRANCH   3   7
HETATM    7  C   UNL     1      -9.697   8.938  70.900  1.00  0.00    -0.239 C  
BRANCH   7   8
HETATM    8  C   UNL     1      -9.011   8.989  69.533  1.00  0.00    -0.147 C  
BRANCH   8   9
HETATM    9  O   UNL     1      -9.928   9.378  68.507  1.00  0.00    -0.163 OA 
BRANCH   9  10
HETATM   10  C   UNL     1      -9.426  10.301  67.627  1.00  0.00    -0.151 C  
HETATM   11  O   UNL     1      -8.364  10.886  67.803  1.00  0.00    -0.115 OA 
BRANCH  10  12
HETATM   12  C   UNL     1     -10.266  10.369  66.357  1.00  0.00    -0.292 C  
HETATM   13  C   UNL     1     -10.813  11.774  66.240  1.00  0.00    -0.325 A  
HETATM   14  C   UNL     1     -11.649  12.299  67.244  1.00  0.00    -0.427 A  
HETATM   15  C   UNL     1     -12.033  13.638  67.214  1.00  0.00    -0.420 A  
HETATM   16  C   UNL     1     -11.606  14.458  66.172  1.00  0.00    -0.372 A  
HETATM   17  C   UNL     1     -10.793  13.939  65.163  1.00  0.00    -0.364 A  
HETATM   18  C   UNL     1     -10.389  12.604  65.202  1.00  0.00    -0.292 A  
HETATM   19  O   UNL     1      -9.554  12.191  64.193  1.00  0.00    -0.104 OA 
HETATM   20  C   UNL     1      -9.137  10.882  64.170  1.00  0.00    -0.151 A  
HETATM   21  C   UNL     1      -8.338  10.512  63.086  1.00  0.00    -0.146 A  
HETATM   22  C   UNL     1      -7.856   9.208  62.983  1.00  0.00    -0.134 A  
HETATM   23  C   UNL     1      -8.180   8.266  63.958  1.00  0.00    -0.098 A  
HETATM   24  C   UNL     1      -8.983   8.631  65.038  1.00  0.00    -0.060 A  
HETATM   25  C   UNL     1      -9.457   9.949  65.157  1.00  0.00    -0.338 A  
ENDBRANCH  10  12
ENDBRANCH   9  10
ENDBRANCH   8   9
ENDBRANCH   7   8
ENDBRANCH   3   7
ENDBRANCH   2   3
TORSDOF 7
ENDMDL
MODEL      190
REMARK 921   NORMALIZED FREE ENERGY PREDICTED BY IDOCK:   -3.34 KCAL/MOL
REMARK 922        TOTAL FREE ENERGY PREDICTED BY IDOCK:   -6.03 KCAL/MOL
REMARK 923 INTER-LIGAND FREE ENERGY PREDICTED BY IDOCK:   -5.28 KCAL/MOL
REMARK 924 INTRA-LIGAND FREE ENERGY PREDICTED BY IDOCK:   -0.75 KCAL/MOL
REMARK 927      BINDING AFFINITY PREDICTED BY RF-SCORE:    0.00 PKD
ROOT
HETATM    1  C   UNL     1     -11.199   7.541  73.131  1.00  0.00    -0.318 C  
HETATM    2  C   UNL     1     -11.033   6.231  72.379  1.00  0.00    -0.254 C  
ENDROOT
BRANCH   2   3
HETATM    3  N   UNL     1      -9.586   5.669  72.376  1.00  0.00    -0.150 N  
HETATM    4  C   UNL     1      -9.029   5.718  73.810  1.00  0.00    -0.127 C  
BRANCH   3   5
HETATM    5  C   UNL     1      -9.507   4.218  71.868  1.00  0.00    -0.142 C  
HETATM    6  C   UNL     1      -8.192   3.526  72.192  1.00  0.00    -0.072 C  
ENDBRANCH   3   5
BRANCH   3   7
HETATM    7  C   UNL     1      -8.758   6.648  71.492  1.00  0.00    -0.131 C  
BRANCH   7   8
HETATM    8  C   UNL     1      -9.141   6.645  70.010  1.00  0.00    -0.151 C  
BRANCH   8   9
HETATM    9  O   UNL     1      -9.890   7.813  69.666  1.00  0.00    -0.178 OA 
BRANCH   9  10
HETATM   10  C   UNL     1      -9.297   8.597  68.712  1.00  0.00    -0.142 C  
HETATM   11  O   UNL     1      -8.160   9.040  68.820  1.00  0.00    -0.103 OA 
BRANCH  10  12
HETATM   12  C   UNL     1     -10.162   8.697  67.461  1.00  0.00    -0.308 C  
HETATM   13  C   UNL     1     -10.711  10.104  67.389  1.00  0.00    -0.336 A  
HETATM   14  C   UNL     1     -11.526  10.604  68.422  1.00  0.00    -0.330 A  
HETATM   15  C   UNL     1     -11.910  11.943  68.432  1.00  0.00    -0.352 A  
HETATM   16  C   UNL     1     -11.503  12.789  67.403  1.00  0.00    -0.396 A  
HETATM   17  C   UNL     1     -10.711  12.295  66.365  1.00  0.00    -0.284 A  
HETATM   18  C   UNL     1     -10.307  10.959  66.363  1.00  0.00    -0.251 A  
HETATM   19  O   UNL     1      -9.492  10.572  65.328  1.00  0.00    -0.195 OA 
HETATM   20  C   UNL     1      -9.076   9.263  65.264  1.00  0.00    -0.215 A  
HETATM   21  C   UNL     1      -8.298   8.920  64.156  1.00  0.00    -0.168 A  
HETATM   22  C   UNL     1      -7.819   7.619  64.011  1.00  0.00    -0.127 A  
HETATM   23  C   UNL     1      -8.125   6.654  64.969  1.00  0.00    -0.124 A  
HETATM   24  C   UNL     1      -8.906   6.992  66.074  1.00  0.00    -0.155 A  
HETATM   25  C   UNL     1      -9.377   8.306  66.235  1.00  0.00    -0.267 A  
ENDBRANCH  10  12
ENDBRANCH   9  10
ENDBRANCH   8   9
ENDBRANCH   7   8
ENDBRANCH   3   7
ENDBRANCH   2   3
TORSDOF 7
ENDMDL
MODEL      191
REMARK 921   NORMALIZED FREE ENERGY PREDICTED BY IDOCK:   -3.32 KCAL/MOL
REMARK 922        TOTAL FREE ENERGY PREDICTED BY IDOCK:   -6.00 KCAL/MOL
REMARK 923 INTER-LIGAND FREE ENERGY PREDICTED BY IDOCK:   -5.00 KCAL/MOL
REMARK 924 INTRA-LIGAND FREE ENERGY PREDICTED BY IDOCK:   -1.01 KCAL/MOL
REMARK 927      BINDING AFFINITY PREDICTED BY RF-SCORE:    0.00 PKD
ROOT
HETATM    1  C   UNL     1      -9.206   7.825  73.608  1.00  0.00    -0.344 C  
HETATM    2  C   UNL     1      -8.940   6.488  72.935  1.00  0.00    -0.129 C  
ENDROOT
BRANCH   2   3
HETATM    3  N   UNL     1      -7.506   6.330  72.360  1.00  0.00    -0.092 N  
HETATM    4  C   UNL     1      -6.593   7.391  73.000  1.00  0.00    -0.064 C  
BRANCH   3   5
HETATM    5  C   UNL     1      -6.903   4.938  72.627  1.00  0.00    -0.070 C  
HETATM    6  C   UNL     1      -6.785   4.595  74.104  1.00  0.00    -0.065 C  
ENDBRANCH   3   5
BRANCH   3   7
HETATM    7  C   UNL     1      -7.628   6.638  70.839  1.00  0.00    -0.089 C  
BRANCH   7   8
HETATM    8  C   UNL     1      -7.569   8.126  70.485  1.00  0.00    -0.079 C  
BRANCH   8   9
HETATM    9  O   UNL     1      -8.043   8.362  69.158  1.00  0.00    -0.114 OA 
BRANCH   9  10
HETATM   10  C   UNL     1      -8.901   9.424  69.049  1.00  0.00    -0.141 C  
HETATM   11  O   UNL     1      -8.533  10.592  69.104  1.00  0.00    -0.146 OA 
BRANCH  10  12
HETATM   12  C   UNL     1     -10.310   8.965  68.692  1.00  0.00    -0.228 C  
HETATM   13  C   UNL     1     -10.190   7.697  67.876  1.00  0.00    -0.250 A  
HETATM   14  C   UNL     1      -9.499   7.704  66.649  1.00  0.00    -0.255 A  
HETATM   15  C   UNL     1      -9.260   6.511  65.969  1.00  0.00    -0.077 A  
HETATM   16  C   UNL     1      -9.724   5.308  66.493  1.00  0.00    -0.180 A  
HETATM   17  C   UNL     1     -10.427   5.298  67.700  1.00  0.00    -0.176 A  
HETATM   18  C   UNL     1     -10.650   6.487  68.394  1.00  0.00    -0.246 A  
HETATM   19  O   UNL     1     -11.309   6.376  69.594  1.00  0.00    -0.387 OA 
HETATM   20  C   UNL     1     -11.573   7.516  70.315  1.00  0.00    -0.091 A  
HETATM   21  C   UNL     1     -12.298   7.342  71.495  1.00  0.00    -0.397 A  
HETATM   22  C   UNL     1     -12.602   8.439  72.301  1.00  0.00    -0.401 A  
HETATM   23  C   UNL     1     -12.191   9.716  71.922  1.00  0.00    -0.413 A  
HETATM   24  C   UNL     1     -11.472   9.894  70.740  1.00  0.00    -0.433 A  
HETATM   25  C   UNL     1     -11.147   8.790  69.933  1.00  0.00    -0.129 A  
ENDBRANCH  10  12
ENDBRANCH   9  10
ENDBRANCH   8   9
ENDBRANCH   7   8
ENDBRANCH   3   7
ENDBRANCH   2   3
TORSDOF 7
ENDMDL
MODEL      192
REMARK 921   NORMALIZED FREE ENERGY PREDICTED BY IDOCK:   -3.32 KCAL/MOL
REMARK 922        TOTAL FREE ENERGY PREDICTED BY IDOCK:   -6.00 KCAL/MOL
REMARK 923 INTER-LIGAND FREE ENERGY PREDICTED BY IDOCK:   -4.89 KCAL/MOL
REMARK 924 INTRA-LIGAND FREE ENERGY PREDICTED BY IDOCK:   -1.11 KCAL/MOL
REMARK 927      BINDING AFFINITY PREDICTED BY RF-SCORE:    0.00 PKD
ROOT
HETATM    1  C   UNL     1      -8.034   7.551  64.295  1.00  0.00    -0.109 C  
HETATM    2  C   UNL     1      -8.307   6.653  65.491  1.00  0.00    -0.144 C  
ENDROOT
BRANCH   2   3
HETATM    3  N   UNL     1      -8.189   5.134  65.196  1.00  0.00    -0.125 N  
HETATM    4  C   UNL     1      -8.760   4.853  63.794  1.00  0.00    -0.108 C  
BRANCH   3   5
HETATM    5  C   UNL     1      -6.736   4.625  65.245  1.00  0.00    -0.049 C  
HETATM    6  C   UNL     1      -6.061   4.831  66.592  1.00  0.00    -0.031 C  
ENDBRANCH   3   5
BRANCH   3   7
HETATM    7  C   UNL     1      -9.095   4.431  66.247  1.00  0.00    -0.126 C  
BRANCH   7   8
HETATM    8  C   UNL     1     -10.433   5.130  66.503  1.00  0.00    -0.294 C  
BRANCH   8   9
HETATM    9  O   UNL     1     -10.634   5.371  67.897  1.00  0.00    -0.176 OA 
BRANCH   9  10
HETATM   10  C   UNL     1     -10.579   6.692  68.253  1.00  0.00    -0.241 C  
HETATM   11  O   UNL     1     -10.994   7.596  67.537  1.00  0.00    -0.166 OA 
BRANCH  10  12
HETATM   12  C   UNL     1     -10.100   6.861  69.689  1.00  0.00    -0.195 C  
HETATM   13  C   UNL     1      -8.829   7.680  69.660  1.00  0.00    -0.140 A  
HETATM   14  C   UNL     1      -7.699   7.215  68.963  1.00  0.00    -0.109 A  
HETATM   15  C   UNL     1      -6.580   8.032  68.809  1.00  0.00    -0.049 A  
HETATM   16  C   UNL     1      -6.570   9.308  69.367  1.00  0.00    -0.044 A  
HETATM   17  C   UNL     1      -7.682   9.767  70.076  1.00  0.00    -0.179 A  
HETATM   18  C   UNL     1      -8.812   8.961  70.213  1.00  0.00    -0.175 A  
HETATM   19  O   UNL     1      -9.874   9.512  70.887  1.00  0.00    -0.275 OA 
HETATM   20  C   UNL     1     -11.009   8.758  71.068  1.00  0.00    -0.268 A  
HETATM   21  C   UNL     1     -12.030   9.354  71.812  1.00  0.00    -0.452 A  
HETATM   22  C   UNL     1     -13.224   8.671  72.038  1.00  0.00    -0.422 A  
HETATM   23  C   UNL     1     -13.397   7.385  71.530  1.00  0.00    -0.435 A  
HETATM   24  C   UNL     1     -12.378   6.784  70.791  1.00  0.00    -0.289 A  
HETATM   25  C   UNL     1     -11.178   7.474  70.545  1.00  0.00    -0.287 A  
ENDBRANCH  10  12
ENDBRANCH   9  10
ENDBRANCH   8   9
ENDBRANCH   7   8
ENDBRANCH   3   7
ENDBRANCH   2   3
TORSDOF 7
ENDMDL
MODEL      193
REMARK 921   NORMALIZED FREE ENERGY PREDICTED BY IDOCK:   -3.32 KCAL/MOL
REMARK 922        TOTAL FREE ENERGY PREDICTED BY IDOCK:   -6.00 KCAL/MOL
REMARK 923 INTER-LIGAND FREE ENERGY PREDICTED BY IDOCK:   -5.31 KCAL/MOL
REMARK 924 INTRA-LIGAND FREE ENERGY PREDICTED BY IDOCK:   -0.69 KCAL/MOL
REMARK 927      BINDING AFFINITY PREDICTED BY RF-SCORE:    0.00 PKD
ROOT
HETATM    1  C   UNL     1     -12.265  12.606  66.060  1.00  0.00    -0.329 C  
HETATM    2  C   UNL     1     -10.841  12.833  65.578  1.00  0.00    -0.274 C  
ENDROOT
BRANCH   2   3
HETATM    3  N   UNL     1      -9.826  11.754  66.041  1.00  0.00    -0.226 N  
HETATM    4  C   UNL     1      -9.293  11.008  64.804  1.00  0.00    -0.209 C  
BRANCH   3   5
HETATM    5  C   UNL     1      -8.630  12.347  66.809  1.00  0.00    -0.129 C  
HETATM    6  C   UNL     1      -8.871  13.758  67.324  1.00  0.00    -0.225 C  
ENDBRANCH   3   5
BRANCH   3   7
HETATM    7  C   UNL     1     -10.643  10.752  66.907  1.00  0.00    -0.258 C  
BRANCH   7   8
HETATM    8  C   UNL     1     -10.162   9.301  66.823  1.00  0.00    -0.255 C  
BRANCH   8   9
HETATM    9  O   UNL     1      -9.996   8.734  68.125  1.00  0.00    -0.160 OA 
BRANCH   9  10
HETATM   10  C   UNL     1      -8.690   8.570  68.503  1.00  0.00    -0.139 C  
HETATM   11  O   UNL     1      -7.802   9.362  68.209  1.00  0.00    -0.090 OA 
BRANCH  10  12
HETATM   12  C   UNL     1      -8.532   7.391  69.456  1.00  0.00    -0.133 C  
HETATM   13  C   UNL     1      -9.673   7.442  70.448  1.00  0.00    -0.175 A  
HETATM   14  C   UNL     1      -9.833   8.557  71.291  1.00  0.00    -0.279 A  
HETATM   15  C   UNL     1     -10.963   8.674  72.099  1.00  0.00    -0.434 A  
HETATM   16  C   UNL     1     -11.929   7.672  72.089  1.00  0.00    -0.344 A  
HETATM   17  C   UNL     1     -11.766   6.553  71.269  1.00  0.00    -0.386 A  
HETATM   18  C   UNL     1     -10.647   6.444  70.443  1.00  0.00    -0.241 A  
HETATM   19  O   UNL     1     -10.592   5.332  69.637  1.00  0.00    -0.294 OA 
HETATM   20  C   UNL     1      -9.504   5.162  68.815  1.00  0.00    -0.133 A  
HETATM   21  C   UNL     1      -9.480   3.983  68.066  1.00  0.00    -0.220 A  
HETATM   22  C   UNL     1      -8.424   3.728  67.193  1.00  0.00    -0.102 A  
HETATM   23  C   UNL     1      -7.381   4.645  67.075  1.00  0.00    -0.081 A  
HETATM   24  C   UNL     1      -7.399   5.820  67.826  1.00  0.00    -0.077 A  
HETATM   25  C   UNL     1      -8.470   6.092  68.694  1.00  0.00    -0.113 A  
ENDBRANCH  10  12
ENDBRANCH   9  10
ENDBRANCH   8   9
ENDBRANCH   7   8
ENDBRANCH   3   7
ENDBRANCH   2   3
TORSDOF 7
ENDMDL
MODEL      194
REMARK 921   NORMALIZED FREE ENERGY PREDICTED BY IDOCK:   -3.31 KCAL/MOL
REMARK 922        TOTAL FREE ENERGY PREDICTED BY IDOCK:   -5.98 KCAL/MOL
REMARK 923 INTER-LIGAND FREE ENERGY PREDICTED BY IDOCK:   -5.11 KCAL/MOL
REMARK 924 INTRA-LIGAND FREE ENERGY PREDICTED BY IDOCK:   -0.87 KCAL/MOL
REMARK 927      BINDING AFFINITY PREDICTED BY RF-SCORE:    0.00 PKD
ROOT
HETATM    1  C   UNL     1      -7.269   3.423  69.159  1.00  0.00    -0.049 C  
HETATM    2  C   UNL     1      -8.510   3.819  69.942  1.00  0.00    -0.056 C  
ENDROOT
BRANCH   2   3
HETATM    3  N   UNL     1      -8.638   3.140  71.331  1.00  0.00    -0.067 N  
HETATM    4  C   UNL     1      -9.436   1.833  71.176  1.00  0.00    -0.133 C  
BRANCH   3   5
HETATM    5  C   UNL     1      -7.274   2.809  71.966  1.00  0.00    -0.039 C  
HETATM    6  C   UNL     1      -7.375   1.979  73.236  1.00  0.00    -0.032 C  
ENDBRANCH   3   5
BRANCH   3   7
HETATM    7  C   UNL     1      -9.470   4.124  72.205  1.00  0.00    -0.133 C  
BRANCH   7   8
HETATM    8  C   UNL     1      -9.529   5.556  71.667  1.00  0.00    -0.147 C  
BRANCH   8   9
HETATM    9  O   UNL     1      -8.880   6.470  72.553  1.00  0.00    -0.133 OA 
BRANCH   9  10
HETATM   10  C   UNL     1      -9.089   7.789  72.250  1.00  0.00    -0.149 C  
HETATM   11  O   UNL     1      -8.614   8.711  72.904  1.00  0.00    -0.398 OA 
BRANCH  10  12
HETATM   12  C   UNL     1      -9.831   7.944  70.927  1.00  0.00    -0.192 C  
HETATM   13  C   UNL     1     -11.047   8.808  71.178  1.00  0.00    -0.340 A  
HETATM   14  C   UNL     1     -12.036   8.397  72.091  1.00  0.00    -0.438 A  
HETATM   15  C   UNL     1     -13.079   9.256  72.434  1.00  0.00    -0.481 A  
HETATM   16  C   UNL     1     -13.157  10.519  71.854  1.00  0.00    -0.567 A  
HETATM   17  C   UNL     1     -12.190  10.924  70.932  1.00  0.00    -0.485 A  
HETATM   18  C   UNL     1     -11.133  10.076  70.602  1.00  0.00    -0.335 A  
HETATM   19  O   UNL     1     -10.204  10.574  69.722  1.00  0.00    -0.213 OA 
HETATM   20  C   UNL     1      -9.149   9.777  69.347  1.00  0.00    -0.201 A  
HETATM   21  C   UNL     1      -8.273  10.321  68.404  1.00  0.00    -0.114 A  
HETATM   22  C   UNL     1      -7.166   9.592  67.973  1.00  0.00    -0.081 A  
HETATM   23  C   UNL     1      -6.937   8.312  68.474  1.00  0.00    -0.069 A  
HETATM   24  C   UNL     1      -7.813   7.763  69.411  1.00  0.00    -0.115 A  
HETATM   25  C   UNL     1      -8.920   8.500  69.864  1.00  0.00    -0.145 A  
ENDBRANCH  10  12
ENDBRANCH   9  10
ENDBRANCH   8   9
ENDBRANCH   7   8
ENDBRANCH   3   7
ENDBRANCH   2   3
TORSDOF 7
ENDMDL
MODEL      195
REMARK 921   NORMALIZED FREE ENERGY PREDICTED BY IDOCK:   -3.31 KCAL/MOL
REMARK 922        TOTAL FREE ENERGY PREDICTED BY IDOCK:   -5.98 KCAL/MOL
REMARK 923 INTER-LIGAND FREE ENERGY PREDICTED BY IDOCK:   -5.39 KCAL/MOL
REMARK 924 INTRA-LIGAND FREE ENERGY PREDICTED BY IDOCK:   -0.58 KCAL/MOL
REMARK 927      BINDING AFFINITY PREDICTED BY RF-SCORE:    0.00 PKD
ROOT
HETATM    1  C   UNL     1     -11.972  13.418  63.333  1.00  0.00    -0.406 C  
HETATM    2  C   UNL     1     -12.077  14.714  64.120  1.00  0.00    -0.320 C  
ENDROOT
BRANCH   2   3
HETATM    3  N   UNL     1     -11.307  14.713  65.468  1.00  0.00    -0.335 N  
HETATM    4  C   UNL     1     -10.045  13.845  65.320  1.00  0.00    -0.303 C  
BRANCH   3   5
HETATM    5  C   UNL     1     -10.882  16.124  65.917  1.00  0.00    -0.177 C  
HETATM    6  C   UNL     1      -9.422  16.221  66.329  1.00  0.00    -0.347 C  
ENDBRANCH   3   5
BRANCH   3   7
HETATM    7  C   UNL     1     -12.258  14.030  66.494  1.00  0.00    -0.451 C  
BRANCH   7   8
HETATM    8  C   UNL     1     -11.739  12.703  67.054  1.00  0.00    -0.369 C  
BRANCH   8   9
HETATM    9  O   UNL     1     -11.243  12.861  68.386  1.00  0.00    -0.237 OA 
BRANCH   9  10
HETATM   10  C   UNL     1     -10.654  11.737  68.902  1.00  0.00    -0.180 C  
HETATM   11  O   UNL     1     -11.086  11.145  69.884  1.00  0.00    -0.243 OA 
BRANCH  10  12
HETATM   12  C   UNL     1      -9.522  11.245  68.009  1.00  0.00    -0.173 C  
HETATM   13  C   UNL     1      -8.277  12.025  68.369  1.00  0.00    -0.151 A  
HETATM   14  C   UNL     1      -8.250  13.425  68.233  1.00  0.00    -0.160 A  
HETATM   15  C   UNL     1      -7.162  14.159  68.702  1.00  0.00    -0.116 A  
HETATM   16  C   UNL     1      -6.084  13.501  69.289  1.00  0.00    -0.097 A  
HETATM   17  C   UNL     1      -6.096  12.111  69.409  1.00  0.00    -0.103 A  
HETATM   18  C   UNL     1      -7.193  11.375  68.960  1.00  0.00    -0.118 A  
HETATM   19  O   UNL     1      -7.138  10.017  69.160  1.00  0.00    -0.061 OA 
HETATM   20  C   UNL     1      -8.183   9.239  68.723  1.00  0.00    -0.112 A  
HETATM   21  C   UNL     1      -8.039   7.861  68.903  1.00  0.00    -0.125 A  
HETATM   22  C   UNL     1      -9.053   6.992  68.503  1.00  0.00    -0.131 A  
HETATM   23  C   UNL     1     -10.210   7.496  67.911  1.00  0.00    -0.245 A  
HETATM   24  C   UNL     1     -10.354   8.871  67.725  1.00  0.00    -0.301 A  
HETATM   25  C   UNL     1      -9.343   9.754  68.142  1.00  0.00    -0.136 A  
ENDBRANCH  10  12
ENDBRANCH   9  10
ENDBRANCH   8   9
ENDBRANCH   7   8
ENDBRANCH   3   7
ENDBRANCH   2   3
TORSDOF 7
ENDMDL
MODEL      196
REMARK 921   NORMALIZED FREE ENERGY PREDICTED BY IDOCK:   -3.30 KCAL/MOL
REMARK 922        TOTAL FREE ENERGY PREDICTED BY IDOCK:   -5.98 KCAL/MOL
REMARK 923 INTER-LIGAND FREE ENERGY PREDICTED BY IDOCK:   -5.14 KCAL/MOL
REMARK 924 INTRA-LIGAND FREE ENERGY PREDICTED BY IDOCK:   -0.83 KCAL/MOL
REMARK 927      BINDING AFFINITY PREDICTED BY RF-SCORE:    0.00 PKD
ROOT
HETATM    1  C   UNL     1      -9.972   7.461  73.547  1.00  0.00    -0.377 C  
HETATM    2  C   UNL     1     -10.846   6.702  72.562  1.00  0.00    -0.238 C  
ENDROOT
BRANCH   2   3
HETATM    3  N   UNL     1     -11.377   7.557  71.380  1.00  0.00    -0.253 N  
HETATM    4  C   UNL     1     -12.883   7.291  71.209  1.00  0.00    -0.346 C  
BRANCH   3   5
HETATM    5  C   UNL     1     -11.166   9.068  71.591  1.00  0.00    -0.361 C  
HETATM    6  C   UNL     1     -12.456   9.840  71.823  1.00  0.00    -0.485 C  
ENDBRANCH   3   5
BRANCH   3   7
HETATM    7  C   UNL     1     -10.637   7.031  70.116  1.00  0.00    -0.228 C  
BRANCH   7   8
HETATM    8  C   UNL     1     -10.569   8.030  68.958  1.00  0.00    -0.154 C  
BRANCH   8   9
HETATM    9  O   UNL     1      -9.252   8.566  68.811  1.00  0.00    -0.143 OA 
BRANCH   9  10
HETATM   10  C   UNL     1      -8.603   8.156  67.676  1.00  0.00    -0.130 C  
HETATM   11  O   UNL     1      -8.802   7.069  67.146  1.00  0.00    -0.119 OA 
BRANCH  10  12
HETATM   12  C   UNL     1      -7.752   9.275  67.090  1.00  0.00    -0.095 C  
HETATM   13  C   UNL     1      -8.675  10.222  66.355  1.00  0.00    -0.144 A  
HETATM   14  C   UNL     1      -9.450   9.764  65.274  1.00  0.00    -0.343 A  
HETATM   15  C   UNL     1     -10.408  10.593  64.692  1.00  0.00    -0.353 A  
HETATM   16  C   UNL     1     -10.585  11.889  65.169  1.00  0.00    -0.333 A  
HETATM   17  C   UNL     1      -9.805  12.355  66.229  1.00  0.00    -0.257 A  
HETATM   18  C   UNL     1      -8.861  11.521  66.827  1.00  0.00    -0.183 A  
HETATM   19  O   UNL     1      -8.172  12.048  67.892  1.00  0.00    -0.135 OA 
HETATM   20  C   UNL     1      -7.216  11.279  68.511  1.00  0.00    -0.094 A  
HETATM   21  C   UNL     1      -6.510  11.894  69.548  1.00  0.00    -0.113 A  
HETATM   22  C   UNL     1      -5.530  11.188  70.244  1.00  0.00    -0.102 A  
HETATM   23  C   UNL     1      -5.244   9.869  69.899  1.00  0.00    -0.037 A  
HETATM   24  C   UNL     1      -5.942   9.254  68.859  1.00  0.00    -0.043 A  
HETATM   25  C   UNL     1      -6.944   9.954  68.166  1.00  0.00    -0.076 A  
ENDBRANCH  10  12
ENDBRANCH   9  10
ENDBRANCH   8   9
ENDBRANCH   7   8
ENDBRANCH   3   7
ENDBRANCH   2   3
TORSDOF 7
ENDMDL
MODEL      197
REMARK 921   NORMALIZED FREE ENERGY PREDICTED BY IDOCK:   -3.30 KCAL/MOL
REMARK 922        TOTAL FREE ENERGY PREDICTED BY IDOCK:   -5.97 KCAL/MOL
REMARK 923 INTER-LIGAND FREE ENERGY PREDICTED BY IDOCK:   -5.20 KCAL/MOL
REMARK 924 INTRA-LIGAND FREE ENERGY PREDICTED BY IDOCK:   -0.77 KCAL/MOL
REMARK 927      BINDING AFFINITY PREDICTED BY RF-SCORE:    0.00 PKD
ROOT
HETATM    1  C   UNL     1     -14.098  15.773  72.495  1.00  0.00    -0.491 C  
HETATM    2  C   UNL     1     -13.682  15.278  71.120  1.00  0.00    -0.443 C  
ENDROOT
BRANCH   2   3
HETATM    3  N   UNL     1     -12.385  14.426  71.108  1.00  0.00    -0.337 N  
HETATM    4  C   UNL     1     -11.187  15.338  71.427  1.00  0.00    -0.308 C  
BRANCH   3   5
HETATM    5  C   UNL     1     -12.412  13.276  72.132  1.00  0.00     0.235 C  
HETATM    6  C   UNL     1     -12.775  11.928  71.528  1.00  0.00    -0.379 C  
ENDBRANCH   3   5
BRANCH   3   7
HETATM    7  C   UNL     1     -12.235  13.910  69.647  1.00  0.00    -0.321 C  
BRANCH   7   8
HETATM    8  C   UNL     1     -10.806  13.954  69.101  1.00  0.00    -0.189 C  
BRANCH   8   9
HETATM    9  O   UNL     1     -10.726  14.757  67.920  1.00  0.00    -0.252 OA 
BRANCH   9  10
HETATM   10  C   UNL     1      -9.472  15.234  67.650  1.00  0.00    -0.205 C  
HETATM   11  O   UNL     1      -8.765  14.791  66.753  1.00  0.00    -0.240 OA 
BRANCH  10  12
HETATM   12  C   UNL     1      -9.156  16.469  68.487  1.00  0.00    -0.231 C  
HETATM   13  C   UNL     1      -7.887  16.191  69.261  1.00  0.00    -0.203 A  
HETATM   14  C   UNL     1      -7.830  15.122  70.175  1.00  0.00     0.403 A  
HETATM   15  C   UNL     1      -6.623  14.772  70.777  1.00  0.00     0.225 A  
HETATM   16  C   UNL     1      -5.470  15.498  70.491  1.00  0.00    -0.138 A  
HETATM   17  C   UNL     1      -5.524  16.572  69.601  1.00  0.00    -0.157 A  
HETATM   18  C   UNL     1      -6.726  16.911  68.980  1.00  0.00    -0.215 A  
HETATM   19  O   UNL     1      -6.677  17.952  68.085  1.00  0.00    -0.191 OA 
HETATM   20  C   UNL     1      -7.834  18.342  67.455  1.00  0.00    -0.234 A  
HETATM   21  C   UNL     1      -7.728  19.444  66.603  1.00  0.00    -0.280 A  
HETATM   22  C   UNL     1      -8.846  19.905  65.909  1.00  0.00    -0.170 A  
HETATM   23  C   UNL     1     -10.077  19.273  66.074  1.00  0.00    -0.459 A  
HETATM   24  C   UNL     1     -10.188  18.176  66.929  1.00  0.00    -0.380 A  
HETATM   25  C   UNL     1      -9.061  17.695  67.617  1.00  0.00    -0.241 A  
ENDBRANCH  10  12
ENDBRANCH   9  10
ENDBRANCH   8   9
ENDBRANCH   7   8
ENDBRANCH   3   7
ENDBRANCH   2   3
TORSDOF 7
ENDMDL
MODEL      198
REMARK 921   NORMALIZED FREE ENERGY PREDICTED BY IDOCK:   -3.30 KCAL/MOL
REMARK 922        TOTAL FREE ENERGY PREDICTED BY IDOCK:   -5.97 KCAL/MOL
REMARK 923 INTER-LIGAND FREE ENERGY PREDICTED BY IDOCK:   -5.78 KCAL/MOL
REMARK 924 INTRA-LIGAND FREE ENERGY PREDICTED BY IDOCK:   -0.18 KCAL/MOL
REMARK 927      BINDING AFFINITY PREDICTED BY RF-SCORE:    0.00 PKD
ROOT
HETATM    1  C   UNL     1     -10.150  10.236  65.202  1.00  0.00    -0.355 C  
HETATM    2  C   UNL     1     -10.267  10.540  66.686  1.00  0.00    -0.233 C  
ENDROOT
BRANCH   2   3
HETATM    3  N   UNL     1      -8.978  11.117  67.329  1.00  0.00    -0.146 N  
HETATM    4  C   UNL     1      -8.780  10.475  68.714  1.00  0.00    -0.154 C  
BRANCH   3   5
HETATM    5  C   UNL     1      -7.718  10.857  66.483  1.00  0.00    -0.149 C  
HETATM    6  C   UNL     1      -6.500  11.646  66.939  1.00  0.00    -0.134 C  
ENDBRANCH   3   5
BRANCH   3   7
HETATM    7  C   UNL     1      -9.252  12.637  67.525  1.00  0.00    -0.190 C  
BRANCH   7   8
HETATM    8  C   UNL     1      -9.787  13.352  66.282  1.00  0.00    -0.290 C  
BRANCH   8   9
HETATM    9  O   UNL     1     -10.691  14.401  66.636  1.00  0.00    -0.286 OA 
BRANCH   9  10
HETATM   10  C   UNL     1     -10.364  15.623  66.112  1.00  0.00    -0.316 C  
HETATM   11  O   UNL     1     -10.423  15.877  64.915  1.00  0.00    -0.542 OA 
BRANCH  10  12
HETATM   12  C   UNL     1     -10.088  16.642  67.212  1.00  0.00    -0.279 C  
HETATM   13  C   UNL     1     -10.657  16.095  68.502  1.00  0.00    -0.284 A  
HETATM   14  C   UNL     1     -12.033  15.820  68.613  1.00  0.00    -0.165 A  
HETATM   15  C   UNL     1     -12.535  15.179  69.744  1.00  0.00    -0.221 A  
HETATM   16  C   UNL     1     -11.675  14.828  70.781  1.00  0.00    -0.355 A  
HETATM   17  C   UNL     1     -10.312  15.115  70.686  1.00  0.00     0.144 A  
HETATM   18  C   UNL     1      -9.803  15.737  69.546  1.00  0.00    -0.283 A  
HETATM   19  O   UNL     1      -8.445  15.940  69.519  1.00  0.00    -0.234 OA 
HETATM   20  C   UNL     1      -7.888  16.564  68.428  1.00  0.00    -0.187 A  
HETATM   21  C   UNL     1      -6.512  16.794  68.489  1.00  0.00    -0.155 A  
HETATM   22  C   UNL     1      -5.855  17.409  67.424  1.00  0.00    -0.159 A  
HETATM   23  C   UNL     1      -6.575  17.808  66.299  1.00  0.00    -0.297 A  
HETATM   24  C   UNL     1      -7.951  17.585  66.238  1.00  0.00    -0.303 A  
HETATM   25  C   UNL     1      -8.615  16.949  67.300  1.00  0.00    -0.212 A  
ENDBRANCH  10  12
ENDBRANCH   9  10
ENDBRANCH   8   9
ENDBRANCH   7   8
ENDBRANCH   3   7
ENDBRANCH   2   3
TORSDOF 7
ENDMDL
MODEL      199
REMARK 921   NORMALIZED FREE ENERGY PREDICTED BY IDOCK:   -3.29 KCAL/MOL
REMARK 922        TOTAL FREE ENERGY PREDICTED BY IDOCK:   -5.96 KCAL/MOL
REMARK 923 INTER-LIGAND FREE ENERGY PREDICTED BY IDOCK:   -5.50 KCAL/MOL
REMARK 924 INTRA-LIGAND FREE ENERGY PREDICTED BY IDOCK:   -0.46 KCAL/MOL
REMARK 927      BINDING AFFINITY PREDICTED BY RF-SCORE:    0.00 PKD
ROOT
HETATM    1  C   UNL     1     -10.175   7.959  66.425  1.00  0.00    -0.071 C  
HETATM    2  C   UNL     1      -8.806   7.299  66.393  1.00  0.00    -0.149 C  
ENDROOT
BRANCH   2   3
HETATM    3  N   UNL     1      -8.726   5.946  67.150  1.00  0.00    -0.109 N  
HETATM    4  C   UNL     1     -10.155   5.448  67.433  1.00  0.00    -0.185 C  
BRANCH   3   5
HETATM    5  C   UNL     1      -7.976   4.860  66.358  1.00  0.00    -0.107 C  
HETATM    6  C   UNL     1      -8.532   3.459  66.562  1.00  0.00    -0.109 C  
ENDBRANCH   3   5
BRANCH   3   7
HETATM    7  C   UNL     1      -8.038   6.266  68.509  1.00  0.00    -0.109 C  
BRANCH   7   8
HETATM    8  C   UNL     1      -8.987   6.301  69.709  1.00  0.00    -0.140 C  
BRANCH   8   9
HETATM    9  O   UNL     1      -9.736   7.518  69.743  1.00  0.00    -0.170 OA 
BRANCH   9  10
HETATM   10  C   UNL     1      -9.000   8.621  70.084  1.00  0.00    -0.154 C  
HETATM   11  O   UNL     1      -8.285   9.222  69.289  1.00  0.00    -0.101 OA 
BRANCH  10  12
HETATM   12  C   UNL     1      -9.317   9.083  71.501  1.00  0.00    -0.294 C  
HETATM   13  C   UNL     1     -10.815   9.257  71.607  1.00  0.00    -0.418 A  
HETATM   14  C   UNL     1     -11.485  10.176  70.778  1.00  0.00    -0.442 A  
HETATM   15  C   UNL     1     -12.878  10.232  70.768  1.00  0.00    -0.427 A  
HETATM   16  C   UNL     1     -13.612   9.389  71.599  1.00  0.00    -0.437 A  
HETATM   17  C   UNL     1     -12.952   8.488  72.437  1.00  0.00    -0.354 A  
HETATM   18  C   UNL     1     -11.559   8.415  72.434  1.00  0.00    -0.380 A  
HETATM   19  O   UNL     1     -10.998   7.469  73.257  1.00  0.00    -0.393 OA 
HETATM   20  C   UNL     1      -9.628   7.362  73.308  1.00  0.00    -0.232 A  
HETATM   21  C   UNL     1      -9.120   6.422  74.208  1.00  0.00    -0.180 A  
HETATM   22  C   UNL     1      -7.743   6.233  74.321  1.00  0.00    -0.091 A  
HETATM   23  C   UNL     1      -6.870   6.991  73.543  1.00  0.00    -0.070 A  
HETATM   24  C   UNL     1      -7.374   7.934  72.648  1.00  0.00    -0.114 A  
HETATM   25  C   UNL     1      -8.762   8.117  72.516  1.00  0.00    -0.266 A  
ENDBRANCH  10  12
ENDBRANCH   9  10
ENDBRANCH   8   9
ENDBRANCH   7   8
ENDBRANCH   3   7
ENDBRANCH   2   3
TORSDOF 7
ENDMDL
MODEL      200
REMARK 921   NORMALIZED FREE ENERGY PREDICTED BY IDOCK:   -3.29 KCAL/MOL
REMARK 922        TOTAL FREE ENERGY PREDICTED BY IDOCK:   -5.95 KCAL/MOL
REMARK 923 INTER-LIGAND FREE ENERGY PREDICTED BY IDOCK:   -6.06 KCAL/MOL
REMARK 924 INTRA-LIGAND FREE ENERGY PREDICTED BY IDOCK:    0.11 KCAL/MOL
REMARK 927      BINDING AFFINITY PREDICTED BY RF-SCORE:    0.00 PKD
ROOT
HETATM    1  C   UNL     1      -7.916   7.478  64.588  1.00  0.00    -0.133 C  
HETATM    2  C   UNL     1      -6.764   8.454  64.768  1.00  0.00    -0.068 C  
ENDROOT
BRANCH   2   3
HETATM    3  N   UNL     1      -7.122   9.934  64.468  1.00  0.00    -0.133 N  
HETATM    4  C   UNL     1      -6.105  10.498  63.459  1.00  0.00    -0.051 C  
BRANCH   3   5
HETATM    5  C   UNL     1      -8.537  10.102  63.884  1.00  0.00    -0.193 C  
HETATM    6  C   UNL     1      -8.558  10.731  62.499  1.00  0.00    -0.301 C  
ENDBRANCH   3   5
BRANCH   3   7
HETATM    7  C   UNL     1      -6.949  10.690  65.817  1.00  0.00    -0.094 C  
BRANCH   7   8
HETATM    8  C   UNL     1      -8.087  10.473  66.817  1.00  0.00    -0.123 C  
BRANCH   8   9
HETATM    9  O   UNL     1      -8.707  11.711  67.174  1.00  0.00    -0.153 OA 
BRANCH   9  10
HETATM   10  C   UNL     1      -9.493  11.642  68.294  1.00  0.00    -0.191 C  
HETATM   11  O   UNL     1      -9.075  11.272  69.385  1.00  0.00     0.150 OA 
BRANCH  10  12
HETATM   12  C   UNL     1     -10.874  12.235  68.039  1.00  0.00    -0.253 C  
HETATM   13  C   UNL     1     -11.706  12.020  69.284  1.00  0.00    -0.389 A  
HETATM   14  C   UNL     1     -11.962  10.718  69.753  1.00  0.00    -0.397 A  
HETATM   15  C   UNL     1     -12.600  10.522  70.976  1.00  0.00    -0.499 A  
HETATM   16  C   UNL     1     -13.007  11.620  71.730  1.00  0.00    -0.483 A  
HETATM   17  C   UNL     1     -12.774  12.914  71.260  1.00  0.00    -0.371 A  
HETATM   18  C   UNL     1     -12.116  13.114  70.047  1.00  0.00    -0.305 A  
HETATM   19  O   UNL     1     -11.889  14.419  69.685  1.00  0.00    -0.282 OA 
HETATM   20  C   UNL     1     -11.260  14.678  68.491  1.00  0.00    -0.271 A  
HETATM   21  C   UNL     1     -11.113  16.026  68.154  1.00  0.00    -0.344 A  
HETATM   22  C   UNL     1     -10.476  16.387  66.968  1.00  0.00    -0.291 A  
HETATM   23  C   UNL     1      -9.994  15.402  66.109  1.00  0.00    -0.330 A  
HETATM   24  C   UNL     1     -10.145  14.055  66.439  1.00  0.00    -0.299 A  
HETATM   25  C   UNL     1     -10.770  13.684  67.642  1.00  0.00    -0.253 A  
ENDBRANCH  10  12
ENDBRANCH   9  10
ENDBRANCH   8   9
ENDBRANCH   7   8
ENDBRANCH   3   7
ENDBRANCH   2   3
TORSDOF 7
ENDMDL
MODEL      201
REMARK 921   NORMALIZED FREE ENERGY PREDICTED BY IDOCK:   -3.28 KCAL/MOL
REMARK 922        TOTAL FREE ENERGY PREDICTED BY IDOCK:   -5.94 KCAL/MOL
REMARK 923 INTER-LIGAND FREE ENERGY PREDICTED BY IDOCK:   -4.93 KCAL/MOL
REMARK 924 INTRA-LIGAND FREE ENERGY PREDICTED BY IDOCK:   -1.01 KCAL/MOL
REMARK 927      BINDING AFFINITY PREDICTED BY RF-SCORE:    0.00 PKD
ROOT
HETATM    1  C   UNL     1     -11.325  15.024  68.939  1.00  0.00    -0.312 C  
HETATM    2  C   UNL     1     -11.938  13.710  68.484  1.00  0.00    -0.361 C  
ENDROOT
BRANCH   2   3
HETATM    3  N   UNL     1     -11.319  13.126  67.186  1.00  0.00    -0.301 N  
HETATM    4  C   UNL     1     -11.408  11.590  67.237  1.00  0.00    -0.290 C  
BRANCH   3   5
HETATM    5  C   UNL     1     -12.029  13.616  65.910  1.00  0.00    -0.405 C  
HETATM    6  C   UNL     1     -11.081  13.931  64.763  1.00  0.00    -0.386 C  
ENDBRANCH   3   5
BRANCH   3   7
HETATM    7  C   UNL     1      -9.818  13.534  67.217  1.00  0.00    -0.237 C  
BRANCH   7   8
HETATM    8  C   UNL     1      -8.882  12.468  67.791  1.00  0.00    -0.178 C  
BRANCH   8   9
HETATM    9  O   UNL     1      -8.117  11.838  66.760  1.00  0.00    -0.166 OA 
BRANCH   9  10
HETATM   10  C   UNL     1      -7.017  11.160  67.213  1.00  0.00    -0.096 C  
HETATM   11  O   UNL     1      -6.232  11.626  68.032  1.00  0.00    -0.046 OA 
BRANCH  10  12
HETATM   12  C   UNL     1      -6.999   9.726  66.699  1.00  0.00    -0.085 C  
HETATM   13  C   UNL     1      -8.180   9.002  67.308  1.00  0.00    -0.103 A  
HETATM   14  C   UNL     1      -8.293   8.875  68.704  1.00  0.00    -0.124 A  
HETATM   15  C   UNL     1      -9.449   8.342  69.273  1.00  0.00    -0.155 A  
HETATM   16  C   UNL     1     -10.489   7.911  68.453  1.00  0.00    -0.207 A  
HETATM   17  C   UNL     1     -10.375   8.017  67.066  1.00  0.00    -0.414 A  
HETATM   18  C   UNL     1      -9.228   8.570  66.495  1.00  0.00    -0.190 A  
HETATM   19  O   UNL     1      -9.221   8.676  65.126  1.00  0.00    -0.076 OA 
HETATM   20  C   UNL     1      -8.111   9.198  64.506  1.00  0.00    -0.139 A  
HETATM   21  C   UNL     1      -8.143   9.223  63.110  1.00  0.00    -0.158 A  
HETATM   22  C   UNL     1      -7.068   9.746  62.392  1.00  0.00    -0.117 A  
HETATM   23  C   UNL     1      -5.952  10.236  63.069  1.00  0.00    -0.145 A  
HETATM   24  C   UNL     1      -5.914  10.206  64.463  1.00  0.00    -0.130 A  
HETATM   25  C   UNL     1      -7.002   9.696  65.192  1.00  0.00    -0.106 A  
ENDBRANCH  10  12
ENDBRANCH   9  10
ENDBRANCH   8   9
ENDBRANCH   7   8
ENDBRANCH   3   7
ENDBRANCH   2   3
TORSDOF 7
ENDMDL
MODEL      202
REMARK 921   NORMALIZED FREE ENERGY PREDICTED BY IDOCK:   -3.27 KCAL/MOL
REMARK 922        TOTAL FREE ENERGY PREDICTED BY IDOCK:   -5.93 KCAL/MOL
REMARK 923 INTER-LIGAND FREE ENERGY PREDICTED BY IDOCK:   -5.37 KCAL/MOL
REMARK 924 INTRA-LIGAND FREE ENERGY PREDICTED BY IDOCK:   -0.56 KCAL/MOL
REMARK 927      BINDING AFFINITY PREDICTED BY RF-SCORE:    0.00 PKD
ROOT
HETATM    1  C   UNL     1     -12.476  13.191  63.783  1.00  0.00    -0.368 C  
HETATM    2  C   UNL     1     -12.453  13.952  65.099  1.00  0.00    -0.453 C  
ENDROOT
BRANCH   2   3
HETATM    3  N   UNL     1     -11.320  13.526  66.070  1.00  0.00    -0.308 N  
HETATM    4  C   UNL     1     -10.063  13.185  65.251  1.00  0.00    -0.235 C  
BRANCH   3   5
HETATM    5  C   UNL     1     -10.960  14.623  67.089  1.00  0.00    -0.316 C  
HETATM    6  C   UNL     1      -9.598  15.257  66.851  1.00  0.00    -0.245 C  
ENDBRANCH   3   5
BRANCH   3   7
HETATM    7  C   UNL     1     -11.826  12.225  66.760  1.00  0.00    -0.277 C  
BRANCH   7   8
HETATM    8  C   UNL     1     -10.788  11.103  66.837  1.00  0.00    -0.279 C  
BRANCH   8   9
HETATM    9  O   UNL     1      -9.836  11.348  67.875  1.00  0.00    -0.171 OA 
BRANCH   9  10
HETATM   10  C   UNL     1      -9.853  10.421  68.883  1.00  0.00    -0.200 C  
HETATM   11  O   UNL     1     -10.696  10.413  69.772  1.00  0.00    -0.251 OA 
BRANCH  10  12
HETATM   12  C   UNL     1      -8.809   9.334  68.654  1.00  0.00    -0.132 C  
HETATM   13  C   UNL     1      -7.595   9.675  69.488  1.00  0.00    -0.104 A  
HETATM   14  C   UNL     1      -6.901  10.881  69.275  1.00  0.00    -0.105 A  
HETATM   15  C   UNL     1      -5.876  11.267  70.137  1.00  0.00    -0.133 A  
HETATM   16  C   UNL     1      -5.521  10.444  71.204  1.00  0.00    -0.071 A  
HETATM   17  C   UNL     1      -6.192   9.238  71.408  1.00  0.00    -0.066 A  
HETATM   18  C   UNL     1      -7.233   8.859  70.560  1.00  0.00    -0.071 A  
HETATM   19  O   UNL     1      -7.867   7.679  70.864  1.00  0.00    -0.087 OA 
HETATM   20  C   UNL     1      -8.889   7.246  70.054  1.00  0.00    -0.141 A  
HETATM   21  C   UNL     1      -9.452   6.011  70.382  1.00  0.00    -0.187 A  
HETATM   22  C   UNL     1     -10.503   5.495  69.626  1.00  0.00    -0.379 A  
HETATM   23  C   UNL     1     -10.988   6.208  68.531  1.00  0.00    -0.404 A  
HETATM   24  C   UNL     1     -10.424   7.439  68.196  1.00  0.00    -0.241 A  
HETATM   25  C   UNL     1      -9.376   7.973  68.966  1.00  0.00    -0.147 A  
ENDBRANCH  10  12
ENDBRANCH   9  10
ENDBRANCH   8   9
ENDBRANCH   7   8
ENDBRANCH   3   7
ENDBRANCH   2   3
TORSDOF 7
ENDMDL
MODEL      203
REMARK 921   NORMALIZED FREE ENERGY PREDICTED BY IDOCK:   -3.27 KCAL/MOL
REMARK 922        TOTAL FREE ENERGY PREDICTED BY IDOCK:   -5.93 KCAL/MOL
REMARK 923 INTER-LIGAND FREE ENERGY PREDICTED BY IDOCK:   -4.89 KCAL/MOL
REMARK 924 INTRA-LIGAND FREE ENERGY PREDICTED BY IDOCK:   -1.04 KCAL/MOL
REMARK 927      BINDING AFFINITY PREDICTED BY RF-SCORE:    0.00 PKD
ROOT
HETATM    1  C   UNL     1      -8.570  14.866  68.477  1.00  0.00    -0.162 C  
HETATM    2  C   UNL     1      -9.736  13.894  68.546  1.00  0.00    -0.202 C  
ENDROOT
BRANCH   2   3
HETATM    3  N   UNL     1     -10.687  13.941  67.321  1.00  0.00    -0.282 N  
HETATM    4  C   UNL     1     -11.555  15.209  67.413  1.00  0.00    -0.240 C  
BRANCH   3   5
HETATM    5  C   UNL     1      -9.935  13.958  65.977  1.00  0.00    -0.310 C  
HETATM    6  C   UNL     1     -10.512  14.935  64.964  1.00  0.00    -0.429 C  
ENDBRANCH   3   5
BRANCH   3   7
HETATM    7  C   UNL     1     -11.614  12.699  67.461  1.00  0.00    -0.359 C  
BRANCH   7   8
HETATM    8  C   UNL     1     -11.160  11.475  66.662  1.00  0.00    -0.295 C  
BRANCH   8   9
HETATM    9  O   UNL     1     -11.534  10.260  67.317  1.00  0.00    -0.249 OA 
BRANCH   9  10
HETATM   10  C   UNL     1     -10.555   9.729  68.115  1.00  0.00    -0.231 C  
HETATM   11  O   UNL     1     -10.623   9.715  69.339  1.00  0.00    -0.209 OA 
BRANCH  10  12
HETATM   12  C   UNL     1      -9.484   9.029  67.288  1.00  0.00    -0.189 C  
HETATM   13  C   UNL     1      -8.137   9.541  67.747  1.00  0.00    -0.106 A  
HETATM   14  C   UNL     1      -7.823  10.909  67.645  1.00  0.00    -0.113 A  
HETATM   15  C   UNL     1      -6.646  11.406  68.201  1.00  0.00    -0.057 A  
HETATM   16  C   UNL     1      -5.763  10.541  68.843  1.00  0.00    -0.040 A  
HETATM   17  C   UNL     1      -6.059   9.180  68.930  1.00  0.00    -0.044 A  
HETATM   18  C   UNL     1      -7.247   8.683  68.393  1.00  0.00    -0.085 A  
HETATM   19  O   UNL     1      -7.477   7.340  68.565  1.00  0.00    -0.100 OA 
HETATM   20  C   UNL     1      -8.623   6.790  68.042  1.00  0.00    -0.122 A  
HETATM   21  C   UNL     1      -8.769   5.410  68.200  1.00  0.00    -0.105 A  
HETATM   22  C   UNL     1      -9.905   4.764  67.714  1.00  0.00    -0.194 A  
HETATM   23  C   UNL     1     -10.895   5.495  67.059  1.00  0.00    -0.194 A  
HETATM   24  C   UNL     1     -10.750   6.873  66.895  1.00  0.00    -0.386 A  
HETATM   25  C   UNL     1      -9.615   7.532  67.398  1.00  0.00    -0.187 A  
ENDBRANCH  10  12
ENDBRANCH   9  10
ENDBRANCH   8   9
ENDBRANCH   7   8
ENDBRANCH   3   7
ENDBRANCH   2   3
TORSDOF 7
ENDMDL
MODEL      204
REMARK 921   NORMALIZED FREE ENERGY PREDICTED BY IDOCK:   -3.26 KCAL/MOL
REMARK 922        TOTAL FREE ENERGY PREDICTED BY IDOCK:   -5.92 KCAL/MOL
REMARK 923 INTER-LIGAND FREE ENERGY PREDICTED BY IDOCK:   -5.18 KCAL/MOL
REMARK 924 INTRA-LIGAND FREE ENERGY PREDICTED BY IDOCK:   -0.74 KCAL/MOL
REMARK 927      BINDING AFFINITY PREDICTED BY RF-SCORE:    0.00 PKD
ROOT
HETATM    1  C   UNL     1      -8.021   7.591  64.495  1.00  0.00    -0.122 C  
HETATM    2  C   UNL     1      -7.683   6.708  65.684  1.00  0.00    -0.095 C  
ENDROOT
BRANCH   2   3
HETATM    3  N   UNL     1      -7.735   5.185  65.391  1.00  0.00    -0.085 N  
HETATM    4  C   UNL     1      -8.573   4.951  64.120  1.00  0.00    -0.135 C  
BRANCH   3   5
HETATM    5  C   UNL     1      -6.341   4.566  65.180  1.00  0.00    -0.035 C  
HETATM    6  C   UNL     1      -5.241   5.250  65.977  1.00  0.00    -0.012 C  
ENDBRANCH   3   5
BRANCH   3   7
HETATM    7  C   UNL     1      -8.484   4.550  66.598  1.00  0.00    -0.105 C  
BRANCH   7   8
HETATM    8  C   UNL     1      -9.627   5.402  67.156  1.00  0.00    -0.137 C  
BRANCH   8   9
HETATM    9  O   UNL     1      -9.566   5.483  68.581  1.00  0.00    -0.123 OA 
BRANCH   9  10
HETATM   10  C   UNL     1     -10.442   6.383  69.130  1.00  0.00    -0.229 C  
HETATM   11  O   UNL     1     -11.659   6.249  69.080  1.00  0.00    -0.324 OA 
BRANCH  10  12
HETATM   12  C   UNL     1      -9.709   7.451  69.933  1.00  0.00    -0.171 C  
HETATM   13  C   UNL     1     -10.358   8.783  69.630  1.00  0.00    -0.213 A  
HETATM   14  C   UNL     1     -10.377   9.282  68.314  1.00  0.00    -0.257 A  
HETATM   15  C   UNL     1     -11.101  10.433  68.007  1.00  0.00    -0.359 A  
HETATM   16  C   UNL     1     -11.791  11.107  69.012  1.00  0.00    -0.418 A  
HETATM   17  C   UNL     1     -11.759  10.628  70.323  1.00  0.00    -0.433 A  
HETATM   18  C   UNL     1     -11.053   9.464  70.629  1.00  0.00    -0.289 A  
HETATM   19  O   UNL     1     -11.114   9.041  71.935  1.00  0.00    -0.355 OA 
HETATM   20  C   UNL     1     -10.425   7.910  72.299  1.00  0.00    -0.262 A  
HETATM   21  C   UNL     1     -10.479   7.568  73.652  1.00  0.00    -0.285 A  
HETATM   22  C   UNL     1      -9.821   6.429  74.115  1.00  0.00    -0.296 A  
HETATM   23  C   UNL     1      -9.097   5.634  73.228  1.00  0.00    -0.129 A  
HETATM   24  C   UNL     1      -9.036   5.977  71.877  1.00  0.00    -0.138 A  
HETATM   25  C   UNL     1      -9.712   7.113  71.401  1.00  0.00    -0.170 A  
ENDBRANCH  10  12
ENDBRANCH   9  10
ENDBRANCH   8   9
ENDBRANCH   7   8
ENDBRANCH   3   7
ENDBRANCH   2   3
TORSDOF 7
ENDMDL
MODEL      205
REMARK 921   NORMALIZED FREE ENERGY PREDICTED BY IDOCK:   -3.25 KCAL/MOL
REMARK 922        TOTAL FREE ENERGY PREDICTED BY IDOCK:   -5.89 KCAL/MOL
REMARK 923 INTER-LIGAND FREE ENERGY PREDICTED BY IDOCK:   -6.16 KCAL/MOL
REMARK 924 INTRA-LIGAND FREE ENERGY PREDICTED BY IDOCK:    0.27 KCAL/MOL
REMARK 927      BINDING AFFINITY PREDICTED BY RF-SCORE:    0.00 PKD
ROOT
HETATM    1  C   UNL     1     -10.135   5.407  68.406  1.00  0.00    -0.235 C  
HETATM    2  C   UNL     1     -10.689   6.631  69.117  1.00  0.00    -0.264 C  
ENDROOT
BRANCH   2   3
HETATM    3  N   UNL     1     -10.172   6.822  70.568  1.00  0.00    -0.191 N  
HETATM    4  C   UNL     1     -11.327   6.554  71.549  1.00  0.00    -0.291 C  
BRANCH   3   5
HETATM    5  C   UNL     1      -9.003   5.881  70.916  1.00  0.00    -0.146 C  
HETATM    6  C   UNL     1      -7.656   6.582  70.997  1.00  0.00    -0.089 C  
ENDBRANCH   3   5
BRANCH   3   7
HETATM    7  C   UNL     1      -9.771   8.322  70.676  1.00  0.00    -0.171 C  
BRANCH   7   8
HETATM    8  C   UNL     1     -10.818   9.211  71.352  1.00  0.00    -0.349 C  
BRANCH   8   9
HETATM    9  O   UNL     1     -11.828   9.619  70.426  1.00  0.00    -0.240 OA 
BRANCH   9  10
HETATM   10  C   UNL     1     -12.486  10.766  70.784  1.00  0.00    -0.387 C  
HETATM   11  O   UNL     1     -13.568  10.766  71.360  1.00  0.00    -0.094 OA 
BRANCH  10  12
HETATM   12  C   UNL     1     -11.631  12.000  70.524  1.00  0.00     0.142 C  
HETATM   13  C   UNL     1     -11.367  12.076  69.036  1.00  0.00    -0.331 A  
HETATM   14  C   UNL     1     -10.689  11.032  68.380  1.00  0.00    -0.240 A  
HETATM   15  C   UNL     1     -10.576  11.028  66.991  1.00  0.00    -0.303 A  
HETATM   16  C   UNL     1     -11.118  12.074  66.248  1.00  0.00    -0.363 A  
HETATM   17  C   UNL     1     -11.775  13.123  66.895  1.00  0.00    -0.441 A  
HETATM   18  C   UNL     1     -11.909  13.118  68.284  1.00  0.00    -0.349 A  
HETATM   19  O   UNL     1     -12.609  14.166  68.831  1.00  0.00    -0.045 OA 
HETATM   20  C   UNL     1     -12.758  14.224  70.196  1.00  0.00    -0.192 A  
HETATM   21  C   UNL     1     -13.429  15.344  70.692  1.00  0.00    -0.213 A  
HETATM   22  C   UNL     1     -13.640  15.485  72.063  1.00  0.00    -0.595 A  
HETATM   23  C   UNL     1     -13.172  14.511  72.943  1.00  0.00    -0.612 A  
HETATM   24  C   UNL     1     -12.497  13.394  72.451  1.00  0.00     0.210 A  
HETATM   25  C   UNL     1     -12.296  13.238  71.069  1.00  0.00    -0.379 A  
ENDBRANCH  10  12
ENDBRANCH   9  10
ENDBRANCH   8   9
ENDBRANCH   7   8
ENDBRANCH   3   7
ENDBRANCH   2   3
TORSDOF 7
ENDMDL
MODEL      206
REMARK 921   NORMALIZED FREE ENERGY PREDICTED BY IDOCK:   -3.24 KCAL/MOL
REMARK 922        TOTAL FREE ENERGY PREDICTED BY IDOCK:   -5.89 KCAL/MOL
REMARK 923 INTER-LIGAND FREE ENERGY PREDICTED BY IDOCK:   -4.90 KCAL/MOL
REMARK 924 INTRA-LIGAND FREE ENERGY PREDICTED BY IDOCK:   -0.99 KCAL/MOL
REMARK 927      BINDING AFFINITY PREDICTED BY RF-SCORE:    0.00 PKD
ROOT
HETATM    1  C   UNL     1      -6.088   9.132  67.886  1.00  0.00    -0.050 C  
HETATM    2  C   UNL     1      -7.542   8.758  67.649  1.00  0.00    -0.097 C  
ENDROOT
BRANCH   2   3
HETATM    3  N   UNL     1      -8.258   8.143  68.881  1.00  0.00    -0.123 N  
HETATM    4  C   UNL     1      -7.253   8.042  70.042  1.00  0.00    -0.061 C  
BRANCH   3   5
HETATM    5  C   UNL     1      -9.467   8.974  69.349  1.00  0.00    -0.159 C  
HETATM    6  C   UNL     1      -9.182  10.465  69.451  1.00  0.00    -0.177 C  
ENDBRANCH   3   5
BRANCH   3   7
HETATM    7  C   UNL     1      -8.664   6.702  68.454  1.00  0.00    -0.122 C  
BRANCH   7   8
HETATM    8  C   UNL     1      -8.835   5.720  69.616  1.00  0.00    -0.122 C  
BRANCH   8   9
HETATM    9  O   UNL     1     -10.129   5.842  70.212  1.00  0.00    -0.181 OA 
BRANCH   9  10
HETATM   10  C   UNL     1     -10.337   5.006  71.277  1.00  0.00    -0.185 C  
HETATM   11  O   UNL     1     -10.114   3.801  71.236  1.00  0.00    -0.136 OA 
BRANCH  10  12
HETATM   12  C   UNL     1     -10.710   5.787  72.531  1.00  0.00    -0.279 C  
HETATM   13  C   UNL     1      -9.430   6.280  73.168  1.00  0.00    -0.142 A  
HETATM   14  C   UNL     1      -8.452   5.365  73.600  1.00  0.00    -0.111 A  
HETATM   15  C   UNL     1      -7.213   5.816  74.049  1.00  0.00    -0.082 A  
HETATM   16  C   UNL     1      -6.946   7.183  74.091  1.00  0.00    -0.089 A  
HETATM   17  C   UNL     1      -7.919   8.096  73.682  1.00  0.00    -0.256 A  
HETATM   18  C   UNL     1      -9.153   7.646  73.212  1.00  0.00    -0.215 A  
HETATM   19  O   UNL     1     -10.032   8.613  72.787  1.00  0.00    -0.202 OA 
HETATM   20  C   UNL     1     -11.270   8.230  72.330  1.00  0.00    -0.374 A  
HETATM   21  C   UNL     1     -12.138   9.264  71.970  1.00  0.00    -0.406 A  
HETATM   22  C   UNL     1     -13.411   8.974  71.482  1.00  0.00    -0.394 A  
HETATM   23  C   UNL     1     -13.825   7.648  71.362  1.00  0.00    -0.413 A  
HETATM   24  C   UNL     1     -12.963   6.614  71.727  1.00  0.00    -0.191 A  
HETATM   25  C   UNL     1     -11.672   6.900  72.202  1.00  0.00    -0.327 A  
ENDBRANCH  10  12
ENDBRANCH   9  10
ENDBRANCH   8   9
ENDBRANCH   7   8
ENDBRANCH   3   7
ENDBRANCH   2   3
TORSDOF 7
ENDMDL
MODEL      207
REMARK 921   NORMALIZED FREE ENERGY PREDICTED BY IDOCK:   -3.23 KCAL/MOL
REMARK 922        TOTAL FREE ENERGY PREDICTED BY IDOCK:   -5.87 KCAL/MOL
REMARK 923 INTER-LIGAND FREE ENERGY PREDICTED BY IDOCK:   -5.05 KCAL/MOL
REMARK 924 INTRA-LIGAND FREE ENERGY PREDICTED BY IDOCK:   -0.82 KCAL/MOL
REMARK 927      BINDING AFFINITY PREDICTED BY RF-SCORE:    0.00 PKD
ROOT
HETATM    1  C   UNL     1     -10.135   4.193  64.881  1.00  0.00    -0.213 C  
HETATM    2  C   UNL     1      -8.747   4.799  65.006  1.00  0.00    -0.147 C  
ENDROOT
BRANCH   2   3
HETATM    3  N   UNL     1      -8.120   4.688  66.421  1.00  0.00    -0.103 N  
HETATM    4  C   UNL     1      -8.386   3.276  66.974  1.00  0.00    -0.097 C  
BRANCH   3   5
HETATM    5  C   UNL     1      -6.600   4.939  66.426  1.00  0.00    -0.049 C  
HETATM    6  C   UNL     1      -5.989   5.021  65.036  1.00  0.00    -0.025 C  
ENDBRANCH   3   5
BRANCH   3   7
HETATM    7  C   UNL     1      -8.888   5.715  67.303  1.00  0.00    -0.106 C  
BRANCH   7   8
HETATM    8  C   UNL     1      -8.073   6.950  67.696  1.00  0.00    -0.113 C  
BRANCH   8   9
HETATM    9  O   UNL     1      -8.776   7.755  68.645  1.00  0.00    -0.128 OA 
BRANCH   9  10
HETATM   10  C   UNL     1      -7.981   8.627  69.339  1.00  0.00    -0.102 C  
HETATM   11  O   UNL     1      -6.757   8.558  69.346  1.00  0.00    -0.044 OA 
BRANCH  10  12
HETATM   12  C   UNL     1      -8.798   9.761  69.946  1.00  0.00    -0.248 C  
HETATM   13  C   UNL     1      -9.373  10.576  68.808  1.00  0.00    -0.181 A  
HETATM   14  C   UNL     1      -8.521  11.210  67.886  1.00  0.00    -0.131 A  
HETATM   15  C   UNL     1      -9.045  11.835  66.756  1.00  0.00    -0.194 A  
HETATM   16  C   UNL     1     -10.422  11.853  66.549  1.00  0.00    -0.256 A  
HETATM   17  C   UNL     1     -11.274  11.243  67.471  1.00  0.00    -0.357 A  
HETATM   18  C   UNL     1     -10.751  10.597  68.592  1.00  0.00    -0.207 A  
HETATM   19  O   UNL     1     -11.660   9.985  69.421  1.00  0.00    -0.150 OA 
HETATM   20  C   UNL     1     -11.204   9.348  70.550  1.00  0.00    -0.275 A  
HETATM   21  C   UNL     1     -12.183   8.798  71.381  1.00  0.00    -0.359 A  
HETATM   22  C   UNL     1     -11.817   8.121  72.543  1.00  0.00    -0.438 A  
HETATM   23  C   UNL     1     -10.471   8.000  72.884  1.00  0.00    -0.402 A  
HETATM   24  C   UNL     1      -9.491   8.554  72.060  1.00  0.00    -0.364 A  
HETATM   25  C   UNL     1      -9.853   9.222  70.877  1.00  0.00    -0.363 A  
ENDBRANCH  10  12
ENDBRANCH   9  10
ENDBRANCH   8   9
ENDBRANCH   7   8
ENDBRANCH   3   7
ENDBRANCH   2   3
TORSDOF 7
ENDMDL
MODEL      208
REMARK 921   NORMALIZED FREE ENERGY PREDICTED BY IDOCK:   -3.23 KCAL/MOL
REMARK 922        TOTAL FREE ENERGY PREDICTED BY IDOCK:   -5.87 KCAL/MOL
REMARK 923 INTER-LIGAND FREE ENERGY PREDICTED BY IDOCK:   -4.89 KCAL/MOL
REMARK 924 INTRA-LIGAND FREE ENERGY PREDICTED BY IDOCK:   -0.98 KCAL/MOL
REMARK 927      BINDING AFFINITY PREDICTED BY RF-SCORE:    0.00 PKD
ROOT
HETATM    1  C   UNL     1      -9.488   8.697  68.526  1.00  0.00    -0.146 C  
HETATM    2  C   UNL     1      -8.743   9.996  68.266  1.00  0.00    -0.119 C  
ENDROOT
BRANCH   2   3
HETATM    3  N   UNL     1      -7.374   9.822  67.556  1.00  0.00    -0.090 N  
HETATM    4  C   UNL     1      -6.661   8.590  68.143  1.00  0.00    -0.065 C  
BRANCH   3   5
HETATM    5  C   UNL     1      -7.508   9.633  66.034  1.00  0.00    -0.099 C  
HETATM    6  C   UNL     1      -7.360   8.188  65.581  1.00  0.00    -0.076 C  
ENDBRANCH   3   5
BRANCH   3   7
HETATM    7  C   UNL     1      -6.548  11.090  67.921  1.00  0.00    -0.062 C  
BRANCH   7   8
HETATM    8  C   UNL     1      -6.828  12.306  67.036  1.00  0.00    -0.031 C  
BRANCH   8   9
HETATM    9  O   UNL     1      -7.455  13.355  67.778  1.00  0.00    -0.127 OA 
BRANCH   9  10
HETATM   10  C   UNL     1      -8.529  13.924  67.146  1.00  0.00    -0.180 C  
HETATM   11  O   UNL     1      -8.423  14.840  66.339  1.00  0.00    -0.068 OA 
BRANCH  10  12
HETATM   12  C   UNL     1      -9.817  13.168  67.451  1.00  0.00    -0.226 C  
HETATM   13  C   UNL     1     -10.630  14.009  68.410  1.00  0.00    -0.259 A  
HETATM   14  C   UNL     1     -10.113  14.348  69.673  1.00  0.00     0.242 A  
HETATM   15  C   UNL     1     -10.794  15.242  70.498  1.00  0.00    -0.287 A  
HETATM   16  C   UNL     1     -12.005  15.787  70.078  1.00  0.00    -0.352 A  
HETATM   17  C   UNL     1     -12.533  15.438  68.834  1.00  0.00     0.175 A  
HETATM   18  C   UNL     1     -11.843  14.561  67.998  1.00  0.00    -0.315 A  
HETATM   19  O   UNL     1     -12.415  14.311  66.774  1.00  0.00    -0.376 OA 
HETATM   20  C   UNL     1     -11.789  13.440  65.914  1.00  0.00    -0.376 A  
HETATM   21  C   UNL     1     -12.451  13.183  64.712  1.00  0.00    -0.460 A  
HETATM   22  C   UNL     1     -11.887  12.323  63.770  1.00  0.00    -0.587 A  
HETATM   23  C   UNL     1     -10.664  11.708  64.033  1.00  0.00    -0.442 A  
HETATM   24  C   UNL     1     -10.003  11.958  65.235  1.00  0.00    -0.280 A  
HETATM   25  C   UNL     1     -10.557  12.838  66.181  1.00  0.00    -0.286 A  
ENDBRANCH  10  12
ENDBRANCH   9  10
ENDBRANCH   8   9
ENDBRANCH   7   8
ENDBRANCH   3   7
ENDBRANCH   2   3
TORSDOF 7
ENDMDL
MODEL      209
REMARK 921   NORMALIZED FREE ENERGY PREDICTED BY IDOCK:   -3.23 KCAL/MOL
REMARK 922        TOTAL FREE ENERGY PREDICTED BY IDOCK:   -5.87 KCAL/MOL
REMARK 923 INTER-LIGAND FREE ENERGY PREDICTED BY IDOCK:   -4.88 KCAL/MOL
REMARK 924 INTRA-LIGAND FREE ENERGY PREDICTED BY IDOCK:   -0.99 KCAL/MOL
REMARK 927      BINDING AFFINITY PREDICTED BY RF-SCORE:    0.00 PKD
ROOT
HETATM    1  C   UNL     1      -9.749   9.924  65.189  1.00  0.00    -0.376 C  
HETATM    2  C   UNL     1     -10.295  11.145  65.912  1.00  0.00    -0.259 C  
ENDROOT
BRANCH   2   3
HETATM    3  N   UNL     1     -10.138  11.102  67.455  1.00  0.00    -0.181 N  
HETATM    4  C   UNL     1     -11.520  10.868  68.091  1.00  0.00    -0.295 C  
BRANCH   3   5
HETATM    5  C   UNL     1      -9.184   9.991  67.931  1.00  0.00    -0.137 C  
HETATM    6  C   UNL     1      -9.828   9.000  68.888  1.00  0.00    -0.181 C  
ENDBRANCH   3   5
BRANCH   3   7
HETATM    7  C   UNL     1      -9.641  12.519  67.866  1.00  0.00    -0.206 C  
BRANCH   7   8
HETATM    8  C   UNL     1      -8.140  12.608  68.153  1.00  0.00    -0.164 C  
BRANCH   8   9
HETATM    9  O   UNL     1      -7.665  13.949  68.022  1.00  0.00    -0.122 OA 
BRANCH   9  10
HETATM   10  C   UNL     1      -7.378  14.561  69.214  1.00  0.00    -0.126 C  
HETATM   11  O   UNL     1      -6.550  14.129  70.007  1.00  0.00    -0.130 OA 
BRANCH  10  12
HETATM   12  C   UNL     1      -8.088  15.904  69.332  1.00  0.00    -0.178 C  
HETATM   13  C   UNL     1      -7.653  16.762  68.165  1.00  0.00    -0.177 A  
HETATM   14  C   UNL     1      -6.297  17.094  67.993  1.00  0.00    -0.146 A  
HETATM   15  C   UNL     1      -5.874  17.757  66.842  1.00  0.00    -0.181 A  
HETATM   16  C   UNL     1      -6.801  18.113  65.866  1.00  0.00    -0.333 A  
HETATM   17  C   UNL     1      -8.151  17.803  66.040  1.00  0.00    -0.136 A  
HETATM   18  C   UNL     1      -8.575  17.121  67.180  1.00  0.00    -0.204 A  
HETATM   19  O   UNL     1      -9.913  16.818  67.246  1.00  0.00    -0.259 OA 
HETATM   20  C   UNL     1     -10.391  16.161  68.355  1.00  0.00    -0.257 A  
HETATM   21  C   UNL     1     -11.769  15.936  68.387  1.00  0.00    -0.246 A  
HETATM   22  C   UNL     1     -12.346  15.266  69.466  1.00  0.00    -0.210 A  
HETATM   23  C   UNL     1     -11.547  14.828  70.521  1.00  0.00    -0.333 A  
HETATM   24  C   UNL     1     -10.171  15.057  70.494  1.00  0.00     0.249 A  
HETATM   25  C   UNL     1      -9.582  15.716  69.402  1.00  0.00    -0.287 A  
ENDBRANCH  10  12
ENDBRANCH   9  10
ENDBRANCH   8   9
ENDBRANCH   7   8
ENDBRANCH   3   7
ENDBRANCH   2   3
TORSDOF 7
ENDMDL
MODEL      210
REMARK 921   NORMALIZED FREE ENERGY PREDICTED BY IDOCK:   -3.22 KCAL/MOL
REMARK 922        TOTAL FREE ENERGY PREDICTED BY IDOCK:   -5.85 KCAL/MOL
REMARK 923 INTER-LIGAND FREE ENERGY PREDICTED BY IDOCK:   -5.06 KCAL/MOL
REMARK 924 INTRA-LIGAND FREE ENERGY PREDICTED BY IDOCK:   -0.79 KCAL/MOL
REMARK 927      BINDING AFFINITY PREDICTED BY RF-SCORE:    0.00 PKD
ROOT
HETATM    1  C   UNL     1     -11.007  14.422  68.460  1.00  0.00    -0.264 C  
HETATM    2  C   UNL     1     -10.239  14.448  67.149  1.00  0.00    -0.257 C  
ENDROOT
BRANCH   2   3
HETATM    3  N   UNL     1     -10.748  13.440  66.085  1.00  0.00    -0.282 N  
HETATM    4  C   UNL     1     -12.194  13.039  66.428  1.00  0.00    -0.280 C  
BRANCH   3   5
HETATM    5  C   UNL     1     -10.724  14.013  64.655  1.00  0.00    -0.399 C  
HETATM    6  C   UNL     1     -12.100  14.124  64.017  1.00  0.00    -0.382 C  
ENDBRANCH   3   5
BRANCH   3   7
HETATM    7  C   UNL     1      -9.841  12.183  66.230  1.00  0.00    -0.234 C  
BRANCH   7   8
HETATM    8  C   UNL     1     -10.445  10.895  65.664  1.00  0.00    -0.208 C  
BRANCH   8   9
HETATM    9  O   UNL     1      -9.958   9.745  66.358  1.00  0.00    -0.217 OA 
BRANCH   9  10
HETATM   10  C   UNL     1     -10.553   9.528  67.573  1.00  0.00    -0.275 C  
HETATM   11  O   UNL     1     -11.654   9.977  67.869  1.00  0.00    -0.161 OA 
BRANCH  10  12
HETATM   12  C   UNL     1      -9.753   8.539  68.413  1.00  0.00    -0.169 C  
HETATM   13  C   UNL     1      -9.641   7.250  67.629  1.00  0.00    -0.160 A  
HETATM   14  C   UNL     1     -10.798   6.542  67.256  1.00  0.00    -0.463 A  
HETATM   15  C   UNL     1     -10.707   5.438  66.410  1.00  0.00    -0.284 A  
HETATM   16  C   UNL     1      -9.461   5.020  65.948  1.00  0.00    -0.171 A  
HETATM   17  C   UNL     1      -8.308   5.707  66.331  1.00  0.00    -0.112 A  
HETATM   18  C   UNL     1      -8.398   6.825  67.160  1.00  0.00    -0.121 A  
HETATM   19  O   UNL     1      -7.218   7.466  67.447  1.00  0.00    -0.088 OA 
HETATM   20  C   UNL     1      -7.243   8.564  68.274  1.00  0.00    -0.086 A  
HETATM   21  C   UNL     1      -6.003   9.134  68.574  1.00  0.00    -0.045 A  
HETATM   22  C   UNL     1      -5.928  10.259  69.394  1.00  0.00    -0.038 A  
HETATM   23  C   UNL     1      -7.092  10.812  69.926  1.00  0.00    -0.099 A  
HETATM   24  C   UNL     1      -8.331  10.242  69.632  1.00  0.00    -0.139 A  
HETATM   25  C   UNL     1      -8.415   9.118  68.792  1.00  0.00    -0.130 A  
ENDBRANCH  10  12
ENDBRANCH   9  10
ENDBRANCH   8   9
ENDBRANCH   7   8
ENDBRANCH   3   7
ENDBRANCH   2   3
TORSDOF 7
ENDMDL
MODEL      211
REMARK 921   NORMALIZED FREE ENERGY PREDICTED BY IDOCK:   -3.19 KCAL/MOL
REMARK 922        TOTAL FREE ENERGY PREDICTED BY IDOCK:   -5.81 KCAL/MOL
REMARK 923 INTER-LIGAND FREE ENERGY PREDICTED BY IDOCK:   -5.07 KCAL/MOL
REMARK 924 INTRA-LIGAND FREE ENERGY PREDICTED BY IDOCK:   -0.74 KCAL/MOL
REMARK 927      BINDING AFFINITY PREDICTED BY RF-SCORE:    0.00 PKD
ROOT
HETATM    1  C   UNL     1      -9.900   7.811  73.473  1.00  0.00    -0.298 C  
HETATM    2  C   UNL     1      -8.990   6.611  73.261  1.00  0.00    -0.123 C  
ENDROOT
BRANCH   2   3
HETATM    3  N   UNL     1      -9.086   5.971  71.851  1.00  0.00    -0.141 N  
HETATM    4  C   UNL     1      -7.797   5.178  71.575  1.00  0.00    -0.111 C  
BRANCH   3   5
HETATM    5  C   UNL     1     -10.289   5.020  71.704  1.00  0.00    -0.192 C  
HETATM    6  C   UNL     1     -10.493   4.102  72.900  1.00  0.00    -0.246 C  
ENDBRANCH   3   5
BRANCH   3   7
HETATM    7  C   UNL     1      -9.155   7.163  70.852  1.00  0.00    -0.152 C  
BRANCH   7   8
HETATM    8  C   UNL     1     -10.314   7.092  69.856  1.00  0.00    -0.210 C  
BRANCH   8   9
HETATM    9  O   UNL     1      -9.945   6.365  68.682  1.00  0.00    -0.138 OA 
BRANCH   9  10
HETATM   10  C   UNL     1     -10.217   7.018  67.509  1.00  0.00    -0.199 C  
HETATM   11  O   UNL     1     -11.222   6.804  66.840  1.00  0.00    -0.375 OA 
BRANCH  10  12
HETATM   12  C   UNL     1      -9.211   8.132  67.249  1.00  0.00    -0.165 C  
HETATM   13  C   UNL     1      -8.289   7.674  66.141  1.00  0.00    -0.134 A  
HETATM   14  C   UNL     1      -7.502   6.519  66.303  1.00  0.00    -0.081 A  
HETATM   15  C   UNL     1      -6.766   6.012  65.233  1.00  0.00    -0.044 A  
HETATM   16  C   UNL     1      -6.791   6.663  64.003  1.00  0.00    -0.049 A  
HETATM   17  C   UNL     1      -7.555   7.821  63.842  1.00  0.00    -0.118 A  
HETATM   18  C   UNL     1      -8.310   8.319  64.904  1.00  0.00    -0.135 A  
HETATM   19  O   UNL     1      -9.066   9.436  64.643  1.00  0.00    -0.225 OA 
HETATM   20  C   UNL     1      -9.817   9.982  65.656  1.00  0.00    -0.295 A  
HETATM   21  C   UNL     1     -10.515  11.149  65.342  1.00  0.00    -0.321 A  
HETATM   22  C   UNL     1     -11.315  11.769  66.301  1.00  0.00    -0.350 A  
HETATM   23  C   UNL     1     -11.410  11.229  67.583  1.00  0.00    -0.352 A  
HETATM   24  C   UNL     1     -10.708  10.066  67.902  1.00  0.00    -0.322 A  
HETATM   25  C   UNL     1      -9.915   9.427  66.934  1.00  0.00    -0.293 A  
ENDBRANCH  10  12
ENDBRANCH   9  10
ENDBRANCH   8   9
ENDBRANCH   7   8
ENDBRANCH   3   7
ENDBRANCH   2   3
TORSDOF 7
ENDMDL
MODEL      212
REMARK 921   NORMALIZED FREE ENERGY PREDICTED BY IDOCK:   -3.18 KCAL/MOL
REMARK 922        TOTAL FREE ENERGY PREDICTED BY IDOCK:   -5.80 KCAL/MOL
REMARK 923 INTER-LIGAND FREE ENERGY PREDICTED BY IDOCK:   -4.59 KCAL/MOL
REMARK 924 INTRA-LIGAND FREE ENERGY PREDICTED BY IDOCK:   -1.21 KCAL/MOL
REMARK 927      BINDING AFFINITY PREDICTED BY RF-SCORE:    0.00 PKD
ROOT
HETATM    1  C   UNL     1      -6.231   6.479  63.436  1.00  0.00    -0.034 C  
HETATM    2  C   UNL     1      -6.002   7.042  64.829  1.00  0.00    -0.037 C  
ENDROOT
BRANCH   2   3
HETATM    3  N   UNL     1      -6.891   8.263  65.185  1.00  0.00    -0.068 N  
HETATM    4  C   UNL     1      -6.402   8.865  66.514  1.00  0.00    -0.062 C  
BRANCH   3   5
HETATM    5  C   UNL     1      -6.860   9.362  64.107  1.00  0.00    -0.095 C  
HETATM    6  C   UNL     1      -8.167   9.510  63.345  1.00  0.00    -0.163 C  
ENDBRANCH   3   5
BRANCH   3   7
HETATM    7  C   UNL     1      -8.323   7.691  65.400  1.00  0.00    -0.128 C  
BRANCH   7   8
HETATM    8  C   UNL     1      -8.425   6.634  66.503  1.00  0.00    -0.121 C  
BRANCH   8   9
HETATM    9  O   UNL     1      -9.079   7.156  67.662  1.00  0.00    -0.128 OA 
BRANCH   9  10
HETATM   10  C   UNL     1     -10.419   7.385  67.496  1.00  0.00    -0.268 C  
HETATM   11  O   UNL     1     -11.161   6.616  66.897  1.00  0.00    -0.400 OA 
BRANCH  10  12
HETATM   12  C   UNL     1     -10.874   8.609  68.282  1.00  0.00    -0.005 C  
HETATM   13  C   UNL     1     -10.634   8.331  69.750  1.00  0.00    -0.228 A  
HETATM   14  C   UNL     1     -11.272   7.248  70.382  1.00  0.00    -0.302 A  
HETATM   15  C   UNL     1     -10.941   6.900  71.691  1.00  0.00    -0.262 A  
HETATM   16  C   UNL     1      -9.989   7.642  72.385  1.00  0.00    -0.256 A  
HETATM   17  C   UNL     1      -9.367   8.729  71.770  1.00  0.00    -0.350 A  
HETATM   18  C   UNL     1      -9.680   9.067  70.453  1.00  0.00    -0.206 A  
HETATM   19  O   UNL     1      -8.986  10.122  69.913  1.00  0.00    -0.185 OA 
HETATM   20  C   UNL     1      -9.265  10.511  68.625  1.00  0.00    -0.172 A  
HETATM   21  C   UNL     1      -8.568  11.627  68.157  1.00  0.00    -0.158 A  
HETATM   22  C   UNL     1      -8.774  12.089  66.858  1.00  0.00    -0.193 A  
HETATM   23  C   UNL     1      -9.686  11.443  66.025  1.00  0.00    -0.253 A  
HETATM   24  C   UNL     1     -10.389  10.331  66.492  1.00  0.00    -0.276 A  
HETATM   25  C   UNL     1     -10.172   9.850  67.795  1.00  0.00    -0.241 A  
ENDBRANCH  10  12
ENDBRANCH   9  10
ENDBRANCH   8   9
ENDBRANCH   7   8
ENDBRANCH   3   7
ENDBRANCH   2   3
TORSDOF 7
ENDMDL
MODEL      213
REMARK 921   NORMALIZED FREE ENERGY PREDICTED BY IDOCK:   -3.17 KCAL/MOL
REMARK 922        TOTAL FREE ENERGY PREDICTED BY IDOCK:   -5.79 KCAL/MOL
REMARK 923 INTER-LIGAND FREE ENERGY PREDICTED BY IDOCK:   -5.07 KCAL/MOL
REMARK 924 INTRA-LIGAND FREE ENERGY PREDICTED BY IDOCK:   -0.72 KCAL/MOL
REMARK 927      BINDING AFFINITY PREDICTED BY RF-SCORE:    0.00 PKD
ROOT
HETATM    1  C   UNL     1      -7.732   8.396  63.103  1.00  0.00    -0.136 C  
HETATM    2  C   UNL     1      -6.967   8.600  64.400  1.00  0.00    -0.081 C  
ENDROOT
BRANCH   2   3
HETATM    3  N   UNL     1      -7.735   8.164  65.676  1.00  0.00    -0.086 N  
HETATM    4  C   UNL     1      -8.530   6.883  65.365  1.00  0.00    -0.084 C  
BRANCH   3   5
HETATM    5  C   UNL     1      -6.804   7.886  66.871  1.00  0.00    -0.072 C  
HETATM    6  C   UNL     1      -5.345   7.703  66.481  1.00  0.00    -0.025 C  
ENDBRANCH   3   5
BRANCH   3   7
HETATM    7  C   UNL     1      -8.745   9.311  65.971  1.00  0.00    -0.153 C  
BRANCH   7   8
HETATM    8  C   UNL     1     -10.069   8.849  66.585  1.00  0.00    -0.287 C  
BRANCH   8   9
HETATM    9  O   UNL     1     -10.050   8.965  68.009  1.00  0.00    -0.177 OA 
BRANCH   9  10
HETATM   10  C   UNL     1     -10.217  10.244  68.470  1.00  0.00    -0.172 C  
HETATM   11  O   UNL     1      -9.288  10.944  68.856  1.00  0.00    -0.182 OA 
BRANCH  10  12
HETATM   12  C   UNL     1     -11.653  10.718  68.282  1.00  0.00    -0.297 C  
HETATM   13  C   UNL     1     -12.279  10.854  69.652  1.00  0.00    -0.354 A  
HETATM   14  C   UNL     1     -12.385   9.737  70.500  1.00  0.00    -0.173 A  
HETATM   15  C   UNL     1     -12.823   9.888  71.814  1.00  0.00    -0.540 A  
HETATM   16  C   UNL     1     -13.179  11.149  72.286  1.00  0.00    -0.097 A  
HETATM   17  C   UNL     1     -13.095  12.258  71.443  1.00  0.00    -0.285 A  
HETATM   18  C   UNL     1     -12.636  12.114  70.134  1.00  0.00     0.093 A  
HETATM   19  O   UNL     1     -12.543  13.266  69.391  1.00  0.00     0.003 OA 
HETATM   20  C   UNL     1     -12.113  13.183  68.088  1.00  0.00    -0.184 A  
HETATM   21  C   UNL     1     -12.097  14.381  67.370  1.00  0.00    -0.348 A  
HETATM   22  C   UNL     1     -11.664  14.399  66.045  1.00  0.00    -0.378 A  
HETATM   23  C   UNL     1     -11.256  13.216  65.430  1.00  0.00    -0.315 A  
HETATM   24  C   UNL     1     -11.277  12.017  66.142  1.00  0.00    -0.394 A  
HETATM   25  C   UNL     1     -11.695  11.996  67.484  1.00  0.00    -0.351 A  
ENDBRANCH  10  12
ENDBRANCH   9  10
ENDBRANCH   8   9
ENDBRANCH   7   8
ENDBRANCH   3   7
ENDBRANCH   2   3
TORSDOF 7
ENDMDL
MODEL      214
REMARK 921   NORMALIZED FREE ENERGY PREDICTED BY IDOCK:   -3.14 KCAL/MOL
REMARK 922        TOTAL FREE ENERGY PREDICTED BY IDOCK:   -5.75 KCAL/MOL
REMARK 923 INTER-LIGAND FREE ENERGY PREDICTED BY IDOCK:   -4.84 KCAL/MOL
REMARK 924 INTRA-LIGAND FREE ENERGY PREDICTED BY IDOCK:   -0.91 KCAL/MOL
REMARK 927      BINDING AFFINITY PREDICTED BY RF-SCORE:    0.00 PKD
ROOT
HETATM    1  C   UNL     1      -5.908  19.776  67.223  1.00  0.00    -0.187 C  
HETATM    2  C   UNL     1      -7.304  19.685  66.629  1.00  0.00    -0.242 C  
ENDROOT
BRANCH   2   3
HETATM    3  N   UNL     1      -8.101  18.421  67.049  1.00  0.00    -0.226 N  
HETATM    4  C   UNL     1      -7.939  18.210  68.565  1.00  0.00    -0.300 C  
BRANCH   3   5
HETATM    5  C   UNL     1      -9.604  18.526  66.727  1.00  0.00    -0.321 C  
HETATM    6  C   UNL     1     -10.504  18.348  67.940  1.00  0.00    -0.416 C  
ENDBRANCH   3   5
BRANCH   3   7
HETATM    7  C   UNL     1      -7.423  17.232  66.310  1.00  0.00    -0.319 C  
BRANCH   7   8
HETATM    8  C   UNL     1      -7.356  15.935  67.120  1.00  0.00    -0.223 C  
BRANCH   8   9
HETATM    9  O   UNL     1      -7.582  14.793  66.292  1.00  0.00     0.849 OA 
BRANCH   9  10
HETATM   10  C   UNL     1      -8.438  13.869  66.831  1.00  0.00    -0.069 C  
HETATM   11  O   UNL     1      -8.062  12.942  67.540  1.00  0.00    -0.158 OA 
BRANCH  10  12
HETATM   12  C   UNL     1      -9.892  14.243  66.574  1.00  0.00    -0.299 C  
HETATM   13  C   UNL     1     -10.436  13.295  65.528  1.00  0.00    -0.295 A  
HETATM   14  C   UNL     1      -9.854  13.239  64.248  1.00  0.00     0.295 A  
HETATM   15  C   UNL     1     -10.254  12.266  63.334  1.00  0.00    -0.360 A  
HETATM   16  C   UNL     1     -11.251  11.357  63.680  1.00  0.00    -0.366 A  
HETATM   17  C   UNL     1     -11.845  11.420  64.942  1.00  0.00     0.274 A  
HETATM   18  C   UNL     1     -11.432  12.379  65.867  1.00  0.00    -0.374 A  
HETATM   19  O   UNL     1     -12.040  12.338  67.098  1.00  0.00    -0.560 OA 
HETATM   20  C   UNL     1     -11.685  13.270  68.044  1.00  0.00    -0.359 A  
HETATM   21  C   UNL     1     -12.382  13.211  69.254  1.00  0.00    -0.013 A  
HETATM   22  C   UNL     1     -12.083  14.107  70.279  1.00  0.00    -0.412 A  
HETATM   23  C   UNL     1     -11.094  15.072  70.096  1.00  0.00    -0.271 A  
HETATM   24  C   UNL     1     -10.401  15.137  68.887  1.00  0.00    -0.243 A  
HETATM   25  C   UNL     1     -10.685  14.225  67.855  1.00  0.00    -0.244 A  
ENDBRANCH  10  12
ENDBRANCH   9  10
ENDBRANCH   8   9
ENDBRANCH   7   8
ENDBRANCH   3   7
ENDBRANCH   2   3
TORSDOF 7
ENDMDL
MODEL      215
REMARK 921   NORMALIZED FREE ENERGY PREDICTED BY IDOCK:   -3.12 KCAL/MOL
REMARK 922        TOTAL FREE ENERGY PREDICTED BY IDOCK:   -5.72 KCAL/MOL
REMARK 923 INTER-LIGAND FREE ENERGY PREDICTED BY IDOCK:   -4.55 KCAL/MOL
REMARK 924 INTRA-LIGAND FREE ENERGY PREDICTED BY IDOCK:   -1.17 KCAL/MOL
REMARK 927      BINDING AFFINITY PREDICTED BY RF-SCORE:    0.00 PKD
ROOT
HETATM    1  C   UNL     1     -11.561   4.979  73.081  1.00  0.00    -0.299 C  
HETATM    2  C   UNL     1     -10.821   5.716  71.978  1.00  0.00    -0.242 C  
ENDROOT
BRANCH   2   3
HETATM    3  N   UNL     1     -11.460   7.070  71.566  1.00  0.00    -0.259 N  
HETATM    4  C   UNL     1     -12.980   6.994  71.797  1.00  0.00    -0.310 C  
BRANCH   3   5
HETATM    5  C   UNL     1     -10.901   8.264  72.362  1.00  0.00    -0.351 C  
HETATM    6  C   UNL     1      -9.497   8.674  71.946  1.00  0.00    -0.369 C  
ENDBRANCH   3   5
BRANCH   3   7
HETATM    7  C   UNL     1     -11.201   7.208  70.037  1.00  0.00    -0.238 C  
BRANCH   7   8
HETATM    8  C   UNL     1     -10.758   5.915  69.348  1.00  0.00    -0.336 C  
BRANCH   8   9
HETATM    9  O   UNL     1      -9.832   6.181  68.292  1.00  0.00    -0.119 OA 
BRANCH   9  10
HETATM   10  C   UNL     1      -8.555   6.439  68.717  1.00  0.00    -0.123 C  
HETATM   11  O   UNL     1      -8.071   5.939  69.726  1.00  0.00    -0.102 OA 
BRANCH  10  12
HETATM   12  C   UNL     1      -7.790   7.274  67.697  1.00  0.00    -0.113 C  
HETATM   13  C   UNL     1      -7.523   6.401  66.491  1.00  0.00    -0.086 A  
HETATM   14  C   UNL     1      -6.766   5.221  66.621  1.00  0.00    -0.061 A  
HETATM   15  C   UNL     1      -6.644   4.341  65.547  1.00  0.00    -0.044 A  
HETATM   16  C   UNL     1      -7.255   4.640  64.332  1.00  0.00    -0.055 A  
HETATM   17  C   UNL     1      -7.990   5.818  64.192  1.00  0.00    -0.122 A  
HETATM   18  C   UNL     1      -8.133   6.691  65.271  1.00  0.00    -0.130 A  
HETATM   19  O   UNL     1      -8.911   7.802  65.056  1.00  0.00     0.047 OA 
HETATM   20  C   UNL     1      -9.073   8.707  66.078  1.00  0.00    -0.204 A  
HETATM   21  C   UNL     1      -9.826   9.844  65.776  1.00  0.00    -0.356 A  
HETATM   22  C   UNL     1     -10.057  10.812  66.753  1.00  0.00    -0.267 A  
HETATM   23  C   UNL     1      -9.525  10.652  68.031  1.00  0.00    -0.164 A  
HETATM   24  C   UNL     1      -8.768   9.520  68.334  1.00  0.00    -0.124 A  
HETATM   25  C   UNL     1      -8.547   8.532  67.359  1.00  0.00    -0.127 A  
ENDBRANCH  10  12
ENDBRANCH   9  10
ENDBRANCH   8   9
ENDBRANCH   7   8
ENDBRANCH   3   7
ENDBRANCH   2   3
TORSDOF 7
ENDMDL
MODEL      216
REMARK 921   NORMALIZED FREE ENERGY PREDICTED BY IDOCK:   -3.10 KCAL/MOL
REMARK 922        TOTAL FREE ENERGY PREDICTED BY IDOCK:   -5.69 KCAL/MOL
REMARK 923 INTER-LIGAND FREE ENERGY PREDICTED BY IDOCK:   -4.95 KCAL/MOL
REMARK 924 INTRA-LIGAND FREE ENERGY PREDICTED BY IDOCK:   -0.74 KCAL/MOL
REMARK 927      BINDING AFFINITY PREDICTED BY RF-SCORE:    0.00 PKD
ROOT
HETATM    1  C   UNL     1      -6.707  10.007  66.669  1.00  0.00    -0.081 C  
HETATM    2  C   UNL     1      -7.885   9.199  67.187  1.00  0.00    -0.102 C  
ENDROOT
BRANCH   2   3
HETATM    3  N   UNL     1      -9.204  10.004  67.331  1.00  0.00    -0.137 N  
HETATM    4  C   UNL     1     -10.149   9.624  66.177  1.00  0.00    -0.258 C  
BRANCH   3   5
HETATM    5  C   UNL     1      -9.926   9.738  68.665  1.00  0.00    -0.167 C  
HETATM    6  C   UNL     1      -9.645   8.363  69.250  1.00  0.00    -0.164 C  
ENDBRANCH   3   5
BRANCH   3   7
HETATM    7  C   UNL     1      -8.803  11.500  67.168  1.00  0.00    -0.168 C  
BRANCH   7   8
HETATM    8  C   UNL     1      -8.897  12.326  68.452  1.00  0.00    -0.137 C  
BRANCH   8   9
HETATM    9  O   UNL     1      -8.032  13.464  68.402  1.00  0.00    -0.138 OA 
BRANCH   9  10
HETATM   10  C   UNL     1      -8.688  14.666  68.365  1.00  0.00    -0.175 C  
HETATM   11  O   UNL     1      -9.637  14.934  69.093  1.00  0.00    -0.210 OA 
BRANCH  10  12
HETATM   12  C   UNL     1      -7.987  15.652  67.439  1.00  0.00    -0.204 C  
HETATM   13  C   UNL     1      -9.028  16.236  66.511  1.00  0.00    -0.313 A  
HETATM   14  C   UNL     1      -9.760  15.400  65.647  1.00  0.00    -0.366 A  
HETATM   15  C   UNL     1     -10.819  15.912  64.900  1.00  0.00    -0.420 A  
HETATM   16  C   UNL     1     -11.143  17.264  64.992  1.00  0.00     0.307 A  
HETATM   17  C   UNL     1     -10.408  18.102  65.833  1.00  0.00    -0.284 A  
HETATM   18  C   UNL     1      -9.361  17.588  66.598  1.00  0.00    -0.262 A  
HETATM   19  O   UNL     1      -8.723  18.475  67.430  1.00  0.00    -0.258 OA 
HETATM   20  C   UNL     1      -7.672  18.029  68.195  1.00  0.00    -0.272 A  
HETATM   21  C   UNL     1      -7.029  18.993  68.975  1.00  0.00    -0.354 A  
HETATM   22  C   UNL     1      -5.959  18.634  69.794  1.00  0.00    -0.261 A  
HETATM   23  C   UNL     1      -5.523  17.311  69.829  1.00  0.00    -0.208 A  
HETATM   24  C   UNL     1      -6.159  16.347  69.047  1.00  0.00    -0.152 A  
HETATM   25  C   UNL     1      -7.249  16.700  68.232  1.00  0.00    -0.169 A  
ENDBRANCH  10  12
ENDBRANCH   9  10
ENDBRANCH   8   9
ENDBRANCH   7   8
ENDBRANCH   3   7
ENDBRANCH   2   3
TORSDOF 7
ENDMDL
MODEL      217
REMARK 921   NORMALIZED FREE ENERGY PREDICTED BY IDOCK:   -3.07 KCAL/MOL
REMARK 922        TOTAL FREE ENERGY PREDICTED BY IDOCK:   -5.65 KCAL/MOL
REMARK 923 INTER-LIGAND FREE ENERGY PREDICTED BY IDOCK:   -4.55 KCAL/MOL
REMARK 924 INTRA-LIGAND FREE ENERGY PREDICTED BY IDOCK:   -1.10 KCAL/MOL
REMARK 927      BINDING AFFINITY PREDICTED BY RF-SCORE:    0.00 PKD
ROOT
HETATM    1  C   UNL     1     -10.213   3.516  64.616  1.00  0.00    -0.092 C  
HETATM    2  C   UNL     1      -9.334   4.613  65.192  1.00  0.00    -0.150 C  
ENDROOT
BRANCH   2   3
HETATM    3  N   UNL     1      -9.255   4.628  66.742  1.00  0.00    -0.120 N  
HETATM    4  C   UNL     1      -9.346   3.182  67.260  1.00  0.00    -0.179 C  
BRANCH   3   5
HETATM    5  C   UNL     1      -7.952   5.258  67.271  1.00  0.00    -0.101 C  
HETATM    6  C   UNL     1      -7.021   5.749  66.173  1.00  0.00    -0.059 C  
ENDBRANCH   3   5
BRANCH   3   7
HETATM    7  C   UNL     1     -10.518   5.402  67.220  1.00  0.00    -0.210 C  
BRANCH   7   8
HETATM    8  C   UNL     1     -10.570   6.867  66.778  1.00  0.00    -0.234 C  
BRANCH   8   9
HETATM    9  O   UNL     1     -10.310   7.749  67.872  1.00  0.00    -0.202 OA 
BRANCH   9  10
HETATM   10  C   UNL     1      -9.278   8.622  67.656  1.00  0.00    -0.134 C  
HETATM   11  O   UNL     1      -8.818   8.854  66.543  1.00  0.00    -0.127 OA 
BRANCH  10  12
HETATM   12  C   UNL     1      -8.907   9.369  68.931  1.00  0.00    -0.136 C  
HETATM   13  C   UNL     1     -10.075  10.255  69.305  1.00  0.00    -0.244 A  
HETATM   14  C   UNL     1     -10.517  11.259  68.424  1.00  0.00    -0.219 A  
HETATM   15  C   UNL     1     -11.681  11.975  68.698  1.00  0.00    -0.380 A  
HETATM   16  C   UNL     1     -12.399  11.712  69.861  1.00  0.00    -0.226 A  
HETATM   17  C   UNL     1     -11.955  10.730  70.749  1.00  0.00    -0.464 A  
HETATM   18  C   UNL     1     -10.802   9.996  70.467  1.00  0.00    -0.314 A  
HETATM   19  O   UNL     1     -10.466   9.020  71.373  1.00  0.00    -0.269 OA 
HETATM   20  C   UNL     1      -9.330   8.277  71.156  1.00  0.00    -0.165 A  
HETATM   21  C   UNL     1      -9.011   7.342  72.144  1.00  0.00    -0.154 A  
HETATM   22  C   UNL     1      -7.885   6.532  72.006  1.00  0.00    -0.099 A  
HETATM   23  C   UNL     1      -7.067   6.661  70.885  1.00  0.00    -0.069 A  
HETATM   24  C   UNL     1      -7.380   7.598  69.900  1.00  0.00    -0.081 A  
HETATM   25  C   UNL     1      -8.524   8.405  70.024  1.00  0.00    -0.125 A  
ENDBRANCH  10  12
ENDBRANCH   9  10
ENDBRANCH   8   9
ENDBRANCH   7   8
ENDBRANCH   3   7
ENDBRANCH   2   3
TORSDOF 7
ENDMDL
MODEL      218
REMARK 921   NORMALIZED FREE ENERGY PREDICTED BY IDOCK:   -3.03 KCAL/MOL
REMARK 922        TOTAL FREE ENERGY PREDICTED BY IDOCK:   -5.58 KCAL/MOL
REMARK 923 INTER-LIGAND FREE ENERGY PREDICTED BY IDOCK:   -4.69 KCAL/MOL
REMARK 924 INTRA-LIGAND FREE ENERGY PREDICTED BY IDOCK:   -0.89 KCAL/MOL
REMARK 927      BINDING AFFINITY PREDICTED BY RF-SCORE:    0.00 PKD
ROOT
HETATM    1  C   UNL     1     -12.350  14.266  64.250  1.00  0.00    -0.407 C  
HETATM    2  C   UNL     1     -12.404  13.023  65.122  1.00  0.00    -0.484 C  
ENDROOT
BRANCH   2   3
HETATM    3  N   UNL     1     -11.202  12.863  66.091  1.00  0.00    -0.283 N  
HETATM    4  C   UNL     1     -10.705  14.260  66.504  1.00  0.00    -0.297 C  
BRANCH   3   5
HETATM    5  C   UNL     1     -11.559  12.074  67.365  1.00  0.00    -0.318 C  
HETATM    6  C   UNL     1     -10.647  12.370  68.545  1.00  0.00    -0.251 C  
ENDBRANCH   3   5
BRANCH   3   7
HETATM    7  C   UNL     1     -10.084  12.168  65.262  1.00  0.00    -0.265 C  
BRANCH   7   8
HETATM    8  C   UNL     1     -10.213  10.645  65.173  1.00  0.00    -0.299 C  
BRANCH   8   9
HETATM    9  O   UNL     1      -9.346   9.995  66.105  1.00  0.00    -0.157 OA 
BRANCH   9  10
HETATM   10  C   UNL     1      -8.292   9.338  65.527  1.00  0.00    -0.133 C  
HETATM   11  O   UNL     1      -7.939   9.527  64.368  1.00  0.00    -0.121 OA 
BRANCH  10  12
HETATM   12  C   UNL     1      -7.539   8.492  66.547  1.00  0.00    -0.088 C  
HETATM   13  C   UNL     1      -7.157   9.391  67.701  1.00  0.00    -0.082 A  
HETATM   14  C   UNL     1      -6.328  10.508  67.489  1.00  0.00    -0.057 A  
HETATM   15  C   UNL     1      -6.095  11.419  68.518  1.00  0.00    -0.045 A  
HETATM   16  C   UNL     1      -6.668  11.213  69.770  1.00  0.00    -0.121 A  
HETATM   17  C   UNL     1      -7.476  10.096  69.992  1.00  0.00    -0.171 A  
HETATM   18  C   UNL     1      -7.728   9.193  68.959  1.00  0.00    -0.078 A  
HETATM   19  O   UNL     1      -8.570   8.149  69.255  1.00  0.00    -0.133 OA 
HETATM   20  C   UNL     1      -8.841   7.218  68.280  1.00  0.00    -0.127 A  
HETATM   21  C   UNL     1      -9.656   6.150  68.663  1.00  0.00    -0.138 A  
HETATM   22  C   UNL     1      -9.997   5.163  67.740  1.00  0.00    -0.202 A  
HETATM   23  C   UNL     1      -9.516   5.234  66.433  1.00  0.00    -0.161 A  
HETATM   24  C   UNL     1      -8.697   6.297  66.050  1.00  0.00    -0.155 A  
HETATM   25  C   UNL     1      -8.364   7.305  66.971  1.00  0.00    -0.118 A  
ENDBRANCH  10  12
ENDBRANCH   9  10
ENDBRANCH   8   9
ENDBRANCH   7   8
ENDBRANCH   3   7
ENDBRANCH   2   3
TORSDOF 7
ENDMDL
MODEL      219
REMARK 921   NORMALIZED FREE ENERGY PREDICTED BY IDOCK:   -3.02 KCAL/MOL
REMARK 922        TOTAL FREE ENERGY PREDICTED BY IDOCK:   -5.57 KCAL/MOL
REMARK 923 INTER-LIGAND FREE ENERGY PREDICTED BY IDOCK:   -4.85 KCAL/MOL
REMARK 924 INTRA-LIGAND FREE ENERGY PREDICTED BY IDOCK:   -0.72 KCAL/MOL
REMARK 927      BINDING AFFINITY PREDICTED BY RF-SCORE:    0.00 PKD
ROOT
HETATM    1  C   UNL     1     -12.160  14.541  70.404  1.00  0.00    -0.389 C  
HETATM    2  C   UNL     1     -12.251  14.713  68.897  1.00  0.00    -0.139 C  
ENDROOT
BRANCH   2   3
HETATM    3  N   UNL     1     -11.127  14.001  68.098  1.00  0.00    -0.251 N  
HETATM    4  C   UNL     1     -11.709  13.483  66.771  1.00  0.00    -0.391 C  
BRANCH   3   5
HETATM    5  C   UNL     1      -9.936  14.927  67.784  1.00  0.00    -0.222 C  
HETATM    6  C   UNL     1      -9.744  15.193  66.299  1.00  0.00    -0.315 C  
ENDBRANCH   3   5
BRANCH   3   7
HETATM    7  C   UNL     1     -10.707  12.777  68.964  1.00  0.00    -0.095 C  
BRANCH   7   8
HETATM    8  C   UNL     1      -9.614  11.905  68.342  1.00  0.00    -0.196 C  
BRANCH   8   9
HETATM    9  O   UNL     1      -9.513  10.645  69.010  1.00  0.00    -0.191 OA 
BRANCH   9  10
HETATM   10  C   UNL     1      -8.233  10.282  69.333  1.00  0.00    -0.165 C  
HETATM   11  O   UNL     1      -7.399  11.074  69.757  1.00  0.00    -0.087 OA 
BRANCH  10  12
HETATM   12  C   UNL     1      -8.049   8.771  69.257  1.00  0.00    -0.110 C  
HETATM   13  C   UNL     1      -9.204   8.126  69.989  1.00  0.00    -0.155 A  
HETATM   14  C   UNL     1      -9.414   8.387  71.356  1.00  0.00    -0.251 A  
HETATM   15  C   UNL     1     -10.559   7.915  71.996  1.00  0.00    -0.296 A  
HETATM   16  C   UNL     1     -11.490   7.162  71.286  1.00  0.00    -0.314 A  
HETATM   17  C   UNL     1     -11.278   6.884  69.934  1.00  0.00    -0.334 A  
HETATM   18  C   UNL     1     -10.144   7.373  69.285  1.00  0.00    -0.186 A  
HETATM   19  O   UNL     1     -10.040   7.089  67.945  1.00  0.00    -0.154 OA 
HETATM   20  C   UNL     1      -8.935   7.530  67.257  1.00  0.00    -0.124 A  
HETATM   21  C   UNL     1      -8.861   7.158  65.913  1.00  0.00    -0.128 A  
HETATM   22  C   UNL     1      -7.784   7.569  65.129  1.00  0.00    -0.111 A  
HETATM   23  C   UNL     1      -6.772   8.346  65.690  1.00  0.00    -0.056 A  
HETATM   24  C   UNL     1      -6.840   8.715  67.033  1.00  0.00    -0.067 A  
HETATM   25  C   UNL     1      -7.932   8.318  67.824  1.00  0.00    -0.122 A  
ENDBRANCH  10  12
ENDBRANCH   9  10
ENDBRANCH   8   9
ENDBRANCH   7   8
ENDBRANCH   3   7
ENDBRANCH   2   3
TORSDOF 7
ENDMDL
MODEL      220
REMARK 921   NORMALIZED FREE ENERGY PREDICTED BY IDOCK:   -3.00 KCAL/MOL
REMARK 922        TOTAL FREE ENERGY PREDICTED BY IDOCK:   -5.55 KCAL/MOL
REMARK 923 INTER-LIGAND FREE ENERGY PREDICTED BY IDOCK:   -4.85 KCAL/MOL
REMARK 924 INTRA-LIGAND FREE ENERGY PREDICTED BY IDOCK:   -0.70 KCAL/MOL
REMARK 927      BINDING AFFINITY PREDICTED BY RF-SCORE:    0.00 PKD
ROOT
HETATM    1  C   UNL     1      -5.782  10.201  67.909  1.00  0.00    -0.041 C  
HETATM    2  C   UNL     1      -6.840  10.099  66.822  1.00  0.00    -0.086 C  
ENDROOT
BRANCH   2   3
HETATM    3  N   UNL     1      -8.244  10.611  67.241  1.00  0.00    -0.116 N  
HETATM    4  C   UNL     1      -8.300  10.713  68.776  1.00  0.00    -0.144 C  
BRANCH   3   5
HETATM    5  C   UNL     1      -8.581  11.991  66.645  1.00  0.00    -0.143 C  
HETATM    6  C   UNL     1      -9.934  12.044  65.951  1.00  0.00    -0.260 C  
ENDBRANCH   3   5
BRANCH   3   7
HETATM    7  C   UNL     1      -9.246   9.512  66.783  1.00  0.00    -0.149 C  
BRANCH   7   8
HETATM    8  C   UNL     1      -9.081   8.166  67.495  1.00  0.00    -0.137 C  
BRANCH   8   9
HETATM    9  O   UNL     1     -10.196   7.890  68.346  1.00  0.00    -0.193 OA 
BRANCH   9  10
HETATM   10  C   UNL     1     -10.816   6.696  68.088  1.00  0.00    -0.263 C  
HETATM   11  O   UNL     1     -11.297   6.413  66.997  1.00  0.00    -0.314 OA 
BRANCH  10  12
HETATM   12  C   UNL     1     -10.678   5.735  69.262  1.00  0.00    -0.386 C  
HETATM   13  C   UNL     1      -9.334   5.050  69.145  1.00  0.00    -0.174 A  
HETATM   14  C   UNL     1      -9.030   4.272  68.013  1.00  0.00    -0.148 A  
HETATM   15  C   UNL     1      -7.744   3.764  67.832  1.00  0.00    -0.070 A  
HETATM   16  C   UNL     1      -6.761   4.009  68.786  1.00  0.00    -0.046 A  
HETATM   17  C   UNL     1      -7.062   4.765  69.921  1.00  0.00    -0.053 A  
HETATM   18  C   UNL     1      -8.342   5.293  70.094  1.00  0.00    -0.098 A  
HETATM   19  O   UNL     1      -8.536   6.061  71.216  1.00  0.00    -0.127 OA 
HETATM   20  C   UNL     1      -9.781   6.594  71.449  1.00  0.00    -0.172 A  
HETATM   21  C   UNL     1      -9.928   7.315  72.636  1.00  0.00    -0.223 A  
HETATM   22  C   UNL     1     -11.152   7.904  72.953  1.00  0.00    -0.442 A  
HETATM   23  C   UNL     1     -12.236   7.764  72.089  1.00  0.00    -0.325 A  
HETATM   24  C   UNL     1     -12.094   7.039  70.905  1.00  0.00    -0.403 A  
HETATM   25  C   UNL     1     -10.859   6.459  70.572  1.00  0.00    -0.335 A  
ENDBRANCH  10  12
ENDBRANCH   9  10
ENDBRANCH   8   9
ENDBRANCH   7   8
ENDBRANCH   3   7
ENDBRANCH   2   3
TORSDOF 7
ENDMDL
MODEL      221
REMARK 921   NORMALIZED FREE ENERGY PREDICTED BY IDOCK:   -3.00 KCAL/MOL
REMARK 922        TOTAL FREE ENERGY PREDICTED BY IDOCK:   -5.55 KCAL/MOL
REMARK 923 INTER-LIGAND FREE ENERGY PREDICTED BY IDOCK:   -4.76 KCAL/MOL
REMARK 924 INTRA-LIGAND FREE ENERGY PREDICTED BY IDOCK:   -0.79 KCAL/MOL
REMARK 927      BINDING AFFINITY PREDICTED BY RF-SCORE:    0.00 PKD
ROOT
HETATM    1  C   UNL     1      -5.914  12.301  67.160  1.00  0.00    -0.117 C  
HETATM    2  C   UNL     1      -6.503  10.967  66.731  1.00  0.00    -0.124 C  
ENDROOT
BRANCH   2   3
HETATM    3  N   UNL     1      -7.562  10.388  67.707  1.00  0.00    -0.089 N  
HETATM    4  C   UNL     1      -8.720   9.790  66.889  1.00  0.00    -0.135 C  
BRANCH   3   5
HETATM    5  C   UNL     1      -6.992   9.290  68.626  1.00  0.00    -0.062 C  
HETATM    6  C   UNL     1      -6.272   8.178  67.878  1.00  0.00    -0.051 C  
ENDBRANCH   3   5
BRANCH   3   7
HETATM    7  C   UNL     1      -8.103  11.606  68.511  1.00  0.00    -0.145 C  
BRANCH   7   8
HETATM    8  C   UNL     1      -9.337  12.272  67.900  1.00  0.00    -0.190 C  
BRANCH   8   9
HETATM    9  O   UNL     1      -9.073  13.632  67.549  1.00  0.00    -0.194 OA 
BRANCH   9  10
HETATM   10  C   UNL     1      -9.935  14.150  66.620  1.00  0.00    -0.277 C  
HETATM   11  O   UNL     1     -10.324  13.521  65.643  1.00  0.00    -0.284 OA 
BRANCH  10  12
HETATM   12  C   UNL     1     -10.459  15.515  67.050  1.00  0.00    -0.304 C  
HETATM   13  C   UNL     1     -11.131  15.351  68.395  1.00  0.00    -0.301 A  
HETATM   14  C   UNL     1     -12.233  14.488  68.539  1.00  0.00    -0.164 A  
HETATM   15  C   UNL     1     -12.759  14.221  69.802  1.00  0.00    -0.003 A  
HETATM   16  C   UNL     1     -12.205  14.827  70.927  1.00  0.00    -0.384 A  
HETATM   17  C   UNL     1     -11.123  15.699  70.788  1.00  0.00    -0.382 A  
HETATM   18  C   UNL     1     -10.581  15.952  69.528  1.00  0.00    -0.282 A  
HETATM   19  O   UNL     1      -9.490  16.786  69.491  1.00  0.00    -0.056 OA 
HETATM   20  C   UNL     1      -8.924  17.085  68.275  1.00  0.00    -0.242 A  
HETATM   21  C   UNL     1      -7.856  17.986  68.301  1.00  0.00    -0.292 A  
HETATM   22  C   UNL     1      -7.209  18.340  67.118  1.00  0.00    -0.215 A  
HETATM   23  C   UNL     1      -7.635  17.805  65.904  1.00  0.00    -0.170 A  
HETATM   24  C   UNL     1      -8.705  16.910  65.874  1.00  0.00    -0.058 A  
HETATM   25  C   UNL     1      -9.349  16.535  67.065  1.00  0.00    -0.242 A  
ENDBRANCH  10  12
ENDBRANCH   9  10
ENDBRANCH   8   9
ENDBRANCH   7   8
ENDBRANCH   3   7
ENDBRANCH   2   3
TORSDOF 7
ENDMDL
MODEL      222
REMARK 921   NORMALIZED FREE ENERGY PREDICTED BY IDOCK:   -2.97 KCAL/MOL
REMARK 922        TOTAL FREE ENERGY PREDICTED BY IDOCK:   -5.51 KCAL/MOL
REMARK 923 INTER-LIGAND FREE ENERGY PREDICTED BY IDOCK:   -4.40 KCAL/MOL
REMARK 924 INTRA-LIGAND FREE ENERGY PREDICTED BY IDOCK:   -1.11 KCAL/MOL
REMARK 927      BINDING AFFINITY PREDICTED BY RF-SCORE:    0.00 PKD
ROOT
HETATM    1  C   UNL     1     -10.405  13.455  66.148  1.00  0.00    -0.295 C  
HETATM    2  C   UNL     1     -10.314  12.674  67.449  1.00  0.00    -0.220 C  
ENDROOT
BRANCH   2   3
HETATM    3  N   UNL     1      -9.436  11.397  67.373  1.00  0.00    -0.166 N  
HETATM    4  C   UNL     1      -8.305  11.629  66.355  1.00  0.00    -0.084 C  
BRANCH   3   5
HETATM    5  C   UNL     1      -8.807  11.020  68.727  1.00  0.00    -0.147 C  
HETATM    6  C   UNL     1      -7.348  10.602  68.630  1.00  0.00    -0.094 C  
ENDBRANCH   3   5
BRANCH   3   7
HETATM    7  C   UNL     1     -10.369  10.278  66.826  1.00  0.00    -0.227 C  
BRANCH   7   8
HETATM    8  C   UNL     1     -10.906   9.321  67.893  1.00  0.00    -0.118 C  
BRANCH   8   9
HETATM    9  O   UNL     1     -10.714   7.957  67.511  1.00  0.00    -0.247 OA 
BRANCH   9  10
HETATM   10  C   UNL     1     -10.516   7.102  68.563  1.00  0.00    -0.204 C  
HETATM   11  O   UNL     1     -11.137   6.054  68.701  1.00  0.00    -0.315 OA 
BRANCH  10  12
HETATM   12  C   UNL     1      -9.334   7.541  69.419  1.00  0.00    -0.152 C  
HETATM   13  C   UNL     1      -9.763   7.476  70.868  1.00  0.00    -0.173 A  
HETATM   14  C   UNL     1     -10.840   8.257  71.327  1.00  0.00    -0.285 A  
HETATM   15  C   UNL     1     -11.332   8.091  72.620  1.00  0.00    -0.469 A  
HETATM   16  C   UNL     1     -10.741   7.161  73.472  1.00  0.00    -0.375 A  
HETATM   17  C   UNL     1      -9.660   6.397  73.029  1.00  0.00    -0.160 A  
HETATM   18  C   UNL     1      -9.179   6.546  71.728  1.00  0.00    -0.149 A  
HETATM   19  O   UNL     1      -8.143   5.721  71.364  1.00  0.00    -0.111 OA 
HETATM   20  C   UNL     1      -7.616   5.835  70.100  1.00  0.00    -0.086 A  
HETATM   21  C   UNL     1      -6.527   5.010  69.813  1.00  0.00    -0.035 A  
HETATM   22  C   UNL     1      -5.933   5.045  68.552  1.00  0.00    -0.025 A  
HETATM   23  C   UNL     1      -6.421   5.913  67.576  1.00  0.00    -0.047 A  
HETATM   24  C   UNL     1      -7.505   6.743  67.862  1.00  0.00    -0.098 A  
HETATM   25  C   UNL     1      -8.119   6.700  69.126  1.00  0.00    -0.116 A  
ENDBRANCH  10  12
ENDBRANCH   9  10
ENDBRANCH   8   9
ENDBRANCH   7   8
ENDBRANCH   3   7
ENDBRANCH   2   3
TORSDOF 7
ENDMDL
MODEL      223
REMARK 921   NORMALIZED FREE ENERGY PREDICTED BY IDOCK:   -2.97 KCAL/MOL
REMARK 922        TOTAL FREE ENERGY PREDICTED BY IDOCK:   -5.50 KCAL/MOL
REMARK 923 INTER-LIGAND FREE ENERGY PREDICTED BY IDOCK:   -4.43 KCAL/MOL
REMARK 924 INTRA-LIGAND FREE ENERGY PREDICTED BY IDOCK:   -1.08 KCAL/MOL
REMARK 927      BINDING AFFINITY PREDICTED BY RF-SCORE:    0.00 PKD
ROOT
HETATM    1  C   UNL     1      -9.091  14.847  66.329  1.00  0.00    -0.262 C  
HETATM    2  C   UNL     1      -9.620  13.832  67.330  1.00  0.00    -0.237 C  
ENDROOT
BRANCH   2   3
HETATM    3  N   UNL     1     -10.719  12.890  66.771  1.00  0.00    -0.260 N  
HETATM    4  C   UNL     1     -11.872  12.810  67.787  1.00  0.00    -0.332 C  
BRANCH   3   5
HETATM    5  C   UNL     1     -11.288  13.367  65.421  1.00  0.00    -0.291 C  
HETATM    6  C   UNL     1     -12.724  13.862  65.502  1.00  0.00    -0.536 C  
ENDBRANCH   3   5
BRANCH   3   7
HETATM    7  C   UNL     1     -10.056  11.486  66.667  1.00  0.00    -0.210 C  
BRANCH   7   8
HETATM    8  C   UNL     1     -10.957  10.324  67.092  1.00  0.00    -0.165 C  
BRANCH   8   9
HETATM    9  O   UNL     1     -10.291   9.462  68.016  1.00  0.00    -0.196 OA 
BRANCH   9  10
HETATM   10  C   UNL     1     -10.086   8.190  67.550  1.00  0.00    -0.224 C  
HETATM   11  O   UNL     1     -10.924   7.570  66.906  1.00  0.00    -0.292 OA 
BRANCH  10  12
HETATM   12  C   UNL     1      -8.651   7.736  67.791  1.00  0.00    -0.121 C  
HETATM   13  C   UNL     1      -7.750   8.556  66.895  1.00  0.00    -0.091 A  
HETATM   14  C   UNL     1      -7.904   8.511  65.497  1.00  0.00    -0.104 A  
HETATM   15  C   UNL     1      -7.177   9.375  64.679  1.00  0.00    -0.104 A  
HETATM   16  C   UNL     1      -6.277  10.273  65.246  1.00  0.00    -0.127 A  
HETATM   17  C   UNL     1      -6.105  10.309  66.631  1.00  0.00    -0.064 A  
HETATM   18  C   UNL     1      -6.847   9.461  67.454  1.00  0.00    -0.080 A  
HETATM   19  O   UNL     1      -6.646   9.597  68.806  1.00  0.00    -0.047 OA 
HETATM   20  C   UNL     1      -7.336   8.776  69.665  1.00  0.00    -0.059 A  
HETATM   21  C   UNL     1      -7.043   8.924  71.023  1.00  0.00    -0.090 A  
HETATM   22  C   UNL     1      -7.703   8.144  71.972  1.00  0.00    -0.136 A  
HETATM   23  C   UNL     1      -8.650   7.206  71.566  1.00  0.00    -0.115 A  
HETATM   24  C   UNL     1      -8.940   7.051  70.210  1.00  0.00    -0.149 A  
HETATM   25  C   UNL     1      -8.292   7.847  69.250  1.00  0.00    -0.136 A  
ENDBRANCH  10  12
ENDBRANCH   9  10
ENDBRANCH   8   9
ENDBRANCH   7   8
ENDBRANCH   3   7
ENDBRANCH   2   3
TORSDOF 7
ENDMDL
MODEL      224
REMARK 921   NORMALIZED FREE ENERGY PREDICTED BY IDOCK:   -2.96 KCAL/MOL
REMARK 922        TOTAL FREE ENERGY PREDICTED BY IDOCK:   -5.49 KCAL/MOL
REMARK 923 INTER-LIGAND FREE ENERGY PREDICTED BY IDOCK:   -4.66 KCAL/MOL
REMARK 924 INTRA-LIGAND FREE ENERGY PREDICTED BY IDOCK:   -0.83 KCAL/MOL
REMARK 927      BINDING AFFINITY PREDICTED BY RF-SCORE:    0.00 PKD
ROOT
HETATM    1  C   UNL     1      -9.689   3.392  70.970  1.00  0.00    -0.216 C  
HETATM    2  C   UNL     1      -8.535   4.369  71.116  1.00  0.00    -0.094 C  
ENDROOT
BRANCH   2   3
HETATM    3  N   UNL     1      -8.785   5.514  72.133  1.00  0.00    -0.130 N  
HETATM    4  C   UNL     1     -10.259   5.477  72.573  1.00  0.00    -0.189 C  
BRANCH   3   5
HETATM    5  C   UNL     1      -7.896   5.409  73.386  1.00  0.00    -0.107 C  
HETATM    6  C   UNL     1      -6.454   5.029  73.084  1.00  0.00    -0.060 C  
ENDBRANCH   3   5
BRANCH   3   7
HETATM    7  C   UNL     1      -8.539   6.835  71.347  1.00  0.00    -0.124 C  
BRANCH   7   8
HETATM    8  C   UNL     1      -8.473   6.666  69.827  1.00  0.00    -0.132 C  
BRANCH   8   9
HETATM    9  O   UNL     1      -9.407   7.525  69.169  1.00  0.00    -0.148 OA 
BRANCH   9  10
HETATM   10  C   UNL     1     -10.515   6.882  68.683  1.00  0.00    -0.195 C  
HETATM   11  O   UNL     1     -11.331   6.317  69.402  1.00  0.00    -0.412 OA 
BRANCH  10  12
HETATM   12  C   UNL     1     -10.674   7.108  67.184  1.00  0.00    -0.422 C  
HETATM   13  C   UNL     1     -10.259   8.531  66.884  1.00  0.00    -0.375 A  
HETATM   14  C   UNL     1     -10.938   9.611  67.478  1.00  0.00    -0.166 A  
HETATM   15  C   UNL     1     -10.466  10.913  67.322  1.00  0.00    -0.275 A  
HETATM   16  C   UNL     1      -9.328  11.151  66.556  1.00  0.00    -0.199 A  
HETATM   17  C   UNL     1      -8.661  10.085  65.948  1.00  0.00    -0.150 A  
HETATM   18  C   UNL     1      -9.118   8.779  66.120  1.00  0.00    -0.202 A  
HETATM   19  O   UNL     1      -8.374   7.790  65.524  1.00  0.00    -0.137 OA 
HETATM   20  C   UNL     1      -8.786   6.485  65.645  1.00  0.00    -0.091 A  
HETATM   21  C   UNL     1      -8.020   5.534  64.966  1.00  0.00    -0.113 A  
HETATM   22  C   UNL     1      -8.352   4.182  65.040  1.00  0.00    -0.110 A  
HETATM   23  C   UNL     1      -9.459   3.777  65.784  1.00  0.00    -0.170 A  
HETATM   24  C   UNL     1     -10.230   4.724  66.458  1.00  0.00    -0.294 A  
HETATM   25  C   UNL     1      -9.889   6.087  66.402  1.00  0.00    -0.155 A  
ENDBRANCH  10  12
ENDBRANCH   9  10
ENDBRANCH   8   9
ENDBRANCH   7   8
ENDBRANCH   3   7
ENDBRANCH   2   3
TORSDOF 7
ENDMDL
MODEL      225
REMARK 921   NORMALIZED FREE ENERGY PREDICTED BY IDOCK:   -2.96 KCAL/MOL
REMARK 922        TOTAL FREE ENERGY PREDICTED BY IDOCK:   -5.49 KCAL/MOL
REMARK 923 INTER-LIGAND FREE ENERGY PREDICTED BY IDOCK:   -4.80 KCAL/MOL
REMARK 924 INTRA-LIGAND FREE ENERGY PREDICTED BY IDOCK:   -0.68 KCAL/MOL
REMARK 927      BINDING AFFINITY PREDICTED BY RF-SCORE:    0.00 PKD
ROOT
HETATM    1  C   UNL     1      -7.840   5.235  64.338  1.00  0.00    -0.100 C  
HETATM    2  C   UNL     1      -8.087   4.904  65.801  1.00  0.00    -0.112 C  
ENDROOT
BRANCH   2   3
HETATM    3  N   UNL     1      -9.409   4.138  66.073  1.00  0.00    -0.152 N  
HETATM    4  C   UNL     1     -10.010   3.687  64.730  1.00  0.00    -0.160 C  
BRANCH   3   5
HETATM    5  C   UNL     1      -9.212   2.898  66.964  1.00  0.00    -0.149 C  
HETATM    6  C   UNL     1      -8.169   1.924  66.436  1.00  0.00    -0.085 C  
ENDBRANCH   3   5
BRANCH   3   7
HETATM    7  C   UNL     1     -10.371   5.178  66.718  1.00  0.00    -0.261 C  
BRANCH   7   8
HETATM    8  C   UNL     1      -9.916   6.633  66.583  1.00  0.00    -0.140 C  
BRANCH   8   9
HETATM    9  O   UNL     1     -10.032   7.330  67.826  1.00  0.00    -0.152 OA 
BRANCH   9  10
HETATM   10  C   UNL     1      -8.859   7.877  68.274  1.00  0.00    -0.129 C  
HETATM   11  O   UNL     1      -7.853   7.213  68.497  1.00  0.00    -0.117 OA 
BRANCH  10  12
HETATM   12  C   UNL     1      -8.928   9.399  68.294  1.00  0.00    -0.128 C  
HETATM   13  C   UNL     1      -8.862   9.884  66.863  1.00  0.00    -0.146 A  
HETATM   14  C   UNL     1      -7.741   9.591  66.063  1.00  0.00    -0.100 A  
HETATM   15  C   UNL     1      -7.742   9.907  64.706  1.00  0.00    -0.138 A  
HETATM   16  C   UNL     1      -8.849  10.534  64.140  1.00  0.00    -0.205 A  
HETATM   17  C   UNL     1      -9.956  10.844  64.932  1.00  0.00    -0.361 A  
HETATM   18  C   UNL     1      -9.967  10.510  66.287  1.00  0.00    -0.221 A  
HETATM   19  O   UNL     1     -11.115  10.812  66.978  1.00  0.00    -0.265 OA 
HETATM   20  C   UNL     1     -11.178  10.522  68.320  1.00  0.00    -0.291 A  
HETATM   21  C   UNL     1     -12.348  10.907  68.978  1.00  0.00     0.057 A  
HETATM   22  C   UNL     1     -12.509  10.644  70.337  1.00  0.00    -0.421 A  
HETATM   23  C   UNL     1     -11.495  10.004  71.047  1.00  0.00    -0.463 A  
HETATM   24  C   UNL     1     -10.322   9.623  70.395  1.00  0.00    -0.350 A  
HETATM   25  C   UNL     1     -10.161   9.870  69.021  1.00  0.00    -0.213 A  
ENDBRANCH  10  12
ENDBRANCH   9  10
ENDBRANCH   8   9
ENDBRANCH   7   8
ENDBRANCH   3   7
ENDBRANCH   2   3
TORSDOF 7
ENDMDL
MODEL      226
REMARK 921   NORMALIZED FREE ENERGY PREDICTED BY IDOCK:   -2.93 KCAL/MOL
REMARK 922        TOTAL FREE ENERGY PREDICTED BY IDOCK:   -5.45 KCAL/MOL
REMARK 923 INTER-LIGAND FREE ENERGY PREDICTED BY IDOCK:   -4.65 KCAL/MOL
REMARK 924 INTRA-LIGAND FREE ENERGY PREDICTED BY IDOCK:   -0.80 KCAL/MOL
REMARK 927      BINDING AFFINITY PREDICTED BY RF-SCORE:    0.00 PKD
ROOT
HETATM    1  C   UNL     1     -11.021  10.100  67.605  1.00  0.00    -0.331 C  
HETATM    2  C   UNL     1      -9.869  10.922  68.158  1.00  0.00    -0.175 C  
ENDROOT
BRANCH   2   3
HETATM    3  N   UNL     1      -8.763  11.259  67.122  1.00  0.00    -0.147 N  
HETATM    4  C   UNL     1      -9.204  10.748  65.738  1.00  0.00    -0.189 C  
BRANCH   3   5
HETATM    5  C   UNL     1      -8.478  12.769  67.019  1.00  0.00    -0.153 C  
HETATM    6  C   UNL     1      -7.093  13.166  67.506  1.00  0.00    -0.156 C  
ENDBRANCH   3   5
BRANCH   3   7
HETATM    7  C   UNL     1      -7.509  10.453  67.568  1.00  0.00    -0.093 C  
BRANCH   7   8
HETATM    8  C   UNL     1      -7.780   8.980  67.882  1.00  0.00    -0.097 C  
BRANCH   8   9
HETATM    9  O   UNL     1      -6.936   8.510  68.936  1.00  0.00    -0.060 OA 
BRANCH   9  10
HETATM   10  C   UNL     1      -7.542   7.626  69.789  1.00  0.00    -0.093 C  
HETATM   11  O   UNL     1      -7.064   7.303  70.870  1.00  0.00    -0.065 OA 
BRANCH  10  12
HETATM   12  C   UNL     1      -8.933   7.244  69.295  1.00  0.00    -0.135 C  
HETATM   13  C   UNL     1      -8.865   5.827  68.772  1.00  0.00    -0.110 A  
HETATM   14  C   UNL     1      -8.009   5.504  67.702  1.00  0.00    -0.101 A  
HETATM   15  C   UNL     1      -7.834   4.176  67.315  1.00  0.00    -0.092 A  
HETATM   16  C   UNL     1      -8.524   3.164  67.977  1.00  0.00    -0.105 A  
HETATM   17  C   UNL     1      -9.389   3.480  69.027  1.00  0.00    -0.240 A  
HETATM   18  C   UNL     1      -9.551   4.806  69.430  1.00  0.00    -0.179 A  
HETATM   19  O   UNL     1     -10.386   5.019  70.500  1.00  0.00    -0.254 OA 
HETATM   20  C   UNL     1     -10.597   6.307  70.931  1.00  0.00    -0.241 A  
HETATM   21  C   UNL     1     -11.502   6.461  71.983  1.00  0.00    -0.350 A  
HETATM   22  C   UNL     1     -11.772   7.728  72.498  1.00  0.00    -0.393 A  
HETATM   23  C   UNL     1     -11.145   8.848  71.953  1.00  0.00    -0.442 A  
HETATM   24  C   UNL     1     -10.245   8.698  70.898  1.00  0.00    -0.261 A  
HETATM   25  C   UNL     1      -9.956   7.422  70.387  1.00  0.00    -0.188 A  
ENDBRANCH  10  12
ENDBRANCH   9  10
ENDBRANCH   8   9
ENDBRANCH   7   8
ENDBRANCH   3   7
ENDBRANCH   2   3
TORSDOF 7
ENDMDL
MODEL      227
REMARK 921   NORMALIZED FREE ENERGY PREDICTED BY IDOCK:   -2.91 KCAL/MOL
REMARK 922        TOTAL FREE ENERGY PREDICTED BY IDOCK:   -5.42 KCAL/MOL
REMARK 923 INTER-LIGAND FREE ENERGY PREDICTED BY IDOCK:   -4.45 KCAL/MOL
REMARK 924 INTRA-LIGAND FREE ENERGY PREDICTED BY IDOCK:   -0.98 KCAL/MOL
REMARK 927      BINDING AFFINITY PREDICTED BY RF-SCORE:    0.00 PKD
ROOT
HETATM    1  C   UNL     1     -11.253   5.594  72.970  1.00  0.00    -0.319 C  
HETATM    2  C   UNL     1     -10.362   6.380  72.022  1.00  0.00    -0.197 C  
ENDROOT
BRANCH   2   3
HETATM    3  N   UNL     1     -11.097   7.483  71.215  1.00  0.00    -0.243 N  
HETATM    4  C   UNL     1     -12.615   7.247  71.314  1.00  0.00    -0.366 C  
BRANCH   3   5
HETATM    5  C   UNL     1     -10.788   8.904  71.722  1.00  0.00    -0.365 C  
HETATM    6  C   UNL     1     -11.839   9.934  71.339  1.00  0.00    -0.476 C  
ENDBRANCH   3   5
BRANCH   3   7
HETATM    7  C   UNL     1     -10.663   7.280  69.734  1.00  0.00    -0.239 C  
BRANCH   7   8
HETATM    8  C   UNL     1     -11.271   6.049  69.057  1.00  0.00    -0.228 C  
BRANCH   8   9
HETATM    9  O   UNL     1     -10.405   5.533  68.044  1.00  0.00    -0.185 OA 
BRANCH   9  10
HETATM   10  C   UNL     1      -9.393   4.743  68.520  1.00  0.00    -0.133 C  
HETATM   11  O   UNL     1      -9.542   3.941  69.434  1.00  0.00    -0.182 OA 
BRANCH  10  12
HETATM   12  C   UNL     1      -8.137   4.876  67.666  1.00  0.00    -0.094 C  
HETATM   13  C   UNL     1      -8.453   4.329  66.292  1.00  0.00    -0.112 A  
HETATM   14  C   UNL     1      -8.846   2.987  66.133  1.00  0.00    -0.143 A  
HETATM   15  C   UNL     1      -9.279   2.521  64.893  1.00  0.00    -0.133 A  
HETATM   16  C   UNL     1      -9.302   3.382  63.798  1.00  0.00    -0.120 A  
HETATM   17  C   UNL     1      -8.894   4.709  63.945  1.00  0.00    -0.135 A  
HETATM   18  C   UNL     1      -8.481   5.184  65.190  1.00  0.00    -0.147 A  
HETATM   19  O   UNL     1      -8.141   6.513  65.251  1.00  0.00    -0.123 OA 
HETATM   20  C   UNL     1      -7.709   7.034  66.447  1.00  0.00    -0.104 A  
HETATM   21  C   UNL     1      -7.322   8.376  66.429  1.00  0.00    -0.083 A  
HETATM   22  C   UNL     1      -6.882   8.996  67.598  1.00  0.00    -0.070 A  
HETATM   23  C   UNL     1      -6.817   8.272  68.787  1.00  0.00    -0.062 A  
HETATM   24  C   UNL     1      -7.197   6.930  68.808  1.00  0.00    -0.091 A  
HETATM   25  C   UNL     1      -7.659   6.305  67.637  1.00  0.00    -0.097 A  
ENDBRANCH  10  12
ENDBRANCH   9  10
ENDBRANCH   8   9
ENDBRANCH   7   8
ENDBRANCH   3   7
ENDBRANCH   2   3
TORSDOF 7
ENDMDL
MODEL      228
REMARK 921   NORMALIZED FREE ENERGY PREDICTED BY IDOCK:   -2.88 KCAL/MOL
REMARK 922        TOTAL FREE ENERGY PREDICTED BY IDOCK:   -5.37 KCAL/MOL
REMARK 923 INTER-LIGAND FREE ENERGY PREDICTED BY IDOCK:   -4.62 KCAL/MOL
REMARK 924 INTRA-LIGAND FREE ENERGY PREDICTED BY IDOCK:   -0.75 KCAL/MOL
REMARK 927      BINDING AFFINITY PREDICTED BY RF-SCORE:    0.00 PKD
ROOT
HETATM    1  C   UNL     1     -13.492   8.847  71.713  1.00  0.00    -0.447 C  
HETATM    2  C   UNL     1     -12.059   9.322  71.541  1.00  0.00    -0.361 C  
ENDROOT
BRANCH   2   3
HETATM    3  N   UNL     1     -11.012   8.182  71.424  1.00  0.00    -0.231 N  
HETATM    4  C   UNL     1      -9.713   8.624  72.122  1.00  0.00    -0.313 C  
BRANCH   3   5
HETATM    5  C   UNL     1     -11.488   6.864  72.063  1.00  0.00    -0.274 C  
HETATM    6  C   UNL     1     -10.767   6.515  73.356  1.00  0.00    -0.295 C  
ENDBRANCH   3   5
BRANCH   3   7
HETATM    7  C   UNL     1     -10.726   8.029  69.902  1.00  0.00    -0.242 C  
BRANCH   7   8
HETATM    8  C   UNL     1      -9.270   8.279  69.501  1.00  0.00    -0.158 C  
BRANCH   8   9
HETATM    9  O   UNL     1      -9.187   9.113  68.343  1.00  0.00    -0.133 OA 
BRANCH   9  10
HETATM   10  C   UNL     1      -9.407   8.455  67.161  1.00  0.00    -0.153 C  
HETATM   11  O   UNL     1     -10.434   8.582  66.505  1.00  0.00    -0.256 OA 
BRANCH  10  12
HETATM   12  C   UNL     1      -8.163   7.700  66.708  1.00  0.00    -0.124 C  
HETATM   13  C   UNL     1      -8.573   6.277  66.399  1.00  0.00    -0.133 A  
HETATM   14  C   UNL     1      -9.133   5.465  67.402  1.00  0.00    -0.111 A  
HETATM   15  C   UNL     1      -9.646   4.208  67.086  1.00  0.00    -0.229 A  
HETATM   16  C   UNL     1      -9.586   3.744  65.775  1.00  0.00    -0.165 A  
HETATM   17  C   UNL     1      -9.014   4.538  64.779  1.00  0.00    -0.152 A  
HETATM   18  C   UNL     1      -8.518   5.805  65.088  1.00  0.00    -0.138 A  
HETATM   19  O   UNL     1      -8.015   6.533  64.038  1.00  0.00    -0.114 OA 
HETATM   20  C   UNL     1      -7.497   7.782  64.284  1.00  0.00    -0.100 A  
HETATM   21  C   UNL     1      -6.948   8.446  63.185  1.00  0.00    -0.090 A  
HETATM   22  C   UNL     1      -6.409   9.724  63.334  1.00  0.00    -0.114 A  
HETATM   23  C   UNL     1      -6.409  10.337  64.586  1.00  0.00    -0.108 A  
HETATM   24  C   UNL     1      -6.952   9.674  65.686  1.00  0.00    -0.096 A  
HETATM   25  C   UNL     1      -7.512   8.394  65.539  1.00  0.00    -0.085 A  
ENDBRANCH  10  12
ENDBRANCH   9  10
ENDBRANCH   8   9
ENDBRANCH   7   8
ENDBRANCH   3   7
ENDBRANCH   2   3
TORSDOF 7
ENDMDL
MODEL      229
REMARK 921   NORMALIZED FREE ENERGY PREDICTED BY IDOCK:   -2.86 KCAL/MOL
REMARK 922        TOTAL FREE ENERGY PREDICTED BY IDOCK:   -5.36 KCAL/MOL
REMARK 923 INTER-LIGAND FREE ENERGY PREDICTED BY IDOCK:   -5.49 KCAL/MOL
REMARK 924 INTRA-LIGAND FREE ENERGY PREDICTED BY IDOCK:    0.14 KCAL/MOL
REMARK 927      BINDING AFFINITY PREDICTED BY RF-SCORE:    0.00 PKD
ROOT
HETATM    1  C   UNL     1     -10.339  20.680  67.190  1.00  0.00    -0.039 C  
HETATM    2  C   UNL     1      -9.922  19.357  67.810  1.00  0.00    -0.379 C  
ENDROOT
BRANCH   2   3
HETATM    3  N   UNL     1      -8.396  19.076  67.761  1.00  0.00    -0.283 N  
HETATM    4  C   UNL     1      -7.698  20.237  67.031  1.00  0.00    -0.321 C  
BRANCH   3   5
HETATM    5  C   UNL     1      -7.768  18.926  69.159  1.00  0.00    -0.146 C  
HETATM    6  C   UNL     1      -6.514  18.066  69.179  1.00  0.00    -0.249 C  
ENDBRANCH   3   5
BRANCH   3   7
HETATM    7  C   UNL     1      -8.234  17.787  66.903  1.00  0.00    -0.232 C  
BRANCH   7   8
HETATM    8  C   UNL     1      -9.523  17.304  66.233  1.00  0.00    -0.234 C  
BRANCH   8   9
HETATM    9  O   UNL     1     -10.063  16.165  66.907  1.00  0.00    -0.258 OA 
BRANCH   9  10
HETATM   10  C   UNL     1     -10.180  15.050  66.119  1.00  0.00    -0.297 C  
HETATM   11  O   UNL     1     -10.197  15.094  64.894  1.00  0.00    -0.341 OA 
BRANCH  10  12
HETATM   12  C   UNL     1     -10.118  13.775  66.951  1.00  0.00    -0.260 C  
HETATM   13  C   UNL     1     -10.203  12.600  66.002  1.00  0.00    -0.287 A  
HETATM   14  C   UNL     1     -11.332  12.430  65.179  1.00  0.00    -0.367 A  
HETATM   15  C   UNL     1     -11.349  11.437  64.201  1.00  0.00    -0.263 A  
HETATM   16  C   UNL     1     -10.252  10.592  64.051  1.00  0.00    -0.334 A  
HETATM   17  C   UNL     1      -9.137  10.744  64.878  1.00  0.00    -0.221 A  
HETATM   18  C   UNL     1      -9.108  11.750  65.843  1.00  0.00    -0.124 A  
HETATM   19  O   UNL     1      -7.953  11.854  66.579  1.00  0.00    -0.090 OA 
HETATM   20  C   UNL     1      -7.873  12.817  67.557  1.00  0.00    -0.171 A  
HETATM   21  C   UNL     1      -6.697  12.831  68.309  1.00  0.00    -0.087 A  
HETATM   22  C   UNL     1      -6.518  13.780  69.315  1.00  0.00    -0.112 A  
HETATM   23  C   UNL     1      -7.521  14.711  69.580  1.00  0.00    -0.074 A  
HETATM   24  C   UNL     1      -8.700  14.696  68.834  1.00  0.00    -0.138 A  
HETATM   25  C   UNL     1      -8.878  13.753  67.807  1.00  0.00    -0.188 A  
ENDBRANCH  10  12
ENDBRANCH   9  10
ENDBRANCH   8   9
ENDBRANCH   7   8
ENDBRANCH   3   7
ENDBRANCH   2   3
TORSDOF 7
ENDMDL
MODEL      230
REMARK 921   NORMALIZED FREE ENERGY PREDICTED BY IDOCK:   -2.86 KCAL/MOL
REMARK 922        TOTAL FREE ENERGY PREDICTED BY IDOCK:   -5.35 KCAL/MOL
REMARK 923 INTER-LIGAND FREE ENERGY PREDICTED BY IDOCK:   -4.21 KCAL/MOL
REMARK 924 INTRA-LIGAND FREE ENERGY PREDICTED BY IDOCK:   -1.13 KCAL/MOL
REMARK 927      BINDING AFFINITY PREDICTED BY RF-SCORE:    0.00 PKD
ROOT
HETATM    1  C   UNL     1     -13.527   8.885  71.830  1.00  0.00    -0.464 C  
HETATM    2  C   UNL     1     -12.183   9.592  71.778  1.00  0.00    -0.384 C  
ENDROOT
BRANCH   2   3
HETATM    3  N   UNL     1     -10.978   8.662  71.474  1.00  0.00    -0.267 N  
HETATM    4  C   UNL     1     -10.155   9.270  70.324  1.00  0.00    -0.219 C  
BRANCH   3   5
HETATM    5  C   UNL     1     -10.052   8.465  72.689  1.00  0.00    -0.251 C  
HETATM    6  C   UNL     1     -10.388   7.238  73.523  1.00  0.00    -0.412 C  
ENDBRANCH   3   5
BRANCH   3   7
HETATM    7  C   UNL     1     -11.596   7.321  70.982  1.00  0.00    -0.299 C  
BRANCH   7   8
HETATM    8  C   UNL     1     -11.190   6.918  69.562  1.00  0.00    -0.200 C  
BRANCH   8   9
HETATM    9  O   UNL     1     -11.224   5.499  69.396  1.00  0.00    -0.089 OA 
BRANCH   9  10
HETATM   10  C   UNL     1     -10.011   4.885  69.562  1.00  0.00    -0.225 C  
HETATM   11  O   UNL     1      -9.855   3.883  70.250  1.00  0.00    -0.198 OA 
BRANCH  10  12
HETATM   12  C   UNL     1      -8.948   5.506  68.663  1.00  0.00    -0.118 C  
HETATM   13  C   UNL     1      -7.700   5.708  69.493  1.00  0.00    -0.091 A  
HETATM   14  C   UNL     1      -7.729   6.537  70.630  1.00  0.00    -0.105 A  
HETATM   15  C   UNL     1      -6.625   6.608  71.479  1.00  0.00    -0.054 A  
HETATM   16  C   UNL     1      -5.479   5.871  71.190  1.00  0.00    -0.017 A  
HETATM   17  C   UNL     1      -5.438   5.062  70.053  1.00  0.00    -0.011 A  
HETATM   18  C   UNL     1      -6.549   4.973  69.213  1.00  0.00    -0.047 A  
HETATM   19  O   UNL     1      -6.435   4.118  68.143  1.00  0.00    -0.036 OA 
HETATM   20  C   UNL     1      -7.491   4.002  67.271  1.00  0.00    -0.072 A  
HETATM   21  C   UNL     1      -7.290   3.163  66.173  1.00  0.00    -0.072 A  
HETATM   22  C   UNL     1      -8.308   2.971  65.241  1.00  0.00    -0.096 A  
HETATM   23  C   UNL     1      -9.529   3.626  65.398  1.00  0.00    -0.160 A  
HETATM   24  C   UNL     1      -9.730   4.470  66.490  1.00  0.00    -0.220 A  
HETATM   25  C   UNL     1      -8.714   4.653  67.443  1.00  0.00    -0.105 A  
ENDBRANCH  10  12
ENDBRANCH   9  10
ENDBRANCH   8   9
ENDBRANCH   7   8
ENDBRANCH   3   7
ENDBRANCH   2   3
TORSDOF 7
ENDMDL
MODEL      231
REMARK 921   NORMALIZED FREE ENERGY PREDICTED BY IDOCK:   -2.85 KCAL/MOL
REMARK 922        TOTAL FREE ENERGY PREDICTED BY IDOCK:   -5.34 KCAL/MOL
REMARK 923 INTER-LIGAND FREE ENERGY PREDICTED BY IDOCK:   -4.72 KCAL/MOL
REMARK 924 INTRA-LIGAND FREE ENERGY PREDICTED BY IDOCK:   -0.62 KCAL/MOL
REMARK 927      BINDING AFFINITY PREDICTED BY RF-SCORE:    0.00 PKD
ROOT
HETATM    1  C   UNL     1      -9.371  16.064  67.805  1.00  0.00    -0.211 C  
HETATM    2  C   UNL     1      -9.507  14.614  68.238  1.00  0.00    -0.211 C  
ENDROOT
BRANCH   2   3
HETATM    3  N   UNL     1     -10.713  13.865  67.611  1.00  0.00    -0.248 N  
HETATM    4  C   UNL     1     -11.989  14.693  67.842  1.00  0.00    -0.264 C  
BRANCH   3   5
HETATM    5  C   UNL     1     -10.549  13.625  66.099  1.00  0.00    -0.291 C  
HETATM    6  C   UNL     1     -11.865  13.410  65.367  1.00  0.00    -0.381 C  
ENDBRANCH   3   5
BRANCH   3   7
HETATM    7  C   UNL     1     -10.839  12.533  68.407  1.00  0.00    -0.243 C  
BRANCH   7   8
HETATM    8  C   UNL     1      -9.772  11.488  68.071  1.00  0.00    -0.186 C  
BRANCH   8   9
HETATM    9  O   UNL     1      -8.974  11.175  69.215  1.00  0.00    -0.005 OA 
BRANCH   9  10
HETATM   10  C   UNL     1      -9.336  10.017  69.851  1.00  0.00    -0.169 C  
HETATM   11  O   UNL     1     -10.328   9.926  70.565  1.00  0.00    -0.286 OA 
BRANCH  10  12
HETATM   12  C   UNL     1      -8.454   8.850  69.422  1.00  0.00    -0.124 C  
HETATM   13  C   UNL     1      -7.812   8.274  70.664  1.00  0.00    -0.092 A  
HETATM   14  C   UNL     1      -6.976   9.071  71.468  1.00  0.00    -0.045 A  
HETATM   15  C   UNL     1      -6.505   8.590  72.688  1.00  0.00    -0.092 A  
HETATM   16  C   UNL     1      -6.844   7.306  73.106  1.00  0.00    -0.065 A  
HETATM   17  C   UNL     1      -7.657   6.503  72.303  1.00  0.00    -0.096 A  
HETATM   18  C   UNL     1      -8.148   6.989  71.091  1.00  0.00    -0.105 A  
HETATM   19  O   UNL     1      -8.977   6.148  70.390  1.00  0.00    -0.147 OA 
HETATM   20  C   UNL     1      -9.478   6.566  69.180  1.00  0.00    -0.135 A  
HETATM   21  C   UNL     1     -10.266   5.642  68.490  1.00  0.00    -0.253 A  
HETATM   22  C   UNL     1     -10.829   5.980  67.260  1.00  0.00    -0.403 A  
HETATM   23  C   UNL     1     -10.597   7.240  66.711  1.00  0.00    -0.288 A  
HETATM   24  C   UNL     1      -9.806   8.163  67.395  1.00  0.00    -0.242 A  
HETATM   25  C   UNL     1      -9.251   7.835  68.644  1.00  0.00    -0.138 A  
ENDBRANCH  10  12
ENDBRANCH   9  10
ENDBRANCH   8   9
ENDBRANCH   7   8
ENDBRANCH   3   7
ENDBRANCH   2   3
TORSDOF 7
ENDMDL
MODEL      232
REMARK 921   NORMALIZED FREE ENERGY PREDICTED BY IDOCK:   -2.83 KCAL/MOL
REMARK 922        TOTAL FREE ENERGY PREDICTED BY IDOCK:   -5.31 KCAL/MOL
REMARK 923 INTER-LIGAND FREE ENERGY PREDICTED BY IDOCK:   -4.49 KCAL/MOL
REMARK 924 INTRA-LIGAND FREE ENERGY PREDICTED BY IDOCK:   -0.82 KCAL/MOL
REMARK 927      BINDING AFFINITY PREDICTED BY RF-SCORE:    0.00 PKD
ROOT
HETATM    1  C   UNL     1     -12.202  14.003  70.128  1.00  0.00    -0.425 C  
HETATM    2  C   UNL     1     -11.093  14.115  69.095  1.00  0.00    -0.262 C  
ENDROOT
BRANCH   2   3
HETATM    3  N   UNL     1     -10.943  12.875  68.173  1.00  0.00    -0.237 N  
HETATM    4  C   UNL     1     -11.966  11.808  68.604  1.00  0.00    -0.239 C  
BRANCH   3   5
HETATM    5  C   UNL     1     -11.172  13.202  66.686  1.00  0.00    -0.304 C  
HETATM    6  C   UNL     1     -12.490  13.908  66.409  1.00  0.00    -0.414 C  
ENDBRANCH   3   5
BRANCH   3   7
HETATM    7  C   UNL     1      -9.513  12.323  68.442  1.00  0.00    -0.175 C  
BRANCH   7   8
HETATM    8  C   UNL     1      -8.884  11.586  67.256  1.00  0.00    -0.160 C  
BRANCH   8   9
HETATM    9  O   UNL     1      -8.197  10.408  67.683  1.00  0.00    -0.110 OA 
BRANCH   9  10
HETATM   10  C   UNL     1      -8.845   9.240  67.380  1.00  0.00    -0.117 C  
HETATM   11  O   UNL     1      -9.953   9.204  66.857  1.00  0.00    -0.198 OA 
BRANCH  10  12
HETATM   12  C   UNL     1      -7.950   8.030  67.621  1.00  0.00    -0.123 C  
HETATM   13  C   UNL     1      -8.666   7.110  68.585  1.00  0.00    -0.127 A  
HETATM   14  C   UNL     1      -9.009   7.558  69.874  1.00  0.00    -0.141 A  
HETATM   15  C   UNL     1      -9.796   6.767  70.709  1.00  0.00    -0.194 A  
HETATM   16  C   UNL     1     -10.228   5.516  70.274  1.00  0.00    -0.326 A  
HETATM   17  C   UNL     1      -9.875   5.059  69.004  1.00  0.00    -0.252 A  
HETATM   18  C   UNL     1      -9.105   5.857  68.158  1.00  0.00    -0.117 A  
HETATM   19  O   UNL     1      -8.843   5.345  66.910  1.00  0.00    -0.112 OA 
HETATM   20  C   UNL     1      -8.075   6.080  66.039  1.00  0.00    -0.113 A  
HETATM   21  C   UNL     1      -7.796   5.478  64.809  1.00  0.00    -0.106 A  
HETATM   22  C   UNL     1      -7.035   6.151  63.855  1.00  0.00    -0.043 A  
HETATM   23  C   UNL     1      -6.540   7.425  64.131  1.00  0.00    -0.048 A  
HETATM   24  C   UNL     1      -6.812   8.026  65.361  1.00  0.00    -0.062 A  
HETATM   25  C   UNL     1      -7.593   7.360  66.320  1.00  0.00    -0.088 A  
ENDBRANCH  10  12
ENDBRANCH   9  10
ENDBRANCH   8   9
ENDBRANCH   7   8
ENDBRANCH   3   7
ENDBRANCH   2   3
TORSDOF 7
ENDMDL
MODEL      233
REMARK 921   NORMALIZED FREE ENERGY PREDICTED BY IDOCK:   -2.83 KCAL/MOL
REMARK 922        TOTAL FREE ENERGY PREDICTED BY IDOCK:   -5.30 KCAL/MOL
REMARK 923 INTER-LIGAND FREE ENERGY PREDICTED BY IDOCK:   -5.21 KCAL/MOL
REMARK 924 INTRA-LIGAND FREE ENERGY PREDICTED BY IDOCK:   -0.10 KCAL/MOL
REMARK 927      BINDING AFFINITY PREDICTED BY RF-SCORE:    0.00 PKD
ROOT
HETATM    1  C   UNL     1      -7.003   4.968  65.914  1.00  0.00    -0.066 C  
HETATM    2  C   UNL     1      -7.244   5.726  67.209  1.00  0.00    -0.076 C  
ENDROOT
BRANCH   2   3
HETATM    3  N   UNL     1      -7.192   7.271  67.069  1.00  0.00    -0.089 N  
HETATM    4  C   UNL     1      -6.716   7.877  68.401  1.00  0.00    -0.066 C  
BRANCH   3   5
HETATM    5  C   UNL     1      -6.243   7.740  65.950  1.00  0.00    -0.042 C  
HETATM    6  C   UNL     1      -6.955   8.397  64.777  1.00  0.00    -0.072 C  
ENDBRANCH   3   5
BRANCH   3   7
HETATM    7  C   UNL     1      -8.661   7.720  66.820  1.00  0.00    -0.135 C  
BRANCH   7   8
HETATM    8  C   UNL     1      -9.719   6.705  67.262  1.00  0.00    -0.134 C  
BRANCH   8   9
HETATM    9  O   UNL     1      -9.481   6.257  68.598  1.00  0.00    -0.122 OA 
BRANCH   9  10
HETATM   10  C   UNL     1     -10.438   6.644  69.498  1.00  0.00    -0.218 C  
HETATM   11  O   UNL     1     -11.584   6.209  69.487  1.00  0.00    -0.396 OA 
BRANCH  10  12
HETATM   12  C   UNL     1      -9.848   7.534  70.585  1.00  0.00    -0.179 C  
HETATM   13  C   UNL     1     -10.730   8.757  70.711  1.00  0.00    -0.277 A  
HETATM   14  C   UNL     1     -10.915   9.616  69.612  1.00  0.00    -0.253 A  
HETATM   15  C   UNL     1     -11.841  10.657  69.679  1.00  0.00    -0.358 A  
HETATM   16  C   UNL     1     -12.571  10.861  70.847  1.00  0.00    -0.494 A  
HETATM   17  C   UNL     1     -12.378  10.023  71.946  1.00  0.00    -0.348 A  
HETATM   18  C   UNL     1     -11.468   8.968  71.876  1.00  0.00    -0.370 A  
HETATM   19  O   UNL     1     -11.376   8.168  72.989  1.00  0.00    -0.336 OA 
HETATM   20  C   UNL     1     -10.484   7.123  72.983  1.00  0.00    -0.292 A  
HETATM   21  C   UNL     1     -10.396   6.385  74.166  1.00  0.00    -0.335 A  
HETATM   22  C   UNL     1      -9.528   5.297  74.252  1.00  0.00    -0.139 A  
HETATM   23  C   UNL     1      -8.736   4.951  73.159  1.00  0.00    -0.109 A  
HETATM   24  C   UNL     1      -8.817   5.689  71.978  1.00  0.00    -0.138 A  
HETATM   25  C   UNL     1      -9.703   6.776  71.879  1.00  0.00    -0.160 A  
ENDBRANCH  10  12
ENDBRANCH   9  10
ENDBRANCH   8   9
ENDBRANCH   7   8
ENDBRANCH   3   7
ENDBRANCH   2   3
TORSDOF 7
ENDMDL
MODEL      234
REMARK 921   NORMALIZED FREE ENERGY PREDICTED BY IDOCK:   -2.80 KCAL/MOL
REMARK 922        TOTAL FREE ENERGY PREDICTED BY IDOCK:   -5.26 KCAL/MOL
REMARK 923 INTER-LIGAND FREE ENERGY PREDICTED BY IDOCK:   -5.21 KCAL/MOL
REMARK 924 INTRA-LIGAND FREE ENERGY PREDICTED BY IDOCK:   -0.06 KCAL/MOL
REMARK 927      BINDING AFFINITY PREDICTED BY RF-SCORE:    0.00 PKD
ROOT
HETATM    1  C   UNL     1     -10.734  17.042  68.082  1.00  0.00    -0.374 C  
HETATM    2  C   UNL     1      -9.461  16.694  68.837  1.00  0.00    -0.251 C  
ENDROOT
BRANCH   2   3
HETATM    3  N   UNL     1      -8.175  16.704  67.968  1.00  0.00    -0.181 N  
HETATM    4  C   UNL     1      -8.564  16.460  66.499  1.00  0.00    -0.294 C  
BRANCH   3   5
HETATM    5  C   UNL     1      -7.401  18.032  68.057  1.00  0.00    -0.232 C  
HETATM    6  C   UNL     1      -8.295  19.262  68.069  1.00  0.00    -0.350 C  
ENDBRANCH   3   5
BRANCH   3   7
HETATM    7  C   UNL     1      -7.327  15.495  68.460  1.00  0.00    -0.120 C  
BRANCH   7   8
HETATM    8  C   UNL     1      -8.078  14.161  68.485  1.00  0.00    -0.143 C  
BRANCH   8   9
HETATM    9  O   UNL     1      -7.189  13.070  68.737  1.00  0.00    -0.102 OA 
BRANCH   9  10
HETATM   10  C   UNL     1      -6.817  12.379  67.614  1.00  0.00    -0.132 C  
HETATM   11  O   UNL     1      -5.789  12.616  66.991  1.00  0.00    -0.319 OA 
BRANCH  10  12
HETATM   12  C   UNL     1      -7.747  11.199  67.356  1.00  0.00    -0.120 C  
HETATM   13  C   UNL     1      -7.638  10.258  68.535  1.00  0.00    -0.089 A  
HETATM   14  C   UNL     1      -6.403   9.669  68.864  1.00  0.00    -0.042 A  
HETATM   15  C   UNL     1      -6.267   8.922  70.033  1.00  0.00    -0.037 A  
HETATM   16  C   UNL     1      -7.364   8.738  70.870  1.00  0.00    -0.087 A  
HETATM   17  C   UNL     1      -8.597   9.304  70.540  1.00  0.00    -0.271 A  
HETATM   18  C   UNL     1      -8.731  10.070  69.382  1.00  0.00    -0.186 A  
HETATM   19  O   UNL     1      -9.968  10.626  69.160  1.00  0.00    -0.208 OA 
HETATM   20  C   UNL     1     -10.164  11.377  68.025  1.00  0.00    -0.185 A  
HETATM   21  C   UNL     1     -11.459  11.863  67.828  1.00  0.00    -0.389 A  
HETATM   22  C   UNL     1     -11.752  12.646  66.713  1.00  0.00    -0.460 A  
HETATM   23  C   UNL     1     -10.754  12.936  65.784  1.00  0.00    -0.293 A  
HETATM   24  C   UNL     1      -9.462  12.447  65.975  1.00  0.00    -0.168 A  
HETATM   25  C   UNL     1      -9.156  11.672  67.107  1.00  0.00    -0.171 A  
ENDBRANCH  10  12
ENDBRANCH   9  10
ENDBRANCH   8   9
ENDBRANCH   7   8
ENDBRANCH   3   7
ENDBRANCH   2   3
TORSDOF 7
ENDMDL
MODEL      235
REMARK 921   NORMALIZED FREE ENERGY PREDICTED BY IDOCK:   -2.79 KCAL/MOL
REMARK 922        TOTAL FREE ENERGY PREDICTED BY IDOCK:   -5.25 KCAL/MOL
REMARK 923 INTER-LIGAND FREE ENERGY PREDICTED BY IDOCK:   -4.80 KCAL/MOL
REMARK 924 INTRA-LIGAND FREE ENERGY PREDICTED BY IDOCK:   -0.44 KCAL/MOL
REMARK 927      BINDING AFFINITY PREDICTED BY RF-SCORE:    0.00 PKD
ROOT
HETATM    1  C   UNL     1     -11.320  16.195  70.715  1.00  0.00    -0.397 C  
HETATM    2  C   UNL     1     -10.591  17.152  69.786  1.00  0.00     0.100 C  
ENDROOT
BRANCH   2   3
HETATM    3  N   UNL     1     -10.493  16.671  68.314  1.00  0.00    -0.304 N  
HETATM    4  C   UNL     1     -11.660  15.710  68.025  1.00  0.00    -0.239 C  
BRANCH   3   5
HETATM    5  C   UNL     1     -10.550  17.829  67.300  1.00  0.00    -0.316 C  
HETATM    6  C   UNL     1     -10.447  19.207  67.937  1.00  0.00    -0.492 C  
ENDBRANCH   3   5
BRANCH   3   7
HETATM    7  C   UNL     1      -9.161  15.872  68.221  1.00  0.00    -0.189 C  
BRANCH   7   8
HETATM    8  C   UNL     1      -8.817  15.373  66.816  1.00  0.00    -0.269 C  
BRANCH   8   9
HETATM    9  O   UNL     1      -9.397  14.090  66.564  1.00  0.00    -0.278 OA 
BRANCH   9  10
HETATM   10  C   UNL     1      -9.129  13.155  67.528  1.00  0.00    -0.205 C  
HETATM   11  O   UNL     1      -9.891  12.912  68.457  1.00  0.00    -0.214 OA 
BRANCH  10  12
HETATM   12  C   UNL     1      -7.869  12.364  67.198  1.00  0.00    -0.138 C  
HETATM   13  C   UNL     1      -6.986  12.367  68.426  1.00  0.00    -0.091 A  
HETATM   14  C   UNL     1      -6.512  13.580  68.958  1.00  0.00    -0.107 A  
HETATM   15  C   UNL     1      -5.824  13.598  70.171  1.00  0.00    -0.145 A  
HETATM   16  C   UNL     1      -5.585  12.405  70.849  1.00  0.00    -0.109 A  
HETATM   17  C   UNL     1      -6.036  11.196  70.316  1.00  0.00    -0.144 A  
HETATM   18  C   UNL     1      -6.743  11.178  69.114  1.00  0.00    -0.092 A  
HETATM   19  O   UNL     1      -7.187   9.950  68.688  1.00  0.00    -0.070 OA 
HETATM   20  C   UNL     1      -7.876   9.868  67.501  1.00  0.00    -0.098 A  
HETATM   21  C   UNL     1      -8.248   8.584  67.095  1.00  0.00    -0.108 A  
HETATM   22  C   UNL     1      -8.960   8.401  65.911  1.00  0.00    -0.223 A  
HETATM   23  C   UNL     1      -9.294   9.501  65.123  1.00  0.00    -0.316 A  
HETATM   24  C   UNL     1      -8.919  10.784  65.522  1.00  0.00    -0.210 A  
HETATM   25  C   UNL     1      -8.216  10.976  66.724  1.00  0.00    -0.149 A  
ENDBRANCH  10  12
ENDBRANCH   9  10
ENDBRANCH   8   9
ENDBRANCH   7   8
ENDBRANCH   3   7
ENDBRANCH   2   3
TORSDOF 7
ENDMDL
MODEL      236
REMARK 921   NORMALIZED FREE ENERGY PREDICTED BY IDOCK:   -2.76 KCAL/MOL
REMARK 922        TOTAL FREE ENERGY PREDICTED BY IDOCK:   -5.21 KCAL/MOL
REMARK 923 INTER-LIGAND FREE ENERGY PREDICTED BY IDOCK:   -4.42 KCAL/MOL
REMARK 924 INTRA-LIGAND FREE ENERGY PREDICTED BY IDOCK:   -0.79 KCAL/MOL
REMARK 927      BINDING AFFINITY PREDICTED BY RF-SCORE:    0.00 PKD
ROOT
HETATM    1  C   UNL     1      -8.313   6.654  65.254  1.00  0.00    -0.112 C  
HETATM    2  C   UNL     1      -8.440   7.351  66.598  1.00  0.00    -0.124 C  
ENDROOT
BRANCH   2   3
HETATM    3  N   UNL     1      -9.190   8.709  66.550  1.00  0.00    -0.173 N  
HETATM    4  C   UNL     1      -8.417   9.735  67.398  1.00  0.00    -0.121 C  
BRANCH   3   5
HETATM    5  C   UNL     1      -9.335   9.264  65.121  1.00  0.00    -0.171 C  
HETATM    6  C   UNL     1     -10.063  10.598  65.053  1.00  0.00    -0.388 C  
ENDBRANCH   3   5
BRANCH   3   7
HETATM    7  C   UNL     1     -10.569   8.452  67.224  1.00  0.00    -0.257 C  
BRANCH   7   8
HETATM    8  C   UNL     1     -10.655   7.144  68.015  1.00  0.00    -0.196 C  
BRANCH   8   9
HETATM    9  O   UNL     1     -10.147   7.305  69.342  1.00  0.00    -0.174 OA 
BRANCH   9  10
HETATM   10  C   UNL     1     -10.792   6.550  70.285  1.00  0.00    -0.279 C  
HETATM   11  O   UNL     1     -12.012   6.513  70.394  1.00  0.00    -0.397 OA 
BRANCH  10  12
HETATM   12  C   UNL     1      -9.816   5.658  71.044  1.00  0.00    -0.231 C  
HETATM   13  C   UNL     1      -8.982   4.914  70.025  1.00  0.00    -0.143 A  
HETATM   14  C   UNL     1      -9.595   4.054  69.095  1.00  0.00    -0.233 A  
HETATM   15  C   UNL     1      -8.850   3.484  68.064  1.00  0.00    -0.150 A  
HETATM   16  C   UNL     1      -7.486   3.748  67.966  1.00  0.00    -0.062 A  
HETATM   17  C   UNL     1      -6.869   4.585  68.898  1.00  0.00    -0.050 A  
HETATM   18  C   UNL     1      -7.616   5.174  69.918  1.00  0.00    -0.064 A  
HETATM   19  O   UNL     1      -6.935   6.019  70.760  1.00  0.00    -0.062 OA 
HETATM   20  C   UNL     1      -7.615   6.615  71.795  1.00  0.00    -0.093 A  
HETATM   21  C   UNL     1      -6.854   7.414  72.650  1.00  0.00    -0.067 A  
HETATM   22  C   UNL     1      -7.458   8.071  73.721  1.00  0.00    -0.203 A  
HETATM   23  C   UNL     1      -8.826   7.922  73.947  1.00  0.00    -0.315 A  
HETATM   24  C   UNL     1      -9.588   7.120  73.098  1.00  0.00    -0.213 A  
HETATM   25  C   UNL     1      -8.988   6.469  72.006  1.00  0.00    -0.140 A  
ENDBRANCH  10  12
ENDBRANCH   9  10
ENDBRANCH   8   9
ENDBRANCH   7   8
ENDBRANCH   3   7
ENDBRANCH   2   3
TORSDOF 7
ENDMDL
MODEL      237
REMARK 921   NORMALIZED FREE ENERGY PREDICTED BY IDOCK:   -2.76 KCAL/MOL
REMARK 922        TOTAL FREE ENERGY PREDICTED BY IDOCK:   -5.21 KCAL/MOL
REMARK 923 INTER-LIGAND FREE ENERGY PREDICTED BY IDOCK:   -4.33 KCAL/MOL
REMARK 924 INTRA-LIGAND FREE ENERGY PREDICTED BY IDOCK:   -0.88 KCAL/MOL
REMARK 927      BINDING AFFINITY PREDICTED BY RF-SCORE:    0.00 PKD
ROOT
HETATM    1  C   UNL     1      -6.852  11.551  66.860  1.00  0.00    -0.138 C  
HETATM    2  C   UNL     1      -7.898  10.567  67.357  1.00  0.00    -0.106 C  
ENDROOT
BRANCH   2   3
HETATM    3  N   UNL     1      -9.085  10.343  66.381  1.00  0.00    -0.154 N  
HETATM    4  C   UNL     1     -10.188  11.370  66.694  1.00  0.00    -0.222 C  
BRANCH   3   5
HETATM    5  C   UNL     1      -8.682  10.490  64.902  1.00  0.00    -0.181 C  
HETATM    6  C   UNL     1      -9.850  10.790  63.976  1.00  0.00    -0.390 C  
ENDBRANCH   3   5
BRANCH   3   7
HETATM    7  C   UNL     1      -9.630   8.921  66.704  1.00  0.00    -0.219 C  
BRANCH   7   8
HETATM    8  C   UNL     1     -10.832   8.901  67.651  1.00  0.00    -0.042 C  
BRANCH   8   9
HETATM    9  O   UNL     1     -10.477   8.368  68.929  1.00  0.00    -0.218 OA 
BRANCH   9  10
HETATM   10  C   UNL     1     -10.523   7.001  68.998  1.00  0.00    -0.207 C  
HETATM   11  O   UNL     1     -11.343   6.326  68.388  1.00  0.00    -0.298 OA 
BRANCH  10  12
HETATM   12  C   UNL     1      -9.340   6.446  69.783  1.00  0.00    -0.151 C  
HETATM   13  C   UNL     1      -9.876   5.832  71.057  1.00  0.00    -0.227 A  
HETATM   14  C   UNL     1     -10.576   6.623  71.987  1.00  0.00    -0.236 A  
HETATM   15  C   UNL     1     -11.199   6.033  73.086  1.00  0.00    -0.177 A  
HETATM   16  C   UNL     1     -11.109   4.657  73.278  1.00  0.00    -0.403 A  
HETATM   17  C   UNL     1     -10.399   3.870  72.369  1.00  0.00    -0.194 A  
HETATM   18  C   UNL     1      -9.793   4.454  71.256  1.00  0.00    -0.190 A  
HETATM   19  O   UNL     1      -9.155   3.599  70.392  1.00  0.00    -0.101 OA 
HETATM   20  C   UNL     1      -8.526   4.119  69.286  1.00  0.00    -0.076 A  
HETATM   21  C   UNL     1      -7.845   3.203  68.480  1.00  0.00    -0.060 A  
HETATM   22  C   UNL     1      -7.187   3.635  67.329  1.00  0.00    -0.063 A  
HETATM   23  C   UNL     1      -7.197   4.986  66.987  1.00  0.00    -0.077 A  
HETATM   24  C   UNL     1      -7.871   5.904  67.794  1.00  0.00    -0.098 A  
HETATM   25  C   UNL     1      -8.551   5.472  68.945  1.00  0.00    -0.100 A  
ENDBRANCH  10  12
ENDBRANCH   9  10
ENDBRANCH   8   9
ENDBRANCH   7   8
ENDBRANCH   3   7
ENDBRANCH   2   3
TORSDOF 7
ENDMDL
MODEL      238
REMARK 921   NORMALIZED FREE ENERGY PREDICTED BY IDOCK:   -2.74 KCAL/MOL
REMARK 922        TOTAL FREE ENERGY PREDICTED BY IDOCK:   -5.18 KCAL/MOL
REMARK 923 INTER-LIGAND FREE ENERGY PREDICTED BY IDOCK:   -4.59 KCAL/MOL
REMARK 924 INTRA-LIGAND FREE ENERGY PREDICTED BY IDOCK:   -0.58 KCAL/MOL
REMARK 927      BINDING AFFINITY PREDICTED BY RF-SCORE:    0.00 PKD
ROOT
HETATM    1  C   UNL     1      -9.466  17.580  68.555  1.00  0.00    -0.296 C  
HETATM    2  C   UNL     1      -8.247  16.708  68.808  1.00  0.00    -0.249 C  
ENDROOT
BRANCH   2   3
HETATM    3  N   UNL     1      -7.579  16.147  67.525  1.00  0.00    -0.137 N  
HETATM    4  C   UNL     1      -8.611  16.152  66.383  1.00  0.00    -0.330 C  
BRANCH   3   5
HETATM    5  C   UNL     1      -6.352  16.964  67.080  1.00  0.00    -0.186 C  
HETATM    6  C   UNL     1      -6.701  18.196  66.259  1.00  0.00    -0.275 C  
ENDBRANCH   3   5
BRANCH   3   7
HETATM    7  C   UNL     1      -7.215  14.670  67.853  1.00  0.00    -0.159 C  
BRANCH   7   8
HETATM    8  C   UNL     1      -8.420  13.754  68.080  1.00  0.00    -0.173 C  
BRANCH   8   9
HETATM    9  O   UNL     1      -8.023  12.508  68.658  1.00  0.00    -0.115 OA 
BRANCH   9  10
HETATM   10  C   UNL     1      -7.850  11.498  67.749  1.00  0.00    -0.126 C  
HETATM   11  O   UNL     1      -6.762  11.218  67.257  1.00  0.00    -0.086 OA 
BRANCH  10  12
HETATM   12  C   UNL     1      -9.128  10.688  67.570  1.00  0.00    -0.144 C  
HETATM   13  C   UNL     1      -9.581  10.849  66.136  1.00  0.00    -0.239 A  
HETATM   14  C   UNL     1      -9.897  12.124  65.629  1.00  0.00    -0.256 A  
HETATM   15  C   UNL     1     -10.170  12.295  64.273  1.00  0.00    -0.356 A  
HETATM   16  C   UNL     1     -10.153  11.197  63.418  1.00  0.00    -0.439 A  
HETATM   17  C   UNL     1      -9.859   9.927  63.918  1.00  0.00     0.223 A  
HETATM   18  C   UNL     1      -9.564   9.755  65.271  1.00  0.00    -0.300 A  
HETATM   19  O   UNL     1      -9.243   8.480  65.666  1.00  0.00    -0.178 OA 
HETATM   20  C   UNL     1      -8.959   8.246  66.991  1.00  0.00    -0.140 A  
HETATM   21  C   UNL     1      -8.699   6.919  67.338  1.00  0.00    -0.119 A  
HETATM   22  C   UNL     1      -8.389   6.586  68.656  1.00  0.00    -0.122 A  
HETATM   23  C   UNL     1      -8.349   7.579  69.634  1.00  0.00    -0.131 A  
HETATM   24  C   UNL     1      -8.614   8.905  69.291  1.00  0.00    -0.133 A  
HETATM   25  C   UNL     1      -8.910   9.249  67.961  1.00  0.00    -0.128 A  
ENDBRANCH  10  12
ENDBRANCH   9  10
ENDBRANCH   8   9
ENDBRANCH   7   8
ENDBRANCH   3   7
ENDBRANCH   2   3
TORSDOF 7
ENDMDL
MODEL      239
REMARK 921   NORMALIZED FREE ENERGY PREDICTED BY IDOCK:   -2.74 KCAL/MOL
REMARK 922        TOTAL FREE ENERGY PREDICTED BY IDOCK:   -5.18 KCAL/MOL
REMARK 923 INTER-LIGAND FREE ENERGY PREDICTED BY IDOCK:   -5.38 KCAL/MOL
REMARK 924 INTRA-LIGAND FREE ENERGY PREDICTED BY IDOCK:    0.21 KCAL/MOL
REMARK 927      BINDING AFFINITY PREDICTED BY RF-SCORE:    0.00 PKD
ROOT
HETATM    1  C   UNL     1     -11.980  12.546  66.253  1.00  0.00    -0.410 C  
HETATM    2  C   UNL     1     -10.906  11.936  65.367  1.00  0.00    -0.294 C  
ENDROOT
BRANCH   2   3
HETATM    3  N   UNL     1      -9.902  11.017  66.111  1.00  0.00    -0.217 N  
HETATM    4  C   UNL     1      -9.501   9.859  65.179  1.00  0.00    -0.275 C  
BRANCH   3   5
HETATM    5  C   UNL     1      -8.625  11.757  66.553  1.00  0.00    -0.148 C  
HETATM    6  C   UNL     1      -8.742  12.418  67.918  1.00  0.00    -0.175 C  
ENDBRANCH   3   5
BRANCH   3   7
HETATM    7  C   UNL     1     -10.688  10.427  67.319  1.00  0.00    -0.273 C  
BRANCH   7   8
HETATM    8  C   UNL     1     -10.322   8.983  67.670  1.00  0.00    -0.257 C  
BRANCH   8   9
HETATM    9  O   UNL     1     -10.065   8.839  69.069  1.00  0.00    -0.187 OA 
BRANCH   9  10
HETATM   10  C   UNL     1      -8.744   8.955  69.412  1.00  0.00    -0.142 C  
HETATM   11  O   UNL     1      -7.833   8.906  68.594  1.00  0.00    -0.099 OA 
BRANCH  10  12
HETATM   12  C   UNL     1      -8.583   9.313  70.884  1.00  0.00    -0.220 C  
HETATM   13  C   UNL     1      -9.920   9.105  71.560  1.00  0.00    -0.358 A  
HETATM   14  C   UNL     1     -11.049   9.834  71.142  1.00  0.00    -0.414 A  
HETATM   15  C   UNL     1     -12.309   9.539  71.659  1.00  0.00    -0.480 A  
HETATM   16  C   UNL     1     -12.450   8.534  72.612  1.00  0.00    -0.276 A  
HETATM   17  C   UNL     1     -11.331   7.821  73.045  1.00  0.00    -0.331 A  
HETATM   18  C   UNL     1     -10.071   8.098  72.513  1.00  0.00    -0.300 A  
HETATM   19  O   UNL     1      -9.035   7.317  72.964  1.00  0.00    -0.127 OA 
HETATM   20  C   UNL     1      -7.768   7.555  72.488  1.00  0.00    -0.094 A  
HETATM   21  C   UNL     1      -6.751   6.766  73.030  1.00  0.00    -0.067 A  
HETATM   22  C   UNL     1      -5.434   6.927  72.600  1.00  0.00    -0.038 A  
HETATM   23  C   UNL     1      -5.129   7.884  71.635  1.00  0.00    -0.034 A  
HETATM   24  C   UNL     1      -6.141   8.678  71.096  1.00  0.00    -0.043 A  
HETATM   25  C   UNL     1      -7.473   8.509  71.512  1.00  0.00    -0.123 A  
ENDBRANCH  10  12
ENDBRANCH   9  10
ENDBRANCH   8   9
ENDBRANCH   7   8
ENDBRANCH   3   7
ENDBRANCH   2   3
TORSDOF 7
ENDMDL
MODEL      240
REMARK 921   NORMALIZED FREE ENERGY PREDICTED BY IDOCK:   -2.72 KCAL/MOL
REMARK 922        TOTAL FREE ENERGY PREDICTED BY IDOCK:   -5.15 KCAL/MOL
REMARK 923 INTER-LIGAND FREE ENERGY PREDICTED BY IDOCK:   -4.12 KCAL/MOL
REMARK 924 INTRA-LIGAND FREE ENERGY PREDICTED BY IDOCK:   -1.03 KCAL/MOL
REMARK 927      BINDING AFFINITY PREDICTED BY RF-SCORE:    0.00 PKD
ROOT
HETATM    1  C   UNL     1     -10.623   9.794  68.373  1.00  0.00    -0.264 C  
HETATM    2  C   UNL     1      -9.768   9.433  69.576  1.00  0.00    -0.183 C  
ENDROOT
BRANCH   2   3
HETATM    3  N   UNL     1     -10.421   8.415  70.548  1.00  0.00    -0.203 N  
HETATM    4  C   UNL     1      -9.832   8.621  71.955  1.00  0.00    -0.325 C  
BRANCH   3   5
HETATM    5  C   UNL     1     -11.952   8.561  70.630  1.00  0.00    -0.035 C  
HETATM    6  C   UNL     1     -12.431   9.293  71.875  1.00  0.00    -0.457 C  
ENDBRANCH   3   5
BRANCH   3   7
HETATM    7  C   UNL     1      -9.991   7.010  70.035  1.00  0.00    -0.181 C  
BRANCH   7   8
HETATM    8  C   UNL     1     -11.111   6.208  69.366  1.00  0.00    -0.409 C  
BRANCH   8   9
HETATM    9  O   UNL     1     -10.946   6.171  67.947  1.00  0.00    -0.312 OA 
BRANCH   9  10
HETATM   10  C   UNL     1      -9.956   5.326  67.519  1.00  0.00    -0.171 C  
HETATM   11  O   UNL     1      -9.689   4.269  68.079  1.00  0.00    -0.157 OA 
BRANCH  10  12
HETATM   12  C   UNL     1      -9.367   5.789  66.192  1.00  0.00    -0.160 C  
HETATM   13  C   UNL     1      -7.969   6.301  66.460  1.00  0.00    -0.109 A  
HETATM   14  C   UNL     1      -7.763   7.384  67.335  1.00  0.00    -0.114 A  
HETATM   15  C   UNL     1      -6.472   7.762  67.698  1.00  0.00    -0.055 A  
HETATM   16  C   UNL     1      -5.377   7.078  67.177  1.00  0.00    -0.017 A  
HETATM   17  C   UNL     1      -5.574   6.015  66.293  1.00  0.00    -0.016 A  
HETATM   18  C   UNL     1      -6.866   5.621  65.944  1.00  0.00    -0.057 A  
HETATM   19  O   UNL     1      -6.966   4.537  65.106  1.00  0.00    -0.059 OA 
HETATM   20  C   UNL     1      -8.213   4.114  64.714  1.00  0.00    -0.102 A  
HETATM   21  C   UNL     1      -8.244   3.046  63.814  1.00  0.00    -0.086 A  
HETATM   22  C   UNL     1      -9.464   2.538  63.369  1.00  0.00    -0.099 A  
HETATM   23  C   UNL     1     -10.657   3.104  63.814  1.00  0.00    -0.220 A  
HETATM   24  C   UNL     1     -10.630   4.175  64.707  1.00  0.00    -0.177 A  
HETATM   25  C   UNL     1      -9.404   4.680  65.173  1.00  0.00    -0.153 A  
ENDBRANCH  10  12
ENDBRANCH   9  10
ENDBRANCH   8   9
ENDBRANCH   7   8
ENDBRANCH   3   7
ENDBRANCH   2   3
TORSDOF 7
ENDMDL
MODEL      241
REMARK 921   NORMALIZED FREE ENERGY PREDICTED BY IDOCK:   -2.72 KCAL/MOL
REMARK 922        TOTAL FREE ENERGY PREDICTED BY IDOCK:   -5.15 KCAL/MOL
REMARK 923 INTER-LIGAND FREE ENERGY PREDICTED BY IDOCK:   -4.62 KCAL/MOL
REMARK 924 INTRA-LIGAND FREE ENERGY PREDICTED BY IDOCK:   -0.53 KCAL/MOL
REMARK 927      BINDING AFFINITY PREDICTED BY RF-SCORE:    0.00 PKD
ROOT
HETATM    1  C   UNL     1     -10.086   4.223  65.203  1.00  0.00    -0.221 C  
HETATM    2  C   UNL     1      -8.780   4.483  65.935  1.00  0.00    -0.119 C  
ENDROOT
BRANCH   2   3
HETATM    3  N   UNL     1      -8.745   3.959  67.396  1.00  0.00    -0.102 N  
HETATM    4  C   UNL     1      -9.183   2.484  67.408  1.00  0.00    -0.149 C  
BRANCH   3   5
HETATM    5  C   UNL     1      -7.348   4.061  68.036  1.00  0.00    -0.063 C  
HETATM    6  C   UNL     1      -6.289   4.635  67.107  1.00  0.00    -0.040 C  
ENDBRANCH   3   5
BRANCH   3   7
HETATM    7  C   UNL     1      -9.807   4.795  68.167  1.00  0.00    -0.120 C  
BRANCH   7   8
HETATM    8  C   UNL     1      -9.224   5.799  69.165  1.00  0.00    -0.120 C  
BRANCH   8   9
HETATM    9  O   UNL     1      -8.908   7.040  68.529  1.00  0.00    -0.126 OA 
BRANCH   9  10
HETATM   10  C   UNL     1      -9.993   7.844  68.299  1.00  0.00    -0.180 C  
HETATM   11  O   UNL     1     -10.909   7.535  67.546  1.00  0.00    -0.233 OA 
BRANCH  10  12
HETATM   12  C   UNL     1      -9.982   9.063  69.214  1.00  0.00    -0.188 C  
HETATM   13  C   UNL     1     -10.276   8.590  70.620  1.00  0.00    -0.230 A  
HETATM   14  C   UNL     1     -11.490   7.941  70.912  1.00  0.00    -0.294 A  
HETATM   15  C   UNL     1     -11.701   7.373  72.167  1.00  0.00    -0.328 A  
HETATM   16  C   UNL     1     -10.715   7.467  73.146  1.00  0.00    -0.452 A  
HETATM   17  C   UNL     1      -9.517   8.127  72.868  1.00  0.00    -0.345 A  
HETATM   18  C   UNL     1      -9.293   8.678  71.606  1.00  0.00    -0.263 A  
HETATM   19  O   UNL     1      -8.069   9.268  71.407  1.00  0.00    -0.330 OA 
HETATM   20  C   UNL     1      -7.799   9.843  70.188  1.00  0.00    -0.171 A  
HETATM   21  C   UNL     1      -6.560  10.478  70.071  1.00  0.00    -0.144 A  
HETATM   22  C   UNL     1      -6.191  11.078  68.868  1.00  0.00    -0.042 A  
HETATM   23  C   UNL     1      -7.064  11.056  67.782  1.00  0.00    -0.086 A  
HETATM   24  C   UNL     1      -8.304  10.428  67.898  1.00  0.00    -0.114 A  
HETATM   25  C   UNL     1      -8.675   9.805  69.102  1.00  0.00    -0.155 A  
ENDBRANCH  10  12
ENDBRANCH   9  10
ENDBRANCH   8   9
ENDBRANCH   7   8
ENDBRANCH   3   7
ENDBRANCH   2   3
TORSDOF 7
ENDMDL
MODEL      242
REMARK 921   NORMALIZED FREE ENERGY PREDICTED BY IDOCK:   -2.69 KCAL/MOL
REMARK 922        TOTAL FREE ENERGY PREDICTED BY IDOCK:   -5.11 KCAL/MOL
REMARK 923 INTER-LIGAND FREE ENERGY PREDICTED BY IDOCK:   -4.32 KCAL/MOL
REMARK 924 INTRA-LIGAND FREE ENERGY PREDICTED BY IDOCK:   -0.79 KCAL/MOL
REMARK 927      BINDING AFFINITY PREDICTED BY RF-SCORE:    0.00 PKD
ROOT
HETATM    1  C   UNL     1      -7.280   6.665  65.414  1.00  0.00    -0.073 C  
HETATM    2  C   UNL     1      -7.636   5.951  66.708  1.00  0.00    -0.099 C  
ENDROOT
BRANCH   2   3
HETATM    3  N   UNL     1      -9.093   6.181  67.191  1.00  0.00    -0.114 N  
HETATM    4  C   UNL     1     -10.013   5.159  66.501  1.00  0.00    -0.212 C  
BRANCH   3   5
HETATM    5  C   UNL     1      -9.250   6.031  68.716  1.00  0.00    -0.123 C  
HETATM    6  C   UNL     1      -7.999   5.519  69.413  1.00  0.00    -0.094 C  
ENDBRANCH   3   5
BRANCH   3   7
HETATM    7  C   UNL     1      -9.479   7.605  66.696  1.00  0.00    -0.198 C  
BRANCH   7   8
HETATM    8  C   UNL     1     -10.870   8.073  67.133  1.00  0.00    -0.080 C  
BRANCH   8   9
HETATM    9  O   UNL     1     -10.792   9.256  67.933  1.00  0.00    -0.216 OA 
BRANCH   9  10
HETATM   10  C   UNL     1     -10.303  10.350  67.270  1.00  0.00    -0.228 C  
HETATM   11  O   UNL     1     -10.516  10.564  66.082  1.00  0.00    -0.230 OA 
BRANCH  10  12
HETATM   12  C   UNL     1      -9.620  11.319  68.227  1.00  0.00    -0.193 C  
HETATM   13  C   UNL     1      -8.125  11.155  68.065  1.00  0.00    -0.123 A  
HETATM   14  C   UNL     1      -7.514   9.914  68.323  1.00  0.00    -0.080 A  
HETATM   15  C   UNL     1      -6.165   9.718  68.033  1.00  0.00    -0.055 A  
HETATM   16  C   UNL     1      -5.411  10.763  67.504  1.00  0.00    -0.043 A  
HETATM   17  C   UNL     1      -6.007  12.002  67.264  1.00  0.00    -0.146 A  
HETATM   18  C   UNL     1      -7.363  12.194  67.533  1.00  0.00    -0.135 A  
HETATM   19  O   UNL     1      -7.875  13.431  67.223  1.00  0.00    -0.157 OA 
HETATM   20  C   UNL     1      -9.201  13.684  67.483  1.00  0.00    -0.218 A  
HETATM   21  C   UNL     1      -9.645  14.978  67.200  1.00  0.00    -0.222 A  
HETATM   22  C   UNL     1     -10.977  15.326  67.418  1.00  0.00    -0.321 A  
HETATM   23  C   UNL     1     -11.868  14.384  67.930  1.00  0.00    -0.384 A  
HETATM   24  C   UNL     1     -11.426  13.093  68.219  1.00  0.00    -0.349 A  
HETATM   25  C   UNL     1     -10.088  12.731  67.985  1.00  0.00    -0.230 A  
ENDBRANCH  10  12
ENDBRANCH   9  10
ENDBRANCH   8   9
ENDBRANCH   7   8
ENDBRANCH   3   7
ENDBRANCH   2   3
TORSDOF 7
ENDMDL
MODEL      243
REMARK 921   NORMALIZED FREE ENERGY PREDICTED BY IDOCK:   -2.68 KCAL/MOL
REMARK 922        TOTAL FREE ENERGY PREDICTED BY IDOCK:   -5.09 KCAL/MOL
REMARK 923 INTER-LIGAND FREE ENERGY PREDICTED BY IDOCK:   -5.10 KCAL/MOL
REMARK 924 INTRA-LIGAND FREE ENERGY PREDICTED BY IDOCK:    0.01 KCAL/MOL
REMARK 927      BINDING AFFINITY PREDICTED BY RF-SCORE:    0.00 PKD
ROOT
HETATM    1  C   UNL     1      -9.705   4.108  70.347  1.00  0.00    -0.271 C  
HETATM    2  C   UNL     1      -9.832   5.623  70.359  1.00  0.00    -0.194 C  
ENDROOT
BRANCH   2   3
HETATM    3  N   UNL     1     -10.114   6.234  71.758  1.00  0.00    -0.185 N  
HETATM    4  C   UNL     1     -10.728   5.149  72.661  1.00  0.00    -0.237 C  
BRANCH   3   5
HETATM    5  C   UNL     1      -8.847   6.781  72.440  1.00  0.00    -0.131 C  
HETATM    6  C   UNL     1      -8.307   5.882  73.542  1.00  0.00    -0.113 C  
ENDBRANCH   3   5
BRANCH   3   7
HETATM    7  C   UNL     1     -11.182   7.342  71.524  1.00  0.00    -0.243 C  
BRANCH   7   8
HETATM    8  C   UNL     1     -10.862   8.683  72.190  1.00  0.00    -0.354 C  
BRANCH   8   9
HETATM    9  O   UNL     1     -10.151   9.547  71.301  1.00  0.00    -0.273 OA 
BRANCH   9  10
HETATM   10  C   UNL     1     -10.794   9.785  70.115  1.00  0.00    -0.291 C  
HETATM   11  O   UNL     1     -11.995   9.598  69.955  1.00  0.00    -0.061 OA 
BRANCH  10  12
HETATM   12  C   UNL     1      -9.868  10.453  69.106  1.00  0.00    -0.237 C  
HETATM   13  C   UNL     1      -9.065   9.367  68.426  1.00  0.00    -0.128 A  
HETATM   14  C   UNL     1      -8.221   8.529  69.178  1.00  0.00    -0.119 A  
HETATM   15  C   UNL     1      -7.595   7.437  68.580  1.00  0.00    -0.114 A  
HETATM   16  C   UNL     1      -7.789   7.184  67.224  1.00  0.00    -0.111 A  
HETATM   17  C   UNL     1      -8.609   8.023  66.468  1.00  0.00    -0.148 A  
HETATM   18  C   UNL     1      -9.254   9.105  67.069  1.00  0.00    -0.135 A  
HETATM   19  O   UNL     1     -10.077   9.848  66.259  1.00  0.00    -0.237 OA 
HETATM   20  C   UNL     1     -10.726  10.937  66.792  1.00  0.00    -0.252 A  
HETATM   21  C   UNL     1     -11.500  11.685  65.902  1.00  0.00    -0.189 A  
HETATM   22  C   UNL     1     -12.206  12.800  66.353  1.00  0.00    -0.242 A  
HETATM   23  C   UNL     1     -12.130  13.177  67.693  1.00  0.00    -0.281 A  
HETATM   24  C   UNL     1     -11.353  12.435  68.582  1.00  0.00    -0.332 A  
HETATM   25  C   UNL     1     -10.653  11.300  68.138  1.00  0.00    -0.225 A  
ENDBRANCH  10  12
ENDBRANCH   9  10
ENDBRANCH   8   9
ENDBRANCH   7   8
ENDBRANCH   3   7
ENDBRANCH   2   3
TORSDOF 7
ENDMDL
MODEL      244
REMARK 921   NORMALIZED FREE ENERGY PREDICTED BY IDOCK:   -2.60 KCAL/MOL
REMARK 922        TOTAL FREE ENERGY PREDICTED BY IDOCK:   -4.98 KCAL/MOL
REMARK 923 INTER-LIGAND FREE ENERGY PREDICTED BY IDOCK:   -5.41 KCAL/MOL
REMARK 924 INTRA-LIGAND FREE ENERGY PREDICTED BY IDOCK:    0.43 KCAL/MOL
REMARK 927      BINDING AFFINITY PREDICTED BY RF-SCORE:    0.00 PKD
ROOT
HETATM    1  C   UNL     1      -9.077   8.294  71.992  1.00  0.00    -0.267 C  
HETATM    2  C   UNL     1      -8.370   8.045  70.671  1.00  0.00    -0.123 C  
ENDROOT
BRANCH   2   3
HETATM    3  N   UNL     1      -9.316   7.936  69.445  1.00  0.00    -0.152 N  
HETATM    4  C   UNL     1      -8.494   8.148  68.161  1.00  0.00    -0.126 C  
BRANCH   3   5
HETATM    5  C   UNL     1     -10.025   6.572  69.353  1.00  0.00    -0.158 C  
HETATM    6  C   UNL     1     -11.223   6.567  68.416  1.00  0.00    -0.274 C  
ENDBRANCH   3   5
BRANCH   3   7
HETATM    7  C   UNL     1     -10.323   9.115  69.586  1.00  0.00    -0.219 C  
BRANCH   7   8
HETATM    8  C   UNL     1     -10.343  10.078  68.396  1.00  0.00    -0.191 C  
BRANCH   8   9
HETATM    9  O   UNL     1     -10.231  11.436  68.826  1.00  0.00    -0.203 OA 
BRANCH   9  10
HETATM   10  C   UNL     1     -10.715  12.351  67.929  1.00  0.00    -0.220 C  
HETATM   11  O   UNL     1     -11.838  12.836  68.007  1.00  0.00    -0.345 OA 
BRANCH  10  12
HETATM   12  C   UNL     1      -9.635  12.793  66.949  1.00  0.00    -0.235 C  
HETATM   13  C   UNL     1     -10.205  13.911  66.105  1.00  0.00    -0.307 A  
HETATM   14  C   UNL     1     -11.339  13.688  65.302  1.00  0.00    -0.306 A  
HETATM   15  C   UNL     1     -11.953  14.750  64.640  1.00  0.00    -0.448 A  
HETATM   16  C   UNL     1     -11.430  16.035  64.756  1.00  0.00    -0.201 A  
HETATM   17  C   UNL     1     -10.294  16.258  65.535  1.00  0.00    -0.363 A  
HETATM   18  C   UNL     1      -9.689  15.202  66.216  1.00  0.00    -0.290 A  
HETATM   19  O   UNL     1      -8.603  15.522  66.995  1.00  0.00    -0.195 OA 
HETATM   20  C   UNL     1      -7.956  14.519  67.676  1.00  0.00    -0.177 A  
HETATM   21  C   UNL     1      -6.825  14.900  68.401  1.00  0.00    -0.110 A  
HETATM   22  C   UNL     1      -6.110  13.955  69.135  1.00  0.00    -0.096 A  
HETATM   23  C   UNL     1      -6.517  12.622  69.136  1.00  0.00    -0.106 A  
HETATM   24  C   UNL     1      -7.642  12.236  68.408  1.00  0.00    -0.128 A  
HETATM   25  C   UNL     1      -8.378  13.188  67.681  1.00  0.00    -0.174 A  
ENDBRANCH  10  12
ENDBRANCH   9  10
ENDBRANCH   8   9
ENDBRANCH   7   8
ENDBRANCH   3   7
ENDBRANCH   2   3
TORSDOF 7
ENDMDL
MODEL      245
REMARK 921   NORMALIZED FREE ENERGY PREDICTED BY IDOCK:   -2.58 KCAL/MOL
REMARK 922        TOTAL FREE ENERGY PREDICTED BY IDOCK:   -4.96 KCAL/MOL
REMARK 923 INTER-LIGAND FREE ENERGY PREDICTED BY IDOCK:   -4.11 KCAL/MOL
REMARK 924 INTRA-LIGAND FREE ENERGY PREDICTED BY IDOCK:   -0.85 KCAL/MOL
REMARK 927      BINDING AFFINITY PREDICTED BY RF-SCORE:    0.00 PKD
ROOT
HETATM    1  C   UNL     1     -11.324  12.629  67.470  1.00  0.00    -0.361 C  
HETATM    2  C   UNL     1     -10.653  11.942  66.292  1.00  0.00    -0.253 C  
ENDROOT
BRANCH   2   3
HETATM    3  N   UNL     1      -9.818  10.689  66.668  1.00  0.00    -0.194 N  
HETATM    4  C   UNL     1      -9.797   9.725  65.469  1.00  0.00    -0.308 C  
BRANCH   3   5
HETATM    5  C   UNL     1      -8.364  11.030  67.048  1.00  0.00    -0.137 C  
HETATM    6  C   UNL     1      -8.179  11.367  68.520  1.00  0.00    -0.153 C  
ENDBRANCH   3   5
BRANCH   3   7
HETATM    7  C   UNL     1     -10.587  10.007  67.836  1.00  0.00    -0.250 C  
BRANCH   7   8
HETATM    8  C   UNL     1     -10.467   8.481  67.870  1.00  0.00    -0.201 C  
BRANCH   8   9
HETATM    9  O   UNL     1      -9.892   8.033  69.100  1.00  0.00    -0.171 OA 
BRANCH   9  10
HETATM   10  C   UNL     1     -10.624   7.073  69.745  1.00  0.00    -0.233 C  
HETATM   11  O   UNL     1     -11.843   6.981  69.648  1.00  0.00    -0.019 OA 
BRANCH  10  12
HETATM   12  C   UNL     1      -9.721   6.062  70.442  1.00  0.00    -0.206 C  
HETATM   13  C   UNL     1      -8.717   5.562  69.428  1.00  0.00    -0.107 A  
HETATM   14  C   UNL     1      -9.150   4.904  68.262  1.00  0.00    -0.138 A  
HETATM   15  C   UNL     1      -8.240   4.576  67.258  1.00  0.00    -0.101 A  
HETATM   16  C   UNL     1      -6.891   4.881  67.418  1.00  0.00    -0.056 A  
HETATM   17  C   UNL     1      -6.453   5.517  68.581  1.00  0.00    -0.043 A  
HETATM   18  C   UNL     1      -7.364   5.866  69.578  1.00  0.00    -0.075 A  
HETATM   19  O   UNL     1      -6.850   6.529  70.666  1.00  0.00    -0.059 OA 
HETATM   20  C   UNL     1      -7.698   6.883  71.688  1.00  0.00    -0.095 A  
HETATM   21  C   UNL     1      -7.104   7.500  72.791  1.00  0.00    -0.076 A  
HETATM   22  C   UNL     1      -7.885   7.908  73.872  1.00  0.00    -0.230 A  
HETATM   23  C   UNL     1      -9.261   7.688  73.859  1.00  0.00    -0.303 A  
HETATM   24  C   UNL     1      -9.856   7.066  72.761  1.00  0.00    -0.199 A  
HETATM   25  C   UNL     1      -9.077   6.670  71.661  1.00  0.00    -0.142 A  
ENDBRANCH  10  12
ENDBRANCH   9  10
ENDBRANCH   8   9
ENDBRANCH   7   8
ENDBRANCH   3   7
ENDBRANCH   2   3
TORSDOF 7
ENDMDL
MODEL      246
REMARK 921   NORMALIZED FREE ENERGY PREDICTED BY IDOCK:   -2.57 KCAL/MOL
REMARK 922        TOTAL FREE ENERGY PREDICTED BY IDOCK:   -4.95 KCAL/MOL
REMARK 923 INTER-LIGAND FREE ENERGY PREDICTED BY IDOCK:   -4.12 KCAL/MOL
REMARK 924 INTRA-LIGAND FREE ENERGY PREDICTED BY IDOCK:   -0.83 KCAL/MOL
REMARK 927      BINDING AFFINITY PREDICTED BY RF-SCORE:    0.00 PKD
ROOT
HETATM    1  C   UNL     1     -11.721   6.960  70.597  1.00  0.00    -0.417 C  
HETATM    2  C   UNL     1     -11.694   6.833  72.111  1.00  0.00    -0.297 C  
ENDROOT
BRANCH   2   3
HETATM    3  N   UNL     1     -10.657   5.813  72.654  1.00  0.00    -0.210 N  
HETATM    4  C   UNL     1      -9.505   6.582  73.324  1.00  0.00    -0.143 C  
BRANCH   3   5
HETATM    5  C   UNL     1     -11.258   4.836  73.681  1.00  0.00    -0.254 C  
HETATM    6  C   UNL     1     -10.217   4.130  74.536  1.00  0.00    -0.264 C  
ENDBRANCH   3   5
BRANCH   3   7
HETATM    7  C   UNL     1     -10.097   5.078  71.401  1.00  0.00    -0.199 C  
BRANCH   7   8
HETATM    8  C   UNL     1      -8.572   5.112  71.275  1.00  0.00    -0.127 C  
BRANCH   8   9
HETATM    9  O   UNL     1      -8.162   5.041  69.907  1.00  0.00    -0.073 OA 
BRANCH   9  10
HETATM   10  C   UNL     1      -7.079   5.822  69.604  1.00  0.00    -0.064 C  
HETATM   11  O   UNL     1      -6.021   5.767  70.220  1.00  0.00    -0.023 OA 
BRANCH  10  12
HETATM   12  C   UNL     1      -7.310   6.620  68.327  1.00  0.00    -0.090 C  
HETATM   13  C   UNL     1      -7.997   5.712  67.332  1.00  0.00    -0.102 A  
HETATM   14  C   UNL     1      -7.371   4.528  66.899  1.00  0.00    -0.081 A  
HETATM   15  C   UNL     1      -8.061   3.617  66.100  1.00  0.00    -0.093 A  
HETATM   16  C   UNL     1      -9.369   3.890  65.709  1.00  0.00    -0.162 A  
HETATM   17  C   UNL     1      -9.988   5.072  66.119  1.00  0.00    -0.240 A  
HETATM   18  C   UNL     1      -9.309   5.975  66.936  1.00  0.00    -0.131 A  
HETATM   19  O   UNL     1     -10.011   7.089  67.328  1.00  0.00    -0.154 OA 
HETATM   20  C   UNL     1      -9.387   8.023  68.120  1.00  0.00    -0.139 A  
HETATM   21  C   UNL     1     -10.136   9.160  68.434  1.00  0.00    -0.220 A  
HETATM   22  C   UNL     1      -9.592  10.156  69.243  1.00  0.00    -0.239 A  
HETATM   23  C   UNL     1      -8.293  10.025  69.732  1.00  0.00    -0.187 A  
HETATM   24  C   UNL     1      -7.541   8.894  69.416  1.00  0.00    -0.081 A  
HETATM   25  C   UNL     1      -8.090   7.877  68.615  1.00  0.00    -0.126 A  
ENDBRANCH  10  12
ENDBRANCH   9  10
ENDBRANCH   8   9
ENDBRANCH   7   8
ENDBRANCH   3   7
ENDBRANCH   2   3
TORSDOF 7
ENDMDL
MODEL      247
REMARK 921   NORMALIZED FREE ENERGY PREDICTED BY IDOCK:   -2.56 KCAL/MOL
REMARK 922        TOTAL FREE ENERGY PREDICTED BY IDOCK:   -4.93 KCAL/MOL
REMARK 923 INTER-LIGAND FREE ENERGY PREDICTED BY IDOCK:   -4.24 KCAL/MOL
REMARK 924 INTRA-LIGAND FREE ENERGY PREDICTED BY IDOCK:   -0.69 KCAL/MOL
REMARK 927      BINDING AFFINITY PREDICTED BY RF-SCORE:    0.00 PKD
ROOT
HETATM    1  C   UNL     1      -8.101   7.338  64.799  1.00  0.00    -0.097 C  
HETATM    2  C   UNL     1      -7.548   6.211  65.656  1.00  0.00    -0.085 C  
ENDROOT
BRANCH   2   3
HETATM    3  N   UNL     1      -7.898   4.786  65.150  1.00  0.00    -0.089 N  
HETATM    4  C   UNL     1      -8.654   4.903  63.815  1.00  0.00    -0.129 C  
BRANCH   3   5
HETATM    5  C   UNL     1      -6.654   3.904  64.934  1.00  0.00    -0.043 C  
HETATM    6  C   UNL     1      -5.694   3.899  66.114  1.00  0.00    -0.018 C  
ENDBRANCH   3   5
BRANCH   3   7
HETATM    7  C   UNL     1      -8.865   4.188  66.213  1.00  0.00    -0.118 C  
BRANCH   7   8
HETATM    8  C   UNL     1      -9.542   5.227  67.111  1.00  0.00    -0.141 C  
BRANCH   8   9
HETATM    9  O   UNL     1     -10.027   4.633  68.317  1.00  0.00    -0.136 OA 
BRANCH   9  10
HETATM   10  C   UNL     1      -9.415   5.092  69.453  1.00  0.00    -0.144 C  
HETATM   11  O   UNL     1      -8.406   5.788  69.437  1.00  0.00    -0.109 OA 
BRANCH  10  12
HETATM   12  C   UNL     1     -10.236   4.766  70.695  1.00  0.00    -0.250 C  
HETATM   13  C   UNL     1      -9.340   4.021  71.660  1.00  0.00    -0.199 A  
HETATM   14  C   UNL     1      -8.759   2.795  71.289  1.00  0.00    -0.114 A  
HETATM   15  C   UNL     1      -7.818   2.181  72.115  1.00  0.00    -0.048 A  
HETATM   16  C   UNL     1      -7.466   2.774  73.325  1.00  0.00    -0.046 A  
HETATM   17  C   UNL     1      -8.054   3.982  73.707  1.00  0.00    -0.088 A  
HETATM   18  C   UNL     1      -8.979   4.609  72.873  1.00  0.00    -0.118 A  
HETATM   19  O   UNL     1      -9.471   5.815  73.308  1.00  0.00    -0.142 OA 
HETATM   20  C   UNL     1     -10.400   6.471  72.536  1.00  0.00    -0.194 A  
HETATM   21  C   UNL     1     -10.904   7.663  73.063  1.00  0.00    -0.457 A  
HETATM   22  C   UNL     1     -11.841   8.406  72.346  1.00  0.00    -0.452 A  
HETATM   23  C   UNL     1     -12.285   7.955  71.105  1.00  0.00    -0.273 A  
HETATM   24  C   UNL     1     -11.788   6.762  70.579  1.00  0.00    -0.418 A  
HETATM   25  C   UNL     1     -10.830   6.018  71.288  1.00  0.00    -0.331 A  
ENDBRANCH  10  12
ENDBRANCH   9  10
ENDBRANCH   8   9
ENDBRANCH   7   8
ENDBRANCH   3   7
ENDBRANCH   2   3
TORSDOF 7
ENDMDL
MODEL      248
REMARK 921   NORMALIZED FREE ENERGY PREDICTED BY IDOCK:   -2.55 KCAL/MOL
REMARK 922        TOTAL FREE ENERGY PREDICTED BY IDOCK:   -4.91 KCAL/MOL
REMARK 923 INTER-LIGAND FREE ENERGY PREDICTED BY IDOCK:   -4.96 KCAL/MOL
REMARK 924 INTRA-LIGAND FREE ENERGY PREDICTED BY IDOCK:    0.05 KCAL/MOL
REMARK 927      BINDING AFFINITY PREDICTED BY RF-SCORE:    0.00 PKD
ROOT
HETATM    1  C   UNL     1      -7.192   5.617  65.294  1.00  0.00    -0.067 C  
HETATM    2  C   UNL     1      -7.956   4.812  66.333  1.00  0.00    -0.103 C  
ENDROOT
BRANCH   2   3
HETATM    3  N   UNL     1      -9.242   5.499  66.862  1.00  0.00    -0.117 N  
HETATM    4  C   UNL     1     -10.467   4.839  66.205  1.00  0.00    -0.290 C  
BRANCH   3   5
HETATM    5  C   UNL     1      -9.391   5.396  68.392  1.00  0.00    -0.114 C  
HETATM    6  C   UNL     1      -8.260   6.059  69.163  1.00  0.00    -0.111 C  
ENDBRANCH   3   5
BRANCH   3   7
HETATM    7  C   UNL     1      -9.159   6.976  66.377  1.00  0.00    -0.160 C  
BRANCH   7   8
HETATM    8  C   UNL     1     -10.404   7.814  66.677  1.00  0.00    -0.192 C  
BRANCH   8   9
HETATM    9  O   UNL     1     -10.196   9.189  66.346  1.00  0.00    -0.281 OA 
BRANCH   9  10
HETATM   10  C   UNL     1      -9.461   9.387  65.208  1.00  0.00    -0.227 C  
HETATM   11  O   UNL     1      -9.277   8.514  64.368  1.00  0.00     0.383 OA 
BRANCH  10  12
HETATM   12  C   UNL     1      -9.061  10.850  65.054  1.00  0.00    -0.209 C  
HETATM   13  C   UNL     1     -10.316  11.647  64.778  1.00  0.00    -0.331 A  
HETATM   14  C   UNL     1     -11.097  11.373  63.640  1.00  0.00    -0.411 A  
HETATM   15  C   UNL     1     -12.328  12.002  63.461  1.00  0.00    -0.661 A  
HETATM   16  C   UNL     1     -12.780  12.922  64.403  1.00  0.00    -0.322 A  
HETATM   17  C   UNL     1     -12.001  13.212  65.525  1.00  0.00    -0.457 A  
HETATM   18  C   UNL     1     -10.778  12.569  65.718  1.00  0.00    -0.269 A  
HETATM   19  O   UNL     1     -10.101  12.882  66.871  1.00  0.00    -0.234 OA 
HETATM   20  C   UNL     1      -8.883  12.292  67.107  1.00  0.00    -0.194 A  
HETATM   21  C   UNL     1      -8.219  12.697  68.267  1.00  0.00    -0.164 A  
HETATM   22  C   UNL     1      -6.982  12.145  68.597  1.00  0.00    -0.097 A  
HETATM   23  C   UNL     1      -6.399  11.193  67.762  1.00  0.00    -0.055 A  
HETATM   24  C   UNL     1      -7.057  10.791  66.599  1.00  0.00    -0.133 A  
HETATM   25  C   UNL     1      -8.312  11.331  66.270  1.00  0.00    -0.142 A  
ENDBRANCH  10  12
ENDBRANCH   9  10
ENDBRANCH   8   9
ENDBRANCH   7   8
ENDBRANCH   3   7
ENDBRANCH   2   3
TORSDOF 7
ENDMDL
MODEL      249
REMARK 921   NORMALIZED FREE ENERGY PREDICTED BY IDOCK:   -2.52 KCAL/MOL
REMARK 922        TOTAL FREE ENERGY PREDICTED BY IDOCK:   -4.88 KCAL/MOL
REMARK 923 INTER-LIGAND FREE ENERGY PREDICTED BY IDOCK:   -5.91 KCAL/MOL
REMARK 924 INTRA-LIGAND FREE ENERGY PREDICTED BY IDOCK:    1.04 KCAL/MOL
REMARK 927      BINDING AFFINITY PREDICTED BY RF-SCORE:    0.00 PKD
ROOT
HETATM    1  C   UNL     1      -8.311  18.194  68.632  1.00  0.00    -0.289 C  
HETATM    2  C   UNL     1      -8.492  16.689  68.747  1.00  0.00    -0.255 C  
ENDROOT
BRANCH   2   3
HETATM    3  N   UNL     1      -7.167  15.882  68.772  1.00  0.00    -0.139 N  
HETATM    4  C   UNL     1      -6.080  16.683  68.034  1.00  0.00    -0.123 C  
BRANCH   3   5
HETATM    5  C   UNL     1      -6.673  15.585  70.200  1.00  0.00     0.034 C  
HETATM    6  C   UNL     1      -5.251  15.048  70.257  1.00  0.00    -0.114 C  
ENDBRANCH   3   5
BRANCH   3   7
HETATM    7  C   UNL     1      -7.453  14.581  67.966  1.00  0.00    -0.137 C  
BRANCH   7   8
HETATM    8  C   UNL     1      -8.585  13.719  68.532  1.00  0.00    -0.122 C  
BRANCH   8   9
HETATM    9  O   UNL     1      -8.655  12.455  67.869  1.00  0.00    -0.153 OA 
BRANCH   9  10
HETATM   10  C   UNL     1      -9.654  11.637  68.326  1.00  0.00    -0.198 C  
HETATM   11  O   UNL     1      -9.448  10.663  69.042  1.00  0.00    -0.191 OA 
BRANCH  10  12
HETATM   12  C   UNL     1     -11.029  12.189  67.970  1.00  0.00    -0.271 C  
HETATM   13  C   UNL     1     -11.664  12.706  69.242  1.00  0.00    -0.379 A  
HETATM   14  C   UNL     1     -11.902  11.837  70.322  1.00  0.00    -0.382 A  
HETATM   15  C   UNL     1     -12.347  12.337  71.545  1.00  0.00     0.058 A  
HETATM   16  C   UNL     1     -12.580  13.702  71.692  1.00  0.00    -0.343 A  
HETATM   17  C   UNL     1     -12.364  14.566  70.617  1.00  0.00    -0.407 A  
HETATM   18  C   UNL     1     -11.897  14.072  69.399  1.00  0.00    -0.333 A  
HETATM   19  O   UNL     1     -11.670  15.000  68.413  1.00  0.00    -0.324 OA 
HETATM   20  C   UNL     1     -11.226  14.570  67.185  1.00  0.00    -0.333 A  
HETATM   21  C   UNL     1     -11.072  15.556  66.208  1.00  0.00    -0.177 A  
HETATM   22  C   UNL     1     -10.614  15.217  64.936  1.00  0.00    -0.379 A  
HETATM   23  C   UNL     1     -10.319  13.889  64.633  1.00  0.00    -0.366 A  
HETATM   24  C   UNL     1     -10.478  12.901  65.604  1.00  0.00    -0.292 A  
HETATM   25  C   UNL     1     -10.922  13.239  66.894  1.00  0.00    -0.298 A  
ENDBRANCH  10  12
ENDBRANCH   9  10
ENDBRANCH   8   9
ENDBRANCH   7   8
ENDBRANCH   3   7
ENDBRANCH   2   3
TORSDOF 7
ENDMDL
MODEL      250
REMARK 921   NORMALIZED FREE ENERGY PREDICTED BY IDOCK:   -2.52 KCAL/MOL
REMARK 922        TOTAL FREE ENERGY PREDICTED BY IDOCK:   -4.87 KCAL/MOL
REMARK 923 INTER-LIGAND FREE ENERGY PREDICTED BY IDOCK:   -4.07 KCAL/MOL
REMARK 924 INTRA-LIGAND FREE ENERGY PREDICTED BY IDOCK:   -0.80 KCAL/MOL
REMARK 927      BINDING AFFINITY PREDICTED BY RF-SCORE:    0.00 PKD
ROOT
HETATM    1  C   UNL     1     -10.095   4.156  64.963  1.00  0.00    -0.220 C  
HETATM    2  C   UNL     1      -8.678   4.278  65.501  1.00  0.00    -0.121 C  
ENDROOT
BRANCH   2   3
HETATM    3  N   UNL     1      -8.412   3.472  66.800  1.00  0.00    -0.104 N  
HETATM    4  C   UNL     1      -8.990   2.055  66.635  1.00  0.00    -0.100 C  
BRANCH   3   5
HETATM    5  C   UNL     1      -6.914   3.355  67.136  1.00  0.00    -0.057 C  
HETATM    6  C   UNL     1      -6.234   2.155  66.495  1.00  0.00    -0.024 C  
ENDBRANCH   3   5
BRANCH   3   7
HETATM    7  C   UNL     1      -9.211   4.202  67.918  1.00  0.00    -0.151 C  
BRANCH   7   8
HETATM    8  C   UNL     1      -8.345   4.798  69.031  1.00  0.00    -0.081 C  
BRANCH   8   9
HETATM    9  O   UNL     1      -8.709   6.153  69.303  1.00  0.00    -0.121 OA 
BRANCH   9  10
HETATM   10  C   UNL     1      -7.919   6.770  70.237  1.00  0.00    -0.115 C  
HETATM   11  O   UNL     1      -6.698   6.672  70.251  1.00  0.00    -0.050 OA 
BRANCH  10  12
HETATM   12  C   UNL     1      -8.735   7.703  71.124  1.00  0.00    -0.138 C  
HETATM   13  C   UNL     1      -9.122   8.908  70.296  1.00  0.00    -0.201 A  
HETATM   14  C   UNL     1      -8.129   9.733  69.734  1.00  0.00    -0.174 A  
HETATM   15  C   UNL     1      -8.478  10.754  68.852  1.00  0.00    -0.149 A  
HETATM   16  C   UNL     1      -9.817  10.974  68.539  1.00  0.00    -0.194 A  
HETATM   17  C   UNL     1     -10.807  10.171  69.108  1.00  0.00    -0.260 A  
HETATM   18  C   UNL     1     -10.460   9.134  69.975  1.00  0.00    -0.221 A  
HETATM   19  O   UNL     1     -11.495   8.367  70.451  1.00  0.00    -0.234 OA 
HETATM   20  C   UNL     1     -11.216   7.342  71.323  1.00  0.00    -0.252 A  
HETATM   21  C   UNL     1     -12.317   6.639  71.817  1.00  0.00    -0.385 A  
HETATM   22  C   UNL     1     -12.133   5.574  72.697  1.00  0.00    -0.019 A  
HETATM   23  C   UNL     1     -10.846   5.215  73.096  1.00  0.00    -0.344 A  
HETATM   24  C   UNL     1      -9.745   5.919  72.610  1.00  0.00    -0.166 A  
HETATM   25  C   UNL     1      -9.923   6.983  71.708  1.00  0.00    -0.187 A  
ENDBRANCH  10  12
ENDBRANCH   9  10
ENDBRANCH   8   9
ENDBRANCH   7   8
ENDBRANCH   3   7
ENDBRANCH   2   3
TORSDOF 7
ENDMDL
MODEL      251
REMARK 921   NORMALIZED FREE ENERGY PREDICTED BY IDOCK:   -2.51 KCAL/MOL
REMARK 922        TOTAL FREE ENERGY PREDICTED BY IDOCK:   -4.86 KCAL/MOL
REMARK 923 INTER-LIGAND FREE ENERGY PREDICTED BY IDOCK:   -3.68 KCAL/MOL
REMARK 924 INTRA-LIGAND FREE ENERGY PREDICTED BY IDOCK:   -1.18 KCAL/MOL
REMARK 927      BINDING AFFINITY PREDICTED BY RF-SCORE:    0.00 PKD
ROOT
HETATM    1  C   UNL     1     -10.128   7.370  73.450  1.00  0.00    -0.389 C  
HETATM    2  C   UNL     1     -11.428   6.890  72.827  1.00  0.00    -0.145 C  
ENDROOT
BRANCH   2   3
HETATM    3  N   UNL     1     -11.960   7.786  71.676  1.00  0.00    -0.286 N  
HETATM    4  C   UNL     1     -13.402   8.213  72.003  1.00  0.00    -0.282 C  
BRANCH   3   5
HETATM    5  C   UNL     1     -11.110   9.052  71.461  1.00  0.00    -0.349 C  
HETATM    6  C   UNL     1     -11.912  10.253  70.983  1.00  0.00    -0.483 C  
ENDBRANCH   3   5
BRANCH   3   7
HETATM    7  C   UNL     1     -11.990   6.875  70.414  1.00  0.00    -0.258 C  
BRANCH   7   8
HETATM    8  C   UNL     1     -10.762   7.004  69.509  1.00  0.00    -0.241 C  
BRANCH   8   9
HETATM    9  O   UNL     1      -9.617   6.381  70.096  1.00  0.00    -0.159 OA 
BRANCH   9  10
HETATM   10  C   UNL     1      -9.156   5.291  69.406  1.00  0.00    -0.104 C  
HETATM   11  O   UNL     1      -9.792   4.746  68.512  1.00  0.00    -0.157 OA 
BRANCH  10  12
HETATM   12  C   UNL     1      -7.714   4.968  69.780  1.00  0.00    -0.064 C  
HETATM   13  C   UNL     1      -6.823   5.999  69.124  1.00  0.00    -0.062 A  
HETATM   14  C   UNL     1      -6.803   6.133  67.723  1.00  0.00    -0.063 A  
HETATM   15  C   UNL     1      -6.099   7.177  67.125  1.00  0.00    -0.041 A  
HETATM   16  C   UNL     1      -5.393   8.080  67.916  1.00  0.00    -0.033 A  
HETATM   17  C   UNL     1      -5.394   7.940  69.305  1.00  0.00    -0.026 A  
HETATM   18  C   UNL     1      -6.115   6.910  69.908  1.00  0.00    -0.024 A  
HETATM   19  O   UNL     1      -6.096   6.876  71.281  1.00  0.00    -0.036 OA 
HETATM   20  C   UNL     1      -6.775   5.873  71.930  1.00  0.00    -0.063 A  
HETATM   21  C   UNL     1      -6.667   5.861  73.323  1.00  0.00    -0.075 A  
HETATM   22  C   UNL     1      -7.331   4.888  74.070  1.00  0.00    -0.082 A  
HETATM   23  C   UNL     1      -8.097   3.918  73.425  1.00  0.00    -0.088 A  
HETATM   24  C   UNL     1      -8.201   3.924  72.034  1.00  0.00    -0.084 A  
HETATM   25  C   UNL     1      -7.549   4.912  71.277  1.00  0.00    -0.082 A  
ENDBRANCH  10  12
ENDBRANCH   9  10
ENDBRANCH   8   9
ENDBRANCH   7   8
ENDBRANCH   3   7
ENDBRANCH   2   3
TORSDOF 7
ENDMDL
MODEL      252
REMARK 921   NORMALIZED FREE ENERGY PREDICTED BY IDOCK:   -2.49 KCAL/MOL
REMARK 922        TOTAL FREE ENERGY PREDICTED BY IDOCK:   -4.82 KCAL/MOL
REMARK 923 INTER-LIGAND FREE ENERGY PREDICTED BY IDOCK:   -3.99 KCAL/MOL
REMARK 924 INTRA-LIGAND FREE ENERGY PREDICTED BY IDOCK:   -0.84 KCAL/MOL
REMARK 927      BINDING AFFINITY PREDICTED BY RF-SCORE:    0.00 PKD
ROOT
HETATM    1  C   UNL     1      -8.159   7.318  65.644  1.00  0.00    -0.133 C  
HETATM    2  C   UNL     1      -6.800   7.971  65.452  1.00  0.00    -0.062 C  
ENDROOT
BRANCH   2   3
HETATM    3  N   UNL     1      -6.805   9.206  64.512  1.00  0.00    -0.085 N  
HETATM    4  C   UNL     1      -5.351   9.626  64.233  1.00  0.00    -0.064 C  
BRANCH   3   5
HETATM    5  C   UNL     1      -7.504   8.933  63.167  1.00  0.00    -0.101 C  
HETATM    6  C   UNL     1      -6.944   7.733  62.419  1.00  0.00    -0.081 C  
ENDBRANCH   3   5
BRANCH   3   7
HETATM    7  C   UNL     1      -7.501  10.342  65.317  1.00  0.00    -0.113 C  
BRANCH   7   8
HETATM    8  C   UNL     1      -6.677  10.889  66.485  1.00  0.00    -0.133 C  
BRANCH   8   9
HETATM    9  O   UNL     1      -7.013  12.250  66.765  1.00  0.00    -0.012 OA 
BRANCH   9  10
HETATM   10  C   UNL     1      -7.058  12.554  68.100  1.00  0.00    -0.103 C  
HETATM   11  O   UNL     1      -6.126  12.342  68.867  1.00  0.00    -0.064 OA 
BRANCH  10  12
HETATM   12  C   UNL     1      -8.325  13.325  68.450  1.00  0.00    -0.131 C  
HETATM   13  C   UNL     1      -8.298  14.631  67.688  1.00  0.00    -0.186 A  
HETATM   14  C   UNL     1      -7.256  15.554  67.895  1.00  0.00    -0.156 A  
HETATM   15  C   UNL     1      -7.147  16.687  67.091  1.00  0.00    -0.221 A  
HETATM   16  C   UNL     1      -8.087  16.920  66.090  1.00  0.00    -0.295 A  
HETATM   17  C   UNL     1      -9.134  16.018  65.893  1.00  0.00    -0.292 A  
HETATM   18  C   UNL     1      -9.234  14.872  66.682  1.00  0.00    -0.276 A  
HETATM   19  O   UNL     1     -10.269  14.019  66.388  1.00  0.00    -0.277 OA 
HETATM   20  C   UNL     1     -10.428  12.882  67.143  1.00  0.00    -0.238 A  
HETATM   21  C   UNL     1     -11.534  12.087  66.832  1.00  0.00    -0.402 A  
HETATM   22  C   UNL     1     -11.770  10.907  67.535  1.00  0.00     0.082 A  
HETATM   23  C   UNL     1     -10.907  10.522  68.560  1.00  0.00    -0.275 A  
HETATM   24  C   UNL     1      -9.806  11.317  68.878  1.00  0.00    -0.153 A  
HETATM   25  C   UNL     1      -9.552  12.498  68.161  1.00  0.00    -0.215 A  
ENDBRANCH  10  12
ENDBRANCH   9  10
ENDBRANCH   8   9
ENDBRANCH   7   8
ENDBRANCH   3   7
ENDBRANCH   2   3
TORSDOF 7
ENDMDL
MODEL      253
REMARK 921   NORMALIZED FREE ENERGY PREDICTED BY IDOCK:   -2.49 KCAL/MOL
REMARK 922        TOTAL FREE ENERGY PREDICTED BY IDOCK:   -4.82 KCAL/MOL
REMARK 923 INTER-LIGAND FREE ENERGY PREDICTED BY IDOCK:   -4.41 KCAL/MOL
REMARK 924 INTRA-LIGAND FREE ENERGY PREDICTED BY IDOCK:   -0.41 KCAL/MOL
REMARK 927      BINDING AFFINITY PREDICTED BY RF-SCORE:    0.00 PKD
ROOT
HETATM    1  C   UNL     1      -8.635  14.683  66.585  1.00  0.00    -0.129 C  
HETATM    2  C   UNL     1      -9.361  13.354  66.467  1.00  0.00    -0.215 C  
ENDROOT
BRANCH   2   3
HETATM    3  N   UNL     1     -10.668  13.258  67.300  1.00  0.00    -0.254 N  
HETATM    4  C   UNL     1     -10.306  12.920  68.757  1.00  0.00    -0.125 C  
BRANCH   3   5
HETATM    5  C   UNL     1     -11.484  14.564  67.287  1.00  0.00    -0.365 C  
HETATM    6  C   UNL     1     -11.949  15.009  68.665  1.00  0.00    -0.278 C  
ENDBRANCH   3   5
BRANCH   3   7
HETATM    7  C   UNL     1     -11.461  12.061  66.699  1.00  0.00    -0.346 C  
BRANCH   7   8
HETATM    8  C   UNL     1     -10.658  10.764  66.576  1.00  0.00    -0.218 C  
BRANCH   8   9
HETATM    9  O   UNL     1     -10.458  10.155  67.854  1.00  0.00    -0.191 OA 
BRANCH   9  10
HETATM   10  C   UNL     1      -9.569   9.113  67.845  1.00  0.00    -0.146 C  
HETATM   11  O   UNL     1      -8.489   9.158  67.266  1.00  0.00    -0.120 OA 
BRANCH  10  12
HETATM   12  C   UNL     1     -10.023   7.989  68.769  1.00  0.00    -0.196 C  
HETATM   13  C   UNL     1     -10.106   6.721  67.948  1.00  0.00    -0.189 A  
HETATM   14  C   UNL     1     -10.976   6.644  66.844  1.00  0.00    -0.396 A  
HETATM   15  C   UNL     1     -10.947   5.535  66.000  1.00  0.00     0.175 A  
HETATM   16  C   UNL     1     -10.068   4.487  66.262  1.00  0.00    -0.280 A  
HETATM   17  C   UNL     1      -9.217   4.549  67.366  1.00  0.00    -0.154 A  
HETATM   18  C   UNL     1      -9.228   5.667  68.201  1.00  0.00    -0.110 A  
HETATM   19  O   UNL     1      -8.325   5.663  69.236  1.00  0.00    -0.104 OA 
HETATM   20  C   UNL     1      -8.302   6.730  70.102  1.00  0.00    -0.135 A  
HETATM   21  C   UNL     1      -7.403   6.637  71.167  1.00  0.00    -0.079 A  
HETATM   22  C   UNL     1      -7.299   7.676  72.090  1.00  0.00    -0.075 A  
HETATM   23  C   UNL     1      -8.101   8.808  71.958  1.00  0.00    -0.060 A  
HETATM   24  C   UNL     1      -9.004   8.902  70.899  1.00  0.00    -0.273 A  
HETATM   25  C   UNL     1      -9.101   7.865  69.955  1.00  0.00    -0.146 A  
ENDBRANCH  10  12
ENDBRANCH   9  10
ENDBRANCH   8   9
ENDBRANCH   7   8
ENDBRANCH   3   7
ENDBRANCH   2   3
TORSDOF 7
ENDMDL
MODEL      254
REMARK 921   NORMALIZED FREE ENERGY PREDICTED BY IDOCK:   -2.46 KCAL/MOL
REMARK 922        TOTAL FREE ENERGY PREDICTED BY IDOCK:   -4.79 KCAL/MOL
REMARK 923 INTER-LIGAND FREE ENERGY PREDICTED BY IDOCK:   -4.16 KCAL/MOL
REMARK 924 INTRA-LIGAND FREE ENERGY PREDICTED BY IDOCK:   -0.63 KCAL/MOL
REMARK 927      BINDING AFFINITY PREDICTED BY RF-SCORE:    0.00 PKD
ROOT
HETATM    1  C   UNL     1     -12.617  13.248  65.265  1.00  0.00    -0.528 C  
HETATM    2  C   UNL     1     -11.139  13.604  65.279  1.00  0.00    -0.301 C  
ENDROOT
BRANCH   2   3
HETATM    3  N   UNL     1     -10.212  12.484  65.820  1.00  0.00    -0.266 N  
HETATM    4  C   UNL     1      -9.364  11.934  64.659  1.00  0.00     0.182 C  
BRANCH   3   5
HETATM    5  C   UNL     1      -9.264  12.974  66.930  1.00  0.00    -0.236 C  
HETATM    6  C   UNL     1      -9.673  14.304  67.543  1.00  0.00    -0.223 C  
ENDBRANCH   3   5
BRANCH   3   7
HETATM    7  C   UNL     1     -11.162  11.354  66.314  1.00  0.00    -0.161 C  
BRANCH   7   8
HETATM    8  C   UNL     1     -10.467  10.022  66.606  1.00  0.00    -0.174 C  
BRANCH   8   9
HETATM    9  O   UNL     1     -10.809   9.532  67.905  1.00  0.00    -0.245 OA 
BRANCH   9  10
HETATM   10  C   UNL     1     -10.042  10.044  68.917  1.00  0.00    -0.190 C  
HETATM   11  O   UNL     1     -10.343  11.055  69.541  1.00  0.00    -0.164 OA 
BRANCH  10  12
HETATM   12  C   UNL     1      -8.885   9.113  69.261  1.00  0.00    -0.144 C  
HETATM   13  C   UNL     1      -9.424   7.700  69.298  1.00  0.00    -0.158 A  
HETATM   14  C   UNL     1     -10.440   7.350  70.207  1.00  0.00    -0.229 A  
HETATM   15  C   UNL     1     -11.041   6.094  70.143  1.00  0.00    -0.448 A  
HETATM   16  C   UNL     1     -10.618   5.171  69.190  1.00  0.00    -0.069 A  
HETATM   17  C   UNL     1      -9.597   5.505  68.299  1.00  0.00    -0.148 A  
HETATM   18  C   UNL     1      -9.009   6.769  68.346  1.00  0.00    -0.124 A  
HETATM   19  O   UNL     1      -8.044   7.027  67.402  1.00  0.00    -0.113 OA 
HETATM   20  C   UNL     1      -7.417   8.250  67.410  1.00  0.00    -0.094 A  
HETATM   21  C   UNL     1      -6.405   8.427  66.464  1.00  0.00    -0.055 A  
HETATM   22  C   UNL     1      -5.721   9.639  66.387  1.00  0.00    -0.053 A  
HETATM   23  C   UNL     1      -6.039  10.675  67.264  1.00  0.00    -0.055 A  
HETATM   24  C   UNL     1      -7.044  10.499  68.214  1.00  0.00    -0.081 A  
HETATM   25  C   UNL     1      -7.750   9.286  68.285  1.00  0.00    -0.087 A  
ENDBRANCH  10  12
ENDBRANCH   9  10
ENDBRANCH   8   9
ENDBRANCH   7   8
ENDBRANCH   3   7
ENDBRANCH   2   3
TORSDOF 7
ENDMDL
MODEL      255
REMARK 921   NORMALIZED FREE ENERGY PREDICTED BY IDOCK:   -2.46 KCAL/MOL
REMARK 922        TOTAL FREE ENERGY PREDICTED BY IDOCK:   -4.78 KCAL/MOL
REMARK 923 INTER-LIGAND FREE ENERGY PREDICTED BY IDOCK:   -5.06 KCAL/MOL
REMARK 924 INTRA-LIGAND FREE ENERGY PREDICTED BY IDOCK:    0.28 KCAL/MOL
REMARK 927      BINDING AFFINITY PREDICTED BY RF-SCORE:    0.00 PKD
ROOT
HETATM    1  C   UNL     1     -10.922   7.714  68.028  1.00  0.00     0.037 C  
HETATM    2  C   UNL     1      -9.773   7.640  67.035  1.00  0.00    -0.195 C  
ENDROOT
BRANCH   2   3
HETATM    3  N   UNL     1      -8.363   7.619  67.683  1.00  0.00    -0.117 N  
HETATM    4  C   UNL     1      -8.506   7.854  69.197  1.00  0.00    -0.137 C  
BRANCH   3   5
HETATM    5  C   UNL     1      -7.622   6.287  67.461  1.00  0.00    -0.097 C  
HETATM    6  C   UNL     1      -7.680   5.347  68.656  1.00  0.00    -0.084 C  
ENDBRANCH   3   5
BRANCH   3   7
HETATM    7  C   UNL     1      -7.599   8.826  67.066  1.00  0.00    -0.088 C  
BRANCH   7   8
HETATM    8  C   UNL     1      -7.759  10.139  67.837  1.00  0.00    -0.089 C  
BRANCH   8   9
HETATM    9  O   UNL     1      -8.351  11.152  67.020  1.00  0.00    -0.134 OA 
BRANCH   9  10
HETATM   10  C   UNL     1      -7.810  12.398  67.192  1.00  0.00    -0.138 C  
HETATM   11  O   UNL     1      -6.632  12.654  66.974  1.00  0.00    -0.125 OA 
BRANCH  10  12
HETATM   12  C   UNL     1      -8.885  13.429  67.518  1.00  0.00    -0.210 C  
HETATM   13  C   UNL     1      -8.226  14.790  67.552  1.00  0.00    -0.201 A  
HETATM   14  C   UNL     1      -7.192  15.057  68.468  1.00  0.00    -0.115 A  
HETATM   15  C   UNL     1      -6.484  16.256  68.402  1.00  0.00    -0.130 A  
HETATM   16  C   UNL     1      -6.816  17.205  67.439  1.00  0.00    -0.179 A  
HETATM   17  C   UNL     1      -7.855  16.954  66.540  1.00  0.00    -0.330 A  
HETATM   18  C   UNL     1      -8.550  15.746  66.589  1.00  0.00    -0.287 A  
HETATM   19  O   UNL     1      -9.525  15.566  65.638  1.00  0.00    -0.320 OA 
HETATM   20  C   UNL     1     -10.256  14.402  65.648  1.00  0.00    -0.350 A  
HETATM   21  C   UNL     1     -11.270  14.306  64.693  1.00  0.00    -0.370 A  
HETATM   22  C   UNL     1     -12.056  13.158  64.617  1.00  0.00    -0.462 A  
HETATM   23  C   UNL     1     -11.838  12.104  65.503  1.00  0.00    -0.350 A  
HETATM   24  C   UNL     1     -10.830  12.199  66.462  1.00  0.00    -0.307 A  
HETATM   25  C   UNL     1     -10.022  13.347  66.532  1.00  0.00    -0.286 A  
ENDBRANCH  10  12
ENDBRANCH   9  10
ENDBRANCH   8   9
ENDBRANCH   7   8
ENDBRANCH   3   7
ENDBRANCH   2   3
TORSDOF 7
ENDMDL
MODEL      256
REMARK 921   NORMALIZED FREE ENERGY PREDICTED BY IDOCK:   -2.40 KCAL/MOL
REMARK 922        TOTAL FREE ENERGY PREDICTED BY IDOCK:   -4.71 KCAL/MOL
REMARK 923 INTER-LIGAND FREE ENERGY PREDICTED BY IDOCK:   -4.04 KCAL/MOL
REMARK 924 INTRA-LIGAND FREE ENERGY PREDICTED BY IDOCK:   -0.67 KCAL/MOL
REMARK 927      BINDING AFFINITY PREDICTED BY RF-SCORE:    0.00 PKD
ROOT
HETATM    1  C   UNL     1     -11.114  15.083  71.035  1.00  0.00    -0.214 C  
HETATM    2  C   UNL     1     -11.755  14.726  69.704  1.00  0.00    -0.314 C  
ENDROOT
BRANCH   2   3
HETATM    3  N   UNL     1     -11.041  15.327  68.464  1.00  0.00    -0.267 N  
HETATM    4  C   UNL     1     -11.879  15.022  67.210  1.00  0.00    -0.145 C  
BRANCH   3   5
HETATM    5  C   UNL     1     -10.846  16.852  68.565  1.00  0.00    -0.335 C  
HETATM    6  C   UNL     1      -9.388  17.281  68.616  1.00  0.00    -0.267 C  
ENDBRANCH   3   5
BRANCH   3   7
HETATM    7  C   UNL     1      -9.687  14.568  68.349  1.00  0.00    -0.224 C  
BRANCH   7   8
HETATM    8  C   UNL     1      -9.424  13.944  66.976  1.00  0.00    -0.254 C  
BRANCH   8   9
HETATM    9  O   UNL     1      -9.891  12.594  66.922  1.00  0.00    -0.224 OA 
BRANCH   9  10
HETATM   10  C   UNL     1      -8.905  11.653  67.054  1.00  0.00    -0.177 C  
HETATM   11  O   UNL     1      -8.027  11.481  66.216  1.00  0.00    -0.103 OA 
BRANCH  10  12
HETATM   12  C   UNL     1      -8.953  10.988  68.424  1.00  0.00    -0.158 C  
HETATM   13  C   UNL     1      -9.299   9.530  68.219  1.00  0.00    -0.139 A  
HETATM   14  C   UNL     1     -10.513   9.166  67.608  1.00  0.00    -0.323 A  
HETATM   15  C   UNL     1     -10.768   7.835  67.284  1.00  0.00    -0.326 A  
HETATM   16  C   UNL     1      -9.826   6.855  67.586  1.00  0.00    -0.164 A  
HETATM   17  C   UNL     1      -8.628   7.208  68.211  1.00  0.00    -0.122 A  
HETATM   18  C   UNL     1      -8.360   8.542  68.517  1.00  0.00    -0.123 A  
HETATM   19  O   UNL     1      -7.139   8.802  69.088  1.00  0.00    -0.061 OA 
HETATM   20  C   UNL     1      -6.827  10.097  69.428  1.00  0.00    -0.070 A  
HETATM   21  C   UNL     1      -5.595  10.286  70.059  1.00  0.00    -0.048 A  
HETATM   22  C   UNL     1      -5.185  11.566  70.429  1.00  0.00    -0.105 A  
HETATM   23  C   UNL     1      -6.011  12.661  70.179  1.00  0.00    -0.138 A  
HETATM   24  C   UNL     1      -7.244  12.474  69.555  1.00  0.00     0.359 A  
HETATM   25  C   UNL     1      -7.655  11.189  69.163  1.00  0.00    -0.098 A  
ENDBRANCH  10  12
ENDBRANCH   9  10
ENDBRANCH   8   9
ENDBRANCH   7   8
ENDBRANCH   3   7
ENDBRANCH   2   3
TORSDOF 7
ENDMDL
MODEL      257
REMARK 921   NORMALIZED FREE ENERGY PREDICTED BY IDOCK:   -2.40 KCAL/MOL
REMARK 922        TOTAL FREE ENERGY PREDICTED BY IDOCK:   -4.70 KCAL/MOL
REMARK 923 INTER-LIGAND FREE ENERGY PREDICTED BY IDOCK:   -4.05 KCAL/MOL
REMARK 924 INTRA-LIGAND FREE ENERGY PREDICTED BY IDOCK:   -0.65 KCAL/MOL
REMARK 927      BINDING AFFINITY PREDICTED BY RF-SCORE:    0.00 PKD
ROOT
HETATM    1  C   UNL     1     -11.490  14.531  68.104  1.00  0.00    -0.337 C  
HETATM    2  C   UNL     1     -10.748  13.771  67.017  1.00  0.00    -0.283 C  
ENDROOT
BRANCH   2   3
HETATM    3  N   UNL     1     -10.788  12.227  67.169  1.00  0.00    -0.236 N  
HETATM    4  C   UNL     1     -12.070  11.834  67.924  1.00  0.00     0.095 C  
BRANCH   3   5
HETATM    5  C   UNL     1     -10.768  11.491  65.817  1.00  0.00    -0.271 C  
HETATM    6  C   UNL     1     -10.456  12.393  64.632  1.00  0.00    -0.338 C  
ENDBRANCH   3   5
BRANCH   3   7
HETATM    7  C   UNL     1      -9.562  11.861  68.056  1.00  0.00    -0.193 C  
BRANCH   7   8
HETATM    8  C   UNL     1      -9.371  10.360  68.288  1.00  0.00    -0.149 C  
BRANCH   8   9
HETATM    9  O   UNL     1      -8.167  10.095  69.010  1.00  0.00    -0.112 OA 
BRANCH   9  10
HETATM   10  C   UNL     1      -7.929   8.765  69.236  1.00  0.00    -0.108 C  
HETATM   11  O   UNL     1      -7.038   8.360  69.973  1.00  0.00    -0.045 OA 
BRANCH  10  12
HETATM   12  C   UNL     1      -9.003   7.894  68.596  1.00  0.00    -0.134 C  
HETATM   13  C   UNL     1      -8.374   7.166  67.429  1.00  0.00    -0.119 A  
HETATM   14  C   UNL     1      -7.820   7.889  66.356  1.00  0.00    -0.097 A  
HETATM   15  C   UNL     1      -7.110   7.229  65.354  1.00  0.00    -0.061 A  
HETATM   16  C   UNL     1      -6.966   5.845  65.402  1.00  0.00    -0.063 A  
HETATM   17  C   UNL     1      -7.530   5.121  66.454  1.00  0.00    -0.087 A  
HETATM   18  C   UNL     1      -8.222   5.780  67.470  1.00  0.00    -0.101 A  
HETATM   19  O   UNL     1      -8.704   4.994  68.488  1.00  0.00    -0.097 OA 
HETATM   20  C   UNL     1      -9.409   5.585  69.508  1.00  0.00    -0.130 A  
HETATM   21  C   UNL     1      -9.922   4.723  70.480  1.00  0.00    -0.306 A  
HETATM   22  C   UNL     1     -10.641   5.233  71.561  1.00  0.00    -0.254 A  
HETATM   23  C   UNL     1     -10.859   6.605  71.667  1.00  0.00    -0.269 A  
HETATM   24  C   UNL     1     -10.353   7.468  70.695  1.00  0.00    -0.211 A  
HETATM   25  C   UNL     1      -9.613   6.963  69.613  1.00  0.00    -0.146 A  
ENDBRANCH  10  12
ENDBRANCH   9  10
ENDBRANCH   8   9
ENDBRANCH   7   8
ENDBRANCH   3   7
ENDBRANCH   2   3
TORSDOF 7
ENDMDL
MODEL      258
REMARK 921   NORMALIZED FREE ENERGY PREDICTED BY IDOCK:   -2.38 KCAL/MOL
REMARK 922        TOTAL FREE ENERGY PREDICTED BY IDOCK:   -4.67 KCAL/MOL
REMARK 923 INTER-LIGAND FREE ENERGY PREDICTED BY IDOCK:   -3.82 KCAL/MOL
REMARK 924 INTRA-LIGAND FREE ENERGY PREDICTED BY IDOCK:   -0.86 KCAL/MOL
REMARK 927      BINDING AFFINITY PREDICTED BY RF-SCORE:    0.00 PKD
ROOT
HETATM    1  C   UNL     1     -13.213   9.826  71.849  1.00  0.00    -0.545 C  
HETATM    2  C   UNL     1     -11.776  10.227  71.561  1.00  0.00    -0.119 C  
ENDROOT
BRANCH   2   3
HETATM    3  N   UNL     1     -10.953   9.163  70.786  1.00  0.00    -0.249 N  
HETATM    4  C   UNL     1     -11.671   7.806  70.889  1.00  0.00    -0.265 C  
BRANCH   3   5
HETATM    5  C   UNL     1     -10.774   9.511  69.296  1.00  0.00    -0.222 C  
HETATM    6  C   UNL     1     -10.710  11.006  69.020  1.00  0.00    -0.258 C  
ENDBRANCH   3   5
BRANCH   3   7
HETATM    7  C   UNL     1      -9.592   9.058  71.534  1.00  0.00    -0.270 C  
BRANCH   7   8
HETATM    8  C   UNL     1      -9.195   7.635  71.933  1.00  0.00    -0.134 C  
BRANCH   8   9
HETATM    9  O   UNL     1      -7.847   7.347  71.555  1.00  0.00    -0.086 OA 
BRANCH   9  10
HETATM   10  C   UNL     1      -7.734   6.557  70.442  1.00  0.00    -0.098 C  
HETATM   11  O   UNL     1      -6.854   6.706  69.602  1.00  0.00    -0.054 OA 
BRANCH  10  12
HETATM   12  C   UNL     1      -8.721   5.397  70.482  1.00  0.00    -0.130 C  
HETATM   13  C   UNL     1      -9.184   5.134  69.066  1.00  0.00    -0.156 A  
HETATM   14  C   UNL     1      -9.848   6.138  68.337  1.00  0.00    -0.142 A  
HETATM   15  C   UNL     1     -10.142   5.951  66.987  1.00  0.00    -0.221 A  
HETATM   16  C   UNL     1      -9.797   4.756  66.361  1.00  0.00    -0.236 A  
HETATM   17  C   UNL     1      -9.156   3.749  67.085  1.00  0.00    -0.178 A  
HETATM   18  C   UNL     1      -8.840   3.941  68.430  1.00  0.00    -0.110 A  
HETATM   19  O   UNL     1      -8.169   2.915  69.050  1.00  0.00    -0.058 OA 
HETATM   20  C   UNL     1      -7.847   3.041  70.380  1.00  0.00    -0.043 A  
HETATM   21  C   UNL     1      -7.219   1.940  70.966  1.00  0.00    -0.033 A  
HETATM   22  C   UNL     1      -6.842   1.978  72.308  1.00  0.00    -0.019 A  
HETATM   23  C   UNL     1      -7.102   3.115  73.072  1.00  0.00    -0.044 A  
HETATM   24  C   UNL     1      -7.735   4.214  72.491  1.00  0.00    -0.075 A  
HETATM   25  C   UNL     1      -8.101   4.188  71.134  1.00  0.00    -0.072 A  
ENDBRANCH  10  12
ENDBRANCH   9  10
ENDBRANCH   8   9
ENDBRANCH   7   8
ENDBRANCH   3   7
ENDBRANCH   2   3
TORSDOF 7
ENDMDL
MODEL      259
REMARK 921   NORMALIZED FREE ENERGY PREDICTED BY IDOCK:   -2.37 KCAL/MOL
REMARK 922        TOTAL FREE ENERGY PREDICTED BY IDOCK:   -4.66 KCAL/MOL
REMARK 923 INTER-LIGAND FREE ENERGY PREDICTED BY IDOCK:   -3.76 KCAL/MOL
REMARK 924 INTRA-LIGAND FREE ENERGY PREDICTED BY IDOCK:   -0.89 KCAL/MOL
REMARK 927      BINDING AFFINITY PREDICTED BY RF-SCORE:    0.00 PKD
ROOT
HETATM    1  C   UNL     1      -8.714   7.503  72.949  1.00  0.00    -0.181 C  
HETATM    2  C   UNL     1      -8.715   8.114  71.557  1.00  0.00    -0.146 C  
ENDROOT
BRANCH   2   3
HETATM    3  N   UNL     1     -10.064   7.989  70.801  1.00  0.00    -0.192 N  
HETATM    4  C   UNL     1      -9.781   7.621  69.333  1.00  0.00    -0.165 C  
BRANCH   3   5
HETATM    5  C   UNL     1     -10.993   6.918  71.404  1.00  0.00    -0.240 C  
HETATM    6  C   UNL     1     -11.237   5.731  70.486  1.00  0.00    -0.200 C  
ENDBRANCH   3   5
BRANCH   3   7
HETATM    7  C   UNL     1     -10.701   9.409  70.839  1.00  0.00    -0.323 C  
BRANCH   7   8
HETATM    8  C   UNL     1     -10.703  10.139  69.494  1.00  0.00    -0.249 C  
BRANCH   8   9
HETATM    9  O   UNL     1      -9.570  11.001  69.369  1.00  0.00    -0.060 OA 
BRANCH   9  10
HETATM   10  C   UNL     1      -9.799  12.125  68.621  1.00  0.00    -0.101 C  
HETATM   11  O   UNL     1     -10.742  12.882  68.821  1.00  0.00    -0.247 OA 
BRANCH  10  12
HETATM   12  C   UNL     1      -8.657  12.386  67.646  1.00  0.00    -0.172 C  
HETATM   13  C   UNL     1      -7.382  12.507  68.449  1.00  0.00    -0.114 A  
HETATM   14  C   UNL     1      -7.248  13.513  69.425  1.00  0.00     0.182 A  
HETATM   15  C   UNL     1      -6.138  13.536  70.267  1.00  0.00    -0.110 A  
HETATM   16  C   UNL     1      -5.143  12.571  70.128  1.00  0.00    -0.092 A  
HETATM   17  C   UNL     1      -5.260  11.583  69.149  1.00  0.00    -0.043 A  
HETATM   18  C   UNL     1      -6.381  11.544  68.319  1.00  0.00    -0.046 A  
HETATM   19  O   UNL     1      -6.434  10.511  67.416  1.00  0.00    -0.060 OA 
HETATM   20  C   UNL     1      -7.506  10.431  66.560  1.00  0.00    -0.119 A  
HETATM   21  C   UNL     1      -7.470   9.393  65.627  1.00  0.00    -0.095 A  
HETATM   22  C   UNL     1      -8.520   9.223  64.725  1.00  0.00    -0.189 A  
HETATM   23  C   UNL     1      -9.604  10.099  64.746  1.00  0.00    -0.378 A  
HETATM   24  C   UNL     1      -9.640  11.141  65.673  1.00  0.00    -0.259 A  
HETATM   25  C   UNL     1      -8.593  11.306  66.596  1.00  0.00    -0.167 A  
ENDBRANCH  10  12
ENDBRANCH   9  10
ENDBRANCH   8   9
ENDBRANCH   7   8
ENDBRANCH   3   7
ENDBRANCH   2   3
TORSDOF 7
ENDMDL
MODEL      260
REMARK 921   NORMALIZED FREE ENERGY PREDICTED BY IDOCK:   -2.33 KCAL/MOL
REMARK 922        TOTAL FREE ENERGY PREDICTED BY IDOCK:   -4.60 KCAL/MOL
REMARK 923 INTER-LIGAND FREE ENERGY PREDICTED BY IDOCK:   -3.93 KCAL/MOL
REMARK 924 INTRA-LIGAND FREE ENERGY PREDICTED BY IDOCK:   -0.68 KCAL/MOL
REMARK 927      BINDING AFFINITY PREDICTED BY RF-SCORE:    0.00 PKD
ROOT
HETATM    1  C   UNL     1      -6.084   7.102  63.675  1.00  0.00    -0.044 C  
HETATM    2  C   UNL     1      -5.338   8.306  64.226  1.00  0.00    -0.040 C  
ENDROOT
BRANCH   2   3
HETATM    3  N   UNL     1      -6.111   9.647  64.117  1.00  0.00    -0.095 N  
HETATM    4  C   UNL     1      -5.138  10.807  64.394  1.00  0.00    -0.120 C  
BRANCH   3   5
HETATM    5  C   UNL     1      -6.748   9.862  62.732  1.00  0.00    -0.117 C  
HETATM    6  C   UNL     1      -8.120  10.515  62.783  1.00  0.00    -0.159 C  
ENDBRANCH   3   5
BRANCH   3   7
HETATM    7  C   UNL     1      -7.173   9.613  65.255  1.00  0.00    -0.113 C  
BRANCH   7   8
HETATM    8  C   UNL     1      -6.597   9.388  66.655  1.00  0.00    -0.068 C  
BRANCH   8   9
HETATM    9  O   UNL     1      -7.191  10.272  67.608  1.00  0.00    -0.085 OA 
BRANCH   9  10
HETATM   10  C   UNL     1      -7.618   9.656  68.754  1.00  0.00    -0.076 C  
HETATM   11  O   UNL     1      -6.861   9.327  69.661  1.00  0.00    -0.051 OA 
BRANCH  10  12
HETATM   12  C   UNL     1      -9.139   9.592  68.816  1.00  0.00    -0.134 C  
HETATM   13  C   UNL     1      -9.684  10.712  67.956  1.00  0.00    -0.170 A  
HETATM   14  C   UNL     1      -9.374  12.052  68.254  1.00  0.00    -0.197 A  
HETATM   15  C   UNL     1      -9.750  13.072  67.382  1.00  0.00    -0.213 A  
HETATM   16  C   UNL     1     -10.454  12.768  66.220  1.00  0.00    -0.273 A  
HETATM   17  C   UNL     1     -10.781  11.442  65.930  1.00  0.00    -0.311 A  
HETATM   18  C   UNL     1     -10.388  10.416  66.789  1.00  0.00    -0.235 A  
HETATM   19  O   UNL     1     -10.714   9.139  66.401  1.00  0.00    -0.055 OA 
HETATM   20  C   UNL     1     -10.367   8.089  67.217  1.00  0.00    -0.301 A  
HETATM   21  C   UNL     1     -10.779   6.822  66.795  1.00  0.00    -0.312 A  
HETATM   22  C   UNL     1     -10.463   5.694  67.550  1.00  0.00    -0.294 A  
HETATM   23  C   UNL     1      -9.743   5.829  68.737  1.00  0.00    -0.168 A  
HETATM   24  C   UNL     1      -9.336   7.093  69.164  1.00  0.00    -0.141 A  
HETATM   25  C   UNL     1      -9.636   8.232  68.398  1.00  0.00    -0.153 A  
ENDBRANCH  10  12
ENDBRANCH   9  10
ENDBRANCH   8   9
ENDBRANCH   7   8
ENDBRANCH   3   7
ENDBRANCH   2   3
TORSDOF 7
ENDMDL
MODEL      261
REMARK 921   NORMALIZED FREE ENERGY PREDICTED BY IDOCK:   -2.32 KCAL/MOL
REMARK 922        TOTAL FREE ENERGY PREDICTED BY IDOCK:   -4.58 KCAL/MOL
REMARK 923 INTER-LIGAND FREE ENERGY PREDICTED BY IDOCK:   -3.71 KCAL/MOL
REMARK 924 INTRA-LIGAND FREE ENERGY PREDICTED BY IDOCK:   -0.87 KCAL/MOL
REMARK 927      BINDING AFFINITY PREDICTED BY RF-SCORE:    0.00 PKD
ROOT
HETATM    1  C   UNL     1     -12.033   7.782  70.487  1.00  0.00     0.001 C  
HETATM    2  C   UNL     1     -12.201   7.297  71.918  1.00  0.00    -0.313 C  
ENDROOT
BRANCH   2   3
HETATM    3  N   UNL     1     -11.021   6.442  72.450  1.00  0.00    -0.238 N  
HETATM    4  C   UNL     1     -10.367   7.176  73.634  1.00  0.00    -0.368 C  
BRANCH   3   5
HETATM    5  C   UNL     1     -11.458   5.043  72.922  1.00  0.00    -0.226 C  
HETATM    6  C   UNL     1     -10.867   4.635  74.263  1.00  0.00    -0.178 C  
ENDBRANCH   3   5
BRANCH   3   7
HETATM    7  C   UNL     1      -9.992   6.374  71.284  1.00  0.00    -0.182 C  
BRANCH   7   8
HETATM    8  C   UNL     1      -8.679   7.115  71.552  1.00  0.00    -0.119 C  
BRANCH   8   9
HETATM    9  O   UNL     1      -8.012   7.445  70.332  1.00  0.00    -0.100 OA 
BRANCH   9  10
HETATM   10  C   UNL     1      -7.497   8.714  70.300  1.00  0.00    -0.066 C  
HETATM   11  O   UNL     1      -7.002   9.261  71.279  1.00  0.00    -0.210 OA 
BRANCH  10  12
HETATM   12  C   UNL     1      -7.473   9.267  68.880  1.00  0.00    -0.075 C  
HETATM   13  C   UNL     1      -7.004   8.162  67.961  1.00  0.00    -0.077 A  
HETATM   14  C   UNL     1      -5.733   7.583  68.135  1.00  0.00    -0.027 A  
HETATM   15  C   UNL     1      -5.357   6.468  67.388  1.00  0.00    -0.008 A  
HETATM   16  C   UNL     1      -6.236   5.936  66.447  1.00  0.00    -0.034 A  
HETATM   17  C   UNL     1      -7.490   6.518  66.256  1.00  0.00    -0.081 A  
HETATM   18  C   UNL     1      -7.878   7.621  67.017  1.00  0.00    -0.112 A  
HETATM   19  O   UNL     1      -9.146   8.099  66.794  1.00  0.00    -0.142 OA 
HETATM   20  C   UNL     1      -9.577   9.195  67.503  1.00  0.00    -0.150 A  
HETATM   21  C   UNL     1     -10.852   9.667  67.187  1.00  0.00    -0.184 A  
HETATM   22  C   UNL     1     -11.381  10.766  67.863  1.00  0.00    -0.372 A  
HETATM   23  C   UNL     1     -10.631  11.404  68.849  1.00  0.00    -0.234 A  
HETATM   24  C   UNL     1      -9.354  10.938  69.163  1.00  0.00    -0.096 A  
HETATM   25  C   UNL     1      -8.822   9.820  68.498  1.00  0.00    -0.121 A  
ENDBRANCH  10  12
ENDBRANCH   9  10
ENDBRANCH   8   9
ENDBRANCH   7   8
ENDBRANCH   3   7
ENDBRANCH   2   3
TORSDOF 7
ENDMDL
MODEL      262
REMARK 921   NORMALIZED FREE ENERGY PREDICTED BY IDOCK:   -2.29 KCAL/MOL
REMARK 922        TOTAL FREE ENERGY PREDICTED BY IDOCK:   -4.55 KCAL/MOL
REMARK 923 INTER-LIGAND FREE ENERGY PREDICTED BY IDOCK:   -6.08 KCAL/MOL
REMARK 924 INTRA-LIGAND FREE ENERGY PREDICTED BY IDOCK:    1.52 KCAL/MOL
REMARK 927      BINDING AFFINITY PREDICTED BY RF-SCORE:    0.00 PKD
ROOT
HETATM    1  C   UNL     1     -13.605  12.471  72.150  1.00  0.00    -0.458 C  
HETATM    2  C   UNL     1     -12.540  13.525  72.406  1.00  0.00     0.075 C  
ENDROOT
BRANCH   2   3
HETATM    3  N   UNL     1     -12.904  14.945  71.896  1.00  0.00    -0.311 N  
HETATM    4  C   UNL     1     -14.406  14.985  71.561  1.00  0.00    -0.555 C  
BRANCH   3   5
HETATM    5  C   UNL     1     -12.601  16.049  72.927  1.00  0.00    -0.480 C  
HETATM    6  C   UNL     1     -12.175  15.517  74.286  1.00  0.00    -0.755 C  
ENDBRANCH   3   5
BRANCH   3   7
HETATM    7  C   UNL     1     -12.100  15.136  70.577  1.00  0.00    -0.343 C  
BRANCH   7   8
HETATM    8  C   UNL     1     -11.867  13.847  69.784  1.00  0.00    -0.329 C  
BRANCH   8   9
HETATM    9  O   UNL     1     -10.540  13.798  69.253  1.00  0.00    -0.142 OA 
BRANCH   9  10
HETATM   10  C   UNL     1     -10.230  12.620  68.627  1.00  0.00    -0.154 C  
HETATM   11  O   UNL     1      -9.407  11.825  69.066  1.00  0.00     0.016 OA 
BRANCH  10  12
HETATM   12  C   UNL     1     -11.147  12.366  67.437  1.00  0.00    -0.320 C  
HETATM   13  C   UNL     1     -11.111  13.594  66.554  1.00  0.00    -0.310 A  
HETATM   14  C   UNL     1     -11.522  14.842  67.056  1.00  0.00    -0.333 A  
HETATM   15  C   UNL     1     -11.351  15.999  66.297  1.00  0.00     0.297 A  
HETATM   16  C   UNL     1     -10.790  15.916  65.025  1.00  0.00    -0.444 A  
HETATM   17  C   UNL     1     -10.398  14.677  64.514  1.00  0.00     0.109 A  
HETATM   18  C   UNL     1     -10.548  13.521  65.280  1.00  0.00    -0.328 A  
HETATM   19  O   UNL     1     -10.094  12.354  64.716  1.00  0.00    -0.278 OA 
HETATM   20  C   UNL     1     -10.232  11.180  65.417  1.00  0.00    -0.271 A  
HETATM   21  C   UNL     1      -9.805  10.022  64.764  1.00  0.00    -0.325 A  
HETATM   22  C   UNL     1      -9.892   8.784  65.400  1.00  0.00     0.420 A  
HETATM   23  C   UNL     1     -10.417   8.700  66.688  1.00  0.00    -0.239 A  
HETATM   24  C   UNL     1     -10.850   9.854  67.341  1.00  0.00    -0.293 A  
HETATM   25  C   UNL     1     -10.748  11.106  66.712  1.00  0.00    -0.326 A  
ENDBRANCH  10  12
ENDBRANCH   9  10
ENDBRANCH   8   9
ENDBRANCH   7   8
ENDBRANCH   3   7
ENDBRANCH   2   3
TORSDOF 7
ENDMDL
MODEL      263
REMARK 921   NORMALIZED FREE ENERGY PREDICTED BY IDOCK:   -2.24 KCAL/MOL
REMARK 922        TOTAL FREE ENERGY PREDICTED BY IDOCK:   -4.48 KCAL/MOL
REMARK 923 INTER-LIGAND FREE ENERGY PREDICTED BY IDOCK:   -3.61 KCAL/MOL
REMARK 924 INTRA-LIGAND FREE ENERGY PREDICTED BY IDOCK:   -0.88 KCAL/MOL
REMARK 927      BINDING AFFINITY PREDICTED BY RF-SCORE:    0.00 PKD
ROOT
HETATM    1  C   UNL     1      -8.279   7.149  64.960  1.00  0.00    -0.095 C  
HETATM    2  C   UNL     1      -8.186   6.048  66.004  1.00  0.00    -0.125 C  
ENDROOT
BRANCH   2   3
HETATM    3  N   UNL     1      -8.420   4.616  65.452  1.00  0.00    -0.122 N  
HETATM    4  C   UNL     1      -9.011   4.718  64.035  1.00  0.00    -0.082 C  
BRANCH   3   5
HETATM    5  C   UNL     1      -7.128   3.781  65.386  1.00  0.00    -0.066 C  
HETATM    6  C   UNL     1      -7.177   2.510  66.220  1.00  0.00    -0.065 C  
ENDBRANCH   3   5
BRANCH   3   7
HETATM    7  C   UNL     1      -9.487   3.976  66.386  1.00  0.00    -0.191 C  
BRANCH   7   8
HETATM    8  C   UNL     1     -10.083   4.934  67.421  1.00  0.00    -0.150 C  
BRANCH   8   9
HETATM    9  O   UNL     1     -10.284   4.281  68.677  1.00  0.00     0.063 OA 
BRANCH   9  10
HETATM   10  C   UNL     1     -10.304   5.129  69.753  1.00  0.00    -0.262 C  
HETATM   11  O   UNL     1     -11.257   5.851  70.019  1.00  0.00    -0.364 OA 
BRANCH  10  12
HETATM   12  C   UNL     1      -9.081   4.928  70.639  1.00  0.00    -0.174 C  
HETATM   13  C   UNL     1      -8.447   6.282  70.868  1.00  0.00    -0.131 A  
HETATM   14  C   UNL     1      -7.974   7.039  69.780  1.00  0.00    -0.124 A  
HETATM   15  C   UNL     1      -7.527   8.345  69.971  1.00  0.00    -0.063 A  
HETATM   16  C   UNL     1      -7.528   8.899  71.249  1.00  0.00    -0.127 A  
HETATM   17  C   UNL     1      -7.978   8.146  72.335  1.00  0.00    -0.185 A  
HETATM   18  C   UNL     1      -8.446   6.845  72.144  1.00  0.00    -0.113 A  
HETATM   19  O   UNL     1      -8.912   6.196  73.261  1.00  0.00    -0.130 OA 
HETATM   20  C   UNL     1      -9.369   4.906  73.137  1.00  0.00    -0.121 A  
HETATM   21  C   UNL     1      -9.773   4.282  74.320  1.00  0.00    -0.147 A  
HETATM   22  C   UNL     1     -10.264   2.978  74.292  1.00  0.00    -0.203 A  
HETATM   23  C   UNL     1     -10.344   2.289  73.083  1.00  0.00    -0.218 A  
HETATM   24  C   UNL     1      -9.936   2.907  71.901  1.00  0.00    -0.213 A  
HETATM   25  C   UNL     1      -9.456   4.228  71.920  1.00  0.00    -0.201 A  
ENDBRANCH  10  12
ENDBRANCH   9  10
ENDBRANCH   8   9
ENDBRANCH   7   8
ENDBRANCH   3   7
ENDBRANCH   2   3
TORSDOF 7
ENDMDL
MODEL      264
REMARK 921   NORMALIZED FREE ENERGY PREDICTED BY IDOCK:   -2.22 KCAL/MOL
REMARK 922        TOTAL FREE ENERGY PREDICTED BY IDOCK:   -4.45 KCAL/MOL
REMARK 923 INTER-LIGAND FREE ENERGY PREDICTED BY IDOCK:   -3.89 KCAL/MOL
REMARK 924 INTRA-LIGAND FREE ENERGY PREDICTED BY IDOCK:   -0.56 KCAL/MOL
REMARK 927      BINDING AFFINITY PREDICTED BY RF-SCORE:    0.00 PKD
ROOT
HETATM    1  C   UNL     1     -10.084   3.211  72.263  1.00  0.00    -0.216 C  
HETATM    2  C   UNL     1      -9.357   4.536  72.426  1.00  0.00    -0.126 C  
ENDROOT
BRANCH   2   3
HETATM    3  N   UNL     1     -10.263   5.719  72.859  1.00  0.00    -0.184 N  
HETATM    4  C   UNL     1     -11.697   5.199  73.064  1.00  0.00    -0.150 C  
BRANCH   3   5
HETATM    5  C   UNL     1      -9.793   6.389  74.163  1.00  0.00    -0.279 C  
HETATM    6  C   UNL     1      -9.058   7.703  73.946  1.00  0.00    -0.316 C  
ENDBRANCH   3   5
BRANCH   3   7
HETATM    7  C   UNL     1     -10.265   6.708  71.657  1.00  0.00    -0.192 C  
BRANCH   7   8
HETATM    8  C   UNL     1      -9.626   6.157  70.380  1.00  0.00    -0.164 C  
BRANCH   8   9
HETATM    9  O   UNL     1      -9.602   7.142  69.344  1.00  0.00    -0.153 OA 
BRANCH   9  10
HETATM   10  C   UNL     1      -9.773   6.635  68.084  1.00  0.00    -0.130 C  
HETATM   11  O   UNL     1     -10.875   6.450  67.580  1.00  0.00    -0.276 OA 
BRANCH  10  12
HETATM   12  C   UNL     1      -8.441   6.497  67.356  1.00  0.00    -0.119 C  
HETATM   13  C   UNL     1      -8.473   5.204  66.573  1.00  0.00    -0.111 A  
HETATM   14  C   UNL     1      -8.642   3.974  67.237  1.00  0.00    -0.106 A  
HETATM   15  C   UNL     1      -8.820   2.799  66.509  1.00  0.00    -0.153 A  
HETATM   16  C   UNL     1      -8.811   2.836  65.117  1.00  0.00    -0.127 A  
HETATM   17  C   UNL     1      -8.625   4.050  64.453  1.00  0.00    -0.107 A  
HETATM   18  C   UNL     1      -8.467   5.232  65.178  1.00  0.00    -0.149 A  
HETATM   19  O   UNL     1      -8.336   6.384  64.442  1.00  0.00    -0.072 OA 
HETATM   20  C   UNL     1      -8.161   7.577  65.102  1.00  0.00    -0.130 A  
HETATM   21  C   UNL     1      -7.974   8.702  64.296  1.00  0.00    -0.148 A  
HETATM   22  C   UNL     1      -7.801   9.959  64.874  1.00  0.00    -0.136 A  
HETATM   23  C   UNL     1      -7.803  10.093  66.262  1.00  0.00    -0.113 A  
HETATM   24  C   UNL     1      -7.983   8.970  67.070  1.00  0.00    -0.102 A  
HETATM   25  C   UNL     1      -8.176   7.703  66.492  1.00  0.00    -0.125 A  
ENDBRANCH  10  12
ENDBRANCH   9  10
ENDBRANCH   8   9
ENDBRANCH   7   8
ENDBRANCH   3   7
ENDBRANCH   2   3
TORSDOF 7
ENDMDL
MODEL      265
REMARK 921   NORMALIZED FREE ENERGY PREDICTED BY IDOCK:   -2.22 KCAL/MOL
REMARK 922        TOTAL FREE ENERGY PREDICTED BY IDOCK:   -4.44 KCAL/MOL
REMARK 923 INTER-LIGAND FREE ENERGY PREDICTED BY IDOCK:   -3.47 KCAL/MOL
REMARK 924 INTRA-LIGAND FREE ENERGY PREDICTED BY IDOCK:   -0.97 KCAL/MOL
REMARK 927      BINDING AFFINITY PREDICTED BY RF-SCORE:    0.00 PKD
ROOT
HETATM    1  C   UNL     1      -8.469  10.378  68.940  1.00  0.00    -0.144 C  
HETATM    2  C   UNL     1      -9.508  10.936  69.899  1.00  0.00     0.741 C  
ENDROOT
BRANCH   2   3
HETATM    3  N   UNL     1     -10.979  10.656  69.489  1.00  0.00    -0.254 N  
HETATM    4  C   UNL     1     -11.916  11.274  70.542  1.00  0.00    -0.371 C  
BRANCH   3   5
HETATM    5  C   UNL     1     -11.338  11.238  68.109  1.00  0.00    -0.303 C  
HETATM    6  C   UNL     1     -11.641  12.728  68.133  1.00  0.00    -0.380 C  
ENDBRANCH   3   5
BRANCH   3   7
HETATM    7  C   UNL     1     -11.139   9.108  69.535  1.00  0.00    -0.051 C  
BRANCH   7   8
HETATM    8  C   UNL     1     -11.410   8.539  70.929  1.00  0.00    -0.268 C  
BRANCH   8   9
HETATM    9  O   UNL     1     -10.242   7.920  71.473  1.00  0.00    -0.186 OA 
BRANCH   9  10
HETATM   10  C   UNL     1     -10.298   6.552  71.512  1.00  0.00    -0.211 C  
HETATM   11  O   UNL     1     -11.328   5.930  71.749  1.00  0.00    -0.273 OA 
BRANCH  10  12
HETATM   12  C   UNL     1      -8.981   5.929  71.066  1.00  0.00    -0.148 C  
HETATM   13  C   UNL     1      -8.501   5.018  72.173  1.00  0.00    -0.125 A  
HETATM   14  C   UNL     1      -8.231   5.535  73.454  1.00  0.00    -0.114 A  
HETATM   15  C   UNL     1      -7.934   4.678  74.512  1.00  0.00    -0.095 A  
HETATM   16  C   UNL     1      -7.881   3.303  74.297  1.00  0.00    -0.065 A  
HETATM   17  C   UNL     1      -8.129   2.786  73.024  1.00  0.00    -0.066 A  
HETATM   18  C   UNL     1      -8.448   3.639  71.968  1.00  0.00    -0.086 A  
HETATM   19  O   UNL     1      -8.721   3.039  70.763  1.00  0.00    -0.067 OA 
HETATM   20  C   UNL     1      -9.025   3.831  69.681  1.00  0.00    -0.108 A  
HETATM   21  C   UNL     1      -9.233   3.163  68.472  1.00  0.00    -0.230 A  
HETATM   22  C   UNL     1      -9.560   3.880  67.322  1.00  0.00    -0.222 A  
HETATM   23  C   UNL     1      -9.668   5.269  67.374  1.00  0.00    -0.162 A  
HETATM   24  C   UNL     1      -9.455   5.939  68.579  1.00  0.00    -0.134 A  
HETATM   25  C   UNL     1      -9.143   5.220  69.746  1.00  0.00    -0.150 A  
ENDBRANCH  10  12
ENDBRANCH   9  10
ENDBRANCH   8   9
ENDBRANCH   7   8
ENDBRANCH   3   7
ENDBRANCH   2   3
TORSDOF 7
ENDMDL
MODEL      266
REMARK 921   NORMALIZED FREE ENERGY PREDICTED BY IDOCK:   -2.20 KCAL/MOL
REMARK 922        TOTAL FREE ENERGY PREDICTED BY IDOCK:   -4.41 KCAL/MOL
REMARK 923 INTER-LIGAND FREE ENERGY PREDICTED BY IDOCK:   -3.66 KCAL/MOL
REMARK 924 INTRA-LIGAND FREE ENERGY PREDICTED BY IDOCK:   -0.76 KCAL/MOL
REMARK 927      BINDING AFFINITY PREDICTED BY RF-SCORE:    0.00 PKD
ROOT
HETATM    1  C   UNL     1      -6.265   6.244  63.533  1.00  0.00    -0.026 C  
HETATM    2  C   UNL     1      -6.266   7.095  64.792  1.00  0.00    -0.037 C  
ENDROOT
BRANCH   2   3
HETATM    3  N   UNL     1      -7.564   7.917  65.012  1.00  0.00    -0.091 N  
HETATM    4  C   UNL     1      -7.235   9.144  65.882  1.00  0.00    -0.093 C  
BRANCH   3   5
HETATM    5  C   UNL     1      -8.195   8.405  63.695  1.00  0.00    -0.104 C  
HETATM    6  C   UNL     1      -7.851   9.845  63.347  1.00  0.00    -0.152 C  
ENDBRANCH   3   5
BRANCH   3   7
HETATM    7  C   UNL     1      -8.519   6.986  65.814  1.00  0.00    -0.149 C  
BRANCH   7   8
HETATM    8  C   UNL     1      -7.883   6.327  67.040  1.00  0.00    -0.104 C  
BRANCH   8   9
HETATM    9  O   UNL     1      -8.607   6.639  68.232  1.00  0.00    -0.120 OA 
BRANCH   9  10
HETATM   10  C   UNL     1      -9.365   5.606  68.715  1.00  0.00    -0.123 C  
HETATM   11  O   UNL     1      -9.874   4.755  67.995  1.00  0.00    -0.154 OA 
BRANCH  10  12
HETATM   12  C   UNL     1      -9.346   5.568  70.238  1.00  0.00    -0.194 C  
HETATM   13  C   UNL     1      -7.903   5.645  70.685  1.00  0.00    -0.100 A  
HETATM   14  C   UNL     1      -6.984   4.653  70.296  1.00  0.00    -0.045 A  
HETATM   15  C   UNL     1      -5.627   4.798  70.579  1.00  0.00    -0.015 A  
HETATM   16  C   UNL     1      -5.180   5.921  71.271  1.00  0.00    -0.013 A  
HETATM   17  C   UNL     1      -6.089   6.899  71.677  1.00  0.00    -0.038 A  
HETATM   18  C   UNL     1      -7.445   6.767  71.375  1.00  0.00    -0.087 A  
HETATM   19  O   UNL     1      -8.260   7.799  71.773  1.00  0.00    -0.102 OA 
HETATM   20  C   UNL     1      -9.608   7.717  71.519  1.00  0.00    -0.154 A  
HETATM   21  C   UNL     1     -10.389   8.770  72.001  1.00  0.00    -0.411 A  
HETATM   22  C   UNL     1     -11.765   8.781  71.781  1.00  0.00    -0.416 A  
HETATM   23  C   UNL     1     -12.368   7.733  71.086  1.00  0.00    -0.268 A  
HETATM   24  C   UNL     1     -11.591   6.677  70.608  1.00  0.00    -0.439 A  
HETATM   25  C   UNL     1     -10.201   6.669  70.812  1.00  0.00    -0.221 A  
ENDBRANCH  10  12
ENDBRANCH   9  10
ENDBRANCH   8   9
ENDBRANCH   7   8
ENDBRANCH   3   7
ENDBRANCH   2   3
TORSDOF 7
ENDMDL
MODEL      267
REMARK 921   NORMALIZED FREE ENERGY PREDICTED BY IDOCK:   -2.18 KCAL/MOL
REMARK 922        TOTAL FREE ENERGY PREDICTED BY IDOCK:   -4.39 KCAL/MOL
REMARK 923 INTER-LIGAND FREE ENERGY PREDICTED BY IDOCK:   -3.64 KCAL/MOL
REMARK 924 INTRA-LIGAND FREE ENERGY PREDICTED BY IDOCK:   -0.75 KCAL/MOL
REMARK 927      BINDING AFFINITY PREDICTED BY RF-SCORE:    0.00 PKD
ROOT
HETATM    1  C   UNL     1      -9.836   4.128  71.885  1.00  0.00    -0.251 C  
HETATM    2  C   UNL     1      -9.350   5.512  71.487  1.00  0.00    -0.147 C  
ENDROOT
BRANCH   2   3
HETATM    3  N   UNL     1     -10.314   6.667  71.867  1.00  0.00    -0.198 N  
HETATM    4  C   UNL     1     -11.755   6.127  71.889  1.00  0.00    -0.279 C  
BRANCH   3   5
HETATM    5  C   UNL     1     -10.000   7.283  73.243  1.00  0.00    -0.273 C  
HETATM    6  C   UNL     1      -9.075   8.489  73.178  1.00  0.00    -0.093 C  
ENDBRANCH   3   5
BRANCH   3   7
HETATM    7  C   UNL     1     -10.197   7.708  70.716  1.00  0.00    -0.201 C  
BRANCH   7   8
HETATM    8  C   UNL     1      -9.526   7.178  69.446  1.00  0.00    -0.153 C  
BRANCH   8   9
HETATM    9  O   UNL     1      -9.276   8.231  68.513  1.00  0.00    -0.137 OA 
BRANCH   9  10
HETATM   10  C   UNL     1     -10.131   8.247  67.443  1.00  0.00    -0.233 C  
HETATM   11  O   UNL     1     -11.319   7.955  67.530  1.00  0.00     0.355 OA 
BRANCH  10  12
HETATM   12  C   UNL     1      -9.458   8.824  66.203  1.00  0.00    -0.315 C  
HETATM   13  C   UNL     1      -9.320  10.317  66.405  1.00  0.00    -0.201 A  
HETATM   14  C   UNL     1     -10.461  11.118  66.593  1.00  0.00    -0.298 A  
HETATM   15  C   UNL     1     -10.330  12.465  66.926  1.00  0.00    -0.240 A  
HETATM   16  C   UNL     1      -9.062  13.028  67.053  1.00  0.00    -0.230 A  
HETATM   17  C   UNL     1      -7.926  12.242  66.849  1.00  0.00    -0.068 A  
HETATM   18  C   UNL     1      -8.054  10.889  66.537  1.00  0.00    -0.154 A  
HETATM   19  O   UNL     1      -6.884  10.183  66.398  1.00  0.00    -0.090 OA 
HETATM   20  C   UNL     1      -6.947   8.849  66.074  1.00  0.00    -0.084 A  
HETATM   21  C   UNL     1      -5.722   8.204  65.889  1.00  0.00    -0.037 A  
HETATM   22  C   UNL     1      -5.685   6.847  65.571  1.00  0.00    -0.031 A  
HETATM   23  C   UNL     1      -6.873   6.133  65.424  1.00  0.00    -0.048 A  
HETATM   24  C   UNL     1      -8.098   6.776  65.602  1.00  0.00    -0.122 A  
HETATM   25  C   UNL     1      -8.142   8.139  65.941  1.00  0.00    -0.115 A  
ENDBRANCH  10  12
ENDBRANCH   9  10
ENDBRANCH   8   9
ENDBRANCH   7   8
ENDBRANCH   3   7
ENDBRANCH   2   3
TORSDOF 7
ENDMDL
MODEL      268
REMARK 921   NORMALIZED FREE ENERGY PREDICTED BY IDOCK:   -2.16 KCAL/MOL
REMARK 922        TOTAL FREE ENERGY PREDICTED BY IDOCK:   -4.37 KCAL/MOL
REMARK 923 INTER-LIGAND FREE ENERGY PREDICTED BY IDOCK:   -4.09 KCAL/MOL
REMARK 924 INTRA-LIGAND FREE ENERGY PREDICTED BY IDOCK:   -0.28 KCAL/MOL
REMARK 927      BINDING AFFINITY PREDICTED BY RF-SCORE:    0.00 PKD
ROOT
HETATM    1  C   UNL     1     -10.874   9.742  68.763  1.00  0.00    -0.219 C  
HETATM    2  C   UNL     1      -9.977   9.447  69.954  1.00  0.00    -0.212 C  
ENDROOT
BRANCH   2   3
HETATM    3  N   UNL     1     -10.517   8.352  70.911  1.00  0.00    -0.192 N  
HETATM    4  C   UNL     1      -9.798   8.476  72.267  1.00  0.00    -0.313 C  
BRANCH   3   5
HETATM    5  C   UNL     1     -12.035   8.459  71.150  1.00  0.00    -0.272 C  
HETATM    6  C   UNL     1     -12.420   9.502  72.188  1.00  0.00    -0.376 C  
ENDBRANCH   3   5
BRANCH   3   7
HETATM    7  C   UNL     1     -10.118   6.994  70.264  1.00  0.00    -0.187 C  
BRANCH   7   8
HETATM    8  C   UNL     1     -11.251   6.290  69.514  1.00  0.00    -0.430 C  
BRANCH   8   9
HETATM    9  O   UNL     1     -10.772   5.655  68.326  1.00  0.00    -0.214 OA 
BRANCH   9  10
HETATM   10  C   UNL     1      -9.808   4.708  68.547  1.00  0.00    -0.111 C  
HETATM   11  O   UNL     1      -9.903   3.843  69.410  1.00  0.00    -0.161 OA 
BRANCH  10  12
HETATM   12  C   UNL     1      -8.712   4.775  67.490  1.00  0.00    -0.104 C  
HETATM   13  C   UNL     1      -7.456   4.181  68.086  1.00  0.00    -0.067 A  
HETATM   14  C   UNL     1      -6.875   4.751  69.234  1.00  0.00    -0.050 A  
HETATM   15  C   UNL     1      -5.807   4.121  69.871  1.00  0.00    -0.018 A  
HETATM   16  C   UNL     1      -5.298   2.931  69.358  1.00  0.00    -0.012 A  
HETATM   17  C   UNL     1      -5.858   2.370  68.208  1.00  0.00    -0.023 A  
HETATM   18  C   UNL     1      -6.941   2.987  67.581  1.00  0.00    -0.049 A  
HETATM   19  O   UNL     1      -7.456   2.341  66.484  1.00  0.00    -0.064 OA 
HETATM   20  C   UNL     1      -8.513   2.911  65.814  1.00  0.00    -0.107 A  
HETATM   21  C   UNL     1      -8.952   2.235  64.673  1.00  0.00    -0.121 A  
HETATM   22  C   UNL     1     -10.026   2.729  63.935  1.00  0.00    -0.155 A  
HETATM   23  C   UNL     1     -10.659   3.907  64.329  1.00  0.00    -0.239 A  
HETATM   24  C   UNL     1     -10.219   4.587  65.464  1.00  0.00    -0.251 A  
HETATM   25  C   UNL     1      -9.148   4.085  66.223  1.00  0.00    -0.139 A  
ENDBRANCH  10  12
ENDBRANCH   9  10
ENDBRANCH   8   9
ENDBRANCH   7   8
ENDBRANCH   3   7
ENDBRANCH   2   3
TORSDOF 7
ENDMDL
MODEL      269
REMARK 921   NORMALIZED FREE ENERGY PREDICTED BY IDOCK:   -2.14 KCAL/MOL
REMARK 922        TOTAL FREE ENERGY PREDICTED BY IDOCK:   -4.34 KCAL/MOL
REMARK 923 INTER-LIGAND FREE ENERGY PREDICTED BY IDOCK:   -3.81 KCAL/MOL
REMARK 924 INTRA-LIGAND FREE ENERGY PREDICTED BY IDOCK:   -0.53 KCAL/MOL
REMARK 927      BINDING AFFINITY PREDICTED BY RF-SCORE:    0.00 PKD
ROOT
HETATM    1  C   UNL     1     -12.096  10.614  70.266  1.00  0.00    -0.423 C  
HETATM    2  C   UNL     1     -11.856   9.908  71.591  1.00  0.00    -0.296 C  
ENDROOT
BRANCH   2   3
HETATM    3  N   UNL     1     -10.929   8.667  71.501  1.00  0.00    -0.267 N  
HETATM    4  C   UNL     1     -10.733   8.087  72.913  1.00  0.00    -0.333 C  
BRANCH   3   5
HETATM    5  C   UNL     1     -11.495   7.561  70.590  1.00  0.00    -0.269 C  
HETATM    6  C   UNL     1     -11.636   6.212  71.279  1.00  0.00    -0.271 C  
ENDBRANCH   3   5
BRANCH   3   7
HETATM    7  C   UNL     1      -9.558   9.202  70.993  1.00  0.00    -0.280 C  
BRANCH   7   8
HETATM    8  C   UNL     1      -9.148   8.688  69.611  1.00  0.00    -0.149 C  
BRANCH   8   9
HETATM    9  O   UNL     1      -8.335   7.517  69.713  1.00  0.00    -0.130 OA 
BRANCH   9  10
HETATM   10  C   UNL     1      -7.028   7.708  69.353  1.00  0.00    -0.063 C  
HETATM   11  O   UNL     1      -6.292   8.517  69.905  1.00  0.00    -0.034 OA 
BRANCH  10  12
HETATM   12  C   UNL     1      -6.583   6.684  68.314  1.00  0.00    -0.059 C  
HETATM   13  C   UNL     1      -7.369   5.414  68.551  1.00  0.00    -0.075 A  
HETATM   14  C   UNL     1      -7.271   4.735  69.780  1.00  0.00    -0.055 A  
HETATM   15  C   UNL     1      -8.103   3.652  70.056  1.00  0.00    -0.059 A  
HETATM   16  C   UNL     1      -9.023   3.223  69.102  1.00  0.00    -0.180 A  
HETATM   17  C   UNL     1      -9.111   3.881  67.873  1.00  0.00    -0.187 A  
HETATM   18  C   UNL     1      -8.295   4.979  67.603  1.00  0.00    -0.105 A  
HETATM   19  O   UNL     1      -8.482   5.592  66.388  1.00  0.00    -0.116 OA 
HETATM   20  C   UNL     1      -7.695   6.669  66.058  1.00  0.00    -0.089 A  
HETATM   21  C   UNL     1      -7.894   7.208  64.786  1.00  0.00    -0.126 A  
HETATM   22  C   UNL     1      -7.151   8.311  64.367  1.00  0.00    -0.078 A  
HETATM   23  C   UNL     1      -6.197   8.871  65.215  1.00  0.00    -0.060 A  
HETATM   24  C   UNL     1      -5.991   8.330  66.485  1.00  0.00    -0.045 A  
HETATM   25  C   UNL     1      -6.750   7.230  66.920  1.00  0.00    -0.064 A  
ENDBRANCH  10  12
ENDBRANCH   9  10
ENDBRANCH   8   9
ENDBRANCH   7   8
ENDBRANCH   3   7
ENDBRANCH   2   3
TORSDOF 7
ENDMDL
MODEL      270
REMARK 921   NORMALIZED FREE ENERGY PREDICTED BY IDOCK:   -2.14 KCAL/MOL
REMARK 922        TOTAL FREE ENERGY PREDICTED BY IDOCK:   -4.33 KCAL/MOL
REMARK 923 INTER-LIGAND FREE ENERGY PREDICTED BY IDOCK:   -4.10 KCAL/MOL
REMARK 924 INTRA-LIGAND FREE ENERGY PREDICTED BY IDOCK:   -0.23 KCAL/MOL
REMARK 927      BINDING AFFINITY PREDICTED BY RF-SCORE:    0.00 PKD
ROOT
HETATM    1  C   UNL     1      -8.337   6.296  73.417  1.00  0.00    -0.114 C  
HETATM    2  C   UNL     1      -9.037   7.633  73.241  1.00  0.00    -0.215 C  
ENDROOT
BRANCH   2   3
HETATM    3  N   UNL     1     -10.002   7.700  72.027  1.00  0.00    -0.171 N  
HETATM    4  C   UNL     1     -10.448   6.272  71.665  1.00  0.00    -0.217 C  
BRANCH   3   5
HETATM    5  C   UNL     1     -11.257   8.550  72.305  1.00  0.00    -0.362 C  
HETATM    6  C   UNL     1     -12.545   7.742  72.353  1.00  0.00    -0.105 C  
ENDBRANCH   3   5
BRANCH   3   7
HETATM    7  C   UNL     1      -9.157   8.266  70.850  1.00  0.00    -0.152 C  
BRANCH   7   8
HETATM    8  C   UNL     1      -9.415   9.741  70.534  1.00  0.00    -0.077 C  
BRANCH   8   9
HETATM    9  O   UNL     1     -10.267   9.887  69.395  1.00  0.00    -0.189 OA 
BRANCH   9  10
HETATM   10  C   UNL     1     -10.127   8.896  68.460  1.00  0.00    -0.188 C  
HETATM   11  O   UNL     1     -10.925   7.975  68.335  1.00  0.00     0.022 OA 
BRANCH  10  12
HETATM   12  C   UNL     1      -8.968   9.186  67.514  1.00  0.00    -0.131 C  
HETATM   13  C   UNL     1      -8.467   7.864  66.977  1.00  0.00    -0.124 A  
HETATM   14  C   UNL     1      -7.970   6.883  67.854  1.00  0.00    -0.114 A  
HETATM   15  C   UNL     1      -7.647   5.612  67.380  1.00  0.00    -0.089 A  
HETATM   16  C   UNL     1      -7.797   5.318  66.027  1.00  0.00    -0.103 A  
HETATM   17  C   UNL     1      -8.271   6.294  65.149  1.00  0.00    -0.138 A  
HETATM   18  C   UNL     1      -8.615   7.560  65.623  1.00  0.00    -0.114 A  
HETATM   19  O   UNL     1      -9.116   8.441  64.697  1.00  0.00     0.186 OA 
HETATM   20  C   UNL     1      -9.456   9.710  65.103  1.00  0.00    -0.265 A  
HETATM   21  C   UNL     1      -9.903  10.575  64.102  1.00  0.00    -0.401 A  
HETATM   22  C   UNL     1     -10.283  11.879  64.420  1.00  0.00    -0.333 A  
HETATM   23  C   UNL     1     -10.208  12.324  65.739  1.00  0.00    -0.281 A  
HETATM   24  C   UNL     1      -9.757  11.464  66.739  1.00  0.00    -0.221 A  
HETATM   25  C   UNL     1      -9.389  10.143  66.429  1.00  0.00    -0.209 A  
ENDBRANCH  10  12
ENDBRANCH   9  10
ENDBRANCH   8   9
ENDBRANCH   7   8
ENDBRANCH   3   7
ENDBRANCH   2   3
TORSDOF 7
ENDMDL
MODEL      271
REMARK 921   NORMALIZED FREE ENERGY PREDICTED BY IDOCK:   -2.12 KCAL/MOL
REMARK 922        TOTAL FREE ENERGY PREDICTED BY IDOCK:   -4.31 KCAL/MOL
REMARK 923 INTER-LIGAND FREE ENERGY PREDICTED BY IDOCK:   -3.26 KCAL/MOL
REMARK 924 INTRA-LIGAND FREE ENERGY PREDICTED BY IDOCK:   -1.05 KCAL/MOL
REMARK 927      BINDING AFFINITY PREDICTED BY RF-SCORE:    0.00 PKD
ROOT
HETATM    1  C   UNL     1      -6.573   5.745  63.955  1.00  0.00    -0.037 C  
HETATM    2  C   UNL     1      -6.779   6.108  65.416  1.00  0.00    -0.047 C  
ENDROOT
BRANCH   2   3
HETATM    3  N   UNL     1      -6.910   7.630  65.690  1.00  0.00    -0.049 N  
HETATM    4  C   UNL     1      -6.064   7.989  66.924  1.00  0.00    -0.053 C  
BRANCH   3   5
HETATM    5  C   UNL     1      -6.441   8.495  64.505  1.00  0.00    -0.066 C  
HETATM    6  C   UNL     1      -7.511   9.435  63.971  1.00  0.00    -0.113 C  
ENDBRANCH   3   5
BRANCH   3   7
HETATM    7  C   UNL     1      -8.409   7.867  66.034  1.00  0.00    -0.128 C  
BRANCH   7   8
HETATM    8  C   UNL     1      -9.152   6.622  66.526  1.00  0.00    -0.149 C  
BRANCH   8   9
HETATM    9  O   UNL     1      -9.103   6.518  67.951  1.00  0.00    -0.116 OA 
BRANCH   9  10
HETATM   10  C   UNL     1     -10.303   6.743  68.572  1.00  0.00    -0.190 C  
HETATM   11  O   UNL     1     -11.374   6.351  68.123  1.00  0.00    -0.266 OA 
BRANCH  10  12
HETATM   12  C   UNL     1     -10.107   7.382  69.942  1.00  0.00    -0.195 C  
HETATM   13  C   UNL     1      -9.705   6.291  70.908  1.00  0.00    -0.197 A  
HETATM   14  C   UNL     1     -10.562   5.200  71.147  1.00  0.00    -0.195 A  
HETATM   15  C   UNL     1     -10.134   4.122  71.919  1.00  0.00    -0.224 A  
HETATM   16  C   UNL     1      -8.858   4.132  72.477  1.00  0.00    -0.119 A  
HETATM   17  C   UNL     1      -8.010   5.220  72.260  1.00  0.00    -0.106 A  
HETATM   18  C   UNL     1      -8.428   6.291  71.470  1.00  0.00    -0.130 A  
HETATM   19  O   UNL     1      -7.512   7.296  71.273  1.00  0.00    -0.077 OA 
HETATM   20  C   UNL     1      -7.874   8.385  70.517  1.00  0.00    -0.089 A  
HETATM   21  C   UNL     1      -6.919   9.398  70.405  1.00  0.00    -0.100 A  
HETATM   22  C   UNL     1      -7.190  10.537  69.647  1.00  0.00    -0.148 A  
HETATM   23  C   UNL     1      -8.421  10.671  69.008  1.00  0.00    -0.148 A  
HETATM   24  C   UNL     1      -9.379   9.664  69.123  1.00  0.00    -0.172 A  
HETATM   25  C   UNL     1      -9.105   8.506  69.871  1.00  0.00    -0.150 A  
ENDBRANCH  10  12
ENDBRANCH   9  10
ENDBRANCH   8   9
ENDBRANCH   7   8
ENDBRANCH   3   7
ENDBRANCH   2   3
TORSDOF 7
ENDMDL
MODEL      272
REMARK 921   NORMALIZED FREE ENERGY PREDICTED BY IDOCK:   -2.10 KCAL/MOL
REMARK 922        TOTAL FREE ENERGY PREDICTED BY IDOCK:   -4.28 KCAL/MOL
REMARK 923 INTER-LIGAND FREE ENERGY PREDICTED BY IDOCK:   -3.28 KCAL/MOL
REMARK 924 INTRA-LIGAND FREE ENERGY PREDICTED BY IDOCK:   -1.00 KCAL/MOL
REMARK 927      BINDING AFFINITY PREDICTED BY RF-SCORE:    0.00 PKD
ROOT
HETATM    1  C   UNL     1      -9.029   3.494  70.859  1.00  0.00    -0.161 C  
HETATM    2  C   UNL     1      -7.895   4.480  71.088  1.00  0.00    -0.077 C  
ENDROOT
BRANCH   2   3
HETATM    3  N   UNL     1      -8.123   5.459  72.271  1.00  0.00    -0.107 N  
HETATM    4  C   UNL     1      -9.622   5.479  72.619  1.00  0.00    -0.150 C  
BRANCH   3   5
HETATM    5  C   UNL     1      -7.331   5.069  73.533  1.00  0.00    -0.091 C  
HETATM    6  C   UNL     1      -6.179   6.011  73.848  1.00  0.00    -0.065 C  
ENDBRANCH   3   5
BRANCH   3   7
HETATM    7  C   UNL     1      -7.723   6.864  71.735  1.00  0.00    -0.095 C  
BRANCH   7   8
HETATM    8  C   UNL     1      -7.506   6.929  70.221  1.00  0.00    -0.086 C  
BRANCH   8   9
HETATM    9  O   UNL     1      -8.336   7.926  69.620  1.00  0.00    -0.127 OA 
BRANCH   9  10
HETATM   10  C   UNL     1      -9.413   7.423  68.940  1.00  0.00    -0.144 C  
HETATM   11  O   UNL     1     -10.168   6.580  69.409  1.00  0.00    -0.169 OA 
BRANCH  10  12
HETATM   12  C   UNL     1      -9.631   8.162  67.625  1.00  0.00    -0.186 C  
HETATM   13  C   UNL     1     -10.037   9.581  67.953  1.00  0.00    -0.234 A  
HETATM   14  C   UNL     1     -11.204   9.833  68.698  1.00  0.00    -0.068 A  
HETATM   15  C   UNL     1     -11.501  11.126  69.128  1.00  0.00    -0.366 A  
HETATM   16  C   UNL     1     -10.649  12.178  68.802  1.00  0.00    -0.230 A  
HETATM   17  C   UNL     1      -9.500  11.937  68.047  1.00  0.00    -0.197 A  
HETATM   18  C   UNL     1      -9.189  10.642  67.633  1.00  0.00    -0.146 A  
HETATM   19  O   UNL     1      -8.016  10.491  66.934  1.00  0.00    -0.115 OA 
HETATM   20  C   UNL     1      -7.665   9.240  66.486  1.00  0.00    -0.093 A  
HETATM   21  C   UNL     1      -6.492   9.165  65.731  1.00  0.00    -0.064 A  
HETATM   22  C   UNL     1      -6.049   7.937  65.244  1.00  0.00    -0.038 A  
HETATM   23  C   UNL     1      -6.784   6.780  65.500  1.00  0.00    -0.051 A  
HETATM   24  C   UNL     1      -7.959   6.853  66.247  1.00  0.00    -0.108 A  
HETATM   25  C   UNL     1      -8.401   8.085  66.757  1.00  0.00    -0.116 A  
ENDBRANCH  10  12
ENDBRANCH   9  10
ENDBRANCH   8   9
ENDBRANCH   7   8
ENDBRANCH   3   7
ENDBRANCH   2   3
TORSDOF 7
ENDMDL
MODEL      273
REMARK 921   NORMALIZED FREE ENERGY PREDICTED BY IDOCK:   -2.09 KCAL/MOL
REMARK 922        TOTAL FREE ENERGY PREDICTED BY IDOCK:   -4.26 KCAL/MOL
REMARK 923 INTER-LIGAND FREE ENERGY PREDICTED BY IDOCK:   -4.18 KCAL/MOL
REMARK 924 INTRA-LIGAND FREE ENERGY PREDICTED BY IDOCK:   -0.08 KCAL/MOL
REMARK 927      BINDING AFFINITY PREDICTED BY RF-SCORE:    0.00 PKD
ROOT
HETATM    1  C   UNL     1      -9.426   4.636  68.779  1.00  0.00    -0.214 C  
HETATM    2  C   UNL     1      -9.859   5.640  69.836  1.00  0.00    -0.189 C  
ENDROOT
BRANCH   2   3
HETATM    3  N   UNL     1      -8.766   5.987  70.881  1.00  0.00    -0.134 N  
HETATM    4  C   UNL     1      -9.390   5.946  72.287  1.00  0.00    -0.144 C  
BRANCH   3   5
HETATM    5  C   UNL     1      -7.572   5.014  70.845  1.00  0.00    -0.078 C  
HETATM    6  C   UNL     1      -6.486   5.340  71.859  1.00  0.00    -0.040 C  
ENDBRANCH   3   5
BRANCH   3   7
HETATM    7  C   UNL     1      -8.340   7.452  70.573  1.00  0.00    -0.132 C  
BRANCH   7   8
HETATM    8  C   UNL     1      -9.506   8.433  70.419  1.00  0.00    -0.168 C  
BRANCH   8   9
HETATM    9  O   UNL     1      -9.255   9.377  69.376  1.00  0.00    -0.150 OA 
BRANCH   9  10
HETATM   10  C   UNL     1     -10.264  10.283  69.185  1.00  0.00    -0.218 C  
HETATM   11  O   UNL     1     -10.856  10.831  70.107  1.00  0.00    -0.234 OA 
BRANCH  10  12
HETATM   12  C   UNL     1     -10.426  10.629  67.710  1.00  0.00    -0.258 C  
HETATM   13  C   UNL     1     -10.061  12.086  67.533  1.00  0.00    -0.205 A  
HETATM   14  C   UNL     1     -10.782  13.087  68.211  1.00  0.00    -0.261 A  
HETATM   15  C   UNL     1     -10.356  14.414  68.169  1.00  0.00    -0.231 A  
HETATM   16  C   UNL     1      -9.225  14.756  67.433  1.00  0.00    -0.200 A  
HETATM   17  C   UNL     1      -8.517  13.770  66.742  1.00  0.00     0.007 A  
HETATM   18  C   UNL     1      -8.928  12.438  66.800  1.00  0.00    -0.205 A  
HETATM   19  O   UNL     1      -8.146  11.530  66.128  1.00  0.00    -0.083 OA 
HETATM   20  C   UNL     1      -8.511  10.205  66.136  1.00  0.00    -0.130 A  
HETATM   21  C   UNL     1      -7.709   9.344  65.384  1.00  0.00    -0.103 A  
HETATM   22  C   UNL     1      -7.993   7.979  65.342  1.00  0.00    -0.121 A  
HETATM   23  C   UNL     1      -9.087   7.473  66.042  1.00  0.00    -0.139 A  
HETATM   24  C   UNL     1      -9.893   8.332  66.788  1.00  0.00    -0.333 A  
HETATM   25  C   UNL     1      -9.602   9.706  66.850  1.00  0.00    -0.217 A  
ENDBRANCH  10  12
ENDBRANCH   9  10
ENDBRANCH   8   9
ENDBRANCH   7   8
ENDBRANCH   3   7
ENDBRANCH   2   3
TORSDOF 7
ENDMDL
MODEL      274
REMARK 921   NORMALIZED FREE ENERGY PREDICTED BY IDOCK:   -2.05 KCAL/MOL
REMARK 922        TOTAL FREE ENERGY PREDICTED BY IDOCK:   -4.21 KCAL/MOL
REMARK 923 INTER-LIGAND FREE ENERGY PREDICTED BY IDOCK:   -3.23 KCAL/MOL
REMARK 924 INTRA-LIGAND FREE ENERGY PREDICTED BY IDOCK:   -0.98 KCAL/MOL
REMARK 927      BINDING AFFINITY PREDICTED BY RF-SCORE:    0.00 PKD
ROOT
HETATM    1  C   UNL     1     -12.967   9.821  71.731  1.00  0.00    -0.536 C  
HETATM    2  C   UNL     1     -11.678  10.364  71.135  1.00  0.00    -0.296 C  
ENDROOT
BRANCH   2   3
HETATM    3  N   UNL     1     -10.981   9.408  70.131  1.00  0.00    -0.237 N  
HETATM    4  C   UNL     1     -11.519   7.982  70.344  1.00  0.00    -0.135 C  
BRANCH   3   5
HETATM    5  C   UNL     1     -11.216   9.807  68.662  1.00  0.00    -0.015 C  
HETATM    6  C   UNL     1     -10.736  11.210  68.323  1.00  0.00    -0.234 C  
ENDBRANCH   3   5
BRANCH   3   7
HETATM    7  C   UNL     1      -9.472   9.427  70.511  1.00  0.00    -0.269 C  
BRANCH   7   8
HETATM    8  C   UNL     1      -8.844   8.043  70.688  1.00  0.00    -0.143 C  
BRANCH   8   9
HETATM    9  O   UNL     1      -7.420   8.102  70.583  1.00  0.00    -0.061 OA 
BRANCH   9  10
HETATM   10  C   UNL     1      -6.928   7.667  69.381  1.00  0.00    -0.063 C  
HETATM   11  O   UNL     1      -5.807   7.950  68.974  1.00  0.00    -0.032 OA 
BRANCH  10  12
HETATM   12  C   UNL     1      -7.876   6.674  68.719  1.00  0.00    -0.111 C  
HETATM   13  C   UNL     1      -8.036   7.081  67.272  1.00  0.00    -0.115 A  
HETATM   14  C   UNL     1      -8.562   8.344  66.942  1.00  0.00    -0.129 A  
HETATM   15  C   UNL     1      -8.573   8.779  65.618  1.00  0.00    -0.195 A  
HETATM   16  C   UNL     1      -8.081   7.952  64.612  1.00  0.00    -0.125 A  
HETATM   17  C   UNL     1      -7.576   6.690  64.931  1.00  0.00    -0.101 A  
HETATM   18  C   UNL     1      -7.544   6.260  66.257  1.00  0.00    -0.090 A  
HETATM   19  O   UNL     1      -6.989   5.024  66.483  1.00  0.00    -0.064 OA 
HETATM   20  C   UNL     1      -6.945   4.540  67.769  1.00  0.00    -0.060 A  
HETATM   21  C   UNL     1      -6.423   3.254  67.923  1.00  0.00    -0.037 A  
HETATM   22  C   UNL     1      -6.327   2.683  69.191  1.00  0.00    -0.029 A  
HETATM   23  C   UNL     1      -6.763   3.393  70.309  1.00  0.00    -0.033 A  
HETATM   24  C   UNL     1      -7.290   4.675  70.158  1.00  0.00    -0.050 A  
HETATM   25  C   UNL     1      -7.373   5.263  68.884  1.00  0.00    -0.070 A  
ENDBRANCH  10  12
ENDBRANCH   9  10
ENDBRANCH   8   9
ENDBRANCH   7   8
ENDBRANCH   3   7
ENDBRANCH   2   3
TORSDOF 7
ENDMDL
MODEL      275
REMARK 921   NORMALIZED FREE ENERGY PREDICTED BY IDOCK:   -2.05 KCAL/MOL
REMARK 922        TOTAL FREE ENERGY PREDICTED BY IDOCK:   -4.21 KCAL/MOL
REMARK 923 INTER-LIGAND FREE ENERGY PREDICTED BY IDOCK:   -3.57 KCAL/MOL
REMARK 924 INTRA-LIGAND FREE ENERGY PREDICTED BY IDOCK:   -0.65 KCAL/MOL
REMARK 927      BINDING AFFINITY PREDICTED BY RF-SCORE:    0.00 PKD
ROOT
HETATM    1  C   UNL     1     -11.676  15.819  70.747  1.00  0.00    -0.430 C  
HETATM    2  C   UNL     1     -11.867  15.766  69.240  1.00  0.00    -0.346 C  
ENDROOT
BRANCH   2   3
HETATM    3  N   UNL     1     -10.564  15.518  68.434  1.00  0.00    -0.245 N  
HETATM    4  C   UNL     1     -10.400  16.639  67.393  1.00  0.00    -0.292 C  
BRANCH   3   5
HETATM    5  C   UNL     1      -9.306  15.485  69.323  1.00  0.00    -0.266 C  
HETATM    6  C   UNL     1      -8.136  16.274  68.757  1.00  0.00    -0.227 C  
ENDBRANCH   3   5
BRANCH   3   7
HETATM    7  C   UNL     1     -10.786  14.174  67.681  1.00  0.00    -0.260 C  
BRANCH   7   8
HETATM    8  C   UNL     1     -10.850  12.941  68.586  1.00  0.00    -0.258 C  
BRANCH   8   9
HETATM    9  O   UNL     1      -9.637  12.188  68.522  1.00  0.00    -0.198 OA 
BRANCH   9  10
HETATM   10  C   UNL     1      -9.559  11.339  67.450  1.00  0.00    -0.169 C  
HETATM   11  O   UNL     1     -10.420  11.278  66.580  1.00  0.00    -0.235 OA 
BRANCH  10  12
HETATM   12  C   UNL     1      -8.212  10.627  67.403  1.00  0.00    -0.115 C  
HETATM   13  C   UNL     1      -7.142  11.640  67.743  1.00  0.00    -0.092 A  
HETATM   14  C   UNL     1      -6.964  12.784  66.942  1.00  0.00     0.358 A  
HETATM   15  C   UNL     1      -6.082  13.789  67.335  1.00  0.00     0.161 A  
HETATM   16  C   UNL     1      -5.356  13.653  68.515  1.00  0.00    -0.089 A  
HETATM   17  C   UNL     1      -5.513  12.512  69.303  1.00  0.00    -0.072 A  
HETATM   18  C   UNL     1      -6.411  11.513  68.924  1.00  0.00    -0.059 A  
HETATM   19  O   UNL     1      -6.534  10.448  69.783  1.00  0.00    -0.062 OA 
HETATM   20  C   UNL     1      -7.391   9.426  69.454  1.00  0.00    -0.078 A  
HETATM   21  C   UNL     1      -7.426   8.345  70.339  1.00  0.00    -0.067 A  
HETATM   22  C   UNL     1      -8.275   7.266  70.095  1.00  0.00    -0.134 A  
HETATM   23  C   UNL     1      -9.084   7.259  68.960  1.00  0.00    -0.133 A  
HETATM   24  C   UNL     1      -9.046   8.333  68.071  1.00  0.00    -0.139 A  
HETATM   25  C   UNL     1      -8.206   9.432  68.320  1.00  0.00    -0.118 A  
ENDBRANCH  10  12
ENDBRANCH   9  10
ENDBRANCH   8   9
ENDBRANCH   7   8
ENDBRANCH   3   7
ENDBRANCH   2   3
TORSDOF 7
ENDMDL
MODEL      276
REMARK 921   NORMALIZED FREE ENERGY PREDICTED BY IDOCK:   -2.03 KCAL/MOL
REMARK 922        TOTAL FREE ENERGY PREDICTED BY IDOCK:   -4.19 KCAL/MOL
REMARK 923 INTER-LIGAND FREE ENERGY PREDICTED BY IDOCK:   -3.47 KCAL/MOL
REMARK 924 INTRA-LIGAND FREE ENERGY PREDICTED BY IDOCK:   -0.72 KCAL/MOL
REMARK 927      BINDING AFFINITY PREDICTED BY RF-SCORE:    0.00 PKD
ROOT
HETATM    1  C   UNL     1      -8.148   7.312  64.770  1.00  0.00    -0.097 C  
HETATM    2  C   UNL     1      -8.041   6.390  65.974  1.00  0.00    -0.120 C  
ENDROOT
BRANCH   2   3
HETATM    3  N   UNL     1      -8.589   4.958  65.738  1.00  0.00    -0.124 N  
HETATM    4  C   UNL     1      -9.018   4.824  64.266  1.00  0.00    -0.107 C  
BRANCH   3   5
HETATM    5  C   UNL     1      -7.553   3.861  66.048  1.00  0.00    -0.089 C  
HETATM    6  C   UNL     1      -7.987   2.902  67.146  1.00  0.00    -0.075 C  
ENDBRANCH   3   5
BRANCH   3   7
HETATM    7  C   UNL     1      -9.856   4.840  66.633  1.00  0.00    -0.214 C  
BRANCH   7   8
HETATM    8  C   UNL     1     -10.496   6.180  67.008  1.00  0.00    -0.277 C  
BRANCH   8   9
HETATM    9  O   UNL     1     -10.752   6.257  68.412  1.00  0.00    -0.230 OA 
BRANCH   9  10
HETATM   10  C   UNL     1     -10.413   7.457  68.979  1.00  0.00    -0.210 C  
HETATM   11  O   UNL     1     -11.239   8.308  69.291  1.00  0.00     0.070 OA 
BRANCH  10  12
HETATM   12  C   UNL     1      -8.927   7.514  69.311  1.00  0.00    -0.136 C  
HETATM   13  C   UNL     1      -8.416   8.881  68.915  1.00  0.00    -0.131 A  
HETATM   14  C   UNL     1      -8.495   9.310  67.577  1.00  0.00    -0.115 A  
HETATM   15  C   UNL     1      -8.163  10.620  67.235  1.00  0.00    -0.116 A  
HETATM   16  C   UNL     1      -7.730  11.504  68.219  1.00  0.00    -0.123 A  
HETATM   17  C   UNL     1      -7.631  11.079  69.545  1.00  0.00    -0.001 A  
HETATM   18  C   UNL     1      -7.983   9.775  69.894  1.00  0.00    -0.175 A  
HETATM   19  O   UNL     1      -7.898   9.457  71.228  1.00  0.00    -0.335 OA 
HETATM   20  C   UNL     1      -8.215   8.182  71.628  1.00  0.00    -0.126 A  
HETATM   21  C   UNL     1      -8.051   7.907  72.988  1.00  0.00    -0.197 A  
HETATM   22  C   UNL     1      -8.360   6.644  73.491  1.00  0.00    -0.127 A  
HETATM   23  C   UNL     1      -8.824   5.647  72.633  1.00  0.00    -0.123 A  
HETATM   24  C   UNL     1      -8.983   5.917  71.274  1.00  0.00    -0.145 A  
HETATM   25  C   UNL     1      -8.691   7.194  70.764  1.00  0.00    -0.147 A  
ENDBRANCH  10  12
ENDBRANCH   9  10
ENDBRANCH   8   9
ENDBRANCH   7   8
ENDBRANCH   3   7
ENDBRANCH   2   3
TORSDOF 7
ENDMDL
MODEL      277
REMARK 921   NORMALIZED FREE ENERGY PREDICTED BY IDOCK:   -2.02 KCAL/MOL
REMARK 922        TOTAL FREE ENERGY PREDICTED BY IDOCK:   -4.16 KCAL/MOL
REMARK 923 INTER-LIGAND FREE ENERGY PREDICTED BY IDOCK:   -4.25 KCAL/MOL
REMARK 924 INTRA-LIGAND FREE ENERGY PREDICTED BY IDOCK:    0.09 KCAL/MOL
REMARK 927      BINDING AFFINITY PREDICTED BY RF-SCORE:    0.00 PKD
ROOT
HETATM    1  C   UNL     1      -7.549   3.294  70.997  1.00  0.00    -0.040 C  
HETATM    2  C   UNL     1      -6.732   4.492  71.451  1.00  0.00    -0.031 C  
ENDROOT
BRANCH   2   3
HETATM    3  N   UNL     1      -7.571   5.660  72.036  1.00  0.00    -0.099 N  
HETATM    4  C   UNL     1      -9.032   5.198  72.184  1.00  0.00    -0.129 C  
BRANCH   3   5
HETATM    5  C   UNL     1      -7.064   6.133  73.411  1.00  0.00    -0.084 C  
HETATM    6  C   UNL     1      -5.575   6.440  73.441  1.00  0.00    -0.042 C  
ENDBRANCH   3   5
BRANCH   3   7
HETATM    7  C   UNL     1      -7.518   6.791  70.968  1.00  0.00    -0.083 C  
BRANCH   7   8
HETATM    8  C   UNL     1      -7.983   6.368  69.572  1.00  0.00    -0.113 C  
BRANCH   8   9
HETATM    9  O   UNL     1      -9.339   5.917  69.591  1.00  0.00    -0.137 OA 
BRANCH   9  10
HETATM   10  C   UNL     1     -10.013   6.113  68.415  1.00  0.00    -0.140 C  
HETATM   11  O   UNL     1     -10.053   5.279  67.518  1.00  0.00    -0.163 OA 
BRANCH  10  12
HETATM   12  C   UNL     1     -10.820   7.405  68.447  1.00  0.00    -0.068 C  
HETATM   13  C   UNL     1     -11.248   7.648  69.877  1.00  0.00    -0.097 A  
HETATM   14  C   UNL     1     -12.055   6.710  70.547  1.00  0.00    -0.302 A  
HETATM   15  C   UNL     1     -12.327   6.857  71.907  1.00  0.00    -0.364 A  
HETATM   16  C   UNL     1     -11.815   7.950  72.602  1.00  0.00    -0.352 A  
HETATM   17  C   UNL     1     -11.029   8.894  71.938  1.00  0.00    -0.439 A  
HETATM   18  C   UNL     1     -10.737   8.738  70.583  1.00  0.00    -0.225 A  
HETATM   19  O   UNL     1      -9.920   9.690  70.023  1.00  0.00    -0.216 OA 
HETATM   20  C   UNL     1      -9.612   9.598  68.687  1.00  0.00    -0.150 A  
HETATM   21  C   UNL     1      -8.826  10.629  68.166  1.00  0.00    -0.134 A  
HETATM   22  C   UNL     1      -8.452  10.615  66.823  1.00  0.00    -0.134 A  
HETATM   23  C   UNL     1      -8.871   9.577  65.994  1.00  0.00    -0.183 A  
HETATM   24  C   UNL     1      -9.661   8.549  66.509  1.00  0.00    -0.303 A  
HETATM   25  C   UNL     1     -10.027   8.547  67.866  1.00  0.00    -0.225 A  
ENDBRANCH  10  12
ENDBRANCH   9  10
ENDBRANCH   8   9
ENDBRANCH   7   8
ENDBRANCH   3   7
ENDBRANCH   2   3
TORSDOF 7
ENDMDL
MODEL      278
REMARK 921   NORMALIZED FREE ENERGY PREDICTED BY IDOCK:   -1.98 KCAL/MOL
REMARK 922        TOTAL FREE ENERGY PREDICTED BY IDOCK:   -4.10 KCAL/MOL
REMARK 923 INTER-LIGAND FREE ENERGY PREDICTED BY IDOCK:   -4.24 KCAL/MOL
REMARK 924 INTRA-LIGAND FREE ENERGY PREDICTED BY IDOCK:    0.13 KCAL/MOL
REMARK 927      BINDING AFFINITY PREDICTED BY RF-SCORE:    0.00 PKD
ROOT
HETATM    1  C   UNL     1      -8.156   6.171  73.591  1.00  0.00    -0.104 C  
HETATM    2  C   UNL     1      -8.915   7.458  73.313  1.00  0.00    -0.165 C  
ENDROOT
BRANCH   2   3
HETATM    3  N   UNL     1     -10.007   7.337  72.216  1.00  0.00    -0.167 N  
HETATM    4  C   UNL     1     -10.982   6.211  72.605  1.00  0.00    -0.256 C  
BRANCH   3   5
HETATM    5  C   UNL     1     -10.810   8.637  72.024  1.00  0.00    -0.360 C  
HETATM    6  C   UNL     1     -12.301   8.412  71.825  1.00  0.00    -0.375 C  
ENDBRANCH   3   5
BRANCH   3   7
HETATM    7  C   UNL     1      -9.255   6.913  70.921  1.00  0.00    -0.157 C  
BRANCH   7   8
HETATM    8  C   UNL     1      -9.157   8.008  69.856  1.00  0.00    -0.145 C  
BRANCH   8   9
HETATM    9  O   UNL     1      -9.798   7.610  68.642  1.00  0.00    -0.163 OA 
BRANCH   9  10
HETATM   10  C   UNL     1     -10.018   6.262  68.539  1.00  0.00    -0.144 C  
HETATM   11  O   UNL     1     -11.132   5.757  68.613  1.00  0.00    -0.224 OA 
BRANCH  10  12
HETATM   12  C   UNL     1      -8.741   5.520  68.162  1.00  0.00    -0.102 C  
HETATM   13  C   UNL     1      -8.871   4.096  68.655  1.00  0.00    -0.141 A  
HETATM   14  C   UNL     1      -9.041   3.831  70.027  1.00  0.00    -0.193 A  
HETATM   15  C   UNL     1      -9.308   2.536  70.467  1.00  0.00    -0.209 A  
HETATM   16  C   UNL     1      -9.387   1.493  69.547  1.00  0.00    -0.159 A  
HETATM   17  C   UNL     1      -9.200   1.747  68.187  1.00  0.00    -0.227 A  
HETATM   18  C   UNL     1      -8.953   3.045  67.741  1.00  0.00    -0.157 A  
HETATM   19  O   UNL     1      -8.827   3.209  66.383  1.00  0.00    -0.128 OA 
HETATM   20  C   UNL     1      -8.566   4.464  65.886  1.00  0.00    -0.114 A  
HETATM   21  C   UNL     1      -8.391   4.552  64.504  1.00  0.00    -0.115 A  
HETATM   22  C   UNL     1      -8.135   5.785  63.906  1.00  0.00    -0.113 A  
HETATM   23  C   UNL     1      -8.043   6.933  64.691  1.00  0.00    -0.082 A  
HETATM   24  C   UNL     1      -8.211   6.847  66.073  1.00  0.00    -0.125 A  
HETATM   25  C   UNL     1      -8.487   5.610  66.679  1.00  0.00    -0.113 A  
ENDBRANCH  10  12
ENDBRANCH   9  10
ENDBRANCH   8   9
ENDBRANCH   7   8
ENDBRANCH   3   7
ENDBRANCH   2   3
TORSDOF 7
ENDMDL
MODEL      279
REMARK 921   NORMALIZED FREE ENERGY PREDICTED BY IDOCK:   -1.97 KCAL/MOL
REMARK 922        TOTAL FREE ENERGY PREDICTED BY IDOCK:   -4.10 KCAL/MOL
REMARK 923 INTER-LIGAND FREE ENERGY PREDICTED BY IDOCK:   -4.03 KCAL/MOL
REMARK 924 INTRA-LIGAND FREE ENERGY PREDICTED BY IDOCK:   -0.07 KCAL/MOL
REMARK 927      BINDING AFFINITY PREDICTED BY RF-SCORE:    0.00 PKD
ROOT
HETATM    1  C   UNL     1      -7.449   3.406  69.267  1.00  0.00    -0.048 C  
HETATM    2  C   UNL     1      -8.042   4.158  70.448  1.00  0.00    -0.058 C  
ENDROOT
BRANCH   2   3
HETATM    3  N   UNL     1      -7.308   3.921  71.795  1.00  0.00    -0.053 N  
HETATM    4  C   UNL     1      -8.055   2.831  72.584  1.00  0.00    -0.059 C  
BRANCH   3   5
HETATM    5  C   UNL     1      -5.845   3.479  71.612  1.00  0.00    -0.013 C  
HETATM    6  C   UNL     1      -5.167   3.054  72.905  1.00  0.00     0.000 C  
ENDBRANCH   3   5
BRANCH   3   7
HETATM    7  C   UNL     1      -7.424   5.262  72.577  1.00  0.00    -0.096 C  
BRANCH   7   8
HETATM    8  C   UNL     1      -8.220   6.352  71.855  1.00  0.00    -0.109 C  
BRANCH   8   9
HETATM    9  O   UNL     1      -7.355   7.250  71.156  1.00  0.00    -0.072 OA 
BRANCH   9  10
HETATM   10  C   UNL     1      -7.687   8.571  71.295  1.00  0.00    -0.108 C  
HETATM   11  O   UNL     1      -7.050   9.353  71.991  1.00  0.00    -0.291 OA 
BRANCH  10  12
HETATM   12  C   UNL     1      -8.824   8.958  70.356  1.00  0.00    -0.204 C  
HETATM   13  C   UNL     1      -8.457   8.487  68.966  1.00  0.00    -0.126 A  
HETATM   14  C   UNL     1      -7.297   8.971  68.334  1.00  0.00    -0.078 A  
HETATM   15  C   UNL     1      -6.877   8.430  67.120  1.00  0.00    -0.070 A  
HETATM   16  C   UNL     1      -7.622   7.419  66.517  1.00  0.00    -0.092 A  
HETATM   17  C   UNL     1      -8.785   6.949  67.130  1.00  0.00    -0.120 A  
HETATM   18  C   UNL     1      -9.195   7.473  68.356  1.00  0.00    -0.139 A  
HETATM   19  O   UNL     1     -10.325   6.919  68.907  1.00  0.00    -0.173 OA 
HETATM   20  C   UNL     1     -10.787   7.407  70.106  1.00  0.00    -0.256 A  
HETATM   21  C   UNL     1     -11.972   6.842  70.582  1.00  0.00    -0.400 A  
HETATM   22  C   UNL     1     -12.512   7.264  71.797  1.00  0.00    -0.378 A  
HETATM   23  C   UNL     1     -11.874   8.260  72.534  1.00  0.00    -0.439 A  
HETATM   24  C   UNL     1     -10.694   8.831  72.057  1.00  0.00    -0.417 A  
HETATM   25  C   UNL     1     -10.135   8.398  70.843  1.00  0.00    -0.234 A  
ENDBRANCH  10  12
ENDBRANCH   9  10
ENDBRANCH   8   9
ENDBRANCH   7   8
ENDBRANCH   3   7
ENDBRANCH   2   3
TORSDOF 7
ENDMDL
MODEL      280
REMARK 921   NORMALIZED FREE ENERGY PREDICTED BY IDOCK:   -1.97 KCAL/MOL
REMARK 922        TOTAL FREE ENERGY PREDICTED BY IDOCK:   -4.09 KCAL/MOL
REMARK 923 INTER-LIGAND FREE ENERGY PREDICTED BY IDOCK:   -3.40 KCAL/MOL
REMARK 924 INTRA-LIGAND FREE ENERGY PREDICTED BY IDOCK:   -0.70 KCAL/MOL
REMARK 927      BINDING AFFINITY PREDICTED BY RF-SCORE:    0.00 PKD
ROOT
HETATM    1  C   UNL     1      -6.073   6.413  63.562  1.00  0.00    -0.022 C  
HETATM    2  C   UNL     1      -5.693   7.569  64.474  1.00  0.00    -0.037 C  
ENDROOT
BRANCH   2   3
HETATM    3  N   UNL     1      -6.838   8.582  64.740  1.00  0.00    -0.072 N  
HETATM    4  C   UNL     1      -6.222   9.954  65.070  1.00  0.00    -0.102 C  
BRANCH   3   5
HETATM    5  C   UNL     1      -7.785   8.746  63.537  1.00  0.00    -0.132 C  
HETATM    6  C   UNL     1      -7.720  10.121  62.889  1.00  0.00    -0.148 C  
ENDBRANCH   3   5
BRANCH   3   7
HETATM    7  C   UNL     1      -7.577   8.057  66.004  1.00  0.00    -0.085 C  
BRANCH   7   8
HETATM    8  C   UNL     1      -6.658   7.698  67.175  1.00  0.00    -0.063 C  
BRANCH   8   9
HETATM    9  O   UNL     1      -7.251   8.048  68.427  1.00  0.00    -0.084 OA 
BRANCH   9  10
HETATM   10  C   UNL     1      -7.472   6.984  69.261  1.00  0.00    -0.094 C  
HETATM   11  O   UNL     1      -6.591   6.476  69.946  1.00  0.00    -0.045 OA 
BRANCH  10  12
HETATM   12  C   UNL     1      -8.955   6.642  69.342  1.00  0.00    -0.133 C  
HETATM   13  C   UNL     1      -9.735   7.931  69.213  1.00  0.00    -0.159 A  
HETATM   14  C   UNL     1      -9.560   8.965  70.151  1.00  0.00    -0.199 A  
HETATM   15  C   UNL     1     -10.163  10.206  69.953  1.00  0.00    -0.284 A  
HETATM   16  C   UNL     1     -10.962  10.418  68.833  1.00  0.00    -0.289 A  
HETATM   17  C   UNL     1     -11.155   9.389  67.909  1.00  0.00     0.011 A  
HETATM   18  C   UNL     1     -10.535   8.153  68.093  1.00  0.00    -0.170 A  
HETATM   19  O   UNL     1     -10.745   7.215  67.111  1.00  0.00    -0.307 OA 
HETATM   20  C   UNL     1     -10.173   5.973  67.247  1.00  0.00    -0.195 A  
HETATM   21  C   UNL     1     -10.473   5.047  66.245  1.00  0.00    -0.352 A  
HETATM   22  C   UNL     1      -9.929   3.764  66.290  1.00  0.00     0.023 A  
HETATM   23  C   UNL     1      -9.092   3.399  67.343  1.00  0.00    -0.199 A  
HETATM   24  C   UNL     1      -8.795   4.319  68.348  1.00  0.00    -0.135 A  
HETATM   25  C   UNL     1      -9.326   5.620  68.299  1.00  0.00    -0.123 A  
ENDBRANCH  10  12
ENDBRANCH   9  10
ENDBRANCH   8   9
ENDBRANCH   7   8
ENDBRANCH   3   7
ENDBRANCH   2   3
TORSDOF 7
ENDMDL
MODEL      281
REMARK 921   NORMALIZED FREE ENERGY PREDICTED BY IDOCK:   -1.90 KCAL/MOL
REMARK 922        TOTAL FREE ENERGY PREDICTED BY IDOCK:   -4.00 KCAL/MOL
REMARK 923 INTER-LIGAND FREE ENERGY PREDICTED BY IDOCK:   -3.83 KCAL/MOL
REMARK 924 INTRA-LIGAND FREE ENERGY PREDICTED BY IDOCK:   -0.17 KCAL/MOL
REMARK 927      BINDING AFFINITY PREDICTED BY RF-SCORE:    0.00 PKD
ROOT
HETATM    1  C   UNL     1      -9.149   7.644  72.611  1.00  0.00    -0.209 C  
HETATM    2  C   UNL     1      -8.424   7.567  71.278  1.00  0.00    -0.116 C  
ENDROOT
BRANCH   2   3
HETATM    3  N   UNL     1      -6.956   8.068  71.313  1.00  0.00    -0.053 N  
HETATM    4  C   UNL     1      -6.462   8.062  72.771  1.00  0.00    -0.077 C  
BRANCH   3   5
HETATM    5  C   UNL     1      -6.005   7.199  70.469  1.00  0.00    -0.027 C  
HETATM    6  C   UNL     1      -6.460   5.755  70.326  1.00  0.00    -0.036 C  
ENDBRANCH   3   5
BRANCH   3   7
HETATM    7  C   UNL     1      -7.003   9.542  70.816  1.00  0.00    -0.102 C  
BRANCH   7   8
HETATM    8  C   UNL     1      -5.854   9.935  69.884  1.00  0.00    -0.043 C  
BRANCH   8   9
HETATM    9  O   UNL     1      -6.336  10.293  68.587  1.00  0.00    -0.051 OA 
BRANCH   9  10
HETATM   10  C   UNL     1      -7.565  10.897  68.593  1.00  0.00    -0.114 C  
HETATM   11  O   UNL     1      -7.737  12.064  68.928  1.00  0.00    -0.087 OA 
BRANCH  10  12
HETATM   12  C   UNL     1      -8.630   9.994  67.981  1.00  0.00    -0.121 C  
HETATM   13  C   UNL     1      -9.951  10.324  68.640  1.00  0.00    -0.183 A  
HETATM   14  C   UNL     1     -10.112  10.169  70.029  1.00  0.00    -0.241 A  
HETATM   15  C   UNL     1     -11.274  10.611  70.659  1.00  0.00    -0.182 A  
HETATM   16  C   UNL     1     -12.292  11.191  69.906  1.00  0.00    -0.330 A  
HETATM   17  C   UNL     1     -12.147  11.330  68.524  1.00  0.00    -0.161 A  
HETATM   18  C   UNL     1     -10.975  10.908  67.895  1.00  0.00    -0.271 A  
HETATM   19  O   UNL     1     -10.901  11.126  66.541  1.00  0.00    -0.274 OA 
HETATM   20  C   UNL     1      -9.777  10.715  65.863  1.00  0.00    -0.223 A  
HETATM   21  C   UNL     1      -9.789  10.912  64.480  1.00  0.00    -0.356 A  
HETATM   22  C   UNL     1      -8.689  10.539  63.709  1.00  0.00    -0.185 A  
HETATM   23  C   UNL     1      -7.577   9.958  64.318  1.00  0.00    -0.139 A  
HETATM   24  C   UNL     1      -7.565   9.755  65.697  1.00  0.00    -0.109 A  
HETATM   25  C   UNL     1      -8.664  10.145  66.482  1.00  0.00    -0.139 A  
ENDBRANCH  10  12
ENDBRANCH   9  10
ENDBRANCH   8   9
ENDBRANCH   7   8
ENDBRANCH   3   7
ENDBRANCH   2   3
TORSDOF 7
ENDMDL
MODEL      282
REMARK 921   NORMALIZED FREE ENERGY PREDICTED BY IDOCK:   -1.89 KCAL/MOL
REMARK 922        TOTAL FREE ENERGY PREDICTED BY IDOCK:   -3.98 KCAL/MOL
REMARK 923 INTER-LIGAND FREE ENERGY PREDICTED BY IDOCK:   -3.11 KCAL/MOL
REMARK 924 INTRA-LIGAND FREE ENERGY PREDICTED BY IDOCK:   -0.87 KCAL/MOL
REMARK 927      BINDING AFFINITY PREDICTED BY RF-SCORE:    0.00 PKD
ROOT
HETATM    1  C   UNL     1     -12.394  14.377  71.014  1.00  0.00    -0.427 C  
HETATM    2  C   UNL     1     -12.521  14.471  69.502  1.00  0.00    -0.125 C  
ENDROOT
BRANCH   2   3
HETATM    3  N   UNL     1     -11.494  13.614  68.715  1.00  0.00    -0.285 N  
HETATM    4  C   UNL     1     -11.918  13.562  67.237  1.00  0.00    -0.365 C  
BRANCH   3   5
HETATM    5  C   UNL     1     -10.060  14.171  68.796  1.00  0.00    -0.198 C  
HETATM    6  C   UNL     1      -9.351  14.232  67.452  1.00  0.00    -0.203 C  
ENDBRANCH   3   5
BRANCH   3   7
HETATM    7  C   UNL     1     -11.602  12.180  69.309  1.00  0.00    -0.318 C  
BRANCH   7   8
HETATM    8  C   UNL     1     -10.273  11.425  69.391  1.00  0.00     0.116 C  
BRANCH   8   9
HETATM    9  O   UNL     1     -10.238  10.333  68.469  1.00  0.00    -0.160 OA 
BRANCH   9  10
HETATM   10  C   UNL     1      -9.481   9.271  68.885  1.00  0.00    -0.154 C  
HETATM   11  O   UNL     1      -9.920   8.372  69.593  1.00  0.00    -0.185 OA 
BRANCH  10  12
HETATM   12  C   UNL     1      -8.108   9.275  68.223  1.00  0.00    -0.107 C  
HETATM   13  C   UNL     1      -8.312   9.459  66.736  1.00  0.00    -0.123 A  
HETATM   14  C   UNL     1      -9.056   8.519  65.998  1.00  0.00    -0.246 A  
HETATM   15  C   UNL     1      -9.370   8.761  64.662  1.00  0.00     0.482 A  
HETATM   16  C   UNL     1      -8.928   9.929  64.046  1.00  0.00    -0.276 A  
HETATM   17  C   UNL     1      -8.173  10.856  64.767  1.00  0.00     0.146 A  
HETATM   18  C   UNL     1      -7.875  10.627  66.110  1.00  0.00    -0.152 A  
HETATM   19  O   UNL     1      -7.167  11.613  66.753  1.00  0.00    -0.137 OA 
HETATM   20  C   UNL     1      -6.829  11.435  68.073  1.00  0.00    -0.067 A  
HETATM   21  C   UNL     1      -6.058  12.447  68.651  1.00  0.00    -0.065 A  
HETATM   22  C   UNL     1      -5.677  12.361  69.989  1.00  0.00    -0.141 A  
HETATM   23  C   UNL     1      -6.057  11.258  70.752  1.00  0.00     0.115 A  
HETATM   24  C   UNL     1      -6.821  10.243  70.176  1.00  0.00    -0.152 A  
HETATM   25  C   UNL     1      -7.223  10.332  68.833  1.00  0.00    -0.086 A  
ENDBRANCH  10  12
ENDBRANCH   9  10
ENDBRANCH   8   9
ENDBRANCH   7   8
ENDBRANCH   3   7
ENDBRANCH   2   3
TORSDOF 7
ENDMDL
MODEL      283
REMARK 921   NORMALIZED FREE ENERGY PREDICTED BY IDOCK:   -1.77 KCAL/MOL
REMARK 922        TOTAL FREE ENERGY PREDICTED BY IDOCK:   -3.81 KCAL/MOL
REMARK 923 INTER-LIGAND FREE ENERGY PREDICTED BY IDOCK:   -4.40 KCAL/MOL
REMARK 924 INTRA-LIGAND FREE ENERGY PREDICTED BY IDOCK:    0.59 KCAL/MOL
REMARK 927      BINDING AFFINITY PREDICTED BY RF-SCORE:    0.00 PKD
ROOT
HETATM    1  C   UNL     1      -7.668   4.235  68.733  1.00  0.00    -0.066 C  
HETATM    2  C   UNL     1      -8.786   4.623  69.687  1.00  0.00    -0.083 C  
ENDROOT
BRANCH   2   3
HETATM    3  N   UNL     1      -8.554   4.193  71.160  1.00  0.00    -0.083 N  
HETATM    4  C   UNL     1      -9.426   2.962  71.463  1.00  0.00    -0.146 C  
BRANCH   3   5
HETATM    5  C   UNL     1      -7.085   3.840  71.457  1.00  0.00    -0.032 C  
HETATM    6  C   UNL     1      -6.917   2.646  72.384  1.00  0.00    -0.027 C  
ENDBRANCH   3   5
BRANCH   3   7
HETATM    7  C   UNL     1      -9.061   5.381  72.029  1.00  0.00    -0.137 C  
BRANCH   7   8
HETATM    8  C   UNL     1      -9.162   6.715  71.284  1.00  0.00    -0.155 C  
BRANCH   8   9
HETATM    9  O   UNL     1      -9.973   6.594  70.113  1.00  0.00    -0.172 OA 
BRANCH   9  10
HETATM   10  C   UNL     1     -10.137   7.765  69.421  1.00  0.00    -0.195 C  
HETATM   11  O   UNL     1     -10.697   7.828  68.333  1.00  0.00    -0.150 OA 
BRANCH  10  12
HETATM   12  C   UNL     1      -9.691   8.965  70.249  1.00  0.00    -0.212 C  
HETATM   13  C   UNL     1      -8.763   9.798  69.393  1.00  0.00    -0.178 A  
HETATM   14  C   UNL     1      -7.567   9.248  68.897  1.00  0.00    -0.075 A  
HETATM   15  C   UNL     1      -6.785   9.961  67.990  1.00  0.00    -0.061 A  
HETATM   16  C   UNL     1      -7.178  11.235  67.588  1.00  0.00    -0.092 A  
HETATM   17  C   UNL     1      -8.354  11.794  68.092  1.00  0.00    -0.156 A  
HETATM   18  C   UNL     1      -9.150  11.074  68.983  1.00  0.00    -0.063 A  
HETATM   19  O   UNL     1     -10.311  11.684  69.391  1.00  0.00    -0.019 OA 
HETATM   20  C   UNL     1     -11.126  11.030  70.283  1.00  0.00    -0.003 A  
HETATM   21  C   UNL     1     -12.260  11.728  70.704  1.00  0.00    -0.443 A  
HETATM   22  C   UNL     1     -13.155  11.141  71.598  1.00  0.00    -0.529 A  
HETATM   23  C   UNL     1     -12.912   9.857  72.083  1.00  0.00    -0.471 A  
HETATM   24  C   UNL     1     -11.777   9.159  71.670  1.00  0.00    -0.448 A  
HETATM   25  C   UNL     1     -10.881   9.739  70.755  1.00  0.00    -0.403 A  
ENDBRANCH  10  12
ENDBRANCH   9  10
ENDBRANCH   8   9
ENDBRANCH   7   8
ENDBRANCH   3   7
ENDBRANCH   2   3
TORSDOF 7
ENDMDL
MODEL      284
REMARK 921   NORMALIZED FREE ENERGY PREDICTED BY IDOCK:   -1.65 KCAL/MOL
REMARK 922        TOTAL FREE ENERGY PREDICTED BY IDOCK:   -3.65 KCAL/MOL
REMARK 923 INTER-LIGAND FREE ENERGY PREDICTED BY IDOCK:   -3.80 KCAL/MOL
REMARK 924 INTRA-LIGAND FREE ENERGY PREDICTED BY IDOCK:    0.15 KCAL/MOL
REMARK 927      BINDING AFFINITY PREDICTED BY RF-SCORE:    0.00 PKD
ROOT
HETATM    1  C   UNL     1     -11.728  10.158  70.523  1.00  0.00    -0.407 C  
HETATM    2  C   UNL     1     -12.010   9.340  71.773  1.00  0.00    -0.385 C  
ENDROOT
BRANCH   2   3
HETATM    3  N   UNL     1     -11.896   7.804  71.576  1.00  0.00    -0.283 N  
HETATM    4  C   UNL     1     -11.394   7.170  72.885  1.00  0.00    -0.217 C  
BRANCH   3   5
HETATM    5  C   UNL     1     -13.236   7.147  71.195  1.00  0.00    -0.191 C  
HETATM    6  C   UNL     1     -14.409   7.611  72.045  1.00  0.00    -0.455 C  
ENDBRANCH   3   5
BRANCH   3   7
HETATM    7  C   UNL     1     -10.809   7.601  70.481  1.00  0.00    -0.241 C  
BRANCH   7   8
HETATM    8  C   UNL     1     -11.256   6.743  69.294  1.00  0.00    -0.205 C  
BRANCH   8   9
HETATM    9  O   UNL     1     -10.164   5.997  68.753  1.00  0.00    -0.157 OA 
BRANCH   9  10
HETATM   10  C   UNL     1      -9.189   6.766  68.176  1.00  0.00    -0.121 C  
HETATM   11  O   UNL     1      -8.707   7.755  68.717  1.00  0.00    -0.128 OA 
BRANCH  10  12
HETATM   12  C   UNL     1      -8.684   6.142  66.880  1.00  0.00    -0.109 C  
HETATM   13  C   UNL     1      -8.285   7.266  65.950  1.00  0.00    -0.132 A  
HETATM   14  C   UNL     1      -9.235   8.218  65.536  1.00  0.00    -0.000 A  
HETATM   15  C   UNL     1      -8.840   9.335  64.802  1.00  0.00    -0.225 A  
HETATM   16  C   UNL     1      -7.501   9.500  64.456  1.00  0.00    -0.114 A  
HETATM   17  C   UNL     1      -6.557   8.548  64.848  1.00  0.00    -0.068 A  
HETATM   18  C   UNL     1      -6.946   7.441  65.601  1.00  0.00    -0.060 A  
HETATM   19  O   UNL     1      -5.944   6.581  65.980  1.00  0.00    -0.027 OA 
HETATM   20  C   UNL     1      -6.269   5.462  66.709  1.00  0.00    -0.035 A  
HETATM   21  C   UNL     1      -5.214   4.599  67.012  1.00  0.00    -0.008 A  
HETATM   22  C   UNL     1      -5.444   3.444  67.759  1.00  0.00    -0.017 A  
HETATM   23  C   UNL     1      -6.732   3.144  68.197  1.00  0.00    -0.045 A  
HETATM   24  C   UNL     1      -7.789   4.001  67.891  1.00  0.00    -0.078 A  
HETATM   25  C   UNL     1      -7.561   5.175  67.154  1.00  0.00    -0.092 A  
ENDBRANCH  10  12
ENDBRANCH   9  10
ENDBRANCH   8   9
ENDBRANCH   7   8
ENDBRANCH   3   7
ENDBRANCH   2   3
TORSDOF 7
ENDMDL
MODEL      285
REMARK 921   NORMALIZED FREE ENERGY PREDICTED BY IDOCK:   -1.56 KCAL/MOL
REMARK 922        TOTAL FREE ENERGY PREDICTED BY IDOCK:   -3.51 KCAL/MOL
REMARK 923 INTER-LIGAND FREE ENERGY PREDICTED BY IDOCK:   -4.17 KCAL/MOL
REMARK 924 INTRA-LIGAND FREE ENERGY PREDICTED BY IDOCK:    0.66 KCAL/MOL
REMARK 927      BINDING AFFINITY PREDICTED BY RF-SCORE:    0.00 PKD
ROOT
HETATM    1  C   UNL     1     -12.076  14.359  73.526  1.00  0.00     0.077 C  
HETATM    2  C   UNL     1     -11.428  15.167  72.413  1.00  0.00    -0.298 C  
ENDROOT
BRANCH   2   3
HETATM    3  N   UNL     1     -11.935  14.821  70.988  1.00  0.00    -0.313 N  
HETATM    4  C   UNL     1     -12.330  13.334  70.947  1.00  0.00    -0.329 C  
BRANCH   3   5
HETATM    5  C   UNL     1     -13.151  15.664  70.562  1.00  0.00    -0.108 C  
HETATM    6  C   UNL     1     -14.347  15.527  71.492  1.00  0.00    -0.452 C  
ENDBRANCH   3   5
BRANCH   3   7
HETATM    7  C   UNL     1     -10.714  15.032  70.046  1.00  0.00    -0.192 C  
BRANCH   7   8
HETATM    8  C   UNL     1     -10.973  14.673  68.580  1.00  0.00    -0.256 C  
BRANCH   8   9
HETATM    9  O   UNL     1      -9.771  14.741  67.809  1.00  0.00    -0.211 OA 
BRANCH   9  10
HETATM   10  C   UNL     1      -9.361  13.536  67.303  1.00  0.00    -0.233 C  
HETATM   11  O   UNL     1     -10.131  12.718  66.814  1.00  0.00    -0.229 OA 
BRANCH  10  12
HETATM   12  C   UNL     1      -7.840  13.432  67.280  1.00  0.00    -0.107 C  
HETATM   13  C   UNL     1      -7.287  14.568  68.111  1.00  0.00    -0.129 A  
HETATM   14  C   UNL     1      -7.555  15.904  67.758  1.00  0.00    -0.157 A  
HETATM   15  C   UNL     1      -7.173  16.946  68.601  1.00  0.00    -0.215 A  
HETATM   16  C   UNL     1      -6.504  16.667  69.790  1.00  0.00    -0.128 A  
HETATM   17  C   UNL     1      -6.218  15.345  70.136  1.00  0.00    -0.113 A  
HETATM   18  C   UNL     1      -6.617  14.298  69.305  1.00  0.00    -0.120 A  
HETATM   19  O   UNL     1      -6.334  13.029  69.746  1.00  0.00    -0.119 OA 
HETATM   20  C   UNL     1      -6.689  11.958  68.961  1.00  0.00    -0.099 A  
HETATM   21  C   UNL     1      -6.320  10.698  69.439  1.00  0.00    -0.060 A  
HETATM   22  C   UNL     1      -6.648   9.551  68.717  1.00  0.00    -0.051 A  
HETATM   23  C   UNL     1      -7.336   9.660  67.510  1.00  0.00    -0.090 A  
HETATM   24  C   UNL     1      -7.700  10.918  67.028  1.00  0.00    -0.129 A  
HETATM   25  C   UNL     1      -7.389  12.077  67.759  1.00  0.00    -0.113 A  
ENDBRANCH  10  12
ENDBRANCH   9  10
ENDBRANCH   8   9
ENDBRANCH   7   8
ENDBRANCH   3   7
ENDBRANCH   2   3
TORSDOF 7
ENDMDL
MODEL      286
REMARK 921   NORMALIZED FREE ENERGY PREDICTED BY IDOCK:   -1.46 KCAL/MOL
REMARK 922        TOTAL FREE ENERGY PREDICTED BY IDOCK:   -3.38 KCAL/MOL
REMARK 923 INTER-LIGAND FREE ENERGY PREDICTED BY IDOCK:   -3.25 KCAL/MOL
REMARK 924 INTRA-LIGAND FREE ENERGY PREDICTED BY IDOCK:   -0.14 KCAL/MOL
REMARK 927      BINDING AFFINITY PREDICTED BY RF-SCORE:    0.00 PKD
ROOT
HETATM    1  C   UNL     1     -12.627   8.444  71.910  1.00  0.00    -0.389 C  
HETATM    2  C   UNL     1     -12.152   9.125  70.637  1.00  0.00    -0.068 C  
ENDROOT
BRANCH   2   3
HETATM    3  N   UNL     1     -10.749   8.673  70.150  1.00  0.00    -0.232 N  
HETATM    4  C   UNL     1      -9.682   9.570  70.803  1.00  0.00    -0.219 C  
BRANCH   3   5
HETATM    5  C   UNL     1     -10.437   7.205  70.500  1.00  0.00    -0.212 C  
HETATM    6  C   UNL     1     -11.348   6.204  69.807  1.00  0.00    -0.452 C  
ENDBRANCH   3   5
BRANCH   3   7
HETATM    7  C   UNL     1     -10.735   8.927  68.615  1.00  0.00    -0.078 C  
BRANCH   7   8
HETATM    8  C   UNL     1      -9.758  10.015  68.160  1.00  0.00    -0.140 C  
BRANCH   8   9
HETATM    9  O   UNL     1      -8.967   9.573  67.055  1.00  0.00    -0.133 OA 
BRANCH   9  10
HETATM   10  C   UNL     1      -8.736  10.538  66.110  1.00  0.00    -0.158 C  
HETATM   11  O   UNL     1      -9.626  11.223  65.619  1.00  0.00    -0.214 OA 
BRANCH  10  12
HETATM   12  C   UNL     1      -7.243  10.749  65.888  1.00  0.00    -0.091 C  
HETATM   13  C   UNL     1      -6.565  10.721  67.240  1.00  0.00    -0.075 A  
HETATM   14  C   UNL     1      -6.911  11.660  68.229  1.00  0.00    -0.074 A  
HETATM   15  C   UNL     1      -6.399  11.546  69.520  1.00  0.00    -0.116 A  
HETATM   16  C   UNL     1      -5.523  10.509  69.829  1.00  0.00    -0.040 A  
HETATM   17  C   UNL     1      -5.161   9.585  68.847  1.00  0.00    -0.037 A  
HETATM   18  C   UNL     1      -5.689   9.684  67.560  1.00  0.00    -0.040 A  
HETATM   19  O   UNL     1      -5.313   8.706  66.671  1.00  0.00    -0.034 OA 
HETATM   20  C   UNL     1      -5.788   8.761  65.383  1.00  0.00    -0.048 A  
HETATM   21  C   UNL     1      -5.321   7.772  64.514  1.00  0.00    -0.029 A  
HETATM   22  C   UNL     1      -5.757   7.738  63.190  1.00  0.00    -0.055 A  
HETATM   23  C   UNL     1      -6.652   8.701  62.727  1.00  0.00    -0.091 A  
HETATM   24  C   UNL     1      -7.115   9.694  63.591  1.00  0.00    -0.110 A  
HETATM   25  C   UNL     1      -6.693   9.722  64.931  1.00  0.00    -0.112 A  
ENDBRANCH  10  12
ENDBRANCH   9  10
ENDBRANCH   8   9
ENDBRANCH   7   8
ENDBRANCH   3   7
ENDBRANCH   2   3
TORSDOF 7
ENDMDL
MODEL      287
REMARK 921   NORMALIZED FREE ENERGY PREDICTED BY IDOCK:   -1.45 KCAL/MOL
REMARK 922        TOTAL FREE ENERGY PREDICTED BY IDOCK:   -3.36 KCAL/MOL
REMARK 923 INTER-LIGAND FREE ENERGY PREDICTED BY IDOCK:   -2.75 KCAL/MOL
REMARK 924 INTRA-LIGAND FREE ENERGY PREDICTED BY IDOCK:   -0.61 KCAL/MOL
REMARK 927      BINDING AFFINITY PREDICTED BY RF-SCORE:    0.00 PKD
ROOT
HETATM    1  C   UNL     1      -7.878   7.594  63.938  1.00  0.00    -0.122 C  
HETATM    2  C   UNL     1      -7.629   6.680  65.127  1.00  0.00    -0.090 C  
ENDROOT
BRANCH   2   3
HETATM    3  N   UNL     1      -7.842   5.171  64.835  1.00  0.00    -0.089 N  
HETATM    4  C   UNL     1      -8.842   5.024  63.674  1.00  0.00    -0.025 C  
BRANCH   3   5
HETATM    5  C   UNL     1      -6.539   4.444  64.454  1.00  0.00    -0.043 C  
HETATM    6  C   UNL     1      -5.590   5.286  63.615  1.00  0.00    -0.013 C  
ENDBRANCH   3   5
BRANCH   3   7
HETATM    7  C   UNL     1      -8.491   4.582  66.121  1.00  0.00    -0.113 C  
BRANCH   7   8
HETATM    8  C   UNL     1      -9.288   5.592  66.950  1.00  0.00    -0.127 C  
BRANCH   8   9
HETATM    9  O   UNL     1      -9.307   5.228  68.333  1.00  0.00    -0.111 OA 
BRANCH   9  10
HETATM   10  C   UNL     1      -8.409   5.914  69.106  1.00  0.00    -0.106 C  
HETATM   11  O   UNL     1      -7.206   5.680  69.102  1.00  0.00    -0.066 OA 
BRANCH  10  12
HETATM   12  C   UNL     1      -9.073   7.084  69.822  1.00  0.00    -0.144 C  
HETATM   13  C   UNL     1      -9.237   6.704  71.276  1.00  0.00    -0.155 A  
HETATM   14  C   UNL     1     -10.012   5.585  71.636  1.00  0.00    -0.233 A  
HETATM   15  C   UNL     1     -10.044   5.145  72.958  1.00  0.00    -0.198 A  
HETATM   16  C   UNL     1      -9.324   5.829  73.934  1.00  0.00    -0.135 A  
HETATM   17  C   UNL     1      -8.570   6.951  73.587  1.00  0.00    -0.156 A  
HETATM   18  C   UNL     1      -8.518   7.381  72.261  1.00  0.00    -0.112 A  
HETATM   19  O   UNL     1      -7.714   8.465  72.003  1.00  0.00    -0.118 OA 
HETATM   20  C   UNL     1      -7.637   8.944  70.718  1.00  0.00    -0.103 A  
HETATM   21  C   UNL     1      -6.851  10.084  70.534  1.00  0.00    -0.110 A  
HETATM   22  C   UNL     1      -6.702  10.636  69.262  1.00  0.00    -0.075 A  
HETATM   23  C   UNL     1      -7.347  10.056  68.171  1.00  0.00    -0.083 A  
HETATM   24  C   UNL     1      -8.138   8.921  68.353  1.00  0.00    -0.109 A  
HETATM   25  C   UNL     1      -8.278   8.350  69.629  1.00  0.00    -0.117 A  
ENDBRANCH  10  12
ENDBRANCH   9  10
ENDBRANCH   8   9
ENDBRANCH   7   8
ENDBRANCH   3   7
ENDBRANCH   2   3
TORSDOF 7
ENDMDL
MODEL      288
REMARK 921   NORMALIZED FREE ENERGY PREDICTED BY IDOCK:   -1.20 KCAL/MOL
REMARK 922        TOTAL FREE ENERGY PREDICTED BY IDOCK:   -3.01 KCAL/MOL
REMARK 923 INTER-LIGAND FREE ENERGY PREDICTED BY IDOCK:   -3.57 KCAL/MOL
REMARK 924 INTRA-LIGAND FREE ENERGY PREDICTED BY IDOCK:    0.56 KCAL/MOL
REMARK 927      BINDING AFFINITY PREDICTED BY RF-SCORE:    0.00 PKD
ROOT
HETATM    1  C   UNL     1      -8.225  14.113  70.257  1.00  0.00     1.867 C  
HETATM    2  C   UNL     1      -7.427  13.560  69.088  1.00  0.00     0.125 C  
ENDROOT
BRANCH   2   3
HETATM    3  N   UNL     1      -5.899  13.461  69.341  1.00  0.00    -0.087 N  
HETATM    4  C   UNL     1      -5.660  13.112  70.820  1.00  0.00    -0.187 C  
BRANCH   3   5
HETATM    5  C   UNL     1      -5.214  12.393  68.467  1.00  0.00    -0.052 C  
HETATM    6  C   UNL     1      -5.681  10.974  68.757  1.00  0.00    -0.039 C  
ENDBRANCH   3   5
BRANCH   3   7
HETATM    7  C   UNL     1      -5.337  14.888  69.074  1.00  0.00    -0.094 C  
BRANCH   7   8
HETATM    8  C   UNL     1      -6.341  16.020  69.306  1.00  0.00    -0.158 C  
BRANCH   8   9
HETATM    9  O   UNL     1      -6.289  16.983  68.251  1.00  0.00    -0.138 OA 
BRANCH   9  10
HETATM   10  C   UNL     1      -7.034  16.652  67.151  1.00  0.00    -0.191 C  
HETATM   11  O   UNL     1      -6.538  16.295  66.089  1.00  0.00     0.206 OA 
BRANCH  10  12
HETATM   12  C   UNL     1      -8.523  16.627  67.477  1.00  0.00    -0.199 C  
HETATM   13  C   UNL     1      -9.056  18.033  67.311  1.00  0.00    -0.255 A  
HETATM   14  C   UNL     1      -8.541  19.085  68.091  1.00  0.00    -0.355 A  
HETATM   15  C   UNL     1      -8.923  20.402  67.839  1.00  0.00    -0.206 A  
HETATM   16  C   UNL     1      -9.835  20.677  66.823  1.00  0.00    -0.342 A  
HETATM   17  C   UNL     1     -10.364  19.635  66.059  1.00  0.00    -0.620 A  
HETATM   18  C   UNL     1      -9.967  18.318  66.295  1.00  0.00    -0.357 A  
HETATM   19  O   UNL     1     -10.504  17.364  65.465  1.00  0.00    -0.624 OA 
HETATM   20  C   UNL     1     -10.163  16.047  65.661  1.00  0.00    -0.386 A  
HETATM   21  C   UNL     1     -10.788  15.120  64.823  1.00  0.00    -0.378 A  
HETATM   22  C   UNL     1     -10.496  13.762  64.938  1.00  0.00    -0.437 A  
HETATM   23  C   UNL     1      -9.586  13.324  65.899  1.00  0.00    -0.122 A  
HETATM   24  C   UNL     1      -8.965  14.246  66.741  1.00  0.00    -0.249 A  
HETATM   25  C   UNL     1      -9.242  15.618  66.619  1.00  0.00    -0.294 A  
ENDBRANCH  10  12
ENDBRANCH   9  10
ENDBRANCH   8   9
ENDBRANCH   7   8
ENDBRANCH   3   7
ENDBRANCH   2   3
TORSDOF 7
ENDMDL
MODEL      289
REMARK 921   NORMALIZED FREE ENERGY PREDICTED BY IDOCK:   -1.19 KCAL/MOL
REMARK 922        TOTAL FREE ENERGY PREDICTED BY IDOCK:   -3.00 KCAL/MOL
REMARK 923 INTER-LIGAND FREE ENERGY PREDICTED BY IDOCK:   -3.08 KCAL/MOL
REMARK 924 INTRA-LIGAND FREE ENERGY PREDICTED BY IDOCK:    0.08 KCAL/MOL
REMARK 927      BINDING AFFINITY PREDICTED BY RF-SCORE:    0.00 PKD
ROOT
HETATM    1  C   UNL     1      -9.589   7.218  74.005  1.00  0.00    -0.288 C  
HETATM    2  C   UNL     1     -10.563   6.496  73.089  1.00  0.00    -0.265 C  
ENDROOT
BRANCH   2   3
HETATM    3  N   UNL     1     -10.908   7.262  71.784  1.00  0.00    -0.223 N  
HETATM    4  C   UNL     1     -12.371   7.736  71.855  1.00  0.00    -0.310 C  
BRANCH   3   5
HETATM    5  C   UNL     1     -10.006   8.489  71.552  1.00  0.00    -0.244 C  
HETATM    6  C   UNL     1     -10.629   9.548  70.656  1.00  0.00    -0.374 C  
ENDBRANCH   3   5
BRANCH   3   7
HETATM    7  C   UNL     1     -10.784   6.216  70.638  1.00  0.00    -0.275 C  
BRANCH   7   8
HETATM    8  C   UNL     1      -9.570   6.414  69.726  1.00  0.00    -0.151 C  
BRANCH   8   9
HETATM    9  O   UNL     1      -8.455   6.938  70.452  1.00  0.00    -0.131 OA 
BRANCH   9  10
HETATM   10  C   UNL     1      -7.350   6.130  70.441  1.00  0.00    -0.089 C  
HETATM   11  O   UNL     1      -7.413   4.907  70.381  1.00  0.00    -0.056 OA 
BRANCH  10  12
HETATM   12  C   UNL     1      -6.067   6.947  70.345  1.00  0.00    -0.024 C  
HETATM   13  C   UNL     1      -6.250   7.968  69.244  1.00  0.00    -0.035 A  
HETATM   14  C   UNL     1      -6.503   7.553  67.924  1.00  0.00    -0.054 A  
HETATM   15  C   UNL     1      -6.818   8.487  66.939  1.00  0.00    -0.069 A  
HETATM   16  C   UNL     1      -6.862   9.842  67.257  1.00  0.00    -0.083 A  
HETATM   17  C   UNL     1      -6.593  10.262  68.561  1.00  0.00    -0.052 A  
HETATM   18  C   UNL     1      -6.298   9.327  69.554  1.00  0.00    -0.043 A  
HETATM   19  O   UNL     1      -6.092   9.826  70.817  1.00  0.00    -0.075 OA 
HETATM   20  C   UNL     1      -5.781   8.955  71.833  1.00  0.00    -0.062 A  
HETATM   21  C   UNL     1      -5.525   9.531  73.079  1.00  0.00     0.040 A  
HETATM   22  C   UNL     1      -5.213   8.726  74.174  1.00  0.00    -0.102 A  
HETATM   23  C   UNL     1      -5.146   7.342  74.024  1.00  0.00    -0.042 A  
HETATM   24  C   UNL     1      -5.395   6.764  72.779  1.00  0.00    -0.037 A  
HETATM   25  C   UNL     1      -5.727   7.568  71.676  1.00  0.00    -0.036 A  
ENDBRANCH  10  12
ENDBRANCH   9  10
ENDBRANCH   8   9
ENDBRANCH   7   8
ENDBRANCH   3   7
ENDBRANCH   2   3
TORSDOF 7
ENDMDL
MODEL      290
REMARK 921   NORMALIZED FREE ENERGY PREDICTED BY IDOCK:   -1.11 KCAL/MOL
REMARK 922        TOTAL FREE ENERGY PREDICTED BY IDOCK:   -2.88 KCAL/MOL
REMARK 923 INTER-LIGAND FREE ENERGY PREDICTED BY IDOCK:   -2.98 KCAL/MOL
REMARK 924 INTRA-LIGAND FREE ENERGY PREDICTED BY IDOCK:    0.10 KCAL/MOL
REMARK 927      BINDING AFFINITY PREDICTED BY RF-SCORE:    0.00 PKD
ROOT
HETATM    1  C   UNL     1      -7.185   4.568  73.443  1.00  0.00    -0.080 C  
HETATM    2  C   UNL     1      -7.391   6.073  73.510  1.00  0.00    -0.089 C  
ENDROOT
BRANCH   2   3
HETATM    3  N   UNL     1      -8.236   6.660  72.348  1.00  0.00    -0.104 N  
HETATM    4  C   UNL     1      -9.462   5.758  72.119  1.00  0.00    -0.149 C  
BRANCH   3   5
HETATM    5  C   UNL     1      -8.726   8.093  72.628  1.00  0.00    -0.213 C  
HETATM    6  C   UNL     1     -10.073   8.413  71.999  1.00  0.00    -0.364 C  
ENDBRANCH   3   5
BRANCH   3   7
HETATM    7  C   UNL     1      -7.326   6.584  71.088  1.00  0.00    -0.080 C  
BRANCH   7   8
HETATM    8  C   UNL     1      -6.703   7.920  70.673  1.00  0.00    -0.038 C  
BRANCH   8   9
HETATM    9  O   UNL     1      -7.322   8.437  69.494  1.00  0.00    -0.069 OA 
BRANCH   9  10
HETATM   10  C   UNL     1      -8.060   7.517  68.798  1.00  0.00    -0.128 C  
HETATM   11  O   UNL     1      -9.264   7.357  68.967  1.00  0.00    -0.147 OA 
BRANCH  10  12
HETATM   12  C   UNL     1      -7.234   6.860  67.699  1.00  0.00    -0.091 C  
HETATM   13  C   UNL     1      -8.012   5.670  67.184  1.00  0.00    -0.102 A  
HETATM   14  C   UNL     1      -8.351   4.613  68.049  1.00  0.00    -0.098 A  
HETATM   15  C   UNL     1      -9.193   3.589  67.616  1.00  0.00    -0.229 A  
HETATM   16  C   UNL     1      -9.683   3.599  66.313  1.00  0.00    -0.093 A  
HETATM   17  C   UNL     1      -9.334   4.635  65.444  1.00  0.00    -0.160 A  
HETATM   18  C   UNL     1      -8.510   5.672  65.881  1.00  0.00    -0.136 A  
HETATM   19  O   UNL     1      -8.256   6.671  64.972  1.00  0.00    -0.134 OA 
HETATM   20  C   UNL     1      -7.436   7.711  65.341  1.00  0.00    -0.078 A  
HETATM   21  C   UNL     1      -7.170   8.662  64.353  1.00  0.00    -0.097 A  
HETATM   22  C   UNL     1      -6.360   9.760  64.637  1.00  0.00    -0.106 A  
HETATM   23  C   UNL     1      -5.803   9.905  65.906  1.00  0.00    -0.070 A  
HETATM   24  C   UNL     1      -6.061   8.954  66.893  1.00  0.00    -0.058 A  
HETATM   25  C   UNL     1      -6.892   7.854  66.619  1.00  0.00    -0.071 A  
ENDBRANCH  10  12
ENDBRANCH   9  10
ENDBRANCH   8   9
ENDBRANCH   7   8
ENDBRANCH   3   7
ENDBRANCH   2   3
TORSDOF 7
ENDMDL
MODEL      291
REMARK 921   NORMALIZED FREE ENERGY PREDICTED BY IDOCK:   -1.10 KCAL/MOL
REMARK 922        TOTAL FREE ENERGY PREDICTED BY IDOCK:   -2.87 KCAL/MOL
REMARK 923 INTER-LIGAND FREE ENERGY PREDICTED BY IDOCK:   -3.04 KCAL/MOL
REMARK 924 INTRA-LIGAND FREE ENERGY PREDICTED BY IDOCK:    0.17 KCAL/MOL
REMARK 927      BINDING AFFINITY PREDICTED BY RF-SCORE:    0.00 PKD
ROOT
HETATM    1  C   UNL     1      -9.593   7.249  74.084  1.00  0.00    -0.228 C  
HETATM    2  C   UNL     1     -10.734   6.874  73.153  1.00  0.00    -0.308 C  
ENDROOT
BRANCH   2   3
HETATM    3  N   UNL     1     -10.797   7.704  71.843  1.00  0.00    -0.227 N  
HETATM    4  C   UNL     1     -11.711   8.922  72.069  1.00  0.00    -0.367 C  
BRANCH   3   5
HETATM    5  C   UNL     1      -9.414   8.206  71.385  1.00  0.00    -0.166 C  
HETATM    6  C   UNL     1      -9.477   9.409  70.457  1.00  0.00    -0.327 C  
ENDBRANCH   3   5
BRANCH   3   7
HETATM    7  C   UNL     1     -11.464   6.775  70.788  1.00  0.00    -0.342 C  
BRANCH   7   8
HETATM    8  C   UNL     1     -10.485   6.109  69.818  1.00  0.00    -0.239 C  
BRANCH   8   9
HETATM    9  O   UNL     1      -9.317   5.645  70.498  1.00  0.00    -0.155 OA 
BRANCH   9  10
HETATM   10  C   UNL     1      -9.423   4.371  70.991  1.00  0.00    -0.162 C  
HETATM   11  O   UNL     1     -10.478   3.896  71.397  1.00  0.00     0.078 OA 
BRANCH  10  12
HETATM   12  C   UNL     1      -8.123   3.596  70.811  1.00  0.00    -0.064 C  
HETATM   13  C   UNL     1      -7.545   3.969  69.464  1.00  0.00    -0.053 A  
HETATM   14  C   UNL     1      -8.271   3.719  68.285  1.00  0.00    -0.090 A  
HETATM   15  C   UNL     1      -7.809   4.194  67.059  1.00  0.00    -0.096 A  
HETATM   16  C   UNL     1      -6.611   4.901  66.996  1.00  0.00    -0.050 A  
HETATM   17  C   UNL     1      -5.877   5.135  68.160  1.00  0.00    -0.017 A  
HETATM   18  C   UNL     1      -6.347   4.680  69.392  1.00  0.00    -0.028 A  
HETATM   19  O   UNL     1      -5.583   4.995  70.489  1.00  0.00    -0.014 OA 
HETATM   20  C   UNL     1      -5.988   4.559  71.727  1.00  0.00    -0.017 A  
HETATM   21  C   UNL     1      -5.137   4.861  72.793  1.00  0.00    -0.008 A  
HETATM   22  C   UNL     1      -5.470   4.471  74.089  1.00  0.00    -0.009 A  
HETATM   23  C   UNL     1      -6.650   3.767  74.323  1.00  0.00    -0.040 A  
HETATM   24  C   UNL     1      -7.499   3.458  73.260  1.00  0.00    -0.056 A  
HETATM   25  C   UNL     1      -7.178   3.864  71.954  1.00  0.00    -0.057 A  
ENDBRANCH  10  12
ENDBRANCH   9  10
ENDBRANCH   8   9
ENDBRANCH   7   8
ENDBRANCH   3   7
ENDBRANCH   2   3
TORSDOF 7
ENDMDL
MODEL      292
REMARK 921   NORMALIZED FREE ENERGY PREDICTED BY IDOCK:   -0.89 KCAL/MOL
REMARK 922        TOTAL FREE ENERGY PREDICTED BY IDOCK:   -2.58 KCAL/MOL
REMARK 923 INTER-LIGAND FREE ENERGY PREDICTED BY IDOCK:   -3.88 KCAL/MOL
REMARK 924 INTRA-LIGAND FREE ENERGY PREDICTED BY IDOCK:    1.31 KCAL/MOL
REMARK 927      BINDING AFFINITY PREDICTED BY RF-SCORE:    0.00 PKD
ROOT
HETATM    1  C   UNL     1     -11.933  14.550  73.152  1.00  0.00    -0.007 C  
HETATM    2  C   UNL     1     -11.543  15.075  71.780  1.00  0.00    -0.356 C  
ENDROOT
BRANCH   2   3
HETATM    3  N   UNL     1     -12.374  14.491  70.607  1.00  0.00    -0.316 N  
HETATM    4  C   UNL     1     -12.045  12.995  70.460  1.00  0.00    -0.292 C  
BRANCH   3   5
HETATM    5  C   UNL     1     -13.892  14.642  70.814  1.00  0.00     0.114 C  
HETATM    6  C   UNL     1     -14.407  13.977  72.082  1.00  0.00    -0.577 C  
ENDBRANCH   3   5
BRANCH   3   7
HETATM    7  C   UNL     1     -11.877  15.232  69.331  1.00  0.00    -0.343 C  
BRANCH   7   8
HETATM    8  C   UNL     1     -12.382  14.637  68.014  1.00  0.00     0.109 C  
BRANCH   8   9
HETATM    9  O   UNL     1     -11.545  15.015  66.919  1.00  0.00    -0.323 OA 
BRANCH   9  10
HETATM   10  C   UNL     1     -10.765  14.000  66.433  1.00  0.00    -0.278 C  
HETATM   11  O   UNL     1     -11.200  12.882  66.183  1.00  0.00    -0.278 OA 
BRANCH  10  12
HETATM   12  C   UNL     1      -9.362  14.491  66.097  1.00  0.00    -0.242 C  
HETATM   13  C   UNL     1      -9.185  15.854  66.728  1.00  0.00    -0.264 A  
HETATM   14  C   UNL     1     -10.029  16.921  66.365  1.00  0.00    -0.321 A  
HETATM   15  C   UNL     1      -9.966  18.133  67.050  1.00  0.00    -0.341 A  
HETATM   16  C   UNL     1      -9.049  18.299  68.084  1.00  0.00    -0.310 A  
HETATM   17  C   UNL     1      -8.196  17.251  68.435  1.00  0.00    -0.260 A  
HETATM   18  C   UNL     1      -8.271  16.029  67.767  1.00  0.00    -0.149 A  
HETATM   19  O   UNL     1      -7.426  15.041  68.209  1.00  0.00    -0.099 OA 
HETATM   20  C   UNL     1      -7.443  13.821  67.577  1.00  0.00    -0.169 A  
HETATM   21  C   UNL     1      -6.518  12.879  68.035  1.00  0.00    -0.108 A  
HETATM   22  C   UNL     1      -6.469  11.608  67.465  1.00  0.00    -0.087 A  
HETATM   23  C   UNL     1      -7.337  11.278  66.425  1.00  0.00    -0.058 A  
HETATM   24  C   UNL     1      -8.257  12.218  65.961  1.00  0.00     0.643 A  
HETATM   25  C   UNL     1      -8.324  13.495  66.544  1.00  0.00     0.426 A  
ENDBRANCH  10  12
ENDBRANCH   9  10
ENDBRANCH   8   9
ENDBRANCH   7   8
ENDBRANCH   3   7
ENDBRANCH   2   3
TORSDOF 7
ENDMDL
MODEL      293
REMARK 921   NORMALIZED FREE ENERGY PREDICTED BY IDOCK:   -0.82 KCAL/MOL
REMARK 922        TOTAL FREE ENERGY PREDICTED BY IDOCK:   -2.48 KCAL/MOL
REMARK 923 INTER-LIGAND FREE ENERGY PREDICTED BY IDOCK:   -3.69 KCAL/MOL
REMARK 924 INTRA-LIGAND FREE ENERGY PREDICTED BY IDOCK:    1.21 KCAL/MOL
REMARK 927      BINDING AFFINITY PREDICTED BY RF-SCORE:    0.00 PKD
ROOT
HETATM    1  C   UNL     1     -11.802  14.805  73.164  1.00  0.00    -0.166 C  
HETATM    2  C   UNL     1     -11.458  15.386  71.802  1.00  0.00    -0.422 C  
ENDROOT
BRANCH   2   3
HETATM    3  N   UNL     1     -12.260  14.778  70.621  1.00  0.00    -0.296 N  
HETATM    4  C   UNL     1     -11.772  13.340  70.374  1.00  0.00    -0.083 C  
BRANCH   3   5
HETATM    5  C   UNL     1     -13.778  14.743  70.882  1.00  0.00    -0.159 C  
HETATM    6  C   UNL     1     -14.179  13.845  72.042  1.00  0.00    -0.536 C  
ENDBRANCH   3   5
BRANCH   3   7
HETATM    7  C   UNL     1     -11.897  15.642  69.378  1.00  0.00    -0.375 C  
BRANCH   7   8
HETATM    8  C   UNL     1     -12.479  15.131  68.058  1.00  0.00     0.661 C  
BRANCH   8   9
HETATM    9  O   UNL     1     -11.454  14.628  67.198  1.00  0.00    -0.344 OA 
BRANCH   9  10
HETATM   10  C   UNL     1     -11.534  13.282  66.958  1.00  0.00    -0.339 C  
HETATM   11  O   UNL     1     -12.577  12.718  66.647  1.00  0.00    -0.230 OA 
BRANCH  10  12
HETATM   12  C   UNL     1     -10.155  12.635  66.964  1.00  0.00    -0.228 C  
HETATM   13  C   UNL     1      -9.163  13.664  67.459  1.00  0.00    -0.218 A  
HETATM   14  C   UNL     1      -8.982  14.872  66.760  1.00  0.00    -0.295 A  
HETATM   15  C   UNL     1      -8.182  15.881  67.291  1.00  0.00    -0.211 A  
HETATM   16  C   UNL     1      -7.539  15.687  68.511  1.00  0.00    -0.132 A  
HETATM   17  C   UNL     1      -7.699  14.483  69.200  1.00  0.00    -0.082 A  
HETATM   18  C   UNL     1      -8.516  13.479  68.681  1.00  0.00    -0.017 A  
HETATM   19  O   UNL     1      -8.651  12.347  69.448  1.00  0.00     0.737 OA 
HETATM   20  C   UNL     1      -9.431  11.316  68.979  1.00  0.00    -0.013 A  
HETATM   21  C   UNL     1      -9.478  10.171  69.778  1.00  0.00    -0.201 A  
HETATM   22  C   UNL     1     -10.253   9.078  69.392  1.00  0.00    -0.206 A  
HETATM   23  C   UNL     1     -10.974   9.122  68.199  1.00  0.00    -0.020 A  
HETATM   24  C   UNL     1     -10.923  10.262  67.397  1.00  0.00    -0.317 A  
HETATM   25  C   UNL     1     -10.159  11.374  67.789  1.00  0.00    -0.198 A  
ENDBRANCH  10  12
ENDBRANCH   9  10
ENDBRANCH   8   9
ENDBRANCH   7   8
ENDBRANCH   3   7
ENDBRANCH   2   3
TORSDOF 7
ENDMDL
MODEL      294
REMARK 921   NORMALIZED FREE ENERGY PREDICTED BY IDOCK:   -0.81 KCAL/MOL
REMARK 922        TOTAL FREE ENERGY PREDICTED BY IDOCK:   -2.47 KCAL/MOL
REMARK 923 INTER-LIGAND FREE ENERGY PREDICTED BY IDOCK:   -3.18 KCAL/MOL
REMARK 924 INTRA-LIGAND FREE ENERGY PREDICTED BY IDOCK:    0.71 KCAL/MOL
REMARK 927      BINDING AFFINITY PREDICTED BY RF-SCORE:    0.00 PKD
ROOT
HETATM    1  C   UNL     1      -8.782   6.976  72.016  1.00  0.00    -0.128 C  
HETATM    2  C   UNL     1      -8.021   7.069  70.704  1.00  0.00    -0.109 C  
ENDROOT
BRANCH   2   3
HETATM    3  N   UNL     1      -6.617   7.721  70.819  1.00  0.00    -0.038 N  
HETATM    4  C   UNL     1      -6.158   7.660  72.287  1.00  0.00    -0.040 C  
BRANCH   3   5
HETATM    5  C   UNL     1      -5.558   7.024  69.945  1.00  0.00    -0.023 C  
HETATM    6  C   UNL     1      -5.847   5.552  69.691  1.00  0.00    -0.017 C  
ENDBRANCH   3   5
BRANCH   3   7
HETATM    7  C   UNL     1      -6.814   9.214  70.426  1.00  0.00    -0.062 C  
BRANCH   7   8
HETATM    8  C   UNL     1      -5.751   9.765  69.471  1.00  0.00    -0.033 C  
BRANCH   8   9
HETATM    9  O   UNL     1      -6.323  10.128  68.213  1.00  0.00    -0.049 OA 
BRANCH   9  10
HETATM   10  C   UNL     1      -7.568  10.692  68.304  1.00  0.00    -0.097 C  
HETATM   11  O   UNL     1      -8.474  10.212  68.975  1.00  0.00    -0.129 OA 
BRANCH  10  12
HETATM   12  C   UNL     1      -7.614  12.049  67.611  1.00  0.00    -0.136 C  
HETATM   13  C   UNL     1      -9.043  12.300  67.181  1.00  0.00    -0.193 A  
HETATM   14  C   UNL     1      -9.680  11.424  66.284  1.00  0.00    -0.239 A  
HETATM   15  C   UNL     1     -11.038  11.568  66.003  1.00  0.00    -0.289 A  
HETATM   16  C   UNL     1     -11.764  12.598  66.595  1.00  0.00    -0.464 A  
HETATM   17  C   UNL     1     -11.132  13.482  67.471  1.00  0.00    -0.293 A  
HETATM   18  C   UNL     1      -9.778  13.328  67.772  1.00  0.00    -0.217 A  
HETATM   19  O   UNL     1      -9.251  14.216  68.678  1.00  0.00    -0.198 OA 
HETATM   20  C   UNL     1      -7.918  14.123  69.000  1.00  0.00     0.012 A  
HETATM   21  C   UNL     1      -7.431  15.091  69.881  1.00  0.00    -0.021 A  
HETATM   22  C   UNL     1      -6.094  15.071  70.276  1.00  0.00    -0.144 A  
HETATM   23  C   UNL     1      -5.237  14.089  69.783  1.00  0.00    -0.092 A  
HETATM   24  C   UNL     1      -5.719  13.124  68.899  1.00  0.00    -0.074 A  
HETATM   25  C   UNL     1      -7.070  13.128  68.510  1.00  0.00    -0.105 A  
ENDBRANCH  10  12
ENDBRANCH   9  10
ENDBRANCH   8   9
ENDBRANCH   7   8
ENDBRANCH   3   7
ENDBRANCH   2   3
TORSDOF 7
ENDMDL
MODEL      295
REMARK 921   NORMALIZED FREE ENERGY PREDICTED BY IDOCK:   -0.68 KCAL/MOL
REMARK 922        TOTAL FREE ENERGY PREDICTED BY IDOCK:   -2.28 KCAL/MOL
REMARK 923 INTER-LIGAND FREE ENERGY PREDICTED BY IDOCK:   -3.23 KCAL/MOL
REMARK 924 INTRA-LIGAND FREE ENERGY PREDICTED BY IDOCK:    0.95 KCAL/MOL
REMARK 927      BINDING AFFINITY PREDICTED BY RF-SCORE:    0.00 PKD
ROOT
HETATM    1  C   UNL     1     -11.413  16.383  70.798  1.00  0.00    -0.198 C  
HETATM    2  C   UNL     1     -11.335  16.984  69.404  1.00  0.00     0.521 C  
ENDROOT
BRANCH   2   3
HETATM    3  N   UNL     1     -10.142  16.479  68.550  1.00  0.00    -0.243 N  
HETATM    4  C   UNL     1      -9.552  17.665  67.766  1.00  0.00    -0.267 C  
BRANCH   3   5
HETATM    5  C   UNL     1      -9.023  15.846  69.398  1.00  0.00    -0.209 C  
HETATM    6  C   UNL     1      -7.753  15.552  68.615  1.00  0.00    -0.144 C  
ENDBRANCH   3   5
BRANCH   3   7
HETATM    7  C   UNL     1     -10.751  15.470  67.533  1.00  0.00    -0.300 C  
BRANCH   7   8
HETATM    8  C   UNL     1     -11.695  14.436  68.152  1.00  0.00    -0.342 C  
BRANCH   8   9
HETATM    9  O   UNL     1     -11.218  13.105  67.938  1.00  0.00    -0.246 OA 
BRANCH   9  10
HETATM   10  C   UNL     1     -10.194  13.015  67.034  1.00  0.00    -0.245 C  
HETATM   11  O   UNL     1      -9.706  13.990  66.474  1.00  0.00    -0.276 OA 
BRANCH  10  12
HETATM   12  C   UNL     1      -9.650  11.593  66.952  1.00  0.00    -0.199 C  
HETATM   13  C   UNL     1      -9.576  11.209  65.491  1.00  0.00    -0.263 A  
HETATM   14  C   UNL     1     -10.740  11.187  64.702  1.00  0.00    -0.350 A  
HETATM   15  C   UNL     1     -10.656  10.979  63.326  1.00  0.00    -0.177 A  
HETATM   16  C   UNL     1      -9.414  10.770  62.731  1.00  0.00    -0.358 A  
HETATM   17  C   UNL     1      -8.257  10.772  63.513  1.00  0.00     0.063 A  
HETATM   18  C   UNL     1      -8.336  11.001  64.886  1.00  0.00     0.169 A  
HETATM   19  O   UNL     1      -7.144  11.030  65.568  1.00  0.00     0.041 OA 
HETATM   20  C   UNL     1      -7.161  11.235  66.927  1.00  0.00    -0.139 A  
HETATM   21  C   UNL     1      -5.921  11.194  67.569  1.00  0.00    -0.048 A  
HETATM   22  C   UNL     1      -5.836  11.403  68.945  1.00  0.00    -0.047 A  
HETATM   23  C   UNL     1      -6.992  11.643  69.685  1.00  0.00     0.055 A  
HETATM   24  C   UNL     1      -8.233  11.679  69.048  1.00  0.00     0.107 A  
HETATM   25  C   UNL     1      -8.323  11.486  67.659  1.00  0.00    -0.135 A  
ENDBRANCH  10  12
ENDBRANCH   9  10
ENDBRANCH   8   9
ENDBRANCH   7   8
ENDBRANCH   3   7
ENDBRANCH   2   3
TORSDOF 7
ENDMDL
MODEL      296
REMARK 921   NORMALIZED FREE ENERGY PREDICTED BY IDOCK:   -0.51 KCAL/MOL
REMARK 922        TOTAL FREE ENERGY PREDICTED BY IDOCK:   -2.04 KCAL/MOL
REMARK 923 INTER-LIGAND FREE ENERGY PREDICTED BY IDOCK:   -2.12 KCAL/MOL
REMARK 924 INTRA-LIGAND FREE ENERGY PREDICTED BY IDOCK:    0.09 KCAL/MOL
REMARK 927      BINDING AFFINITY PREDICTED BY RF-SCORE:    0.00 PKD
ROOT
HETATM    1  C   UNL     1      -7.262  10.417  67.887  1.00  0.00    -0.085 C  
HETATM    2  C   UNL     1      -6.958   9.977  66.464  1.00  0.00    -0.095 C  
ENDROOT
BRANCH   2   3
HETATM    3  N   UNL     1      -7.946  10.519  65.397  1.00  0.00    -0.150 N  
HETATM    4  C   UNL     1      -7.165  11.371  64.382  1.00  0.00     1.777 C  
BRANCH   3   5
HETATM    5  C   UNL     1      -8.681   9.400  64.637  1.00  0.00    -0.200 C  
HETATM    6  C   UNL     1      -9.716   8.666  65.476  1.00  0.00     0.208 C  
ENDBRANCH   3   5
BRANCH   3   7
HETATM    7  C   UNL     1      -8.928  11.449  66.168  1.00  0.00    -0.201 C  
BRANCH   7   8
HETATM    8  C   UNL     1      -8.476  12.908  66.267  1.00  0.00     0.511 C  
BRANCH   8   9
HETATM    9  O   UNL     1      -9.302  13.762  65.473  1.00  0.00     0.076 OA 
BRANCH   9  10
HETATM   10  C   UNL     1     -10.147  14.558  66.199  1.00  0.00    -0.305 C  
HETATM   11  O   UNL     1     -11.293  14.816  65.848  1.00  0.00    -0.339 OA 
BRANCH  10  12
HETATM   12  C   UNL     1      -9.539  14.928  67.547  1.00  0.00    -0.204 C  
HETATM   13  C   UNL     1      -9.519  16.437  67.647  1.00  0.00    -0.225 A  
HETATM   14  C   UNL     1      -8.798  17.203  66.713  1.00  0.00    -0.270 A  
HETATM   15  C   UNL     1      -8.897  18.593  66.713  1.00  0.00    -0.297 A  
HETATM   16  C   UNL     1      -9.698  19.230  67.657  1.00  0.00    -0.412 A  
HETATM   17  C   UNL     1     -10.401  18.477  68.599  1.00  0.00    -0.271 A  
HETATM   18  C   UNL     1     -10.320  17.084  68.588  1.00  0.00    -0.351 A  
HETATM   19  O   UNL     1     -11.081  16.423  69.521  1.00  0.00    -0.316 OA 
HETATM   20  C   UNL     1     -11.028  15.051  69.569  1.00  0.00    -0.269 A  
HETATM   21  C   UNL     1     -11.778  14.443  70.579  1.00  0.00    -0.328 A  
HETATM   22  C   UNL     1     -11.798  13.054  70.699  1.00  0.00    -0.069 A  
HETATM   23  C   UNL     1     -11.059  12.269  69.817  1.00  0.00     0.078 A  
HETATM   24  C   UNL     1     -10.304  12.873  68.811  1.00  0.00    -0.143 A  
HETATM   25  C   UNL     1     -10.294  14.271  68.673  1.00  0.00    -0.246 A  
ENDBRANCH  10  12
ENDBRANCH   9  10
ENDBRANCH   8   9
ENDBRANCH   7   8
ENDBRANCH   3   7
ENDBRANCH   2   3
TORSDOF 7
ENDMDL
MODEL      297
REMARK 921   NORMALIZED FREE ENERGY PREDICTED BY IDOCK:   -0.47 KCAL/MOL
REMARK 922        TOTAL FREE ENERGY PREDICTED BY IDOCK:   -1.98 KCAL/MOL
REMARK 923 INTER-LIGAND FREE ENERGY PREDICTED BY IDOCK:   -1.85 KCAL/MOL
REMARK 924 INTRA-LIGAND FREE ENERGY PREDICTED BY IDOCK:   -0.13 KCAL/MOL
REMARK 927      BINDING AFFINITY PREDICTED BY RF-SCORE:    0.00 PKD
ROOT
HETATM    1  C   UNL     1     -12.892   9.946  71.491  1.00  0.00    -0.522 C  
HETATM    2  C   UNL     1     -11.586  10.442  70.891  1.00  0.00    -0.337 C  
ENDROOT
BRANCH   2   3
HETATM    3  N   UNL     1     -11.095   9.633  69.662  1.00  0.00    -0.223 N  
HETATM    4  C   UNL     1     -11.951   8.362  69.526  1.00  0.00     1.305 C  
BRANCH   3   5
HETATM    5  C   UNL     1     -11.185  10.429  68.346  1.00  0.00    -0.258 C  
HETATM    6  C   UNL     1     -10.557  11.812  68.422  1.00  0.00    -0.239 C  
ENDBRANCH   3   5
BRANCH   3   7
HETATM    7  C   UNL     1      -9.634   9.211  69.994  1.00  0.00    -0.197 C  
BRANCH   7   8
HETATM    8  C   UNL     1      -9.294   7.762  69.634  1.00  0.00    -0.153 C  
BRANCH   8   9
HETATM    9  O   UNL     1      -9.877   6.846  70.564  1.00  0.00    -0.179 OA 
BRANCH   9  10
HETATM   10  C   UNL     1      -9.072   6.541  71.629  1.00  0.00    -0.143 C  
HETATM   11  O   UNL     1      -9.491   6.428  72.775  1.00  0.00    -0.145 OA 
BRANCH  10  12
HETATM   12  C   UNL     1      -7.656   6.204  71.176  1.00  0.00    -0.093 C  
HETATM   13  C   UNL     1      -6.701   6.680  72.248  1.00  0.00    -0.059 A  
HETATM   14  C   UNL     1      -6.646   8.042  72.597  1.00  0.00    -0.082 A  
HETATM   15  C   UNL     1      -5.878   8.461  73.683  1.00  0.00    -0.099 A  
HETATM   16  C   UNL     1      -5.145   7.530  74.414  1.00  0.00    -0.054 A  
HETATM   17  C   UNL     1      -5.181   6.180  74.060  1.00  0.00    -0.040 A  
HETATM   18  C   UNL     1      -5.965   5.755  72.988  1.00  0.00    -0.040 A  
HETATM   19  O   UNL     1      -5.976   4.404  72.740  1.00  0.00    -0.014 OA 
HETATM   20  C   UNL     1      -6.717   3.928  71.685  1.00  0.00    -0.023 A  
HETATM   21  C   UNL     1      -6.638   2.553  71.451  1.00  0.00    -0.023 A  
HETATM   22  C   UNL     1      -7.365   1.975  70.411  1.00  0.00    -0.033 A  
HETATM   23  C   UNL     1      -8.165   2.773  69.594  1.00  0.00    -0.070 A  
HETATM   24  C   UNL     1      -8.241   4.147  69.822  1.00  0.00    -0.068 A  
HETATM   25  C   UNL     1      -7.524   4.732  70.880  1.00  0.00    -0.064 A  
ENDBRANCH  10  12
ENDBRANCH   9  10
ENDBRANCH   8   9
ENDBRANCH   7   8
ENDBRANCH   3   7
ENDBRANCH   2   3
TORSDOF 7
ENDMDL
MODEL      298
REMARK 921   NORMALIZED FREE ENERGY PREDICTED BY IDOCK:   -0.36 KCAL/MOL
REMARK 922        TOTAL FREE ENERGY PREDICTED BY IDOCK:   -1.82 KCAL/MOL
REMARK 923 INTER-LIGAND FREE ENERGY PREDICTED BY IDOCK:   -1.34 KCAL/MOL
REMARK 924 INTRA-LIGAND FREE ENERGY PREDICTED BY IDOCK:   -0.48 KCAL/MOL
REMARK 927      BINDING AFFINITY PREDICTED BY RF-SCORE:    0.00 PKD
ROOT
HETATM    1  C   UNL     1      -5.724  11.607  72.458  1.00  0.00     1.561 C  
HETATM    2  C   UNL     1      -5.194  11.638  71.034  1.00  0.00    -0.120 C  
ENDROOT
BRANCH   2   3
HETATM    3  N   UNL     1      -6.002  10.777  70.027  1.00  0.00    -0.079 N  
HETATM    4  C   UNL     1      -5.140  10.533  68.775  1.00  0.00    -0.038 C  
BRANCH   3   5
HETATM    5  C   UNL     1      -6.422   9.413  70.606  1.00  0.00    -0.081 C  
HETATM    6  C   UNL     1      -5.511   8.266  70.196  1.00  0.00    -0.022 C  
ENDBRANCH   3   5
BRANCH   3   7
HETATM    7  C   UNL     1      -7.227  11.646  69.620  1.00  0.00     0.219 C  
BRANCH   7   8
HETATM    8  C   UNL     1      -8.110  11.029  68.533  1.00  0.00    -0.140 C  
BRANCH   8   9
HETATM    9  O   UNL     1      -8.837  12.034  67.822  1.00  0.00    -0.152 OA 
BRANCH   9  10
HETATM   10  C   UNL     1      -9.832  12.629  68.553  1.00  0.00    -0.148 C  
HETATM   11  O   UNL     1     -10.395  12.077  69.491  1.00  0.00     0.214 OA 
BRANCH  10  12
HETATM   12  C   UNL     1     -10.016  14.088  68.154  1.00  0.00    -0.242 C  
HETATM   13  C   UNL     1      -8.661  14.757  68.209  1.00  0.00    -0.170 A  
HETATM   14  C   UNL     1      -7.943  14.810  69.418  1.00  0.00    -0.065 A  
HETATM   15  C   UNL     1      -6.635  15.292  69.441  1.00  0.00    -0.152 A  
HETATM   16  C   UNL     1      -6.042  15.744  68.265  1.00  0.00    -0.116 A  
HETATM   17  C   UNL     1      -6.757  15.713  67.067  1.00  0.00     0.058 A  
HETATM   18  C   UNL     1      -8.058  15.211  67.036  1.00  0.00    -0.205 A  
HETATM   19  O   UNL     1      -8.668  15.176  65.806  1.00  0.00     0.176 OA 
HETATM   20  C   UNL     1      -9.957  14.708  65.717  1.00  0.00    -0.338 A  
HETATM   21  C   UNL     1     -10.541  14.754  64.449  1.00  0.00     0.191 A  
HETATM   22  C   UNL     1     -11.841  14.289  64.258  1.00  0.00    -0.401 A  
HETATM   23  C   UNL     1     -12.567  13.786  65.336  1.00  0.00    -0.534 A  
HETATM   24  C   UNL     1     -11.989  13.744  66.605  1.00  0.00    -0.469 A  
HETATM   25  C   UNL     1     -10.672  14.195  66.801  1.00  0.00    -0.286 A  
ENDBRANCH  10  12
ENDBRANCH   9  10
ENDBRANCH   8   9
ENDBRANCH   7   8
ENDBRANCH   3   7
ENDBRANCH   2   3
TORSDOF 7
ENDMDL
MODEL      299
REMARK 921   NORMALIZED FREE ENERGY PREDICTED BY IDOCK:    0.37 KCAL/MOL
REMARK 922        TOTAL FREE ENERGY PREDICTED BY IDOCK:   -0.80 KCAL/MOL
REMARK 923 INTER-LIGAND FREE ENERGY PREDICTED BY IDOCK:   -0.03 KCAL/MOL
REMARK 924 INTRA-LIGAND FREE ENERGY PREDICTED BY IDOCK:   -0.76 KCAL/MOL
REMARK 927      BINDING AFFINITY PREDICTED BY RF-SCORE:    0.00 PKD
ROOT
HETATM    1  C   UNL     1      -9.450  11.063  69.678  1.00  0.00     0.445 C  
HETATM    2  C   UNL     1     -10.610  11.199  70.650  1.00  0.00     1.614 C  
ENDROOT
BRANCH   2   3
HETATM    3  N   UNL     1     -11.897  10.441  70.228  1.00  0.00    -0.291 N  
HETATM    4  C   UNL     1     -12.890  10.450  71.404  1.00  0.00    -0.452 C  
BRANCH   3   5
HETATM    5  C   UNL     1     -12.585  11.064  68.999  1.00  0.00     0.536 C  
HETATM    6  C   UNL     1     -12.314  12.552  68.835  1.00  0.00     0.208 C  
ENDBRANCH   3   5
BRANCH   3   7
HETATM    7  C   UNL     1     -11.452   8.971  69.971  1.00  0.00     0.010 C  
BRANCH   7   8
HETATM    8  C   UNL     1     -11.496   8.069  71.207  1.00  0.00    -0.269 C  
BRANCH   8   9
HETATM    9  O   UNL     1     -10.196   7.572  71.533  1.00  0.00    -0.188 OA 
BRANCH   9  10
HETATM   10  C   UNL     1      -9.746   6.587  70.694  1.00  0.00    -0.179 C  
HETATM   11  O   UNL     1     -10.435   5.634  70.349  1.00  0.00    -0.243 OA 
BRANCH  10  12
HETATM   12  C   UNL     1      -8.369   6.922  70.134  1.00  0.00    -0.135 C  
HETATM   13  C   UNL     1      -7.356   6.056  70.848  1.00  0.00    -0.082 A  
HETATM   14  C   UNL     1      -7.200   6.146  72.244  1.00  0.00    -0.088 A  
HETATM   15  C   UNL     1      -6.377   5.248  72.921  1.00  0.00    -0.048 A  
HETATM   16  C   UNL     1      -5.687   4.269  72.211  1.00  0.00    -0.011 A  
HETATM   17  C   UNL     1      -5.822   4.187  70.824  1.00  0.00    -0.014 A  
HETATM   18  C   UNL     1      -6.661   5.071  70.145  1.00  0.00    -0.037 A  
HETATM   19  O   UNL     1      -6.768   4.888  68.788  1.00  0.00    -0.047 OA 
HETATM   20  C   UNL     1      -7.568   5.739  68.064  1.00  0.00    -0.085 A  
HETATM   21  C   UNL     1      -7.587   5.537  66.683  1.00  0.00    -0.088 A  
HETATM   22  C   UNL     1      -8.379   6.343  65.866  1.00  0.00    -0.143 A  
HETATM   23  C   UNL     1      -9.147   7.362  66.428  1.00  0.00    -0.196 A  
HETATM   24  C   UNL     1      -9.125   7.570  67.807  1.00  0.00    -0.130 A  
HETATM   25  C   UNL     1      -8.343   6.749  68.637  1.00  0.00    -0.120 A  
ENDBRANCH  10  12
ENDBRANCH   9  10
ENDBRANCH   8   9
ENDBRANCH   7   8
ENDBRANCH   3   7
ENDBRANCH   2   3
TORSDOF 7
ENDMDL
MODEL      300
REMARK 921   NORMALIZED FREE ENERGY PREDICTED BY IDOCK:    0.54 KCAL/MOL
REMARK 922        TOTAL FREE ENERGY PREDICTED BY IDOCK:   -0.56 KCAL/MOL
REMARK 923 INTER-LIGAND FREE ENERGY PREDICTED BY IDOCK:   -1.96 KCAL/MOL
REMARK 924 INTRA-LIGAND FREE ENERGY PREDICTED BY IDOCK:    1.40 KCAL/MOL
REMARK 927      BINDING AFFINITY PREDICTED BY RF-SCORE:    0.00 PKD
ROOT
HETATM    1  C   UNL     1     -13.805   8.118  70.511  1.00  0.00     1.050 C  
HETATM    2  C   UNL     1     -13.523   9.609  70.432  1.00  0.00     0.476 C  
ENDROOT
BRANCH   2   3
HETATM    3  N   UNL     1     -12.493  10.125  71.472  1.00  0.00    -0.399 N  
HETATM    4  C   UNL     1     -12.794  11.603  71.780  1.00  0.00    -0.313 C  
BRANCH   3   5
HETATM    5  C   UNL     1     -12.524   9.332  72.792  1.00  0.00     0.241 C  
HETATM    6  C   UNL     1     -11.871   7.962  72.698  1.00  0.00    -0.352 C  
ENDBRANCH   3   5
BRANCH   3   7
HETATM    7  C   UNL     1     -11.108  10.041  70.767  1.00  0.00    -0.334 C  
BRANCH   7   8
HETATM    8  C   UNL     1     -11.022  10.801  69.442  1.00  0.00    -0.254 C  
BRANCH   8   9
HETATM    9  O   UNL     1      -9.702  10.748  68.897  1.00  0.00    -0.188 OA 
BRANCH   9  10
HETATM   10  C   UNL     1      -8.961   9.678  69.324  1.00  0.00    -0.172 C  
HETATM   11  O   UNL     1      -9.403   8.813  70.071  1.00  0.00    -0.159 OA 
BRANCH  10  12
HETATM   12  C   UNL     1      -7.607   9.626  68.626  1.00  0.00    -0.080 C  
HETATM   13  C   UNL     1      -7.856   9.418  67.149  1.00  0.00    -0.098 A  
HETATM   14  C   UNL     1      -8.531   8.268  66.697  1.00  0.00    -0.124 A  
HETATM   15  C   UNL     1      -8.892   8.144  65.356  1.00  0.00    -0.086 A  
HETATM   16  C   UNL     1      -8.565   9.153  64.454  1.00  0.00    -0.204 A  
HETATM   17  C   UNL     1      -7.879  10.287  64.893  1.00  0.00    -0.134 A  
HETATM   18  C   UNL     1      -7.535  10.424  66.238  1.00  0.00    -0.127 A  
HETATM   19  O   UNL     1      -6.902  11.592  66.588  1.00  0.00    -0.134 OA 
HETATM   20  C   UNL     1      -6.524  11.775  67.897  1.00  0.00    -0.068 A  
HETATM   21  C   UNL     1      -5.832  12.956  68.176  1.00  0.00    -0.088 A  
HETATM   22  C   UNL     1      -5.419  13.237  69.477  1.00  0.00    -0.082 A  
HETATM   23  C   UNL     1      -5.685  12.331  70.503  1.00  0.00    -0.161 A  
HETATM   24  C   UNL     1      -6.370  11.148  70.226  1.00  0.00    -0.097 A  
HETATM   25  C   UNL     1      -6.806  10.868  68.920  1.00  0.00    -0.076 A  
ENDBRANCH  10  12
ENDBRANCH   9  10
ENDBRANCH   8   9
ENDBRANCH   7   8
ENDBRANCH   3   7
ENDBRANCH   2   3
TORSDOF 7
ENDMDL
MODEL      301
REMARK 921   NORMALIZED FREE ENERGY PREDICTED BY IDOCK:    1.95 KCAL/MOL
REMARK 922        TOTAL FREE ENERGY PREDICTED BY IDOCK:    1.43 KCAL/MOL
REMARK 923 INTER-LIGAND FREE ENERGY PREDICTED BY IDOCK:    0.50 KCAL/MOL
REMARK 924 INTRA-LIGAND FREE ENERGY PREDICTED BY IDOCK:    0.94 KCAL/MOL
REMARK 927      BINDING AFFINITY PREDICTED BY RF-SCORE:    0.00 PKD
ROOT
HETATM    1  C   UNL     1     -10.757  17.033  71.425  1.00  0.00     1.749 C  
HETATM    2  C   UNL     1      -9.956  17.459  70.206  1.00  0.00     1.435 C  
ENDROOT
BRANCH   2   3
HETATM    3  N   UNL     1     -10.327  16.710  68.898  1.00  0.00    -0.279 N  
HETATM    4  C   UNL     1     -11.512  15.770  69.181  1.00  0.00    -0.380 C  
BRANCH   3   5
HETATM    5  C   UNL     1     -10.718  17.662  67.752  1.00  0.00    -0.332 C  
HETATM    6  C   UNL     1      -9.712  18.777  67.512  1.00  0.00    -0.343 C  
ENDBRANCH   3   5
BRANCH   3   7
HETATM    7  C   UNL     1      -9.084  15.842  68.544  1.00  0.00    -0.200 C  
BRANCH   7   8
HETATM    8  C   UNL     1      -8.658  15.912  67.076  1.00  0.00    -0.216 C  
BRANCH   8   9
HETATM    9  O   UNL     1      -8.416  14.608  66.543  1.00  0.00    -0.111 OA 
BRANCH   9  10
HETATM   10  C   UNL     1      -8.139  13.658  67.490  1.00  0.00    -0.184 C  
HETATM   11  O   UNL     1      -7.739  13.930  68.615  1.00  0.00    -0.133 OA 
BRANCH  10  12
HETATM   12  C   UNL     1      -8.549  12.268  67.016  1.00  0.00    -0.191 C  
HETATM   13  C   UNL     1      -7.512  11.286  67.514  1.00  0.00    -0.106 A  
HETATM   14  C   UNL     1      -6.167  11.411  67.120  1.00  0.00    -0.106 A  
HETATM   15  C   UNL     1      -5.186  10.601  67.691  1.00  0.00    -0.036 A  
HETATM   16  C   UNL     1      -5.541   9.648  68.642  1.00  0.00    -0.036 A  
HETATM   17  C   UNL     1      -6.877   9.506  69.022  1.00  0.00    -0.054 A  
HETATM   18  C   UNL     1      -7.858  10.329  68.469  1.00  0.00    -0.097 A  
HETATM   19  O   UNL     1      -9.137  10.151  68.935  1.00  0.00    -0.146 OA 
HETATM   20  C   UNL     1     -10.148  10.921  68.414  1.00  0.00    -0.183 A  
HETATM   21  C   UNL     1     -11.434  10.649  68.887  1.00  0.00    -0.334 A  
HETATM   22  C   UNL     1     -12.522  11.388  68.426  1.00  0.00     0.764 A  
HETATM   23  C   UNL     1     -12.330  12.395  67.481  1.00  0.00     0.536 A  
HETATM   24  C   UNL     1     -11.049  12.665  67.002  1.00  0.00    -0.322 A  
HETATM   25  C   UNL     1      -9.945  11.936  67.476  1.00  0.00    -0.197 A  
ENDBRANCH  10  12
ENDBRANCH   9  10
ENDBRANCH   8   9
ENDBRANCH   7   8
ENDBRANCH   3   7
ENDBRANCH   2   3
TORSDOF 7
ENDMDL
MODEL      302
REMARK 921   NORMALIZED FREE ENERGY PREDICTED BY IDOCK:    2.53 KCAL/MOL
REMARK 922        TOTAL FREE ENERGY PREDICTED BY IDOCK:    2.25 KCAL/MOL
REMARK 923 INTER-LIGAND FREE ENERGY PREDICTED BY IDOCK:    1.41 KCAL/MOL
REMARK 924 INTRA-LIGAND FREE ENERGY PREDICTED BY IDOCK:    0.83 KCAL/MOL
REMARK 927      BINDING AFFINITY PREDICTED BY RF-SCORE:    0.00 PKD
ROOT
HETATM    1  C   UNL     1      -7.181   4.879  73.409  1.00  0.00    -0.085 C  
HETATM    2  C   UNL     1      -7.029   6.380  73.585  1.00  0.00    -0.082 C  
ENDROOT
BRANCH   2   3
HETATM    3  N   UNL     1      -8.000   7.231  72.724  1.00  0.00    -0.100 N  
HETATM    4  C   UNL     1      -9.446   6.913  73.142  1.00  0.00    -0.150 C  
BRANCH   3   5
HETATM    5  C   UNL     1      -7.767   8.746  72.877  1.00  0.00     0.240 C  
HETATM    6  C   UNL     1      -9.018   9.583  72.658  1.00  0.00     2.745 C  
ENDBRANCH   3   5
BRANCH   3   7
HETATM    7  C   UNL     1      -7.794   6.749  71.258  1.00  0.00    -0.101 C  
BRANCH   7   8
HETATM    8  C   UNL     1      -7.446   7.862  70.267  1.00  0.00    -0.077 C  
BRANCH   8   9
HETATM    9  O   UNL     1      -7.879   7.533  68.945  1.00  0.00    -0.118 OA 
BRANCH   9  10
HETATM   10  C   UNL     1      -7.944   6.188  68.694  1.00  0.00    -0.101 C  
HETATM   11  O   UNL     1      -8.779   5.451  69.206  1.00  0.00    -0.101 OA 
BRANCH  10  12
HETATM   12  C   UNL     1      -6.972   5.782  67.594  1.00  0.00    -0.066 C  
HETATM   13  C   UNL     1      -6.828   4.277  67.636  1.00  0.00    -0.052 A  
HETATM   14  C   UNL     1      -6.339   3.641  68.792  1.00  0.00    -0.032 A  
HETATM   15  C   UNL     1      -6.345   2.250  68.888  1.00  0.00    -0.029 A  
HETATM   16  C   UNL     1      -6.818   1.484  67.826  1.00  0.00    -0.032 A  
HETATM   17  C   UNL     1      -7.287   2.109  66.669  1.00  0.00    -0.057 A  
HETATM   18  C   UNL     1      -7.302   3.501  66.578  1.00  0.00    -0.075 A  
HETATM   19  O   UNL     1      -7.822   4.029  65.421  1.00  0.00    -0.088 OA 
HETATM   20  C   UNL     1      -7.847   5.395  65.268  1.00  0.00    -0.097 A  
HETATM   21  C   UNL     1      -8.332   5.866  64.046  1.00  0.00    -0.005 A  
HETATM   22  C   UNL     1      -8.408   7.237  63.803  1.00  0.00     0.190 A  
HETATM   23  C   UNL     1      -7.988   8.141  64.777  1.00  0.00    -0.147 A  
HETATM   24  C   UNL     1      -7.496   7.673  65.996  1.00  0.00    -0.082 A  
HETATM   25  C   UNL     1      -7.434   6.293  66.254  1.00  0.00    -0.086 A  
ENDBRANCH  10  12
ENDBRANCH   9  10
ENDBRANCH   8   9
ENDBRANCH   7   8
ENDBRANCH   3   7
ENDBRANCH   2   3
TORSDOF 7
ENDMDL
MODEL      303
REMARK 921   NORMALIZED FREE ENERGY PREDICTED BY IDOCK:    2.60 KCAL/MOL
REMARK 922        TOTAL FREE ENERGY PREDICTED BY IDOCK:    2.35 KCAL/MOL
REMARK 923 INTER-LIGAND FREE ENERGY PREDICTED BY IDOCK:    2.43 KCAL/MOL
REMARK 924 INTRA-LIGAND FREE ENERGY PREDICTED BY IDOCK:   -0.09 KCAL/MOL
REMARK 927      BINDING AFFINITY PREDICTED BY RF-SCORE:    0.00 PKD
ROOT
HETATM    1  C   UNL     1     -12.159   8.966  67.807  1.00  0.00     4.591 C  
HETATM    2  C   UNL     1     -11.379   9.755  68.846  1.00  0.00     0.058 C  
ENDROOT
BRANCH   2   3
HETATM    3  N   UNL     1     -11.700   9.377  70.316  1.00  0.00    -0.152 N  
HETATM    4  C   UNL     1     -12.852  10.266  70.819  1.00  0.00    -0.344 C  
BRANCH   3   5
HETATM    5  C   UNL     1     -12.111   7.902  70.481  1.00  0.00     0.121 C  
HETATM    6  C   UNL     1     -12.423   7.510  71.917  1.00  0.00    -0.335 C  
ENDBRANCH   3   5
BRANCH   3   7
HETATM    7  C   UNL     1     -10.419   9.726  71.129  1.00  0.00    -0.079 C  
BRANCH   7   8
HETATM    8  C   UNL     1      -9.172   8.940  70.716  1.00  0.00    -0.223 C  
BRANCH   8   9
HETATM    9  O   UNL     1      -8.985   8.970  69.300  1.00  0.00    -0.139 OA 
BRANCH   9  10
HETATM   10  C   UNL     1      -7.830   9.590  68.900  1.00  0.00    -0.080 C  
HETATM   11  O   UNL     1      -6.772   9.495  69.511  1.00  0.00    -0.046 OA 
BRANCH  10  12
HETATM   12  C   UNL     1      -8.000  10.253  67.538  1.00  0.00    -0.106 C  
HETATM   13  C   UNL     1      -7.696  11.726  67.701  1.00  0.00    -0.137 A  
HETATM   14  C   UNL     1      -8.460  12.518  68.577  1.00  0.00    -0.061 A  
HETATM   15  C   UNL     1      -8.091  13.836  68.841  1.00  0.00     0.059 A  
HETATM   16  C   UNL     1      -6.971  14.380  68.217  1.00  0.00    -0.113 A  
HETATM   17  C   UNL     1      -6.220  13.605  67.331  1.00  0.00     0.104 A  
HETATM   18  C   UNL     1      -6.574  12.279  67.082  1.00  0.00    -0.109 A  
HETATM   19  O   UNL     1      -5.753  11.579  66.233  1.00  0.00    -0.185 OA 
HETATM   20  C   UNL     1      -6.062  10.273  65.936  1.00  0.00    -0.103 A  
HETATM   21  C   UNL     1      -5.221   9.636  65.021  1.00  0.00    -0.046 A  
HETATM   22  C   UNL     1      -5.447   8.306  64.668  1.00  0.00    -0.040 A  
HETATM   23  C   UNL     1      -6.522   7.612  65.220  1.00  0.00    -0.041 A  
HETATM   24  C   UNL     1      -7.367   8.248  66.130  1.00  0.00    -0.077 A  
HETATM   25  C   UNL     1      -7.134   9.582  66.504  1.00  0.00    -0.085 A  
ENDBRANCH  10  12
ENDBRANCH   9  10
ENDBRANCH   8   9
ENDBRANCH   7   8
ENDBRANCH   3   7
ENDBRANCH   2   3
TORSDOF 7
ENDMDL
MODEL      304
REMARK 921   NORMALIZED FREE ENERGY PREDICTED BY IDOCK:   15.86 KCAL/MOL
REMARK 922        TOTAL FREE ENERGY PREDICTED BY IDOCK:   21.03 KCAL/MOL
REMARK 923 INTER-LIGAND FREE ENERGY PREDICTED BY IDOCK:   11.09 KCAL/MOL
REMARK 924 INTRA-LIGAND FREE ENERGY PREDICTED BY IDOCK:    9.94 KCAL/MOL
REMARK 927      BINDING AFFINITY PREDICTED BY RF-SCORE:    0.00 PKD
ROOT
HETATM    1  C   UNL     1      -8.101   4.018  69.069  1.00  0.00    -0.075 C  
HETATM    2  C   UNL     1      -8.775   4.667  70.267  1.00  0.00    -0.082 C  
ENDROOT
BRANCH   2   3
HETATM    3  N   UNL     1      -8.791   3.792  71.548  1.00  0.00    -0.096 N  
HETATM    4  C   UNL     1     -10.074   2.942  71.556  1.00  0.00     0.079 C  
BRANCH   3   5
HETATM    5  C   UNL     1      -7.577   2.849  71.646  1.00  0.00    -0.048 C  
HETATM    6  C   UNL     1      -7.915   1.469  72.187  1.00  0.00    -0.045 C  
ENDBRANCH   3   5
BRANCH   3   7
HETATM    7  C   UNL     1      -8.856   4.793  72.739  1.00  0.00    -0.117 C  
BRANCH   7   8
HETATM    8  C   UNL     1      -9.415   6.172  72.380  1.00  0.00    -0.148 C  
BRANCH   8   9
HETATM    9  O   UNL     1     -10.267   6.104  71.234  1.00  0.00    -0.198 OA 
BRANCH   9  10
HETATM   10  C   UNL     1     -10.110   7.143  70.355  1.00  0.00    -0.191 C  
HETATM   11  O   UNL     1     -11.018   7.567  69.650  1.00  0.00    -0.232 OA 
BRANCH  10  12
HETATM   12  C   UNL     1      -8.735   7.786  70.498  1.00  0.00    -0.140 C  
HETATM   13  C   UNL     1      -8.616   8.862  69.442  1.00  0.00    -0.133 A  
HETATM   14  C   UNL     1      -8.712   8.533  68.077  1.00  0.00    -0.142 A  
HETATM   15  C   UNL     1      -8.752   9.537  67.111  1.00  0.00    -0.137 A  
HETATM   16  C   UNL     1      -8.675  10.873  67.495  1.00  0.00    -0.130 A  
HETATM   17  C   UNL     1      -8.560  11.205  68.847  1.00  0.00    -0.092 A  
HETATM   18  C   UNL     1      -8.542  10.204  69.818  1.00  0.00    -0.128 A  
HETATM   19  O   UNL     1      -8.473  10.624  71.124  1.00  0.00     2.340 OA 
HETATM   20  C   UNL     1      -8.434   9.682  72.123  1.00  0.00     2.289 A  
HETATM   21  C   UNL     1      -8.304  10.172  73.425  1.00  0.00     7.510 A  
HETATM   22  C   UNL     1      -8.269   9.293  74.506  1.00  0.00     1.669 A  
HETATM   23  C   UNL     1      -8.353   7.919  74.289  1.00  0.00    -0.297 A  
HETATM   24  C   UNL     1      -8.477   7.425  72.990  1.00  0.00    -0.152 A  
HETATM   25  C   UNL     1      -8.531   8.307  71.897  1.00  0.00    -0.214 A  
ENDBRANCH  10  12
ENDBRANCH   9  10
ENDBRANCH   8   9
ENDBRANCH   7   8
ENDBRANCH   3   7
ENDBRANCH   2   3
TORSDOF 7
ENDMDL
MODEL      305
REMARK 921   NORMALIZED FREE ENERGY PREDICTED BY IDOCK:   22.70 KCAL/MOL
REMARK 922        TOTAL FREE ENERGY PREDICTED BY IDOCK:   30.67 KCAL/MOL
REMARK 923 INTER-LIGAND FREE ENERGY PREDICTED BY IDOCK:   19.87 KCAL/MOL
REMARK 924 INTRA-LIGAND FREE ENERGY PREDICTED BY IDOCK:   10.80 KCAL/MOL
REMARK 927      BINDING AFFINITY PREDICTED BY RF-SCORE:    0.00 PKD
ROOT
HETATM    1  C   UNL     1      -8.391  15.733  68.170  1.00  0.00    -0.160 C  
HETATM    2  C   UNL     1      -8.363  14.364  67.511  1.00  0.00    -0.187 C  
ENDROOT
BRANCH   2   3
HETATM    3  N   UNL     1      -8.608  14.382  65.978  1.00  0.00     0.597 N  
HETATM    4  C   UNL     1      -9.775  15.338  65.672  1.00  0.00    -0.325 C  
BRANCH   3   5
HETATM    5  C   UNL     1      -7.375  14.842  65.178  1.00  0.00    10.567 C  
HETATM    6  C   UNL     1      -6.282  15.457  66.039  1.00  0.00     4.749 C  
ENDBRANCH   3   5
BRANCH   3   7
HETATM    7  C   UNL     1      -9.045  12.935  65.606  1.00  0.00     0.481 C  
BRANCH   7   8
HETATM    8  C   UNL     1      -9.789  12.191  66.717  1.00  0.00    -0.206 C  
BRANCH   8   9
HETATM    9  O   UNL     1      -8.892  11.755  67.741  1.00  0.00    -0.151 OA 
BRANCH   9  10
HETATM   10  C   UNL     1      -8.452  10.467  67.591  1.00  0.00    -0.115 C  
HETATM   11  O   UNL     1      -9.114   9.593  67.043  1.00  0.00    -0.133 OA 
BRANCH  10  12
HETATM   12  C   UNL     1      -7.002  10.321  68.036  1.00  0.00    -0.082 C  
HETATM   13  C   UNL     1      -6.320  11.656  67.836  1.00  0.00    -0.054 A  
HETATM   14  C   UNL     1      -6.240  12.228  66.552  1.00  0.00     0.731 A  
HETATM   15  C   UNL     1      -5.746  13.521  66.386  1.00  0.00     3.559 A  
HETATM   16  C   UNL     1      -5.309  14.244  67.494  1.00  0.00     0.213 A  
HETATM   17  C   UNL     1      -5.368  13.674  68.767  1.00  0.00    -0.073 A  
HETATM   18  C   UNL     1      -5.882  12.389  68.939  1.00  0.00    -0.066 A  
HETATM   19  O   UNL     1      -5.944  11.926  70.231  1.00  0.00    -0.154 OA 
HETATM   20  C   UNL     1      -6.426  10.660  70.460  1.00  0.00    -0.040 A  
HETATM   21  C   UNL     1      -6.407  10.228  71.788  1.00  0.00     0.862 A  
HETATM   22  C   UNL     1      -6.887   8.962  72.121  1.00  0.00     0.040 A  
HETATM   23  C   UNL     1      -7.377   8.119  71.125  1.00  0.00    -0.065 A  
HETATM   24  C   UNL     1      -7.391   8.545  69.797  1.00  0.00    -0.056 A  
HETATM   25  C   UNL     1      -6.925   9.827  69.458  1.00  0.00    -0.064 A  
ENDBRANCH  10  12
ENDBRANCH   9  10
ENDBRANCH   8   9
ENDBRANCH   7   8
ENDBRANCH   3   7
ENDBRANCH   2   3
TORSDOF 7
ENDMDL
MODEL      306
REMARK 921   NORMALIZED FREE ENERGY PREDICTED BY IDOCK:   35.78 KCAL/MOL
REMARK 922        TOTAL FREE ENERGY PREDICTED BY IDOCK:   49.10 KCAL/MOL
REMARK 923 INTER-LIGAND FREE ENERGY PREDICTED BY IDOCK:   30.01 KCAL/MOL
REMARK 924 INTRA-LIGAND FREE ENERGY PREDICTED BY IDOCK:   19.09 KCAL/MOL
REMARK 927      BINDING AFFINITY PREDICTED BY RF-SCORE:    0.00 PKD
ROOT
HETATM    1  C   UNL     1      -8.381  15.732  68.138  1.00  0.00    -0.160 C  
HETATM    2  C   UNL     1      -8.356  14.388  67.428  1.00  0.00    -0.201 C  
ENDROOT
BRANCH   2   3
HETATM    3  N   UNL     1      -8.646  14.459  65.905  1.00  0.00     0.820 N  
HETATM    4  C   UNL     1      -7.936  15.693  65.319  1.00  0.00     4.542 C  
BRANCH   3   5
HETATM    5  C   UNL     1      -8.165  13.209  65.144  1.00  0.00     4.049 C  
HETATM    6  C   UNL     1      -7.275  12.294  65.970  1.00  0.00     1.589 C  
ENDBRANCH   3   5
BRANCH   3   7
HETATM    7  C   UNL     1     -10.183  14.669  65.779  1.00  0.00    -0.340 C  
BRANCH   7   8
HETATM    8  C   UNL     1     -10.827  15.374  66.975  1.00  0.00    -0.320 C  
BRANCH   8   9
HETATM    9  O   UNL     1     -10.889  14.513  68.114  1.00  0.00    -0.233 OA 
BRANCH   9  10
HETATM   10  C   UNL     1     -12.068  13.825  68.233  1.00  0.00    -0.279 C  
HETATM   11  O   UNL     1     -13.153  14.293  67.907  1.00  0.00     1.381 OA 
BRANCH  10  12
HETATM   12  C   UNL     1     -11.826  12.381  68.656  1.00  0.00    -0.348 C  
HETATM   13  C   UNL     1     -10.477  11.961  68.117  1.00  0.00    -0.225 A  
HETATM   14  C   UNL     1     -10.230  11.969  66.731  1.00  0.00    -0.225 A  
HETATM   15  C   UNL     1      -8.948  11.726  66.242  1.00  0.00    -0.176 A  
HETATM   16  C   UNL     1      -7.908  11.453  67.126  1.00  0.00    -0.156 A  
HETATM   17  C   UNL     1      -8.151  11.424  68.501  1.00  0.00    -0.149 A  
HETATM   18  C   UNL     1      -9.428  11.687  68.995  1.00  0.00     0.139 A  
HETATM   19  O   UNL     1      -9.565  11.682  70.362  1.00  0.00     2.657 OA 
HETATM   20  C   UNL     1     -10.805  11.918  70.907  1.00  0.00     3.110 A  
HETATM   21  C   UNL     1     -10.888  11.841  72.299  1.00  0.00     9.883 A  
HETATM   22  C   UNL     1     -12.102  12.077  72.943  1.00  0.00     5.331 A  
HETATM   23  C   UNL     1     -13.239  12.382  72.197  1.00  0.00    -0.491 A  
HETATM   24  C   UNL     1     -13.160  12.455  70.806  1.00  0.00     0.187 A  
HETATM   25  C   UNL     1     -11.935  12.235  70.151  1.00  0.00    -0.377 A  
ENDBRANCH  10  12
ENDBRANCH   9  10
ENDBRANCH   8   9
ENDBRANCH   7   8
ENDBRANCH   3   7
ENDBRANCH   2   3
TORSDOF 7
ENDMDL
MODEL      307
REMARK 921   NORMALIZED FREE ENERGY PREDICTED BY IDOCK:   41.77 KCAL/MOL
REMARK 922        TOTAL FREE ENERGY PREDICTED BY IDOCK:   57.54 KCAL/MOL
REMARK 923 INTER-LIGAND FREE ENERGY PREDICTED BY IDOCK:   53.92 KCAL/MOL
REMARK 924 INTRA-LIGAND FREE ENERGY PREDICTED BY IDOCK:    3.62 KCAL/MOL
REMARK 927      BINDING AFFINITY PREDICTED BY RF-SCORE:    0.00 PKD
ROOT
HETATM    1  C   UNL     1     -14.322  16.909  70.600  1.00  0.00     8.819 C  
HETATM    2  C   UNL     1     -13.621  15.581  70.368  1.00  0.00     0.390 C  
ENDROOT
BRANCH   2   3
HETATM    3  N   UNL     1     -12.099  15.594  70.675  1.00  0.00    -0.381 N  
HETATM    4  C   UNL     1     -11.569  17.030  70.507  1.00  0.00     1.225 C  
BRANCH   3   5
HETATM    5  C   UNL     1     -11.770  15.114  72.100  1.00  0.00    -0.414 C  
HETATM    6  C   UNL     1     -12.725  15.641  73.160  1.00  0.00    -0.599 C  
ENDBRANCH   3   5
BRANCH   3   7
HETATM    7  C   UNL     1     -11.444  14.697  69.585  1.00  0.00    -0.289 C  
BRANCH   7   8
HETATM    8  C   UNL     1     -11.588  13.193  69.830  1.00  0.00    -0.185 C  
BRANCH   8   9
HETATM    9  O   UNL     1     -11.846  12.914  71.208  1.00  0.00     0.340 OA 
BRANCH   9  10
HETATM   10  C   UNL     1     -10.853  12.206  71.832  1.00  0.00     8.130 C  
HETATM   11  O   UNL     1     -10.409  12.504  72.935  1.00  0.00    14.042 OA 
BRANCH  10  12
HETATM   12  C   UNL     1     -10.509  10.937  71.062  1.00  0.00     2.266 C  
HETATM   13  C   UNL     1      -9.504  10.157  71.881  1.00  0.00     4.215 A  
HETATM   14  C   UNL     1      -8.257  10.723  72.203  1.00  0.00     9.377 A  
HETATM   15  C   UNL     1      -7.391  10.070  73.079  1.00  0.00     3.617 A  
HETATM   16  C   UNL     1      -7.752   8.839  73.621  1.00  0.00     0.184 A  
HETATM   17  C   UNL     1      -8.979   8.263  73.289  1.00  0.00    -0.283 A  
HETATM   18  C   UNL     1      -9.857   8.925  72.430  1.00  0.00     0.016 A  
HETATM   19  O   UNL     1     -11.061   8.306  72.196  1.00  0.00    -0.279 OA 
HETATM   20  C   UNL     1     -11.960   8.902  71.344  1.00  0.00    -0.311 A  
HETATM   21  C   UNL     1     -13.139   8.194  71.102  1.00  0.00    -0.066 A  
HETATM   22  C   UNL     1     -14.116   8.724  70.261  1.00  0.00     1.582 A  
HETATM   23  C   UNL     1     -13.914   9.961  69.652  1.00  0.00     3.053 A  
HETATM   24  C   UNL     1     -12.735  10.669  69.887  1.00  0.00    -0.081 A  
HETATM   25  C   UNL     1     -11.753  10.147  70.747  1.00  0.00    -0.446 A  
ENDBRANCH  10  12
ENDBRANCH   9  10
ENDBRANCH   8   9
ENDBRANCH   7   8
ENDBRANCH   3   7
ENDBRANCH   2   3
TORSDOF 7
ENDMDL
