MODEL        1
REMARK 921   NORMALIZED FREE ENERGY PREDICTED BY IDOCK:   -6.93 KCAL/MOL
REMARK 922        TOTAL FREE ENERGY PREDICTED BY IDOCK:   -7.52 KCAL/MOL
REMARK 923 INTER-LIGAND FREE ENERGY PREDICTED BY IDOCK:   -7.74 KCAL/MOL
REMARK 924 INTRA-LIGAND FREE ENERGY PREDICTED BY IDOCK:    0.23 KCAL/MOL
REMARK 927      BINDING AFFINITY PREDICTED BY RF-SCORE:    0.00 PKD
ROOT
HETATM    1  C   UNL     1     -10.994  13.611  68.554  1.00  0.00    -0.289 C  
HETATM    2  C   UNL     1     -12.006  13.483  67.402  1.00  0.00    -0.398 C  
ENDROOT
BRANCH   2   3
HETATM    3  C   UNL     1     -11.353  13.076  66.024  1.00  0.00    -0.343 C  
HETATM    4  C   UNL     1     -12.378  13.294  64.881  1.00  0.00    -0.425 C  
HETATM    5  O   UNL     1      -9.040  13.936  66.146  1.00  0.00    -0.088 OA 
HETATM    6  C   UNL     1     -10.084  16.544  66.191  1.00  0.00    -0.348 C  
HETATM    7  N   UNL     1     -12.317  14.482  64.199  1.00  0.00    -0.858 N  
HETATM    8  O   UNL     1     -13.276  12.508  64.581  1.00  0.00    -0.848 OA 
HETATM    9  C   UNL     1     -10.224  14.120  65.875  1.00  0.00    -0.319 C  
HETATM   10  C   UNL     1     -11.558  15.566  64.518  1.00  0.00    -0.283 C  
HETATM   11  H   UNL     1     -12.901  14.562  63.366  1.00  0.00     0.000 HD 
HETATM   12  O   UNL     1     -11.687  16.610  63.887  1.00  0.00    -1.153 OA 
HETATM   13  N   UNL     1     -10.710  15.391  65.584  1.00  0.00    -0.349 N  
BRANCH   3  14
HETATM   14  C   UNL     1     -10.979  11.573  66.144  1.00  0.00    -0.320 A  
HETATM   15  C   UNL     1      -9.685   9.604  65.520  1.00  0.00    -0.372 A  
HETATM   16  C   UNL     1     -10.768   9.644  67.660  1.00  0.00    -0.324 A  
HETATM   17  C   UNL     1     -11.286  10.902  67.354  1.00  0.00    -0.345 A  
HETATM   18  C   UNL     1     -10.214  10.866  65.208  1.00  0.00    -0.351 A  
HETATM   19  C   UNL     1      -9.938   9.007  66.753  1.00  0.00    -0.332 A  
ENDBRANCH   3  14
ENDBRANCH   2   3
TORSDOF 2
ENDMDL
MODEL        2
REMARK 921   NORMALIZED FREE ENERGY PREDICTED BY IDOCK:   -6.91 KCAL/MOL
REMARK 922        TOTAL FREE ENERGY PREDICTED BY IDOCK:   -7.49 KCAL/MOL
REMARK 923 INTER-LIGAND FREE ENERGY PREDICTED BY IDOCK:   -7.53 KCAL/MOL
REMARK 924 INTRA-LIGAND FREE ENERGY PREDICTED BY IDOCK:    0.04 KCAL/MOL
REMARK 927      BINDING AFFINITY PREDICTED BY RF-SCORE:    0.00 PKD
ROOT
HETATM    1  C   UNL     1     -10.989  14.104  68.714  1.00  0.00    -0.275 C  
HETATM    2  C   UNL     1     -11.935  13.746  67.555  1.00  0.00    -0.411 C  
ENDROOT
BRANCH   2   3
HETATM    3  C   UNL     1     -11.187  13.310  66.235  1.00  0.00    -0.321 C  
HETATM    4  C   UNL     1     -12.168  13.382  65.037  1.00  0.00    -0.424 C  
HETATM    5  O   UNL     1      -8.953  14.350  66.407  1.00  0.00    -0.205 OA 
HETATM    6  C   UNL     1     -10.187  16.868  66.244  1.00  0.00    -0.329 C  
HETATM    7  N   UNL     1     -12.161  14.530  64.285  1.00  0.00    -0.681 N  
HETATM    8  O   UNL     1     -12.991  12.514  64.746  1.00  0.00    -0.827 OA 
HETATM    9  C   UNL     1     -10.132  14.427  66.073  1.00  0.00    -0.322 C  
HETATM   10  C   UNL     1     -11.500  15.685  64.571  1.00  0.00    -0.300 C  
HETATM   11  H   UNL     1     -12.708  14.515  63.424  1.00  0.00     0.000 HD 
HETATM   12  O   UNL     1     -11.674  16.677  63.871  1.00  0.00    -1.153 OA 
HETATM   13  N   UNL     1     -10.695  15.638  65.682  1.00  0.00    -0.352 N  
BRANCH   3  14
HETATM   14  C   UNL     1     -10.710  11.850  66.465  1.00  0.00    -0.293 A  
HETATM   15  C   UNL     1     -10.842   9.671  67.548  1.00  0.00    -0.265 A  
HETATM   16  C   UNL     1      -9.735   9.841  65.427  1.00  0.00    -0.383 A  
HETATM   17  C   UNL     1      -9.981  11.213  65.429  1.00  0.00    -0.309 A  
HETATM   18  C   UNL     1     -11.082  11.053  67.556  1.00  0.00    -0.366 A  
HETATM   19  C   UNL     1     -10.195   9.062  66.475  1.00  0.00    -0.318 A  
ENDBRANCH   3  14
ENDBRANCH   2   3
TORSDOF 2
ENDMDL
MODEL        3
REMARK 921   NORMALIZED FREE ENERGY PREDICTED BY IDOCK:   -6.38 KCAL/MOL
REMARK 922        TOTAL FREE ENERGY PREDICTED BY IDOCK:   -6.90 KCAL/MOL
REMARK 923 INTER-LIGAND FREE ENERGY PREDICTED BY IDOCK:   -7.53 KCAL/MOL
REMARK 924 INTRA-LIGAND FREE ENERGY PREDICTED BY IDOCK:    0.63 KCAL/MOL
REMARK 927      BINDING AFFINITY PREDICTED BY RF-SCORE:    0.00 PKD
ROOT
HETATM    1  C   UNL     1      -8.420  15.000  67.046  1.00  0.00    -0.258 C  
HETATM    2  C   UNL     1      -9.363  14.981  65.830  1.00  0.00    -0.249 C  
ENDROOT
BRANCH   2   3
HETATM    3  C   UNL     1     -10.809  15.534  66.138  1.00  0.00    -0.295 C  
HETATM    4  C   UNL     1     -11.608  15.658  64.816  1.00  0.00    -0.218 C  
HETATM    5  O   UNL     1     -11.501  14.367  68.203  1.00  0.00    -0.278 OA 
HETATM    6  C   UNL     1     -11.481  11.953  66.765  1.00  0.00    -0.316 C  
HETATM    7  N   UNL     1     -12.425  14.610  64.473  1.00  0.00    -0.610 N  
HETATM    8  O   UNL     1     -11.520  16.596  64.024  1.00  0.00    -1.192 OA 
HETATM    9  C   UNL     1     -11.424  14.392  66.978  1.00  0.00    -0.361 C  
HETATM   10  C   UNL     1     -12.492  13.396  65.085  1.00  0.00    -0.459 C  
HETATM   11  H   UNL     1     -13.047  14.757  63.677  1.00  0.00     0.000 HD 
HETATM   12  O   UNL     1     -13.184  12.506  64.604  1.00  0.00    -0.848 OA 
HETATM   13  N   UNL     1     -11.717  13.267  66.212  1.00  0.00    -0.351 N  
BRANCH   3  14
HETATM   14  C   UNL     1     -10.613  16.929  66.792  1.00  0.00    -0.201 A  
HETATM   15  C   UNL     1     -10.212  18.392  68.700  1.00  0.00    -0.370 A  
HETATM   16  C   UNL     1      -9.735  19.210  66.496  1.00  0.00    -0.411 A  
HETATM   17  C   UNL     1     -10.184  18.000  65.969  1.00  0.00    -0.304 A  
HETATM   18  C   UNL     1     -10.673  17.178  68.170  1.00  0.00    -0.366 A  
HETATM   19  C   UNL     1      -9.719  19.394  67.868  1.00  0.00    -0.445 A  
ENDBRANCH   3  14
ENDBRANCH   2   3
TORSDOF 2
ENDMDL
MODEL        4
REMARK 921   NORMALIZED FREE ENERGY PREDICTED BY IDOCK:   -6.37 KCAL/MOL
REMARK 922        TOTAL FREE ENERGY PREDICTED BY IDOCK:   -6.88 KCAL/MOL
REMARK 923 INTER-LIGAND FREE ENERGY PREDICTED BY IDOCK:   -6.76 KCAL/MOL
REMARK 924 INTRA-LIGAND FREE ENERGY PREDICTED BY IDOCK:   -0.12 KCAL/MOL
REMARK 927      BINDING AFFINITY PREDICTED BY RF-SCORE:    0.00 PKD
ROOT
HETATM    1  C   UNL     1     -11.243  15.016  68.691  1.00  0.00    -0.289 C  
HETATM    2  C   UNL     1     -11.521  15.936  67.489  1.00  0.00    -0.005 C  
ENDROOT
BRANCH   2   3
HETATM    3  C   UNL     1     -10.268  16.162  66.557  1.00  0.00    -0.304 C  
HETATM    4  C   UNL     1      -9.211  15.064  66.837  1.00  0.00    -0.246 C  
HETATM    5  O   UNL     1     -11.220  16.803  64.369  1.00  0.00    -1.112 OA 
HETATM    6  C   UNL     1     -12.338  14.232  64.179  1.00  0.00    -0.327 C  
HETATM    7  N   UNL     1      -9.219  13.959  66.024  1.00  0.00    -0.500 N  
HETATM    8  O   UNL     1      -8.405  15.082  67.767  1.00  0.00    -0.138 OA 
HETATM    9  C   UNL     1     -10.860  15.926  65.150  1.00  0.00    -0.421 C  
HETATM   10  C   UNL     1     -10.161  13.641  65.094  1.00  0.00    -0.328 C  
HETATM   11  H   UNL     1      -8.439  13.309  66.127  1.00  0.00     0.000 HD 
HETATM   12  O   UNL     1     -10.108  12.560  64.516  1.00  0.00    -0.296 OA 
HETATM   13  N   UNL     1     -11.142  14.584  64.910  1.00  0.00    -0.377 N  
BRANCH   3  14
HETATM   14  C   UNL     1      -9.707  17.566  66.912  1.00  0.00    -0.291 A  
HETATM   15  C   UNL     1      -8.175  19.434  66.590  1.00  0.00    -0.322 A  
HETATM   16  C   UNL     1     -10.245  19.823  67.738  1.00  0.00    -0.571 A  
HETATM   17  C   UNL     1     -10.553  18.470  67.603  1.00  0.00    -0.450 A  
HETATM   18  C   UNL     1      -8.480  18.070  66.462  1.00  0.00    -0.285 A  
HETATM   19  C   UNL     1      -9.066  20.312  67.201  1.00  0.00    -0.499 A  
ENDBRANCH   3  14
ENDBRANCH   2   3
TORSDOF 2
ENDMDL
MODEL        5
REMARK 921   NORMALIZED FREE ENERGY PREDICTED BY IDOCK:   -6.34 KCAL/MOL
REMARK 922        TOTAL FREE ENERGY PREDICTED BY IDOCK:   -6.85 KCAL/MOL
REMARK 923 INTER-LIGAND FREE ENERGY PREDICTED BY IDOCK:   -6.71 KCAL/MOL
REMARK 924 INTRA-LIGAND FREE ENERGY PREDICTED BY IDOCK:   -0.14 KCAL/MOL
REMARK 927      BINDING AFFINITY PREDICTED BY RF-SCORE:    0.00 PKD
ROOT
HETATM    1  C   UNL     1     -10.757  10.798  67.578  1.00  0.00    -0.312 C  
HETATM    2  C   UNL     1     -11.893  11.812  67.359  1.00  0.00    -0.210 C  
ENDROOT
BRANCH   2   3
HETATM    3  C   UNL     1     -11.397  13.228  66.869  1.00  0.00    -0.351 C  
HETATM    4  C   UNL     1      -9.889  13.153  66.516  1.00  0.00    -0.265 C  
HETATM    5  O   UNL     1     -13.229  14.079  65.447  1.00  0.00    -0.761 OA 
HETATM    6  C   UNL     1     -12.703  11.993  63.639  1.00  0.00    -0.431 C  
HETATM    7  N   UNL     1      -9.560  12.934  65.202  1.00  0.00    -0.482 N  
HETATM    8  O   UNL     1      -8.970  13.217  67.331  1.00  0.00    -0.182 OA 
HETATM    9  C   UNL     1     -12.198  13.421  65.563  1.00  0.00    -0.455 C  
HETATM   10  C   UNL     1     -10.415  12.612  64.192  1.00  0.00    -0.413 C  
HETATM   11  H   UNL     1      -8.574  13.022  64.957  1.00  0.00     0.000 HD 
HETATM   12  O   UNL     1      -9.972  12.328  63.085  1.00  0.00    -0.389 OA 
HETATM   13  N   UNL     1     -11.745  12.600  64.534  1.00  0.00    -0.339 N  
BRANCH   3  14
HETATM   14  C   UNL     1     -11.634  14.208  68.051  1.00  0.00    -0.368 A  
HETATM   15  C   UNL     1     -12.009  14.715  70.405  1.00  0.00    -0.375 A  
HETATM   16  C   UNL     1     -11.142  16.436  68.976  1.00  0.00    -0.315 A  
HETATM   17  C   UNL     1     -11.212  15.553  67.900  1.00  0.00    -0.325 A  
HETATM   18  C   UNL     1     -12.089  13.829  69.320  1.00  0.00    -0.374 A  
HETATM   19  C   UNL     1     -11.512  16.005  70.239  1.00  0.00    -0.369 A  
ENDBRANCH   3  14
ENDBRANCH   2   3
TORSDOF 2
ENDMDL
MODEL        6
REMARK 921   NORMALIZED FREE ENERGY PREDICTED BY IDOCK:   -6.19 KCAL/MOL
REMARK 922        TOTAL FREE ENERGY PREDICTED BY IDOCK:   -6.69 KCAL/MOL
REMARK 923 INTER-LIGAND FREE ENERGY PREDICTED BY IDOCK:   -6.55 KCAL/MOL
REMARK 924 INTRA-LIGAND FREE ENERGY PREDICTED BY IDOCK:   -0.14 KCAL/MOL
REMARK 927      BINDING AFFINITY PREDICTED BY RF-SCORE:    0.00 PKD
ROOT
HETATM    1  C   UNL     1      -7.740  15.909  67.507  1.00  0.00    -0.183 C  
HETATM    2  C   UNL     1      -8.632  16.140  66.275  1.00  0.00    -0.373 C  
ENDROOT
BRANCH   2   3
HETATM    3  C   UNL     1     -10.165  16.292  66.620  1.00  0.00    -0.287 C  
HETATM    4  C   UNL     1     -10.345  16.355  68.158  1.00  0.00    -0.283 C  
HETATM    5  O   UNL     1     -11.030  17.887  64.943  1.00  0.00    -0.827 OA 
HETATM    6  C   UNL     1      -9.398  19.869  66.085  1.00  0.00    -0.358 C  
HETATM    7  N   UNL     1     -10.417  17.599  68.734  1.00  0.00    -0.334 N  
HETATM    8  O   UNL     1     -10.371  15.378  68.906  1.00  0.00    -0.217 OA 
HETATM    9  C   UNL     1     -10.496  17.681  66.030  1.00  0.00    -0.278 C  
HETATM   10  C   UNL     1     -10.183  18.793  68.122  1.00  0.00    -0.381 C  
HETATM   11  H   UNL     1     -10.670  17.632  69.721  1.00  0.00     0.000 HD 
HETATM   12  O   UNL     1     -10.167  19.825  68.784  1.00  0.00    -0.449 OA 
HETATM   13  N   UNL     1      -9.943  18.720  66.772  1.00  0.00    -0.336 N  
BRANCH   3  14
HETATM   14  C   UNL     1     -10.871  15.038  66.037  1.00  0.00    -0.334 A  
HETATM   15  C   UNL     1     -12.847  13.721  65.487  1.00  0.00    -0.464 A  
HETATM   16  C   UNL     1     -10.803  13.284  64.310  1.00  0.00    -0.414 A  
HETATM   17  C   UNL     1     -10.173  14.263  65.076  1.00  0.00    -0.402 A  
HETATM   18  C   UNL     1     -12.211  14.700  66.265  1.00  0.00    -0.162 A  
HETATM   19  C   UNL     1     -12.152  13.034  64.494  1.00  0.00    -0.468 A  
ENDBRANCH   3  14
ENDBRANCH   2   3
TORSDOF 2
ENDMDL
MODEL        7
REMARK 921   NORMALIZED FREE ENERGY PREDICTED BY IDOCK:   -6.17 KCAL/MOL
REMARK 922        TOTAL FREE ENERGY PREDICTED BY IDOCK:   -6.66 KCAL/MOL
REMARK 923 INTER-LIGAND FREE ENERGY PREDICTED BY IDOCK:   -6.61 KCAL/MOL
REMARK 924 INTRA-LIGAND FREE ENERGY PREDICTED BY IDOCK:   -0.05 KCAL/MOL
REMARK 927      BINDING AFFINITY PREDICTED BY RF-SCORE:    0.00 PKD
ROOT
HETATM    1  C   UNL     1     -11.550  12.330  67.813  1.00  0.00    -0.416 C  
HETATM    2  C   UNL     1     -12.187  13.385  66.892  1.00  0.00    -0.343 C  
ENDROOT
BRANCH   2   3
HETATM    3  C   UNL     1     -11.150  14.126  65.961  1.00  0.00    -0.314 C  
HETATM    4  C   UNL     1      -9.792  13.381  66.004  1.00  0.00    -0.263 C  
HETATM    5  O   UNL     1     -12.448  14.762  63.957  1.00  0.00    -0.803 OA 
HETATM    6  C   UNL     1     -12.760  12.031  63.376  1.00  0.00    -0.398 C  
HETATM    7  N   UNL     1      -9.545  12.463  65.015  1.00  0.00    -0.462 N  
HETATM    8  O   UNL     1      -8.946  13.508  66.889  1.00  0.00    -0.230 OA 
HETATM    9  C   UNL     1     -11.772  13.933  64.560  1.00  0.00    -0.410 C  
HETATM   10  C   UNL     1     -10.431  12.013  64.084  1.00  0.00    -0.353 C  
HETATM   11  H   UNL     1      -8.601  12.079  64.972  1.00  0.00     0.000 HD 
HETATM   12  O   UNL     1     -10.111  11.102  63.328  1.00  0.00    -0.342 OA 
HETATM   13  N   UNL     1     -11.661  12.622  64.106  1.00  0.00    -0.367 N  
BRANCH   3  14
HETATM   14  C   UNL     1     -11.004  15.565  66.528  1.00  0.00    -0.243 A  
HETATM   15  C   UNL     1     -10.861  17.171  68.356  1.00  0.00    -0.309 A  
HETATM   16  C   UNL     1      -9.985  17.784  66.208  1.00  0.00    -0.322 A  
HETATM   17  C   UNL     1     -10.394  16.549  65.709  1.00  0.00    -0.359 A  
HETATM   18  C   UNL     1     -11.282  15.932  67.851  1.00  0.00    -0.297 A  
HETATM   19  C   UNL     1     -10.191  18.083  67.544  1.00  0.00    -0.376 A  
ENDBRANCH   3  14
ENDBRANCH   2   3
TORSDOF 2
ENDMDL
MODEL        8
REMARK 921   NORMALIZED FREE ENERGY PREDICTED BY IDOCK:   -6.07 KCAL/MOL
REMARK 922        TOTAL FREE ENERGY PREDICTED BY IDOCK:   -6.55 KCAL/MOL
REMARK 923 INTER-LIGAND FREE ENERGY PREDICTED BY IDOCK:   -6.61 KCAL/MOL
REMARK 924 INTRA-LIGAND FREE ENERGY PREDICTED BY IDOCK:    0.06 KCAL/MOL
REMARK 927      BINDING AFFINITY PREDICTED BY RF-SCORE:    0.00 PKD
ROOT
HETATM    1  C   UNL     1     -11.317  13.133  68.421  1.00  0.00    -0.324 C  
HETATM    2  C   UNL     1     -12.010  12.960  67.058  1.00  0.00    -0.390 C  
ENDROOT
BRANCH   2   3
HETATM    3  C   UNL     1     -11.009  12.890  65.840  1.00  0.00    -0.300 C  
HETATM    4  C   UNL     1     -11.800  13.008  64.513  1.00  0.00    -0.377 C  
HETATM    5  O   UNL     1      -9.061  14.234  66.549  1.00  0.00    -0.249 OA 
HETATM    6  C   UNL     1     -10.713  16.507  66.542  1.00  0.00    -0.144 C  
HETATM    7  N   UNL     1     -11.902  14.255  63.949  1.00  0.00    -0.688 N  
HETATM    8  O   UNL     1     -12.392  12.082  63.959  1.00  0.00    -0.420 OA 
HETATM    9  C   UNL     1     -10.172  14.175  66.029  1.00  0.00    -0.308 C  
HETATM   10  C   UNL     1     -11.521  15.435  64.511  1.00  0.00    -0.311 C  
HETATM   11  H   UNL     1     -12.304  14.302  63.013  1.00  0.00     0.000 HD 
HETATM   12  O   UNL     1     -11.776  16.492  63.944  1.00  0.00    -1.148 OA 
HETATM   13  N   UNL     1     -10.892  15.327  65.727  1.00  0.00    -0.346 N  
BRANCH   3  14
HETATM   14  C   UNL     1     -10.302  11.510  65.935  1.00  0.00    -0.293 A  
HETATM   15  C   UNL     1     -10.178   9.181  66.642  1.00  0.00    -0.328 A  
HETATM   16  C   UNL     1      -8.815   9.904  64.806  1.00  0.00    -0.232 A  
HETATM   17  C   UNL     1      -9.316  11.195  64.966  1.00  0.00    -0.232 A  
HETATM   18  C   UNL     1     -10.676  10.482  66.810  1.00  0.00    -0.252 A  
HETATM   19  C   UNL     1      -9.272   8.887  65.626  1.00  0.00    -0.268 A  
ENDBRANCH   3  14
ENDBRANCH   2   3
TORSDOF 2
ENDMDL
MODEL        9
REMARK 921   NORMALIZED FREE ENERGY PREDICTED BY IDOCK:   -6.01 KCAL/MOL
REMARK 922        TOTAL FREE ENERGY PREDICTED BY IDOCK:   -6.48 KCAL/MOL
REMARK 923 INTER-LIGAND FREE ENERGY PREDICTED BY IDOCK:   -6.92 KCAL/MOL
REMARK 924 INTRA-LIGAND FREE ENERGY PREDICTED BY IDOCK:    0.44 KCAL/MOL
REMARK 927      BINDING AFFINITY PREDICTED BY RF-SCORE:    0.00 PKD
ROOT
HETATM    1  C   UNL     1      -7.995  15.761  66.767  1.00  0.00    -0.273 C  
HETATM    2  C   UNL     1      -9.176  15.306  67.643  1.00  0.00    -0.187 C  
ENDROOT
BRANCH   2   3
HETATM    3  C   UNL     1     -10.562  15.928  67.215  1.00  0.00    -0.314 C  
HETATM    4  C   UNL     1     -10.800  15.671  65.705  1.00  0.00    -0.306 C  
HETATM    5  O   UNL     1     -12.090  15.402  69.084  1.00  0.00    -0.315 OA 
HETATM    6  C   UNL     1     -11.814  12.678  68.452  1.00  0.00    -0.301 C  
HETATM    7  N   UNL     1     -11.546  14.572  65.363  1.00  0.00    -0.349 N  
HETATM    8  O   UNL     1     -10.322  16.344  64.791  1.00  0.00    -0.532 OA 
HETATM    9  C   UNL     1     -11.566  15.075  68.022  1.00  0.00    -0.338 C  
HETATM   10  C   UNL     1     -11.969  13.584  66.198  1.00  0.00    -0.412 C  
HETATM   11  H   UNL     1     -11.811  14.486  64.381  1.00  0.00     0.000 HD 
HETATM   12  O   UNL     1     -12.531  12.595  65.740  1.00  0.00    -0.607 OA 
HETATM   13  N   UNL     1     -11.681  13.780  67.527  1.00  0.00    -0.353 N  
BRANCH   3  14
HETATM   14  C   UNL     1     -10.465  17.451  67.503  1.00  0.00    -0.354 A  
HETATM   15  C   UNL     1      -9.629  19.375  68.744  1.00  0.00    -0.495 A  
HETATM   16  C   UNL     1     -10.473  19.711  66.524  1.00  0.00    -0.612 A  
HETATM   17  C   UNL     1     -10.773  18.352  66.452  1.00  0.00    -0.214 A  
HETATM   18  C   UNL     1      -9.940  18.008  68.676  1.00  0.00    -0.396 A  
HETATM   19  C   UNL     1      -9.869  20.218  67.662  1.00  0.00    -0.563 A  
ENDBRANCH   3  14
ENDBRANCH   2   3
TORSDOF 2
ENDMDL
MODEL       10
REMARK 921   NORMALIZED FREE ENERGY PREDICTED BY IDOCK:   -5.90 KCAL/MOL
REMARK 922        TOTAL FREE ENERGY PREDICTED BY IDOCK:   -6.36 KCAL/MOL
REMARK 923 INTER-LIGAND FREE ENERGY PREDICTED BY IDOCK:   -6.37 KCAL/MOL
REMARK 924 INTRA-LIGAND FREE ENERGY PREDICTED BY IDOCK:    0.01 KCAL/MOL
REMARK 927      BINDING AFFINITY PREDICTED BY RF-SCORE:    0.00 PKD
ROOT
HETATM    1  C   UNL     1      -8.253  14.479  67.092  1.00  0.00    -0.214 C  
HETATM    2  C   UNL     1      -9.315  13.506  67.634  1.00  0.00    -0.216 C  
ENDROOT
BRANCH   2   3
HETATM    3  C   UNL     1     -10.769  13.780  67.085  1.00  0.00    -0.283 C  
HETATM    4  C   UNL     1     -11.811  13.152  68.045  1.00  0.00    -0.358 C  
HETATM    5  O   UNL     1     -10.701  16.108  66.260  1.00  0.00    -0.294 OA 
HETATM    6  C   UNL     1     -10.299  16.961  68.907  1.00  0.00    -0.333 C  
HETATM    7  N   UNL     1     -12.360  13.970  69.000  1.00  0.00    -0.501 N  
HETATM    8  O   UNL     1     -12.139  11.966  68.052  1.00  0.00    -0.541 OA 
HETATM    9  C   UNL     1     -10.872  15.318  67.185  1.00  0.00    -0.322 C  
HETATM   10  C   UNL     1     -11.972  15.238  69.306  1.00  0.00    -0.299 C  
HETATM   11  H   UNL     1     -13.140  13.588  69.536  1.00  0.00     0.000 HD 
HETATM   12  O   UNL     1     -12.473  15.817  70.264  1.00  0.00    -0.389 OA 
HETATM   13  N   UNL     1     -10.989  15.758  68.500  1.00  0.00    -0.294 N  
BRANCH   3  14
HETATM   14  C   UNL     1     -10.840  13.110  65.685  1.00  0.00    -0.294 A  
HETATM   15  C   UNL     1     -10.253  11.371  64.081  1.00  0.00    -0.376 A  
HETATM   16  C   UNL     1     -12.250  12.650  63.719  1.00  0.00    -0.600 A  
HETATM   17  C   UNL     1     -11.963  13.389  64.866  1.00  0.00    -0.414 A  
HETATM   18  C   UNL     1      -9.958  12.121  65.229  1.00  0.00    -0.260 A  
HETATM   19  C   UNL     1     -11.409  11.616  63.343  1.00  0.00    -0.380 A  
ENDBRANCH   3  14
ENDBRANCH   2   3
TORSDOF 2
ENDMDL
MODEL       11
REMARK 921   NORMALIZED FREE ENERGY PREDICTED BY IDOCK:   -5.90 KCAL/MOL
REMARK 922        TOTAL FREE ENERGY PREDICTED BY IDOCK:   -6.36 KCAL/MOL
REMARK 923 INTER-LIGAND FREE ENERGY PREDICTED BY IDOCK:   -6.24 KCAL/MOL
REMARK 924 INTRA-LIGAND FREE ENERGY PREDICTED BY IDOCK:   -0.12 KCAL/MOL
REMARK 927      BINDING AFFINITY PREDICTED BY RF-SCORE:    0.00 PKD
ROOT
HETATM    1  C   UNL     1      -8.433  13.717  67.714  1.00  0.00    -0.183 C  
HETATM    2  C   UNL     1      -8.891  14.475  66.455  1.00  0.00    -0.156 C  
ENDROOT
BRANCH   2   3
HETATM    3  C   UNL     1     -10.434  14.802  66.436  1.00  0.00    -0.294 C  
HETATM    4  C   UNL     1     -10.989  14.766  67.883  1.00  0.00    -0.278 C  
HETATM    5  O   UNL     1     -10.670  16.625  64.786  1.00  0.00    -0.721 OA 
HETATM    6  C   UNL     1      -9.173  18.276  66.497  1.00  0.00    -0.292 C  
HETATM    7  N   UNL     1     -11.066  15.958  68.558  1.00  0.00    -0.321 N  
HETATM    8  O   UNL     1     -11.308  13.744  68.491  1.00  0.00    -0.251 OA 
HETATM    9  C   UNL     1     -10.453  16.265  65.940  1.00  0.00    -0.345 C  
HETATM   10  C   UNL     1     -10.558  17.155  68.156  1.00  0.00    -0.380 C  
HETATM   11  H   UNL     1     -11.556  15.946  69.454  1.00  0.00     0.000 HD 
HETATM   12  O   UNL     1     -10.597  18.120  68.911  1.00  0.00    -0.174 OA 
HETATM   13  N   UNL     1      -9.995  17.159  66.903  1.00  0.00    -0.277 N  
BRANCH   3  14
HETATM   14  C   UNL     1     -11.103  13.703  65.567  1.00  0.00    -0.301 A  
HETATM   15  C   UNL     1     -13.014  12.694  64.439  1.00  0.00    -0.232 A  
HETATM   16  C   UNL     1     -10.804  12.120  63.704  1.00  0.00    -0.523 A  
HETATM   17  C   UNL     1     -10.279  12.939  64.702  1.00  0.00    -0.321 A  
HETATM   18  C   UNL     1     -12.486  13.512  65.449  1.00  0.00    -0.540 A  
HETATM   19  C   UNL     1     -12.177  12.022  63.552  1.00  0.00    -0.653 A  
ENDBRANCH   3  14
ENDBRANCH   2   3
TORSDOF 2
ENDMDL
MODEL       12
REMARK 921   NORMALIZED FREE ENERGY PREDICTED BY IDOCK:   -5.85 KCAL/MOL
REMARK 922        TOTAL FREE ENERGY PREDICTED BY IDOCK:   -6.31 KCAL/MOL
REMARK 923 INTER-LIGAND FREE ENERGY PREDICTED BY IDOCK:   -6.28 KCAL/MOL
REMARK 924 INTRA-LIGAND FREE ENERGY PREDICTED BY IDOCK:   -0.02 KCAL/MOL
REMARK 927      BINDING AFFINITY PREDICTED BY RF-SCORE:    0.00 PKD
ROOT
HETATM    1  C   UNL     1      -9.194  11.958  68.331  1.00  0.00    -0.173 C  
HETATM    2  C   UNL     1      -9.432  13.240  67.515  1.00  0.00    -0.220 C  
ENDROOT
BRANCH   2   3
HETATM    3  C   UNL     1     -10.941  13.470  67.115  1.00  0.00    -0.302 C  
HETATM    4  C   UNL     1     -11.862  12.871  68.209  1.00  0.00    -0.330 C  
HETATM    5  O   UNL     1     -11.006  15.760  66.192  1.00  0.00    -0.280 OA 
HETATM    6  C   UNL     1     -10.336  16.734  68.741  1.00  0.00    -0.318 C  
HETATM    7  N   UNL     1     -12.320  13.722  69.183  1.00  0.00    -0.375 N  
HETATM    8  O   UNL     1     -12.165  11.681  68.302  1.00  0.00    -0.525 OA 
HETATM    9  C   UNL     1     -11.062  15.009  67.162  1.00  0.00    -0.332 C  
HETATM   10  C   UNL     1     -11.924  15.008  69.391  1.00  0.00    -0.303 C  
HETATM   11  H   UNL     1     -13.029  13.353  69.816  1.00  0.00     0.000 HD 
HETATM   12  O   UNL     1     -12.329  15.620  70.373  1.00  0.00    -0.400 OA 
HETATM   13  N   UNL     1     -11.043  15.505  68.462  1.00  0.00    -0.289 N  
BRANCH   3  14
HETATM   14  C   UNL     1     -11.152  12.738  65.762  1.00  0.00    -0.316 A  
HETATM   15  C   UNL     1     -12.381  12.296  63.704  1.00  0.00    -0.664 A  
HETATM   16  C   UNL     1     -10.053  11.724  63.805  1.00  0.00    -0.421 A  
HETATM   17  C   UNL     1     -10.020  12.168  65.125  1.00  0.00    -0.251 A  
HETATM   18  C   UNL     1     -12.350  12.735  65.036  1.00  0.00    -0.559 A  
HETATM   19  C   UNL     1     -11.230  11.818  63.081  1.00  0.00    -0.224 A  
ENDBRANCH   3  14
ENDBRANCH   2   3
TORSDOF 2
ENDMDL
MODEL       13
REMARK 921   NORMALIZED FREE ENERGY PREDICTED BY IDOCK:   -5.78 KCAL/MOL
REMARK 922        TOTAL FREE ENERGY PREDICTED BY IDOCK:   -6.23 KCAL/MOL
REMARK 923 INTER-LIGAND FREE ENERGY PREDICTED BY IDOCK:   -6.34 KCAL/MOL
REMARK 924 INTRA-LIGAND FREE ENERGY PREDICTED BY IDOCK:    0.11 KCAL/MOL
REMARK 927      BINDING AFFINITY PREDICTED BY RF-SCORE:    0.00 PKD
ROOT
HETATM    1  C   UNL     1      -8.494  13.589  67.122  1.00  0.00    -0.177 C  
HETATM    2  C   UNL     1      -9.847  13.097  66.579  1.00  0.00    -0.265 C  
ENDROOT
BRANCH   2   3
HETATM    3  C   UNL     1     -11.075  13.976  67.037  1.00  0.00    -0.312 C  
HETATM    4  C   UNL     1     -10.675  15.474  67.016  1.00  0.00    -0.321 C  
HETATM    5  O   UNL     1     -13.034  12.933  65.952  1.00  0.00    -0.179 OA 
HETATM    6  C   UNL     1     -11.963  13.672  63.462  1.00  0.00    -0.249 C  
HETATM    7  N   UNL     1     -10.984  16.193  65.890  1.00  0.00    -0.148 N  
HETATM    8  O   UNL     1     -10.050  16.049  67.907  1.00  0.00    -0.235 OA 
HETATM    9  C   UNL     1     -12.097  13.726  65.906  1.00  0.00    -0.433 C  
HETATM   10  C   UNL     1     -11.463  15.698  64.715  1.00  0.00    -0.283 C  
HETATM   11  H   UNL     1     -10.841  17.202  65.938  1.00  0.00     0.000 HD 
HETATM   12  O   UNL     1     -11.587  16.439  63.746  1.00  0.00    -1.055 OA 
HETATM   13  N   UNL     1     -11.738  14.353  64.717  1.00  0.00    -0.395 N  
BRANCH   3  14
HETATM   14  C   UNL     1     -11.423  13.523  68.481  1.00  0.00    -0.345 A  
HETATM   15  C   UNL     1     -12.527  13.805  70.635  1.00  0.00    -0.429 A  
HETATM   16  C   UNL     1     -11.850  11.603  69.963  1.00  0.00    -0.435 A  
HETATM   17  C   UNL     1     -11.321  12.143  68.793  1.00  0.00    -0.339 A  
HETATM   18  C   UNL     1     -11.986  14.350  69.462  1.00  0.00    -0.376 A  
HETATM   19  C   UNL     1     -12.484  12.433  70.873  1.00  0.00    -0.367 A  
ENDBRANCH   3  14
ENDBRANCH   2   3
TORSDOF 2
ENDMDL
MODEL       14
REMARK 921   NORMALIZED FREE ENERGY PREDICTED BY IDOCK:   -5.77 KCAL/MOL
REMARK 922        TOTAL FREE ENERGY PREDICTED BY IDOCK:   -6.22 KCAL/MOL
REMARK 923 INTER-LIGAND FREE ENERGY PREDICTED BY IDOCK:   -6.13 KCAL/MOL
REMARK 924 INTRA-LIGAND FREE ENERGY PREDICTED BY IDOCK:   -0.09 KCAL/MOL
REMARK 927      BINDING AFFINITY PREDICTED BY RF-SCORE:    0.00 PKD
ROOT
HETATM    1  C   UNL     1     -11.357   6.280  69.457  1.00  0.00    -0.475 C  
HETATM    2  C   UNL     1     -10.711   7.549  70.039  1.00  0.00    -0.248 C  
ENDROOT
BRANCH   2   3
HETATM    3  C   UNL     1     -11.379   8.045  71.380  1.00  0.00    -0.292 C  
HETATM    4  C   UNL     1     -12.521   7.076  71.779  1.00  0.00    -0.356 C  
HETATM    5  O   UNL     1      -9.489   8.790  72.786  1.00  0.00    -0.236 OA 
HETATM    6  C   UNL     1      -8.591   6.129  72.871  1.00  0.00    -0.123 C  
HETATM    7  N   UNL     1     -12.219   6.077  72.669  1.00  0.00    -0.536 N  
HETATM    8  O   UNL     1     -13.660   7.099  71.312  1.00  0.00    -0.353 OA 
HETATM    9  C   UNL     1     -10.227   7.888  72.397  1.00  0.00    -0.264 C  
HETATM   10  C   UNL     1     -10.981   5.739  73.123  1.00  0.00    -0.271 C  
HETATM   11  H   UNL     1     -13.003   5.531  73.028  1.00  0.00     0.000 HD 
HETATM   12  O   UNL     1     -10.838   4.747  73.830  1.00  0.00    -0.270 OA 
HETATM   13  N   UNL     1      -9.961   6.556  72.699  1.00  0.00    -0.170 N  
BRANCH   3  14
HETATM   14  C   UNL     1     -11.941   9.463  71.091  1.00  0.00    -0.413 A  
HETATM   15  C   UNL     1     -13.023  11.544  71.753  1.00  0.00    -0.500 A  
HETATM   16  C   UNL     1     -11.681  11.522  69.765  1.00  0.00    -0.426 A  
HETATM   17  C   UNL     1     -11.441  10.164  69.964  1.00  0.00    -0.344 A  
HETATM   18  C   UNL     1     -12.789  10.175  71.949  1.00  0.00    -0.526 A  
HETATM   19  C   UNL     1     -12.449  12.222  70.680  1.00  0.00    -0.323 A  
ENDBRANCH   3  14
ENDBRANCH   2   3
TORSDOF 2
ENDMDL
MODEL       15
REMARK 921   NORMALIZED FREE ENERGY PREDICTED BY IDOCK:   -5.77 KCAL/MOL
REMARK 922        TOTAL FREE ENERGY PREDICTED BY IDOCK:   -6.21 KCAL/MOL
REMARK 923 INTER-LIGAND FREE ENERGY PREDICTED BY IDOCK:   -6.18 KCAL/MOL
REMARK 924 INTRA-LIGAND FREE ENERGY PREDICTED BY IDOCK:   -0.03 KCAL/MOL
REMARK 927      BINDING AFFINITY PREDICTED BY RF-SCORE:    0.00 PKD
ROOT
HETATM    1  C   UNL     1      -8.629  14.215  67.547  1.00  0.00    -0.196 C  
HETATM    2  C   UNL     1      -9.422  12.990  68.035  1.00  0.00    -0.217 C  
ENDROOT
BRANCH   2   3
HETATM    3  C   UNL     1     -10.965  13.060  67.706  1.00  0.00    -0.273 C  
HETATM    4  C   UNL     1     -11.715  11.971  68.515  1.00  0.00    -0.332 C  
HETATM    5  O   UNL     1     -11.479  15.474  67.608  1.00  0.00    -0.307 OA 
HETATM    6  C   UNL     1     -10.884  15.643  70.349  1.00  0.00    -0.340 C  
HETATM    7  N   UNL     1     -12.275  12.347  69.710  1.00  0.00    -0.188 N  
HETATM    8  O   UNL     1     -11.795  10.785  68.196  1.00  0.00    -0.533 OA 
HETATM    9  C   UNL     1     -11.357  14.445  68.267  1.00  0.00    -0.287 C  
HETATM   10  C   UNL     1     -12.107  13.538  70.348  1.00  0.00    -0.345 C  
HETATM   11  H   UNL     1     -12.879  11.664  70.168  1.00  0.00     0.000 HD 
HETATM   12  O   UNL     1     -12.572  13.701  71.470  1.00  0.00    -0.342 OA 
HETATM   13  N   UNL     1     -11.371  14.471  69.658  1.00  0.00    -0.265 N  
BRANCH   3  14
HETATM   14  C   UNL     1     -11.099  12.798  66.182  1.00  0.00    -0.322 A  
HETATM   15  C   UNL     1     -10.411  11.747  64.093  1.00  0.00    -0.394 A  
HETATM   16  C   UNL     1     -12.653  12.579  64.284  1.00  0.00    -0.485 A  
HETATM   17  C   UNL     1     -12.359  13.023  65.572  1.00  0.00    -0.527 A  
HETATM   18  C   UNL     1     -10.112  12.202  65.385  1.00  0.00    -0.282 A  
HETATM   19  C   UNL     1     -11.685  11.910  63.554  1.00  0.00    -0.550 A  
ENDBRANCH   3  14
ENDBRANCH   2   3
TORSDOF 2
ENDMDL
MODEL       16
REMARK 921   NORMALIZED FREE ENERGY PREDICTED BY IDOCK:   -5.69 KCAL/MOL
REMARK 922        TOTAL FREE ENERGY PREDICTED BY IDOCK:   -6.13 KCAL/MOL
REMARK 923 INTER-LIGAND FREE ENERGY PREDICTED BY IDOCK:   -6.35 KCAL/MOL
REMARK 924 INTRA-LIGAND FREE ENERGY PREDICTED BY IDOCK:    0.22 KCAL/MOL
REMARK 927      BINDING AFFINITY PREDICTED BY RF-SCORE:    0.00 PKD
ROOT
HETATM    1  C   UNL     1      -8.610  14.208  68.521  1.00  0.00    -0.163 C  
HETATM    2  C   UNL     1      -9.999  13.560  68.381  1.00  0.00    -0.232 C  
ENDROOT
BRANCH   2   3
HETATM    3  C   UNL     1     -11.189  14.596  68.390  1.00  0.00    -0.290 C  
HETATM    4  C   UNL     1     -10.625  16.030  68.560  1.00  0.00    -0.268 C  
HETATM    5  O   UNL     1     -12.736  13.792  66.639  1.00  0.00    -0.233 OA 
HETATM    6  C   UNL     1     -10.752  14.345  64.728  1.00  0.00    -0.403 C  
HETATM    7  N   UNL     1     -10.412  16.763  67.420  1.00  0.00    -0.314 N  
HETATM    8  O   UNL     1     -10.299  16.537  69.633  1.00  0.00    -0.277 OA 
HETATM    9  C   UNL     1     -11.754  14.458  66.959  1.00  0.00    -0.399 C  
HETATM   10  C   UNL     1     -10.490  16.313  66.137  1.00  0.00    -0.322 C  
HETATM   11  H   UNL     1     -10.172  17.746  67.546  1.00  0.00     0.000 HD 
HETATM   12  O   UNL     1     -10.161  17.046  65.211  1.00  0.00    -0.601 OA 
HETATM   13  N   UNL     1     -10.913  15.014  65.999  1.00  0.00    -0.331 N  
BRANCH   3  14
HETATM   14  C   UNL     1     -12.090  14.216  69.596  1.00  0.00    -0.400 A  
HETATM   15  C   UNL     1     -12.732  12.776  71.455  1.00  0.00    -0.353 A  
HETATM   16  C   UNL     1     -13.455  15.063  71.463  1.00  0.00    -0.520 A  
HETATM   17  C   UNL     1     -12.829  15.247  70.231  1.00  0.00    -0.298 A  
HETATM   18  C   UNL     1     -12.109  12.958  70.211  1.00  0.00    -0.377 A  
HETATM   19  C   UNL     1     -13.379  13.832  72.092  1.00  0.00    -0.569 A  
ENDBRANCH   3  14
ENDBRANCH   2   3
TORSDOF 2
ENDMDL
MODEL       17
REMARK 921   NORMALIZED FREE ENERGY PREDICTED BY IDOCK:   -5.66 KCAL/MOL
REMARK 922        TOTAL FREE ENERGY PREDICTED BY IDOCK:   -6.09 KCAL/MOL
REMARK 923 INTER-LIGAND FREE ENERGY PREDICTED BY IDOCK:   -5.90 KCAL/MOL
REMARK 924 INTRA-LIGAND FREE ENERGY PREDICTED BY IDOCK:   -0.19 KCAL/MOL
REMARK 927      BINDING AFFINITY PREDICTED BY RF-SCORE:    0.00 PKD
ROOT
HETATM    1  C   UNL     1      -9.906  19.483  68.943  1.00  0.00    -0.522 C  
HETATM    2  C   UNL     1      -9.322  18.114  68.553  1.00  0.00    -0.321 C  
ENDROOT
BRANCH   2   3
HETATM    3  C   UNL     1      -9.217  17.889  66.994  1.00  0.00    -0.260 C  
HETATM    4  C   UNL     1      -9.586  19.201  66.256  1.00  0.00    -0.348 C  
HETATM    5  O   UNL     1      -7.182  16.521  66.693  1.00  0.00    -0.222 OA 
HETATM    6  C   UNL     1      -5.667  18.690  67.639  1.00  0.00    -0.175 C  
HETATM    7  N   UNL     1      -8.555  20.028  65.887  1.00  0.00    -0.492 N  
HETATM    8  O   UNL     1     -10.734  19.583  66.029  1.00  0.00    -0.467 OA 
HETATM    9  C   UNL     1      -7.707  17.626  66.802  1.00  0.00    -0.226 C  
HETATM   10  C   UNL     1      -7.246  19.903  66.240  1.00  0.00    -0.276 C  
HETATM   11  H   UNL     1      -8.795  20.817  65.285  1.00  0.00     0.000 HD 
HETATM   12  O   UNL     1      -6.446  20.781  65.936  1.00  0.00    -0.237 OA 
HETATM   13  N   UNL     1      -6.942  18.778  66.965  1.00  0.00    -0.202 N  
BRANCH   3  14
HETATM   14  C   UNL     1     -10.228  16.762  66.646  1.00  0.00    -0.310 A  
HETATM   15  C   UNL     1     -11.147  15.053  65.171  1.00  0.00    -0.408 A  
HETATM   16  C   UNL     1     -11.588  14.907  67.525  1.00  0.00    -0.355 A  
HETATM   17  C   UNL     1     -10.872  16.088  67.714  1.00  0.00    -0.324 A  
HETATM   18  C   UNL     1     -10.435  16.247  65.360  1.00  0.00    -0.365 A  
HETATM   19  C   UNL     1     -11.698  14.371  66.253  1.00  0.00    -0.394 A  
ENDBRANCH   3  14
ENDBRANCH   2   3
TORSDOF 2
ENDMDL
MODEL       18
REMARK 921   NORMALIZED FREE ENERGY PREDICTED BY IDOCK:   -5.55 KCAL/MOL
REMARK 922        TOTAL FREE ENERGY PREDICTED BY IDOCK:   -5.98 KCAL/MOL
REMARK 923 INTER-LIGAND FREE ENERGY PREDICTED BY IDOCK:   -5.82 KCAL/MOL
REMARK 924 INTRA-LIGAND FREE ENERGY PREDICTED BY IDOCK:   -0.16 KCAL/MOL
REMARK 927      BINDING AFFINITY PREDICTED BY RF-SCORE:    0.00 PKD
ROOT
HETATM    1  C   UNL     1      -7.674  11.181  66.712  1.00  0.00    -0.153 C  
HETATM    2  C   UNL     1      -9.000  11.802  67.187  1.00  0.00    -0.177 C  
ENDROOT
BRANCH   2   3
HETATM    3  C   UNL     1     -10.268  11.251  66.426  1.00  0.00    -0.273 C  
HETATM    4  C   UNL     1      -9.865  10.024  65.570  1.00  0.00    -0.303 C  
HETATM    5  O   UNL     1     -12.102  11.391  68.076  1.00  0.00    -0.629 OA 
HETATM    6  C   UNL     1     -10.767   9.460  69.620  1.00  0.00    -0.235 C  
HETATM    7  N   UNL     1     -10.050   8.782  66.123  1.00  0.00    -0.424 N  
HETATM    8  O   UNL     1      -9.339  10.081  64.459  1.00  0.00    -0.248 OA 
HETATM    9  C   UNL     1     -11.163  10.767  67.588  1.00  0.00    -0.299 C  
HETATM   10  C   UNL     1     -10.400   8.509  67.410  1.00  0.00    -0.286 C  
HETATM   11  H   UNL     1      -9.911   7.981  65.506  1.00  0.00     0.000 HD 
HETATM   12  O   UNL     1     -10.418   7.348  67.805  1.00  0.00    -0.211 OA 
HETATM   13  N   UNL     1     -10.677   9.608  68.186  1.00  0.00    -0.231 N  
BRANCH   3  14
HETATM   14  C   UNL     1     -10.771  12.409  65.520  1.00  0.00    -0.315 A  
HETATM   15  C   UNL     1     -12.385  13.436  64.010  1.00  0.00    -0.402 A  
HETATM   16  C   UNL     1     -10.846  14.848  65.190  1.00  0.00    -0.428 A  
HETATM   17  C   UNL     1     -10.274  13.714  65.764  1.00  0.00    -0.317 A  
HETATM   18  C   UNL     1     -11.803  12.294  64.580  1.00  0.00    -0.435 A  
HETATM   19  C   UNL     1     -11.926  14.710  64.334  1.00  0.00    -0.454 A  
ENDBRANCH   3  14
ENDBRANCH   2   3
TORSDOF 2
ENDMDL
MODEL       19
REMARK 921   NORMALIZED FREE ENERGY PREDICTED BY IDOCK:   -5.55 KCAL/MOL
REMARK 922        TOTAL FREE ENERGY PREDICTED BY IDOCK:   -5.97 KCAL/MOL
REMARK 923 INTER-LIGAND FREE ENERGY PREDICTED BY IDOCK:   -6.05 KCAL/MOL
REMARK 924 INTRA-LIGAND FREE ENERGY PREDICTED BY IDOCK:    0.07 KCAL/MOL
REMARK 927      BINDING AFFINITY PREDICTED BY RF-SCORE:    0.00 PKD
ROOT
HETATM    1  C   UNL     1     -11.633  13.751  68.218  1.00  0.00    -0.373 C  
HETATM    2  C   UNL     1     -11.649  14.983  67.297  1.00  0.00    -0.285 C  
ENDROOT
BRANCH   2   3
HETATM    3  C   UNL     1     -10.536  14.955  66.178  1.00  0.00    -0.313 C  
HETATM    4  C   UNL     1     -10.391  16.368  65.557  1.00  0.00    -0.313 C  
HETATM    5  O   UNL     1      -8.741  13.537  67.112  1.00  0.00    -0.210 OA 
HETATM    6  C   UNL     1      -8.324  15.487  69.092  1.00  0.00    -0.253 C  
HETATM    7  N   UNL     1      -9.411  17.183  66.067  1.00  0.00    -0.191 N  
HETATM    8  O   UNL     1     -11.123  16.834  64.685  1.00  0.00    -0.844 OA 
HETATM    9  C   UNL     1      -9.261  14.644  66.992  1.00  0.00    -0.239 C  
HETATM   10  C   UNL     1      -8.652  16.948  67.172  1.00  0.00    -0.197 C  
HETATM   11  H   UNL     1      -9.234  18.053  65.565  1.00  0.00     0.000 HD 
HETATM   12  O   UNL     1      -7.891  17.816  67.586  1.00  0.00    -0.205 OA 
HETATM   13  N   UNL     1      -8.846  15.724  67.765  1.00  0.00    -0.171 N  
BRANCH   3  14
HETATM   14  C   UNL     1     -11.015  13.935  65.110  1.00  0.00    -0.352 A  
HETATM   15  C   UNL     1     -10.655  12.093  63.555  1.00  0.00    -0.501 A  
HETATM   16  C   UNL     1     -12.882  12.529  64.332  1.00  0.00    -0.366 A  
HETATM   17  C   UNL     1     -12.395  13.609  65.067  1.00  0.00    -0.462 A  
HETATM   18  C   UNL     1     -10.166  13.185  64.286  1.00  0.00    -0.283 A  
HETATM   19  C   UNL     1     -12.004  11.749  63.599  1.00  0.00    -0.490 A  
ENDBRANCH   3  14
ENDBRANCH   2   3
TORSDOF 2
ENDMDL
MODEL       20
REMARK 921   NORMALIZED FREE ENERGY PREDICTED BY IDOCK:   -5.54 KCAL/MOL
REMARK 922        TOTAL FREE ENERGY PREDICTED BY IDOCK:   -5.96 KCAL/MOL
REMARK 923 INTER-LIGAND FREE ENERGY PREDICTED BY IDOCK:   -6.06 KCAL/MOL
REMARK 924 INTRA-LIGAND FREE ENERGY PREDICTED BY IDOCK:    0.10 KCAL/MOL
REMARK 927      BINDING AFFINITY PREDICTED BY RF-SCORE:    0.00 PKD
ROOT
HETATM    1  C   UNL     1      -7.664  14.645  67.378  1.00  0.00    -0.226 C  
HETATM    2  C   UNL     1      -8.881  14.997  68.250  1.00  0.00    -0.172 C  
ENDROOT
BRANCH   2   3
HETATM    3  C   UNL     1     -10.029  15.746  67.467  1.00  0.00    -0.236 C  
HETATM    4  C   UNL     1     -11.053  16.322  68.478  1.00  0.00    -0.368 C  
HETATM    5  O   UNL     1      -8.867  16.958  65.655  1.00  0.00    -0.472 OA 
HETATM    6  C   UNL     1      -7.602  18.530  67.611  1.00  0.00    -0.230 C  
HETATM    7  N   UNL     1     -10.894  17.630  68.860  1.00  0.00    -0.253 N  
HETATM    8  O   UNL     1     -11.961  15.680  69.006  1.00  0.00    -0.374 OA 
HETATM    9  C   UNL     1      -9.268  16.922  66.816  1.00  0.00    -0.247 C  
HETATM   10  C   UNL     1      -9.836  18.438  68.574  1.00  0.00    -0.376 C  
HETATM   11  H   UNL     1     -11.646  18.039  69.416  1.00  0.00     0.000 HD 
HETATM   12  O   UNL     1      -9.766  19.554  69.077  1.00  0.00    -0.412 OA 
HETATM   13  N   UNL     1      -8.891  17.890  67.742  1.00  0.00    -0.247 N  
BRANCH   3  14
HETATM   14  C   UNL     1     -10.700  14.684  66.554  1.00  0.00    -0.312 A  
HETATM   15  C   UNL     1     -11.810  12.549  66.163  1.00  0.00    -0.459 A  
HETATM   16  C   UNL     1     -12.079  14.304  64.549  1.00  0.00    -0.499 A  
HETATM   17  C   UNL     1     -11.240  15.112  65.314  1.00  0.00    -0.359 A  
HETATM   18  C   UNL     1     -10.957  13.359  66.929  1.00  0.00    -0.295 A  
HETATM   19  C   UNL     1     -12.391  13.029  64.992  1.00  0.00    -0.526 A  
ENDBRANCH   3  14
ENDBRANCH   2   3
TORSDOF 2
ENDMDL
MODEL       21
REMARK 921   NORMALIZED FREE ENERGY PREDICTED BY IDOCK:   -5.54 KCAL/MOL
REMARK 922        TOTAL FREE ENERGY PREDICTED BY IDOCK:   -5.96 KCAL/MOL
REMARK 923 INTER-LIGAND FREE ENERGY PREDICTED BY IDOCK:   -5.89 KCAL/MOL
REMARK 924 INTRA-LIGAND FREE ENERGY PREDICTED BY IDOCK:   -0.07 KCAL/MOL
REMARK 927      BINDING AFFINITY PREDICTED BY RF-SCORE:    0.00 PKD
ROOT
HETATM    1  C   UNL     1     -12.637  13.771  65.714  1.00  0.00    -0.525 C  
HETATM    2  C   UNL     1     -12.277  13.946  67.200  1.00  0.00    -0.353 C  
ENDROOT
BRANCH   2   3
HETATM    3  C   UNL     1     -10.775  13.597  67.536  1.00  0.00    -0.266 C  
HETATM    4  C   UNL     1      -9.969  13.459  66.219  1.00  0.00    -0.296 C  
HETATM    5  O   UNL     1     -10.223  15.008  69.488  1.00  0.00    -0.225 OA 
HETATM    6  C   UNL     1     -10.534  17.272  67.854  1.00  0.00    -0.382 C  
HETATM    7  N   UNL     1      -9.284  14.563  65.780  1.00  0.00    -0.486 N  
HETATM    8  O   UNL     1      -9.946  12.453  65.509  1.00  0.00    -0.260 OA 
HETATM    9  C   UNL     1     -10.299  14.871  68.270  1.00  0.00    -0.232 C  
HETATM   10  C   UNL     1      -9.361  15.824  66.288  1.00  0.00    -0.325 C  
HETATM   11  H   UNL     1      -8.651  14.425  64.992  1.00  0.00     0.000 HD 
HETATM   12  O   UNL     1      -8.781  16.746  65.726  1.00  0.00    -0.496 OA 
HETATM   13  N   UNL     1     -10.144  15.954  67.409  1.00  0.00    -0.248 N  
BRANCH   3  14
HETATM   14  C   UNL     1     -10.801  12.249  68.306  1.00  0.00    -0.254 A  
HETATM   15  C   UNL     1      -9.726  10.383  69.447  1.00  0.00    -0.222 A  
HETATM   16  C   UNL     1     -12.033  10.848  69.913  1.00  0.00    -0.430 A  
HETATM   17  C   UNL     1     -11.990  11.893  68.992  1.00  0.00    -0.321 A  
HETATM   18  C   UNL     1      -9.685  11.428  68.512  1.00  0.00    -0.199 A  
HETATM   19  C   UNL     1     -10.889  10.111  70.165  1.00  0.00    -0.368 A  
ENDBRANCH   3  14
ENDBRANCH   2   3
TORSDOF 2
ENDMDL
MODEL       22
REMARK 921   NORMALIZED FREE ENERGY PREDICTED BY IDOCK:   -5.50 KCAL/MOL
REMARK 922        TOTAL FREE ENERGY PREDICTED BY IDOCK:   -5.92 KCAL/MOL
REMARK 923 INTER-LIGAND FREE ENERGY PREDICTED BY IDOCK:   -5.79 KCAL/MOL
REMARK 924 INTRA-LIGAND FREE ENERGY PREDICTED BY IDOCK:   -0.13 KCAL/MOL
REMARK 927      BINDING AFFINITY PREDICTED BY RF-SCORE:    0.00 PKD
ROOT
HETATM    1  C   UNL     1     -11.169  14.852  68.953  1.00  0.00    -0.282 C  
HETATM    2  C   UNL     1     -11.179  16.004  67.933  1.00  0.00    -0.276 C  
ENDROOT
BRANCH   2   3
HETATM    3  C   UNL     1      -9.947  15.989  66.947  1.00  0.00    -0.255 C  
HETATM    4  C   UNL     1      -9.061  14.752  67.242  1.00  0.00    -0.204 C  
HETATM    5  O   UNL     1     -10.881  16.676  64.765  1.00  0.00    -0.732 OA 
HETATM    6  C   UNL     1     -12.392  14.307  64.743  1.00  0.00    -0.426 C  
HETATM    7  N   UNL     1      -9.277  13.628  66.486  1.00  0.00    -0.418 N  
HETATM    8  O   UNL     1      -8.223  14.683  68.141  1.00  0.00    -0.129 OA 
HETATM    9  C   UNL     1     -10.628  15.788  65.575  1.00  0.00    -0.406 C  
HETATM   10  C   UNL     1     -10.296  13.421  65.607  1.00  0.00    -0.290 C  
HETATM   11  H   UNL     1      -8.604  12.868  66.593  1.00  0.00     0.000 HD 
HETATM   12  O   UNL     1     -10.436  12.322  65.082  1.00  0.00    -0.271 OA 
HETATM   13  N   UNL     1     -11.125  14.498  65.412  1.00  0.00    -0.328 N  
BRANCH   3  14
HETATM   14  C   UNL     1      -9.160  17.302  67.211  1.00  0.00    -0.231 A  
HETATM   15  C   UNL     1      -8.429  19.143  68.631  1.00  0.00    -0.397 A  
HETATM   16  C   UNL     1      -7.135  18.601  66.685  1.00  0.00    -0.235 A  
HETATM   17  C   UNL     1      -8.052  17.598  66.377  1.00  0.00    -0.302 A  
HETATM   18  C   UNL     1      -9.359  18.141  68.315  1.00  0.00    -0.312 A  
HETATM   19  C   UNL     1      -7.307  19.355  67.834  1.00  0.00    -0.295 A  
ENDBRANCH   3  14
ENDBRANCH   2   3
TORSDOF 2
ENDMDL
MODEL       23
REMARK 921   NORMALIZED FREE ENERGY PREDICTED BY IDOCK:   -5.49 KCAL/MOL
REMARK 922        TOTAL FREE ENERGY PREDICTED BY IDOCK:   -5.90 KCAL/MOL
REMARK 923 INTER-LIGAND FREE ENERGY PREDICTED BY IDOCK:   -6.00 KCAL/MOL
REMARK 924 INTRA-LIGAND FREE ENERGY PREDICTED BY IDOCK:    0.09 KCAL/MOL
REMARK 927      BINDING AFFINITY PREDICTED BY RF-SCORE:    0.00 PKD
ROOT
HETATM    1  C   UNL     1      -9.275  14.336  67.257  1.00  0.00    -0.218 C  
HETATM    2  C   UNL     1      -9.266  12.865  66.805  1.00  0.00    -0.230 C  
ENDROOT
BRANCH   2   3
HETATM    3  C   UNL     1     -10.652  12.134  66.993  1.00  0.00    -0.256 C  
HETATM    4  C   UNL     1     -11.795  13.181  66.987  1.00  0.00    -0.379 C  
HETATM    5  O   UNL     1     -10.479  10.095  65.609  1.00  0.00    -0.182 OA 
HETATM    6  C   UNL     1     -10.352  11.735  63.331  1.00  0.00    -0.439 C  
HETATM    7  N   UNL     1     -12.435  13.407  65.794  1.00  0.00    -0.453 N  
HETATM    8  O   UNL     1     -12.131  13.864  67.953  1.00  0.00    -0.366 OA 
HETATM    9  C   UNL     1     -10.754  11.288  65.704  1.00  0.00    -0.217 C  
HETATM   10  C   UNL     1     -12.071  12.930  64.572  1.00  0.00    -0.413 C  
HETATM   11  H   UNL     1     -13.270  13.993  65.828  1.00  0.00     0.000 HD 
HETATM   12  O   UNL     1     -12.666  13.306  63.568  1.00  0.00    -0.708 OA 
HETATM   13  N   UNL     1     -11.004  12.065  64.577  1.00  0.00    -0.303 N  
BRANCH   3  14
HETATM   14  C   UNL     1     -10.581  11.410  68.365  1.00  0.00    -0.230 A  
HETATM   15  C   UNL     1     -11.584  10.243  70.256  1.00  0.00    -0.396 A  
HETATM   16  C   UNL     1      -9.241   9.952  69.830  1.00  0.00    -0.252 A  
HETATM   17  C   UNL     1      -9.345  10.834  68.756  1.00  0.00    -0.186 A  
HETATM   18  C   UNL     1     -11.687  11.139  69.182  1.00  0.00    -0.408 A  
HETATM   19  C   UNL     1     -10.371   9.630  70.563  1.00  0.00    -0.359 A  
ENDBRANCH   3  14
ENDBRANCH   2   3
TORSDOF 2
ENDMDL
MODEL       24
REMARK 921   NORMALIZED FREE ENERGY PREDICTED BY IDOCK:   -5.47 KCAL/MOL
REMARK 922        TOTAL FREE ENERGY PREDICTED BY IDOCK:   -5.89 KCAL/MOL
REMARK 923 INTER-LIGAND FREE ENERGY PREDICTED BY IDOCK:   -5.92 KCAL/MOL
REMARK 924 INTRA-LIGAND FREE ENERGY PREDICTED BY IDOCK:    0.03 KCAL/MOL
REMARK 927      BINDING AFFINITY PREDICTED BY RF-SCORE:    0.00 PKD
ROOT
HETATM    1  C   UNL     1     -11.766  12.014  64.398  1.00  0.00    -0.399 C  
HETATM    2  C   UNL     1     -10.396  12.326  65.025  1.00  0.00    -0.321 C  
ENDROOT
BRANCH   2   3
HETATM    3  C   UNL     1     -10.486  13.019  66.440  1.00  0.00    -0.285 C  
HETATM    4  C   UNL     1      -9.101  13.601  66.820  1.00  0.00    -0.217 C  
HETATM    5  O   UNL     1     -12.655  14.202  66.423  1.00  0.00    -0.427 OA 
HETATM    6  C   UNL     1     -11.654  15.868  64.395  1.00  0.00    -0.234 C  
HETATM    7  N   UNL     1      -8.875  14.924  66.537  1.00  0.00    -0.414 N  
HETATM    8  O   UNL     1      -8.172  12.953  67.300  1.00  0.00    -0.179 OA 
HETATM    9  C   UNL     1     -11.454  14.192  66.168  1.00  0.00    -0.347 C  
HETATM   10  C   UNL     1      -9.676  15.750  65.810  1.00  0.00    -0.337 C  
HETATM   11  H   UNL     1      -8.017  15.332  66.912  1.00  0.00     0.000 HD 
HETATM   12  O   UNL     1      -9.297  16.883  65.534  1.00  0.00    -0.472 OA 
HETATM   13  N   UNL     1     -10.868  15.199  65.406  1.00  0.00    -0.357 N  
BRANCH   3  14
HETATM   14  C   UNL     1     -10.909  11.911  67.443  1.00  0.00    -0.289 A  
HETATM   15  C   UNL     1     -10.720   9.688  68.424  1.00  0.00    -0.251 A  
HETATM   16  C   UNL     1     -11.763  11.430  69.702  1.00  0.00    -0.415 A  
HETATM   17  C   UNL     1     -11.575  12.302  68.631  1.00  0.00    -0.372 A  
HETATM   18  C   UNL     1     -10.540  10.563  67.342  1.00  0.00    -0.313 A  
HETATM   19  C   UNL     1     -11.305  10.126  69.609  1.00  0.00    -0.289 A  
ENDBRANCH   3  14
ENDBRANCH   2   3
TORSDOF 2
ENDMDL
MODEL       25
REMARK 921   NORMALIZED FREE ENERGY PREDICTED BY IDOCK:   -5.47 KCAL/MOL
REMARK 922        TOTAL FREE ENERGY PREDICTED BY IDOCK:   -5.88 KCAL/MOL
REMARK 923 INTER-LIGAND FREE ENERGY PREDICTED BY IDOCK:   -5.74 KCAL/MOL
REMARK 924 INTRA-LIGAND FREE ENERGY PREDICTED BY IDOCK:   -0.14 KCAL/MOL
REMARK 927      BINDING AFFINITY PREDICTED BY RF-SCORE:    0.00 PKD
ROOT
HETATM    1  C   UNL     1      -8.850  15.759  69.144  1.00  0.00    -0.250 C  
HETATM    2  C   UNL     1      -9.729  14.766  69.923  1.00  0.00     0.286 C  
ENDROOT
BRANCH   2   3
HETATM    3  C   UNL     1     -11.230  14.728  69.437  1.00  0.00    -0.308 C  
HETATM    4  C   UNL     1     -11.388  15.614  68.175  1.00  0.00    -0.340 C  
HETATM    5  O   UNL     1     -11.920  12.371  69.709  1.00  0.00    -0.312 OA 
HETATM    6  C   UNL     1     -10.058  11.668  67.726  1.00  0.00    -0.187 C  
HETATM    7  N   UNL     1     -11.309  14.992  66.955  1.00  0.00    -0.331 N  
HETATM    8  O   UNL     1     -11.520  16.837  68.184  1.00  0.00    -0.157 OA 
HETATM    9  C   UNL     1     -11.404  13.250  69.023  1.00  0.00    -0.285 C  
HETATM   10  C   UNL     1     -10.944  13.701  66.722  1.00  0.00    -0.292 C  
HETATM   11  H   UNL     1     -11.547  15.555  66.138  1.00  0.00     0.000 HD 
HETATM   12  O   UNL     1     -10.801  13.305  65.570  1.00  0.00    -0.279 OA 
HETATM   13  N   UNL     1     -10.726  12.944  67.847  1.00  0.00    -0.215 N  
BRANCH   3  14
HETATM   14  C   UNL     1     -12.083  15.287  70.608  1.00  0.00    -0.399 A  
HETATM   15  C   UNL     1     -14.133  15.440  71.918  1.00  0.00    -0.636 A  
HETATM   16  C   UNL     1     -12.062  16.102  72.932  1.00  0.00    -0.643 A  
HETATM   17  C   UNL     1     -11.406  15.818  71.736  1.00  0.00    -0.393 A  
HETATM   18  C   UNL     1     -13.475  15.163  70.711  1.00  0.00    -0.345 A  
HETATM   19  C   UNL     1     -13.425  15.882  73.034  1.00  0.00    -0.653 A  
ENDBRANCH   3  14
ENDBRANCH   2   3
TORSDOF 2
ENDMDL
MODEL       26
REMARK 921   NORMALIZED FREE ENERGY PREDICTED BY IDOCK:   -5.41 KCAL/MOL
REMARK 922        TOTAL FREE ENERGY PREDICTED BY IDOCK:   -5.81 KCAL/MOL
REMARK 923 INTER-LIGAND FREE ENERGY PREDICTED BY IDOCK:   -5.75 KCAL/MOL
REMARK 924 INTRA-LIGAND FREE ENERGY PREDICTED BY IDOCK:   -0.06 KCAL/MOL
REMARK 927      BINDING AFFINITY PREDICTED BY RF-SCORE:    0.00 PKD
ROOT
HETATM    1  C   UNL     1     -11.649  12.539  69.629  1.00  0.00    -0.323 C  
HETATM    2  C   UNL     1     -11.902  11.565  68.465  1.00  0.00    -0.365 C  
ENDROOT
BRANCH   2   3
HETATM    3  C   UNL     1     -10.601  11.194  67.652  1.00  0.00    -0.250 C  
HETATM    4  C   UNL     1      -9.385  11.944  68.252  1.00  0.00    -0.193 C  
HETATM    5  O   UNL     1     -10.801   8.771  67.216  1.00  0.00    -0.214 OA 
HETATM    6  C   UNL     1     -10.587   8.325  69.982  1.00  0.00    -0.235 C  
HETATM    7  N   UNL     1      -8.620  11.271  69.171  1.00  0.00    -0.379 N  
HETATM    8  O   UNL     1      -9.089  13.115  68.011  1.00  0.00    -0.193 OA 
HETATM    9  C   UNL     1     -10.445   9.687  67.952  1.00  0.00    -0.246 C  
HETATM   10  C   UNL     1      -8.904  10.067  69.739  1.00  0.00    -0.183 C  
HETATM   11  H   UNL     1      -7.749  11.719  69.457  1.00  0.00     0.000 HD 
HETATM   12  O   UNL     1      -8.190   9.632  70.636  1.00  0.00    -0.234 OA 
HETATM   13  N   UNL     1     -10.030   9.446  69.259  1.00  0.00    -0.173 N  
BRANCH   3  14
HETATM   14  C   UNL     1     -10.856  11.648  66.188  1.00  0.00    -0.343 A  
HETATM   15  C   UNL     1     -10.674  11.382  63.772  1.00  0.00    -0.470 A  
HETATM   16  C   UNL     1     -12.409  12.785  64.652  1.00  0.00    -0.524 A  
HETATM   17  C   UNL     1     -11.941  12.527  65.939  1.00  0.00    -0.472 A  
HETATM   18  C   UNL     1     -10.196  11.130  65.067  1.00  0.00    -0.354 A  
HETATM   19  C   UNL     1     -11.793  12.185  63.567  1.00  0.00    -0.597 A  
ENDBRANCH   3  14
ENDBRANCH   2   3
TORSDOF 2
ENDMDL
MODEL       27
REMARK 921   NORMALIZED FREE ENERGY PREDICTED BY IDOCK:   -5.40 KCAL/MOL
REMARK 922        TOTAL FREE ENERGY PREDICTED BY IDOCK:   -5.80 KCAL/MOL
REMARK 923 INTER-LIGAND FREE ENERGY PREDICTED BY IDOCK:   -6.09 KCAL/MOL
REMARK 924 INTRA-LIGAND FREE ENERGY PREDICTED BY IDOCK:    0.29 KCAL/MOL
REMARK 927      BINDING AFFINITY PREDICTED BY RF-SCORE:    0.00 PKD
ROOT
HETATM    1  C   UNL     1     -11.490  12.414  68.426  1.00  0.00    -0.356 C  
HETATM    2  C   UNL     1     -11.832  12.852  66.992  1.00  0.00    -0.437 C  
ENDROOT
BRANCH   2   3
HETATM    3  C   UNL     1     -10.575  12.965  66.044  1.00  0.00    -0.287 C  
HETATM    4  C   UNL     1     -11.047  13.163  64.581  1.00  0.00    -0.345 C  
HETATM    5  O   UNL     1      -8.964  14.355  67.300  1.00  0.00    -0.191 OA 
HETATM    6  C   UNL     1     -10.756  16.508  67.084  1.00  0.00    -0.220 C  
HETATM    7  N   UNL     1     -11.121  14.450  64.111  1.00  0.00    -0.549 N  
HETATM    8  O   UNL     1     -11.415  12.260  63.830  1.00  0.00    -0.363 OA 
HETATM    9  C   UNL     1      -9.917  14.276  66.529  1.00  0.00    -0.281 C  
HETATM   10  C   UNL     1     -10.981  15.591  64.840  1.00  0.00    -0.436 C  
HETATM   11  H   UNL     1     -11.300  14.563  63.113  1.00  0.00     0.000 HD 
HETATM   12  O   UNL     1     -11.187  16.680  64.316  1.00  0.00    -1.098 OA 
HETATM   13  N   UNL     1     -10.642  15.404  66.158  1.00  0.00    -0.306 N  
BRANCH   3  14
HETATM   14  C   UNL     1      -9.795  11.631  66.192  1.00  0.00    -0.250 A  
HETATM   15  C   UNL     1      -7.856  10.315  66.864  1.00  0.00    -0.112 A  
HETATM   16  C   UNL     1      -9.967   9.207  66.595  1.00  0.00    -0.343 A  
HETATM   17  C   UNL     1     -10.535  10.421  66.212  1.00  0.00    -0.229 A  
HETATM   18  C   UNL     1      -8.425  11.535  66.469  1.00  0.00    -0.160 A  
HETATM   19  C   UNL     1      -8.630   9.161  66.953  1.00  0.00    -0.129 A  
ENDBRANCH   3  14
ENDBRANCH   2   3
TORSDOF 2
ENDMDL
MODEL       28
REMARK 921   NORMALIZED FREE ENERGY PREDICTED BY IDOCK:   -5.37 KCAL/MOL
REMARK 922        TOTAL FREE ENERGY PREDICTED BY IDOCK:   -5.77 KCAL/MOL
REMARK 923 INTER-LIGAND FREE ENERGY PREDICTED BY IDOCK:   -5.75 KCAL/MOL
REMARK 924 INTRA-LIGAND FREE ENERGY PREDICTED BY IDOCK:   -0.02 KCAL/MOL
REMARK 927      BINDING AFFINITY PREDICTED BY RF-SCORE:    0.00 PKD
ROOT
HETATM    1  C   UNL     1     -11.827  14.912  70.158  1.00  0.00    -0.357 C  
HETATM    2  C   UNL     1     -12.278  14.300  68.821  1.00  0.00    -0.226 C  
ENDROOT
BRANCH   2   3
HETATM    3  C   UNL     1     -11.129  13.544  68.047  1.00  0.00    -0.283 C  
HETATM    4  C   UNL     1     -11.593  13.238  66.601  1.00  0.00    -0.365 C  
HETATM    5  O   UNL     1      -9.049  14.682  68.745  1.00  0.00    -0.190 OA 
HETATM    6  C   UNL     1      -9.965  17.002  67.451  1.00  0.00    -0.278 C  
HETATM    7  N   UNL     1     -11.233  14.129  65.621  1.00  0.00    -0.303 N  
HETATM    8  O   UNL     1     -12.307  12.290  66.275  1.00  0.00    -0.556 OA 
HETATM    9  C   UNL     1     -10.015  14.614  67.989  1.00  0.00    -0.220 C  
HETATM   10  C   UNL     1     -10.647  15.345  65.803  1.00  0.00    -0.348 C  
HETATM   11  H   UNL     1     -11.424  13.853  64.658  1.00  0.00     0.000 HD 
HETATM   12  O   UNL     1     -10.485  16.094  64.846  1.00  0.00    -0.605 OA 
HETATM   13  N   UNL     1     -10.313  15.643  67.102  1.00  0.00    -0.279 N  
BRANCH   3  14
HETATM   14  C   UNL     1     -10.868  12.228  68.829  1.00  0.00    -0.266 A  
HETATM   15  C   UNL     1     -11.578  10.351  70.213  1.00  0.00    -0.410 A  
HETATM   16  C   UNL     1      -9.571  10.136  68.917  1.00  0.00    -0.186 A  
HETATM   17  C   UNL     1      -9.745  11.443  68.463  1.00  0.00    -0.199 A  
HETATM   18  C   UNL     1     -11.749  11.669  69.764  1.00  0.00    -0.425 A  
HETATM   19  C   UNL     1     -10.508   9.578  69.770  1.00  0.00    -0.253 A  
ENDBRANCH   3  14
ENDBRANCH   2   3
TORSDOF 2
ENDMDL
MODEL       29
REMARK 921   NORMALIZED FREE ENERGY PREDICTED BY IDOCK:   -5.33 KCAL/MOL
REMARK 922        TOTAL FREE ENERGY PREDICTED BY IDOCK:   -5.73 KCAL/MOL
REMARK 923 INTER-LIGAND FREE ENERGY PREDICTED BY IDOCK:   -5.55 KCAL/MOL
REMARK 924 INTRA-LIGAND FREE ENERGY PREDICTED BY IDOCK:   -0.17 KCAL/MOL
REMARK 927      BINDING AFFINITY PREDICTED BY RF-SCORE:    0.00 PKD
ROOT
HETATM    1  C   UNL     1     -11.235  16.193  70.303  1.00  0.00    -0.389 C  
HETATM    2  C   UNL     1     -11.404  16.403  68.788  1.00  0.00    -0.277 C  
ENDROOT
BRANCH   2   3
HETATM    3  C   UNL     1     -10.092  16.124  67.956  1.00  0.00    -0.242 C  
HETATM    4  C   UNL     1      -9.066  15.376  68.845  1.00  0.00    -0.218 C  
HETATM    5  O   UNL     1     -10.896  15.464  65.716  1.00  0.00    -0.329 OA 
HETATM    6  C   UNL     1     -12.026  13.166  66.873  1.00  0.00    -0.362 C  
HETATM    7  N   UNL     1      -9.034  14.007  68.756  1.00  0.00    -0.360 N  
HETATM    8  O   UNL     1      -8.321  15.912  69.665  1.00  0.00    -0.159 OA 
HETATM    9  C   UNL     1     -10.596  15.153  66.866  1.00  0.00    -0.297 C  
HETATM   10  C   UNL     1      -9.919  13.215  68.090  1.00  0.00    -0.234 C  
HETATM   11  H   UNL     1      -8.270  13.535  69.239  1.00  0.00     0.000 HD 
HETATM   12  O   UNL     1      -9.840  11.995  68.188  1.00  0.00    -0.190 OA 
HETATM   13  N   UNL     1     -10.876  13.886  67.369  1.00  0.00    -0.282 N  
BRANCH   3  14
HETATM   14  C   UNL     1      -9.540  17.512  67.533  1.00  0.00    -0.265 A  
HETATM   15  C   UNL     1      -8.111  18.960  66.190  1.00  0.00    -0.241 A  
HETATM   16  C   UNL     1     -10.056  19.902  67.232  1.00  0.00    -0.569 A  
HETATM   17  C   UNL     1     -10.334  18.657  67.795  1.00  0.00    -0.454 A  
HETATM   18  C   UNL     1      -8.385  17.710  66.764  1.00  0.00    -0.276 A  
HETATM   19  C   UNL     1      -8.958  20.045  66.400  1.00  0.00    -0.408 A  
ENDBRANCH   3  14
ENDBRANCH   2   3
TORSDOF 2
ENDMDL
MODEL       30
REMARK 921   NORMALIZED FREE ENERGY PREDICTED BY IDOCK:   -5.30 KCAL/MOL
REMARK 922        TOTAL FREE ENERGY PREDICTED BY IDOCK:   -5.69 KCAL/MOL
REMARK 923 INTER-LIGAND FREE ENERGY PREDICTED BY IDOCK:   -5.63 KCAL/MOL
REMARK 924 INTRA-LIGAND FREE ENERGY PREDICTED BY IDOCK:   -0.07 KCAL/MOL
REMARK 927      BINDING AFFINITY PREDICTED BY RF-SCORE:    0.00 PKD
ROOT
HETATM    1  C   UNL     1     -12.278  14.276  68.347  1.00  0.00    -0.197 C  
HETATM    2  C   UNL     1     -11.082  13.309  68.297  1.00  0.00    -0.294 C  
ENDROOT
BRANCH   2   3
HETATM    3  C   UNL     1     -10.649  12.909  66.833  1.00  0.00    -0.262 C  
HETATM    4  C   UNL     1     -11.702  13.430  65.822  1.00  0.00    -0.349 C  
HETATM    5  O   UNL     1      -8.207  13.279  66.778  1.00  0.00    -0.028 OA 
HETATM    6  C   UNL     1      -8.684  16.027  67.119  1.00  0.00    -0.190 C  
HETATM    7  N   UNL     1     -11.457  14.641  65.224  1.00  0.00    -0.351 N  
HETATM    8  O   UNL     1     -12.765  12.869  65.559  1.00  0.00    -0.568 OA 
HETATM    9  C   UNL     1      -9.346  13.718  66.645  1.00  0.00    -0.264 C  
HETATM   10  C   UNL     1     -10.466  15.518  65.541  1.00  0.00    -0.386 C  
HETATM   11  H   UNL     1     -12.082  14.910  64.464  1.00  0.00     0.000 HD 
HETATM   12  O   UNL     1     -10.431  16.620  65.004  1.00  0.00    -0.664 OA 
HETATM   13  N   UNL     1      -9.583  15.082  66.499  1.00  0.00    -0.260 N  
BRANCH   3  14
HETATM   14  C   UNL     1     -10.583  11.358  66.805  1.00  0.00    -0.298 A  
HETATM   15  C   UNL     1      -9.812   9.237  65.885  1.00  0.00    -0.335 A  
HETATM   16  C   UNL     1     -10.596   9.296  68.152  1.00  0.00    -0.248 A  
HETATM   17  C   UNL     1     -10.874  10.653  68.000  1.00  0.00    -0.309 A  
HETATM   18  C   UNL     1     -10.101  10.601  65.729  1.00  0.00    -0.327 A  
HETATM   19  C   UNL     1     -10.033   8.593  67.100  1.00  0.00    -0.297 A  
ENDBRANCH   3  14
ENDBRANCH   2   3
TORSDOF 2
ENDMDL
MODEL       31
REMARK 921   NORMALIZED FREE ENERGY PREDICTED BY IDOCK:   -5.16 KCAL/MOL
REMARK 922        TOTAL FREE ENERGY PREDICTED BY IDOCK:   -5.53 KCAL/MOL
REMARK 923 INTER-LIGAND FREE ENERGY PREDICTED BY IDOCK:   -5.62 KCAL/MOL
REMARK 924 INTRA-LIGAND FREE ENERGY PREDICTED BY IDOCK:    0.08 KCAL/MOL
REMARK 927      BINDING AFFINITY PREDICTED BY RF-SCORE:    0.00 PKD
ROOT
HETATM    1  C   UNL     1      -8.511  14.364  68.169  1.00  0.00    -0.160 C  
HETATM    2  C   UNL     1      -9.710  14.407  67.205  1.00  0.00    -0.233 C  
ENDROOT
BRANCH   2   3
HETATM    3  C   UNL     1     -10.830  13.346  67.536  1.00  0.00    -0.276 C  
HETATM    4  C   UNL     1     -11.814  13.243  66.342  1.00  0.00    -0.396 C  
HETATM    5  O   UNL     1      -9.633  11.496  68.655  1.00  0.00    -0.193 OA 
HETATM    6  C   UNL     1      -8.272  11.010  66.245  1.00  0.00    -0.164 C  
HETATM    7  N   UNL     1     -11.588  12.250  65.423  1.00  0.00    -0.361 N  
HETATM    8  O   UNL     1     -12.744  14.019  66.126  1.00  0.00    -0.450 OA 
HETATM    9  C   UNL     1     -10.022  12.032  67.620  1.00  0.00    -0.191 C  
HETATM   10  C   UNL     1     -10.496  11.439  65.353  1.00  0.00    -0.280 C  
HETATM   11  H   UNL     1     -12.312  12.104  64.720  1.00  0.00     0.000 HD 
HETATM   12  O   UNL     1     -10.367  10.669  64.408  1.00  0.00    -0.363 OA 
HETATM   13  N   UNL     1      -9.588  11.594  66.372  1.00  0.00    -0.211 N  
BRANCH   3  14
HETATM   14  C   UNL     1     -11.561  13.863  68.805  1.00  0.00    -0.370 A  
HETATM   15  C   UNL     1     -12.423  13.599  71.069  1.00  0.00    -0.456 A  
HETATM   16  C   UNL     1     -12.016  15.813  70.238  1.00  0.00    -0.383 A  
HETATM   17  C   UNL     1     -11.618  15.263  69.021  1.00  0.00    -0.360 A  
HETATM   18  C   UNL     1     -12.032  13.046  69.841  1.00  0.00    -0.381 A  
HETATM   19  C   UNL     1     -12.389  14.976  71.277  1.00  0.00    -0.387 A  
ENDBRANCH   3  14
ENDBRANCH   2   3
TORSDOF 2
ENDMDL
MODEL       32
REMARK 921   NORMALIZED FREE ENERGY PREDICTED BY IDOCK:   -5.11 KCAL/MOL
REMARK 922        TOTAL FREE ENERGY PREDICTED BY IDOCK:   -5.48 KCAL/MOL
REMARK 923 INTER-LIGAND FREE ENERGY PREDICTED BY IDOCK:   -5.29 KCAL/MOL
REMARK 924 INTRA-LIGAND FREE ENERGY PREDICTED BY IDOCK:   -0.19 KCAL/MOL
REMARK 927      BINDING AFFINITY PREDICTED BY RF-SCORE:    0.00 PKD
ROOT
HETATM    1  C   UNL     1      -9.444  10.922  64.030  1.00  0.00    -0.298 C  
HETATM    2  C   UNL     1     -10.533  10.628  65.077  1.00  0.00    -0.278 C  
ENDROOT
BRANCH   2   3
HETATM    3  C   UNL     1     -10.154  11.090  66.537  1.00  0.00    -0.270 C  
HETATM    4  C   UNL     1      -8.783  11.813  66.511  1.00  0.00    -0.173 C  
HETATM    5  O   UNL     1     -12.270  11.924  67.502  1.00  0.00    -0.510 OA 
HETATM    6  C   UNL     1     -12.240  13.995  65.603  1.00  0.00    -0.442 C  
HETATM    7  N   UNL     1      -8.794  13.182  66.421  1.00  0.00    -0.440 N  
HETATM    8  O   UNL     1      -7.689  11.250  66.506  1.00  0.00    -0.152 OA 
HETATM    9  C   UNL     1     -11.252  12.132  66.847  1.00  0.00    -0.320 C  
HETATM   10  C   UNL     1      -9.878  13.973  66.188  1.00  0.00    -0.303 C  
HETATM   11  H   UNL     1      -7.899  13.656  66.541  1.00  0.00     0.000 HD 
HETATM   12  O   UNL     1      -9.728  15.178  66.015  1.00  0.00    -0.287 OA 
HETATM   13  N   UNL     1     -11.081  13.313  66.131  1.00  0.00    -0.283 N  
BRANCH   3  14
HETATM   14  C   UNL     1     -10.076   9.800  67.398  1.00  0.00    -0.259 A  
HETATM   15  C   UNL     1     -10.082   8.607  69.523  1.00  0.00    -0.203 A  
HETATM   16  C   UNL     1     -10.616   7.400  67.520  1.00  0.00    -0.340 A  
HETATM   17  C   UNL     1     -10.405   8.565  66.784  1.00  0.00    -0.346 A  
HETATM   18  C   UNL     1      -9.860   9.777  68.782  1.00  0.00    -0.176 A  
HETATM   19  C   UNL     1     -10.485   7.430  68.898  1.00  0.00    -0.213 A  
ENDBRANCH   3  14
ENDBRANCH   2   3
TORSDOF 2
ENDMDL
MODEL       33
REMARK 921   NORMALIZED FREE ENERGY PREDICTED BY IDOCK:   -5.06 KCAL/MOL
REMARK 922        TOTAL FREE ENERGY PREDICTED BY IDOCK:   -5.42 KCAL/MOL
REMARK 923 INTER-LIGAND FREE ENERGY PREDICTED BY IDOCK:   -5.52 KCAL/MOL
REMARK 924 INTRA-LIGAND FREE ENERGY PREDICTED BY IDOCK:    0.10 KCAL/MOL
REMARK 927      BINDING AFFINITY PREDICTED BY RF-SCORE:    0.00 PKD
ROOT
HETATM    1  C   UNL     1     -11.417   6.352  69.780  1.00  0.00    -0.468 C  
HETATM    2  C   UNL     1     -10.297   7.383  70.006  1.00  0.00    -0.224 C  
ENDROOT
BRANCH   2   3
HETATM    3  C   UNL     1     -10.610   8.422  71.151  1.00  0.00    -0.266 C  
HETATM    4  C   UNL     1     -11.836   7.939  71.967  1.00  0.00    -0.318 C  
HETATM    5  O   UNL     1      -8.395   9.080  72.025  1.00  0.00    -0.366 OA 
HETATM    6  C   UNL     1      -8.046   6.445  72.935  1.00  0.00    -0.106 C  
HETATM    7  N   UNL     1     -11.590   7.227  73.114  1.00  0.00    -0.560 N  
HETATM    8  O   UNL     1     -13.011   8.094  71.633  1.00  0.00    -0.324 OA 
HETATM    9  C   UNL     1      -9.354   8.313  72.044  1.00  0.00    -0.230 C  
HETATM   10  C   UNL     1     -10.384   6.754  73.535  1.00  0.00    -0.316 C  
HETATM   11  H   UNL     1     -12.393   7.031  73.712  1.00  0.00     0.000 HD 
HETATM   12  O   UNL     1     -10.323   6.031  74.522  1.00  0.00    -0.289 OA 
HETATM   13  N   UNL     1      -9.311   7.120  72.759  1.00  0.00    -0.138 N  
BRANCH   3  14
HETATM   14  C   UNL     1     -10.919   9.770  70.446  1.00  0.00    -0.371 A  
HETATM   15  C   UNL     1     -11.141  11.185  68.474  1.00  0.00    -0.298 A  
HETATM   16  C   UNL     1     -12.278  11.823  70.487  1.00  0.00    -0.438 A  
HETATM   17  C   UNL     1     -11.735  10.710  71.125  1.00  0.00    -0.248 A  
HETATM   18  C   UNL     1     -10.586  10.070  69.119  1.00  0.00    -0.240 A  
HETATM   19  C   UNL     1     -12.006  12.044  69.147  1.00  0.00    -0.326 A  
ENDBRANCH   3  14
ENDBRANCH   2   3
TORSDOF 2
ENDMDL
MODEL       34
REMARK 921   NORMALIZED FREE ENERGY PREDICTED BY IDOCK:   -5.05 KCAL/MOL
REMARK 922        TOTAL FREE ENERGY PREDICTED BY IDOCK:   -5.42 KCAL/MOL
REMARK 923 INTER-LIGAND FREE ENERGY PREDICTED BY IDOCK:   -5.29 KCAL/MOL
REMARK 924 INTRA-LIGAND FREE ENERGY PREDICTED BY IDOCK:   -0.13 KCAL/MOL
REMARK 927      BINDING AFFINITY PREDICTED BY RF-SCORE:    0.00 PKD
ROOT
HETATM    1  C   UNL     1      -9.006  13.935  67.200  1.00  0.00    -0.242 C  
HETATM    2  C   UNL     1      -8.822  12.453  66.827  1.00  0.00    -0.189 C  
ENDROOT
BRANCH   2   3
HETATM    3  C   UNL     1     -10.090  11.561  67.124  1.00  0.00    -0.223 C  
HETATM    4  C   UNL     1     -11.270  12.467  67.558  1.00  0.00    -0.294 C  
HETATM    5  O   UNL     1     -10.089   9.853  65.338  1.00  0.00    -0.313 OA 
HETATM    6  C   UNL     1     -10.546  11.904  63.472  1.00  0.00    -0.453 C  
HETATM    7  N   UNL     1     -12.160  12.850  66.587  1.00  0.00    -0.358 N  
HETATM    8  O   UNL     1     -11.435  12.914  68.693  1.00  0.00    -0.263 OA 
HETATM    9  C   UNL     1     -10.409  10.972  65.732  1.00  0.00    -0.257 C  
HETATM   10  C   UNL     1     -12.034  12.656  65.246  1.00  0.00    -0.439 C  
HETATM   11  H   UNL     1     -13.003  13.330  66.903  1.00  0.00     0.000 HD 
HETATM   12  O   UNL     1     -12.849  13.154  64.477  1.00  0.00    -0.680 OA 
HETATM   13  N   UNL     1     -10.939  11.921  64.863  1.00  0.00    -0.306 N  
BRANCH   3  14
HETATM   14  C   UNL     1      -9.687  10.598  68.275  1.00  0.00    -0.169 A  
HETATM   15  C   UNL     1      -8.270   9.921  70.139  1.00  0.00    -0.162 A  
HETATM   16  C   UNL     1     -10.495   9.036  69.998  1.00  0.00    -0.233 A  
HETATM   17  C   UNL     1     -10.681   9.741  68.810  1.00  0.00    -0.243 A  
HETATM   18  C   UNL     1      -8.453  10.622  68.938  1.00  0.00    -0.154 A  
HETATM   19  C   UNL     1      -9.297   9.151  70.681  1.00  0.00    -0.312 A  
ENDBRANCH   3  14
ENDBRANCH   2   3
TORSDOF 2
ENDMDL
MODEL       35
REMARK 921   NORMALIZED FREE ENERGY PREDICTED BY IDOCK:   -5.04 KCAL/MOL
REMARK 922        TOTAL FREE ENERGY PREDICTED BY IDOCK:   -5.41 KCAL/MOL
REMARK 923 INTER-LIGAND FREE ENERGY PREDICTED BY IDOCK:   -5.80 KCAL/MOL
REMARK 924 INTRA-LIGAND FREE ENERGY PREDICTED BY IDOCK:    0.39 KCAL/MOL
REMARK 927      BINDING AFFINITY PREDICTED BY RF-SCORE:    0.00 PKD
ROOT
HETATM    1  C   UNL     1     -12.405  13.486  66.642  1.00  0.00    -0.351 C  
HETATM    2  C   UNL     1     -11.892  14.491  67.687  1.00  0.00    -0.395 C  
ENDROOT
BRANCH   2   3
HETATM    3  C   UNL     1     -11.232  13.814  68.951  1.00  0.00    -0.309 C  
HETATM    4  C   UNL     1     -11.020  12.303  68.676  1.00  0.00    -0.239 C  
HETATM    5  O   UNL     1      -9.549  15.445  69.732  1.00  0.00    -0.266 OA 
HETATM    6  C   UNL     1      -8.134  15.028  67.341  1.00  0.00    -0.193 C  
HETATM    7  N   UNL     1      -9.788  11.913  68.217  1.00  0.00    -0.196 N  
HETATM    8  O   UNL     1     -11.890  11.438  68.783  1.00  0.00    -0.310 OA 
HETATM    9  C   UNL     1      -9.850  14.501  69.006  1.00  0.00    -0.138 C  
HETATM   10  C   UNL     1      -8.773  12.728  67.819  1.00  0.00    -0.184 C  
HETATM   11  H   UNL     1      -9.614  10.908  68.169  1.00  0.00     0.000 HD 
HETATM   12  O   UNL     1      -7.763  12.245  67.318  1.00  0.00    -0.154 OA 
HETATM   13  N   UNL     1      -9.001  14.071  67.990  1.00  0.00    -0.174 N  
BRANCH   3  14
HETATM   14  C   UNL     1     -12.225  14.022  70.127  1.00  0.00    -0.425 A  
HETATM   15  C   UNL     1     -13.230  13.388  72.255  1.00  0.00    -0.570 A  
HETATM   16  C   UNL     1     -13.392  15.671  71.536  1.00  0.00    -0.535 A  
HETATM   17  C   UNL     1     -12.713  15.332  70.367  1.00  0.00    -0.400 A  
HETATM   18  C   UNL     1     -12.554  13.044  71.074  1.00  0.00    -0.386 A  
HETATM   19  C   UNL     1     -13.623  14.702  72.498  1.00  0.00    -0.572 A  
ENDBRANCH   3  14
ENDBRANCH   2   3
TORSDOF 2
ENDMDL
MODEL       36
REMARK 921   NORMALIZED FREE ENERGY PREDICTED BY IDOCK:   -5.04 KCAL/MOL
REMARK 922        TOTAL FREE ENERGY PREDICTED BY IDOCK:   -5.40 KCAL/MOL
REMARK 923 INTER-LIGAND FREE ENERGY PREDICTED BY IDOCK:   -5.37 KCAL/MOL
REMARK 924 INTRA-LIGAND FREE ENERGY PREDICTED BY IDOCK:   -0.03 KCAL/MOL
REMARK 927      BINDING AFFINITY PREDICTED BY RF-SCORE:    0.00 PKD
ROOT
HETATM    1  C   UNL     1     -12.004  14.673  69.319  1.00  0.00    -0.337 C  
HETATM    2  C   UNL     1     -12.219  14.697  67.795  1.00  0.00    -0.082 C  
ENDROOT
BRANCH   2   3
HETATM    3  C   UNL     1     -10.890  14.524  66.962  1.00  0.00    -0.297 C  
HETATM    4  C   UNL     1     -11.145  14.935  65.490  1.00  0.00    -0.352 C  
HETATM    5  O   UNL     1      -9.101  15.340  68.457  1.00  0.00    -0.178 OA 
HETATM    6  C   UNL     1     -10.227  17.909  68.292  1.00  0.00    -0.388 C  
HETATM    7  N   UNL     1     -10.829  16.221  65.130  1.00  0.00    -0.378 N  
HETATM    8  O   UNL     1     -11.663  14.216  64.636  1.00  0.00    -0.377 OA 
HETATM    9  C   UNL     1      -9.959  15.573  67.610  1.00  0.00    -0.233 C  
HETATM   10  C   UNL     1     -10.464  17.232  65.966  1.00  0.00    -0.282 C  
HETATM   11  H   UNL     1     -10.871  16.442  64.135  1.00  0.00     0.000 HD 
HETATM   12  O   UNL     1     -10.321  18.367  65.524  1.00  0.00    -0.570 OA 
HETATM   13  N   UNL     1     -10.319  16.877  67.284  1.00  0.00    -0.305 N  
BRANCH   3  14
HETATM   14  C   UNL     1     -10.510  13.021  67.053  1.00  0.00    -0.249 A  
HETATM   15  C   UNL     1     -11.059  10.651  67.207  1.00  0.00    -0.313 A  
HETATM   16  C   UNL     1      -8.899  11.285  66.377  1.00  0.00    -0.184 A  
HETATM   17  C   UNL     1      -9.234  12.623  66.579  1.00  0.00    -0.200 A  
HETATM   18  C   UNL     1     -11.393  11.997  67.420  1.00  0.00    -0.393 A  
HETATM   19  C   UNL     1      -9.827  10.297  66.662  1.00  0.00    -0.256 A  
ENDBRANCH   3  14
ENDBRANCH   2   3
TORSDOF 2
ENDMDL
MODEL       37
REMARK 921   NORMALIZED FREE ENERGY PREDICTED BY IDOCK:   -5.02 KCAL/MOL
REMARK 922        TOTAL FREE ENERGY PREDICTED BY IDOCK:   -5.38 KCAL/MOL
REMARK 923 INTER-LIGAND FREE ENERGY PREDICTED BY IDOCK:   -5.26 KCAL/MOL
REMARK 924 INTRA-LIGAND FREE ENERGY PREDICTED BY IDOCK:   -0.12 KCAL/MOL
REMARK 927      BINDING AFFINITY PREDICTED BY RF-SCORE:    0.00 PKD
ROOT
HETATM    1  C   UNL     1     -10.439   6.725  73.865  1.00  0.00    -0.356 C  
HETATM    2  C   UNL     1     -11.258   6.673  72.564  1.00  0.00    -0.302 C  
ENDROOT
BRANCH   2   3
HETATM    3  C   UNL     1     -10.628   7.505  71.381  1.00  0.00    -0.229 C  
HETATM    4  C   UNL     1      -9.176   7.906  71.747  1.00  0.00    -0.150 C  
HETATM    5  O   UNL     1     -11.395   6.363  69.329  1.00  0.00    -0.379 OA 
HETATM    6  C   UNL     1      -9.876   4.125  70.089  1.00  0.00    -0.172 C  
HETATM    7  N   UNL     1      -8.166   7.096  71.294  1.00  0.00    -0.108 N  
HETATM    8  O   UNL     1      -8.866   8.860  72.459  1.00  0.00    -0.381 OA 
HETATM    9  C   UNL     1     -10.577   6.466  70.239  1.00  0.00    -0.237 C  
HETATM   10  C   UNL     1      -8.304   5.882  70.692  1.00  0.00    -0.124 C  
HETATM   11  H   UNL     1      -7.213   7.437  71.422  1.00  0.00     0.000 HD 
HETATM   12  O   UNL     1      -7.311   5.208  70.442  1.00  0.00    -0.059 OA 
HETATM   13  N   UNL     1      -9.599   5.497  70.445  1.00  0.00    -0.165 N  
BRANCH   3  14
HETATM   14  C   UNL     1     -11.518   8.767  71.211  1.00  0.00    -0.355 A  
HETATM   15  C   UNL     1     -13.200  10.353  71.982  1.00  0.00    -0.497 A  
HETATM   16  C   UNL     1     -11.676  11.032  70.259  1.00  0.00    -0.445 A  
HETATM   17  C   UNL     1     -11.098   9.765  70.296  1.00  0.00    -0.349 A  
HETATM   18  C   UNL     1     -12.625   9.074  72.013  1.00  0.00    -0.464 A  
HETATM   19  C   UNL     1     -12.710  11.338  71.128  1.00  0.00    -0.492 A  
ENDBRANCH   3  14
ENDBRANCH   2   3
TORSDOF 2
ENDMDL
MODEL       38
REMARK 921   NORMALIZED FREE ENERGY PREDICTED BY IDOCK:   -5.01 KCAL/MOL
REMARK 922        TOTAL FREE ENERGY PREDICTED BY IDOCK:   -5.37 KCAL/MOL
REMARK 923 INTER-LIGAND FREE ENERGY PREDICTED BY IDOCK:   -5.25 KCAL/MOL
REMARK 924 INTRA-LIGAND FREE ENERGY PREDICTED BY IDOCK:   -0.11 KCAL/MOL
REMARK 927      BINDING AFFINITY PREDICTED BY RF-SCORE:    0.00 PKD
ROOT
HETATM    1  C   UNL     1     -11.002  16.352  70.067  1.00  0.00    -0.322 C  
HETATM    2  C   UNL     1     -10.147  15.372  69.245  1.00  0.00    -0.253 C  
ENDROOT
BRANCH   2   3
HETATM    3  C   UNL     1      -9.682  15.948  67.851  1.00  0.00    -0.216 C  
HETATM    4  C   UNL     1      -9.844  17.490  67.849  1.00  0.00    -0.293 C  
HETATM    5  O   UNL     1      -7.658  14.653  67.278  1.00  0.00    -0.193 OA 
HETATM    6  C   UNL     1      -6.370  15.821  69.486  1.00  0.00    -0.171 C  
HETATM    7  N   UNL     1      -8.741  18.240  68.170  1.00  0.00    -0.274 N  
HETATM    8  O   UNL     1     -10.899  18.088  67.639  1.00  0.00    -0.390 OA 
HETATM    9  C   UNL     1      -8.174  15.613  67.844  1.00  0.00    -0.148 C  
HETATM   10  C   UNL     1      -7.554  17.777  68.650  1.00  0.00    -0.276 C  
HETATM   11  H   UNL     1      -8.818  19.248  68.034  1.00  0.00     0.000 HD 
HETATM   12  O   UNL     1      -6.689  18.569  69.007  1.00  0.00    -0.259 OA 
HETATM   13  N   UNL     1      -7.449  16.409  68.726  1.00  0.00    -0.194 N  
BRANCH   3  14
HETATM   14  C   UNL     1     -10.603  15.300  66.781  1.00  0.00    -0.304 A  
HETATM   15  C   UNL     1     -11.094  14.535  64.520  1.00  0.00    -0.280 A  
HETATM   16  C   UNL     1     -12.345  13.614  66.349  1.00  0.00    -0.441 A  
HETATM   17  C   UNL     1     -11.639  14.438  67.223  1.00  0.00    -0.401 A  
HETATM   18  C   UNL     1     -10.390  15.372  65.398  1.00  0.00    -0.422 A  
HETATM   19  C   UNL     1     -12.049  13.639  64.996  1.00  0.00    -0.418 A  
ENDBRANCH   3  14
ENDBRANCH   2   3
TORSDOF 2
ENDMDL
MODEL       39
REMARK 921   NORMALIZED FREE ENERGY PREDICTED BY IDOCK:   -4.99 KCAL/MOL
REMARK 922        TOTAL FREE ENERGY PREDICTED BY IDOCK:   -5.35 KCAL/MOL
REMARK 923 INTER-LIGAND FREE ENERGY PREDICTED BY IDOCK:   -5.21 KCAL/MOL
REMARK 924 INTRA-LIGAND FREE ENERGY PREDICTED BY IDOCK:   -0.14 KCAL/MOL
REMARK 927      BINDING AFFINITY PREDICTED BY RF-SCORE:    0.00 PKD
ROOT
HETATM    1  C   UNL     1      -9.014   8.812  66.902  1.00  0.00    -0.155 C  
HETATM    2  C   UNL     1     -10.407   8.995  67.530  1.00  0.00    -0.328 C  
ENDROOT
BRANCH   2   3
HETATM    3  C   UNL     1     -10.393   9.806  68.883  1.00  0.00    -0.225 C  
HETATM    4  C   UNL     1      -8.973  10.376  69.130  1.00  0.00    -0.179 C  
HETATM    5  O   UNL     1     -12.529  11.048  68.894  1.00  0.00    -0.460 OA 
HETATM    6  C   UNL     1     -11.612  12.509  66.676  1.00  0.00    -0.380 C  
HETATM    7  N   UNL     1      -8.731  11.664  68.724  1.00  0.00    -0.352 N  
HETATM    8  O   UNL     1      -8.032   9.743  69.609  1.00  0.00    -0.116 OA 
HETATM    9  C   UNL     1     -11.346  10.981  68.571  1.00  0.00    -0.287 C  
HETATM   10  C   UNL     1      -9.556  12.449  67.977  1.00  0.00    -0.211 C  
HETATM   11  H   UNL     1      -7.843  12.075  69.010  1.00  0.00     0.000 HD 
HETATM   12  O   UNL     1      -9.166  13.543  67.584  1.00  0.00    -0.196 OA 
HETATM   13  N   UNL     1     -10.783  11.903  67.693  1.00  0.00    -0.208 N  
BRANCH   3  14
HETATM   14  C   UNL     1     -10.781   8.799  70.000  1.00  0.00    -0.236 A  
HETATM   15  C   UNL     1     -11.774   8.221  72.150  1.00  0.00    -0.429 A  
HETATM   16  C   UNL     1     -11.493   6.496  70.506  1.00  0.00    -0.448 A  
HETATM   17  C   UNL     1     -10.906   7.430  69.653  1.00  0.00    -0.222 A  
HETATM   18  C   UNL     1     -11.174   9.158  71.296  1.00  0.00    -0.407 A  
HETATM   19  C   UNL     1     -11.958   6.900  71.746  1.00  0.00    -0.372 A  
ENDBRANCH   3  14
ENDBRANCH   2   3
TORSDOF 2
ENDMDL
MODEL       40
REMARK 921   NORMALIZED FREE ENERGY PREDICTED BY IDOCK:   -4.98 KCAL/MOL
REMARK 922        TOTAL FREE ENERGY PREDICTED BY IDOCK:   -5.33 KCAL/MOL
REMARK 923 INTER-LIGAND FREE ENERGY PREDICTED BY IDOCK:   -5.41 KCAL/MOL
REMARK 924 INTRA-LIGAND FREE ENERGY PREDICTED BY IDOCK:    0.08 KCAL/MOL
REMARK 927      BINDING AFFINITY PREDICTED BY RF-SCORE:    0.00 PKD
ROOT
HETATM    1  C   UNL     1     -10.602  16.463  69.553  1.00  0.00    -0.320 C  
HETATM    2  C   UNL     1     -10.901  17.338  68.324  1.00  0.00    -0.287 C  
ENDROOT
BRANCH   2   3
HETATM    3  C   UNL     1     -10.029  16.978  67.059  1.00  0.00    -0.288 C  
HETATM    4  C   UNL     1     -10.185  18.089  65.989  1.00  0.00    -0.303 C  
HETATM    5  O   UNL     1      -7.923  16.076  67.984  1.00  0.00    -0.135 OA 
HETATM    6  C   UNL     1      -7.387  18.615  69.059  1.00  0.00    -0.234 C  
HETATM    7  N   UNL     1      -9.238  19.081  65.968  1.00  0.00    -0.177 N  
HETATM    8  O   UNL     1     -11.125  18.179  65.199  1.00  0.00    -0.540 OA 
HETATM    9  C   UNL     1      -8.592  17.041  67.624  1.00  0.00    -0.210 C  
HETATM   10  C   UNL     1      -8.258  19.290  66.889  1.00  0.00    -0.277 C  
HETATM   11  H   UNL     1      -9.272  19.729  65.180  1.00  0.00     0.000 HD 
HETATM   12  O   UNL     1      -7.548  20.287  66.810  1.00  0.00    -0.283 OA 
HETATM   13  N   UNL     1      -8.178  18.344  67.881  1.00  0.00    -0.255 N  
BRANCH   3  14
HETATM   14  C   UNL     1     -10.570  15.624  66.525  1.00  0.00    -0.307 A  
HETATM   15  C   UNL     1     -12.299  13.922  66.287  1.00  0.00    -0.489 A  
HETATM   16  C   UNL     1     -10.529  14.006  64.669  1.00  0.00    -0.398 A  
HETATM   17  C   UNL     1      -9.961  15.067  65.372  1.00  0.00    -0.365 A  
HETATM   18  C   UNL     1     -11.722  14.984  67.000  1.00  0.00    -0.199 A  
HETATM   19  C   UNL     1     -11.719  13.452  65.111  1.00  0.00    -0.345 A  
ENDBRANCH   3  14
ENDBRANCH   2   3
TORSDOF 2
ENDMDL
MODEL       41
REMARK 921   NORMALIZED FREE ENERGY PREDICTED BY IDOCK:   -4.97 KCAL/MOL
REMARK 922        TOTAL FREE ENERGY PREDICTED BY IDOCK:   -5.32 KCAL/MOL
REMARK 923 INTER-LIGAND FREE ENERGY PREDICTED BY IDOCK:   -5.29 KCAL/MOL
REMARK 924 INTRA-LIGAND FREE ENERGY PREDICTED BY IDOCK:   -0.03 KCAL/MOL
REMARK 927      BINDING AFFINITY PREDICTED BY RF-SCORE:    0.00 PKD
ROOT
HETATM    1  C   UNL     1     -11.457  13.711  65.708  1.00  0.00    -0.326 C  
HETATM    2  C   UNL     1     -12.101  14.198  67.019  1.00  0.00    -0.449 C  
ENDROOT
BRANCH   2   3
HETATM    3  C   UNL     1     -11.081  14.338  68.215  1.00  0.00    -0.276 C  
HETATM    4  C   UNL     1     -11.861  14.465  69.548  1.00  0.00    -0.329 C  
HETATM    5  O   UNL     1      -9.268  12.745  67.685  1.00  0.00    -0.178 OA 
HETATM    6  C   UNL     1     -11.113  10.648  67.995  1.00  0.00    -0.301 C  
HETATM    7  N   UNL     1     -12.064  13.317  70.271  1.00  0.00    -0.404 N  
HETATM    8  O   UNL     1     -12.362  15.505  69.976  1.00  0.00    -0.369 OA 
HETATM    9  C   UNL     1     -10.363  12.970  68.195  1.00  0.00    -0.240 C  
HETATM   10  C   UNL     1     -11.796  12.044  69.869  1.00  0.00    -0.331 C  
HETATM   11  H   UNL     1     -12.457  13.429  71.206  1.00  0.00     0.000 HD 
HETATM   12  O   UNL     1     -12.135  11.098  70.570  1.00  0.00    -0.328 OA 
HETATM   13  N   UNL     1     -11.177  11.936  68.647  1.00  0.00    -0.235 N  
BRANCH   3  14
HETATM   14  C   UNL     1     -10.257  15.625  67.938  1.00  0.00    -0.239 A  
HETATM   15  C   UNL     1      -9.994  17.886  67.065  1.00  0.00    -0.324 A  
HETATM   16  C   UNL     1      -8.477  17.117  68.758  1.00  0.00    -0.225 A  
HETATM   17  C   UNL     1      -9.123  15.882  68.750  1.00  0.00    -0.219 A  
HETATM   18  C   UNL     1     -10.638  16.640  67.050  1.00  0.00    -0.247 A  
HETATM   19  C   UNL     1      -8.935  18.133  67.935  1.00  0.00    -0.273 A  
ENDBRANCH   3  14
ENDBRANCH   2   3
TORSDOF 2
ENDMDL
MODEL       42
REMARK 921   NORMALIZED FREE ENERGY PREDICTED BY IDOCK:   -4.93 KCAL/MOL
REMARK 922        TOTAL FREE ENERGY PREDICTED BY IDOCK:   -5.27 KCAL/MOL
REMARK 923 INTER-LIGAND FREE ENERGY PREDICTED BY IDOCK:   -6.05 KCAL/MOL
REMARK 924 INTRA-LIGAND FREE ENERGY PREDICTED BY IDOCK:    0.77 KCAL/MOL
REMARK 927      BINDING AFFINITY PREDICTED BY RF-SCORE:    0.00 PKD
ROOT
HETATM    1  C   UNL     1      -9.457  14.463  67.248  1.00  0.00    -0.215 C  
HETATM    2  C   UNL     1      -9.580  12.975  67.619  1.00  0.00    -0.206 C  
ENDROOT
BRANCH   2   3
HETATM    3  C   UNL     1     -11.059  12.428  67.570  1.00  0.00    -0.313 C  
HETATM    4  C   UNL     1     -11.937  13.383  66.722  1.00  0.00    -0.394 C  
HETATM    5  O   UNL     1     -10.817   9.984  67.304  1.00  0.00    -0.270 OA 
HETATM    6  C   UNL     1      -9.682  10.440  64.775  1.00  0.00    -0.320 C  
HETATM    7  N   UNL     1     -12.113  13.069  65.398  1.00  0.00    -0.417 N  
HETATM    8  O   UNL     1     -12.437  14.431  67.131  1.00  0.00    -0.234 OA 
HETATM    9  C   UNL     1     -10.892  11.101  66.798  1.00  0.00    -0.268 C  
HETATM   10  C   UNL     1     -11.468  12.093  64.702  1.00  0.00    -0.328 C  
HETATM   11  H   UNL     1     -12.797  13.623  64.883  1.00  0.00     0.000 HD 
HETATM   12  O   UNL     1     -11.635  11.995  63.491  1.00  0.00    -0.439 OA 
HETATM   13  N   UNL     1     -10.629  11.301  65.447  1.00  0.00    -0.266 N  
BRANCH   3  14
HETATM   14  C   UNL     1     -11.559  12.387  69.040  1.00  0.00    -0.362 A  
HETATM   15  C   UNL     1     -12.455  13.423  71.056  1.00  0.00    -0.437 A  
HETATM   16  C   UNL     1     -12.719  11.057  70.758  1.00  0.00    -0.414 A  
HETATM   17  C   UNL     1     -12.018  11.149  69.557  1.00  0.00    -0.425 A  
HETATM   18  C   UNL     1     -11.742  13.514  69.851  1.00  0.00    -0.341 A  
HETATM   19  C   UNL     1     -12.966  12.204  71.495  1.00  0.00    -0.398 A  
ENDBRANCH   3  14
ENDBRANCH   2   3
TORSDOF 2
ENDMDL
MODEL       43
REMARK 921   NORMALIZED FREE ENERGY PREDICTED BY IDOCK:   -4.90 KCAL/MOL
REMARK 922        TOTAL FREE ENERGY PREDICTED BY IDOCK:   -5.25 KCAL/MOL
REMARK 923 INTER-LIGAND FREE ENERGY PREDICTED BY IDOCK:   -5.15 KCAL/MOL
REMARK 924 INTRA-LIGAND FREE ENERGY PREDICTED BY IDOCK:   -0.10 KCAL/MOL
REMARK 927      BINDING AFFINITY PREDICTED BY RF-SCORE:    0.00 PKD
ROOT
HETATM    1  C   UNL     1      -9.679   7.789  73.374  1.00  0.00    -0.353 C  
HETATM    2  C   UNL     1      -9.803   8.565  72.051  1.00  0.00    -0.383 C  
ENDROOT
BRANCH   2   3
HETATM    3  C   UNL     1     -10.879   7.969  71.062  1.00  0.00    -0.259 C  
HETATM    4  C   UNL     1     -11.848   7.049  71.847  1.00  0.00    -0.305 C  
HETATM    5  O   UNL     1     -11.473   9.848  69.573  1.00  0.00    -0.180 OA 
HETATM    6  C   UNL     1     -12.571  11.173  71.794  1.00  0.00    -0.177 C  
HETATM    7  N   UNL     1     -13.023   7.602  72.289  1.00  0.00    -0.507 N  
HETATM    8  O   UNL     1     -11.617   5.879  72.152  1.00  0.00    -0.296 OA 
HETATM    9  C   UNL     1     -11.652   9.231  70.620  1.00  0.00    -0.252 C  
HETATM   10  C   UNL     1     -13.365   8.919  72.257  1.00  0.00    -0.449 C  
HETATM   11  H   UNL     1     -13.711   6.959  72.683  1.00  0.00     0.000 HD 
HETATM   12  O   UNL     1     -14.401   9.295  72.793  1.00  0.00    -0.496 OA 
HETATM   13  N   UNL     1     -12.461   9.742  71.630  1.00  0.00    -0.384 N  
BRANCH   3  14
HETATM   14  C   UNL     1     -10.092   7.156  69.999  1.00  0.00    -0.194 A  
HETATM   15  C   UNL     1      -9.945   5.788  67.987  1.00  0.00    -0.173 A  
HETATM   16  C   UNL     1      -7.991   6.966  68.727  1.00  0.00    -0.120 A  
HETATM   17  C   UNL     1      -8.716   7.447  69.816  1.00  0.00    -0.141 A  
HETATM   18  C   UNL     1     -10.672   6.264  69.088  1.00  0.00    -0.362 A  
HETATM   19  C   UNL     1      -8.617   6.160  67.792  1.00  0.00    -0.114 A  
ENDBRANCH   3  14
ENDBRANCH   2   3
TORSDOF 2
ENDMDL
MODEL       44
REMARK 921   NORMALIZED FREE ENERGY PREDICTED BY IDOCK:   -4.90 KCAL/MOL
REMARK 922        TOTAL FREE ENERGY PREDICTED BY IDOCK:   -5.24 KCAL/MOL
REMARK 923 INTER-LIGAND FREE ENERGY PREDICTED BY IDOCK:   -5.09 KCAL/MOL
REMARK 924 INTRA-LIGAND FREE ENERGY PREDICTED BY IDOCK:   -0.15 KCAL/MOL
REMARK 927      BINDING AFFINITY PREDICTED BY RF-SCORE:    0.00 PKD
ROOT
HETATM    1  C   UNL     1      -8.725   7.619  69.538  1.00  0.00    -0.136 C  
HETATM    2  C   UNL     1      -9.245   8.016  70.931  1.00  0.00    -0.163 C  
ENDROOT
BRANCH   2   3
HETATM    3  C   UNL     1     -10.584   7.288  71.341  1.00  0.00    -0.229 C  
HETATM    4  C   UNL     1     -10.931   6.208  70.284  1.00  0.00    -0.349 C  
HETATM    5  O   UNL     1     -10.412   6.988  73.788  1.00  0.00    -0.364 OA 
HETATM    6  C   UNL     1      -8.249   5.247  73.354  1.00  0.00    -0.111 C  
HETATM    7  N   UNL     1     -10.525   4.923  70.539  1.00  0.00    -0.172 N  
HETATM    8  O   UNL     1     -11.489   6.428  69.210  1.00  0.00    -0.381 OA 
HETATM    9  C   UNL     1     -10.181   6.578  72.653  1.00  0.00    -0.186 C  
HETATM   10  C   UNL     1      -9.705   4.514  71.547  1.00  0.00    -0.175 C  
HETATM   11  H   UNL     1     -10.873   4.200  69.910  1.00  0.00     0.000 HD 
HETATM   12  O   UNL     1      -9.327   3.348  71.591  1.00  0.00    -0.114 OA 
HETATM   13  N   UNL     1      -9.336   5.495  72.434  1.00  0.00    -0.144 N  
BRANCH   3  14
HETATM   14  C   UNL     1     -11.682   8.385  71.385  1.00  0.00    -0.332 A  
HETATM   15  C   UNL     1     -13.769   9.332  72.215  1.00  0.00    -0.527 A  
HETATM   16  C   UNL     1     -12.161  10.793  71.196  1.00  0.00    -0.457 A  
HETATM   17  C   UNL     1     -11.340   9.693  70.957  1.00  0.00    -0.444 A  
HETATM   18  C   UNL     1     -12.947   8.223  71.966  1.00  0.00    -0.355 A  
HETATM   19  C   UNL     1     -13.366  10.616  71.856  1.00  0.00    -0.454 A  
ENDBRANCH   3  14
ENDBRANCH   2   3
TORSDOF 2
ENDMDL
MODEL       45
REMARK 921   NORMALIZED FREE ENERGY PREDICTED BY IDOCK:   -4.88 KCAL/MOL
REMARK 922        TOTAL FREE ENERGY PREDICTED BY IDOCK:   -5.22 KCAL/MOL
REMARK 923 INTER-LIGAND FREE ENERGY PREDICTED BY IDOCK:   -5.23 KCAL/MOL
REMARK 924 INTRA-LIGAND FREE ENERGY PREDICTED BY IDOCK:    0.01 KCAL/MOL
REMARK 927      BINDING AFFINITY PREDICTED BY RF-SCORE:    0.00 PKD
ROOT
HETATM    1  C   UNL     1     -10.613   8.438  67.115  1.00  0.00    -0.326 C  
HETATM    2  C   UNL     1     -10.073   9.700  66.420  1.00  0.00    -0.317 C  
ENDROOT
BRANCH   2   3
HETATM    3  C   UNL     1     -10.112  10.991  67.327  1.00  0.00    -0.222 C  
HETATM    4  C   UNL     1     -10.864  10.675  68.645  1.00  0.00    -0.227 C  
HETATM    5  O   UNL     1      -7.868  11.997  67.087  1.00  0.00    -0.161 OA 
HETATM    6  C   UNL     1      -6.793   9.735  68.362  1.00  0.00    -0.060 C  
HETATM    7  N   UNL     1     -10.108  10.319  69.733  1.00  0.00    -0.343 N  
HETATM    8  O   UNL     1     -12.089  10.662  68.773  1.00  0.00    -0.389 OA 
HETATM    9  C   UNL     1      -8.618  11.207  67.655  1.00  0.00    -0.126 C  
HETATM   10  C   UNL     1      -8.772  10.054  69.743  1.00  0.00    -0.179 C  
HETATM   11  H   UNL     1     -10.596  10.246  70.626  1.00  0.00     0.000 HD 
HETATM   12  O   UNL     1      -8.241   9.632  70.764  1.00  0.00    -0.273 OA 
HETATM   13  N   UNL     1      -8.127  10.259  68.548  1.00  0.00    -0.104 N  
BRANCH   3  14
HETATM   14  C   UNL     1     -10.868  12.075  66.512  1.00  0.00    -0.314 A  
HETATM   15  C   UNL     1     -12.303  12.804  64.681  1.00  0.00    -0.524 A  
HETATM   16  C   UNL     1     -12.083  14.216  66.608  1.00  0.00    -0.480 A  
HETATM   17  C   UNL     1     -11.193  13.295  67.159  1.00  0.00    -0.327 A  
HETATM   18  C   UNL     1     -11.400  11.882  65.230  1.00  0.00    -0.333 A  
HETATM   19  C   UNL     1     -12.665  13.954  65.379  1.00  0.00    -0.525 A  
ENDBRANCH   3  14
ENDBRANCH   2   3
TORSDOF 2
ENDMDL
MODEL       46
REMARK 921   NORMALIZED FREE ENERGY PREDICTED BY IDOCK:   -4.87 KCAL/MOL
REMARK 922        TOTAL FREE ENERGY PREDICTED BY IDOCK:   -5.21 KCAL/MOL
REMARK 923 INTER-LIGAND FREE ENERGY PREDICTED BY IDOCK:   -5.26 KCAL/MOL
REMARK 924 INTRA-LIGAND FREE ENERGY PREDICTED BY IDOCK:    0.05 KCAL/MOL
REMARK 927      BINDING AFFINITY PREDICTED BY RF-SCORE:    0.00 PKD
ROOT
HETATM    1  C   UNL     1     -11.146  12.457  64.265  1.00  0.00    -0.399 C  
HETATM    2  C   UNL     1     -11.791  12.615  65.653  1.00  0.00    -0.488 C  
ENDROOT
BRANCH   2   3
HETATM    3  C   UNL     1     -10.764  12.978  66.795  1.00  0.00    -0.273 C  
HETATM    4  C   UNL     1     -11.510  13.079  68.150  1.00  0.00    -0.319 C  
HETATM    5  O   UNL     1      -8.757  11.629  66.286  1.00  0.00    -0.187 OA 
HETATM    6  C   UNL     1     -10.266   9.315  66.798  1.00  0.00    -0.255 C  
HETATM    7  N   UNL     1     -11.520  11.963  68.948  1.00  0.00    -0.274 N  
HETATM    8  O   UNL     1     -12.143  14.062  68.535  1.00  0.00    -0.357 OA 
HETATM    9  C   UNL     1      -9.856  11.729  66.827  1.00  0.00    -0.198 C  
HETATM   10  C   UNL     1     -11.083  10.718  68.612  1.00  0.00    -0.259 C  
HETATM   11  H   UNL     1     -11.894  12.079  69.891  1.00  0.00     0.000 HD 
HETATM   12  O   UNL     1     -11.257   9.781  69.383  1.00  0.00    -0.205 OA 
HETATM   13  N   UNL     1     -10.495  10.620  67.375  1.00  0.00    -0.219 N  
BRANCH   3  14
HETATM   14  C   UNL     1     -10.146  14.349  66.407  1.00  0.00    -0.294 A  
HETATM   15  C   UNL     1     -10.303  16.674  65.695  1.00  0.00    -0.310 A  
HETATM   16  C   UNL     1      -8.310  15.940  66.811  1.00  0.00    -0.306 A  
HETATM   17  C   UNL     1      -8.845  14.655  66.881  1.00  0.00    -0.267 A  
HETATM   18  C   UNL     1     -10.837  15.379  65.756  1.00  0.00    -0.349 A  
HETATM   19  C   UNL     1      -9.055  16.961  66.244  1.00  0.00    -0.302 A  
ENDBRANCH   3  14
ENDBRANCH   2   3
TORSDOF 2
ENDMDL
MODEL       47
REMARK 921   NORMALIZED FREE ENERGY PREDICTED BY IDOCK:   -4.86 KCAL/MOL
REMARK 922        TOTAL FREE ENERGY PREDICTED BY IDOCK:   -5.20 KCAL/MOL
REMARK 923 INTER-LIGAND FREE ENERGY PREDICTED BY IDOCK:   -5.38 KCAL/MOL
REMARK 924 INTRA-LIGAND FREE ENERGY PREDICTED BY IDOCK:    0.17 KCAL/MOL
REMARK 927      BINDING AFFINITY PREDICTED BY RF-SCORE:    0.00 PKD
ROOT
HETATM    1  C   UNL     1     -12.349  12.660  65.591  1.00  0.00    -0.390 C  
HETATM    2  C   UNL     1     -10.920  12.408  66.105  1.00  0.00    -0.321 C  
ENDROOT
BRANCH   2   3
HETATM    3  C   UNL     1     -10.597  13.135  67.468  1.00  0.00    -0.240 C  
HETATM    4  C   UNL     1      -9.070  13.088  67.729  1.00  0.00    -0.200 C  
HETATM    5  O   UNL     1     -12.059  15.127  67.480  1.00  0.00    -0.113 OA 
HETATM    6  C   UNL     1     -10.613  16.118  65.285  1.00  0.00    -0.369 C  
HETATM    7  N   UNL     1      -8.330  14.175  67.339  1.00  0.00    -0.187 N  
HETATM    8  O   UNL     1      -8.466  12.127  68.206  1.00  0.00    -0.170 OA 
HETATM    9  C   UNL     1     -10.998  14.596  67.163  1.00  0.00    -0.316 C  
HETATM   10  C   UNL     1      -8.764  15.230  66.596  1.00  0.00    -0.291 C  
HETATM   11  H   UNL     1      -7.354  14.194  67.636  1.00  0.00     0.000 HD 
HETATM   12  O   UNL     1      -7.966  16.081  66.218  1.00  0.00    -0.240 OA 
HETATM   13  N   UNL     1     -10.105  15.223  66.299  1.00  0.00    -0.265 N  
BRANCH   3  14
HETATM   14  C   UNL     1     -11.366  12.357  68.571  1.00  0.00    -0.336 A  
HETATM   15  C   UNL     1     -11.890  10.343  69.838  1.00  0.00    -0.314 A  
HETATM   16  C   UNL     1     -12.393  12.479  70.805  1.00  0.00    -0.376 A  
HETATM   17  C   UNL     1     -11.917  13.095  69.649  1.00  0.00    -0.370 A  
HETATM   18  C   UNL     1     -11.421  10.961  68.670  1.00  0.00    -0.380 A  
HETATM   19  C   UNL     1     -12.350  11.100  70.913  1.00  0.00    -0.500 A  
ENDBRANCH   3  14
ENDBRANCH   2   3
TORSDOF 2
ENDMDL
MODEL       48
REMARK 921   NORMALIZED FREE ENERGY PREDICTED BY IDOCK:   -4.86 KCAL/MOL
REMARK 922        TOTAL FREE ENERGY PREDICTED BY IDOCK:   -5.20 KCAL/MOL
REMARK 923 INTER-LIGAND FREE ENERGY PREDICTED BY IDOCK:   -5.06 KCAL/MOL
REMARK 924 INTRA-LIGAND FREE ENERGY PREDICTED BY IDOCK:   -0.14 KCAL/MOL
REMARK 927      BINDING AFFINITY PREDICTED BY RF-SCORE:    0.00 PKD
ROOT
HETATM    1  C   UNL     1     -11.509  11.933  68.163  1.00  0.00    -0.384 C  
HETATM    2  C   UNL     1     -11.361  13.202  67.306  1.00  0.00    -0.344 C  
ENDROOT
BRANCH   2   3
HETATM    3  C   UNL     1      -9.950  13.340  66.612  1.00  0.00    -0.272 C  
HETATM    4  C   UNL     1      -9.269  11.950  66.544  1.00  0.00    -0.214 C  
HETATM    5  O   UNL     1     -10.317  14.922  64.750  1.00  0.00    -0.368 OA 
HETATM    6  C   UNL     1     -11.998  13.015  63.552  1.00  0.00    -0.545 C  
HETATM    7  N   UNL     1      -9.416  11.232  65.384  1.00  0.00    -0.223 N  
HETATM    8  O   UNL     1      -8.657  11.418  67.471  1.00  0.00    -0.132 OA 
HETATM    9  C   UNL     1     -10.331  13.771  65.179  1.00  0.00    -0.372 C  
HETATM   10  C   UNL     1     -10.233  11.535  64.338  1.00  0.00    -0.300 C  
HETATM   11  H   UNL     1      -8.855  10.384  65.297  1.00  0.00     0.000 HD 
HETATM   12  O   UNL     1     -10.356  10.744  63.410  1.00  0.00    -0.299 OA 
HETATM   13  N   UNL     1     -10.897  12.733  64.444  1.00  0.00    -0.344 N  
BRANCH   3  14
HETATM   14  C   UNL     1      -9.123  14.313  67.496  1.00  0.00    -0.193 A  
HETATM   15  C   UNL     1      -7.209  15.761  67.920  1.00  0.00    -0.154 A  
HETATM   16  C   UNL     1      -9.211  16.088  69.201  1.00  0.00    -0.247 A  
HETATM   17  C   UNL     1      -9.794  15.015  68.529  1.00  0.00    -0.217 A  
HETATM   18  C   UNL     1      -7.792  14.675  67.251  1.00  0.00    -0.213 A  
HETATM   19  C   UNL     1      -7.925  16.483  68.872  1.00  0.00    -0.239 A  
ENDBRANCH   3  14
ENDBRANCH   2   3
TORSDOF 2
ENDMDL
MODEL       49
REMARK 921   NORMALIZED FREE ENERGY PREDICTED BY IDOCK:   -4.85 KCAL/MOL
REMARK 922        TOTAL FREE ENERGY PREDICTED BY IDOCK:   -5.19 KCAL/MOL
REMARK 923 INTER-LIGAND FREE ENERGY PREDICTED BY IDOCK:   -5.20 KCAL/MOL
REMARK 924 INTRA-LIGAND FREE ENERGY PREDICTED BY IDOCK:    0.00 KCAL/MOL
REMARK 927      BINDING AFFINITY PREDICTED BY RF-SCORE:    0.00 PKD
ROOT
HETATM    1  C   UNL     1     -12.205  14.180  66.137  1.00  0.00    -0.465 C  
HETATM    2  C   UNL     1     -10.938  15.030  65.939  1.00  0.00    -0.343 C  
ENDROOT
BRANCH   2   3
HETATM    3  C   UNL     1     -10.248  15.467  67.289  1.00  0.00    -0.260 C  
HETATM    4  C   UNL     1     -10.998  14.827  68.485  1.00  0.00    -0.258 C  
HETATM    5  O   UNL     1      -7.825  15.372  66.817  1.00  0.00    -0.201 OA 
HETATM    6  C   UNL     1      -8.064  12.590  66.504  1.00  0.00     0.276 C  
HETATM    7  N   UNL     1     -10.503  13.648  68.982  1.00  0.00    -0.412 N  
HETATM    8  O   UNL     1     -12.036  15.264  68.982  1.00  0.00    -0.323 OA 
HETATM    9  C   UNL     1      -8.856  14.808  67.174  1.00  0.00    -0.216 C  
HETATM   10  C   UNL     1      -9.513  12.888  68.437  1.00  0.00    -0.162 C  
HETATM   11  H   UNL     1     -10.918  13.306  69.849  1.00  0.00     0.000 HD 
HETATM   12  O   UNL     1      -9.246  11.794  68.922  1.00  0.00    -0.059 OA 
HETATM   13  N   UNL     1      -8.908  13.426  67.328  1.00  0.00    -0.211 N  
BRANCH   3  14
HETATM   14  C   UNL     1     -10.345  17.016  67.348  1.00  0.00    -0.319 A  
HETATM   15  C   UNL     1     -10.047  19.167  68.455  1.00  0.00    -0.498 A  
HETATM   16  C   UNL     1     -10.219  19.113  66.063  1.00  0.00    -0.494 A  
HETATM   17  C   UNL     1     -10.391  17.731  66.125  1.00  0.00    -0.340 A  
HETATM   18  C   UNL     1     -10.230  17.778  68.518  1.00  0.00    -0.382 A  
HETATM   19  C   UNL     1     -10.014  19.829  67.230  1.00  0.00    -0.530 A  
ENDBRANCH   3  14
ENDBRANCH   2   3
TORSDOF 2
ENDMDL
MODEL       50
REMARK 921   NORMALIZED FREE ENERGY PREDICTED BY IDOCK:   -4.85 KCAL/MOL
REMARK 922        TOTAL FREE ENERGY PREDICTED BY IDOCK:   -5.19 KCAL/MOL
REMARK 923 INTER-LIGAND FREE ENERGY PREDICTED BY IDOCK:   -5.10 KCAL/MOL
REMARK 924 INTRA-LIGAND FREE ENERGY PREDICTED BY IDOCK:   -0.09 KCAL/MOL
REMARK 927      BINDING AFFINITY PREDICTED BY RF-SCORE:    0.00 PKD
ROOT
HETATM    1  C   UNL     1      -9.006   7.104  69.396  1.00  0.00    -0.136 C  
HETATM    2  C   UNL     1     -10.298   7.838  68.997  1.00  0.00    -0.219 C  
ENDROOT
BRANCH   2   3
HETATM    3  C   UNL     1     -10.536   9.183  69.789  1.00  0.00    -0.234 C  
HETATM    4  C   UNL     1      -9.237   9.579  70.536  1.00  0.00    -0.225 C  
HETATM    5  O   UNL     1     -11.870  10.587  68.256  1.00  0.00    -0.406 OA 
HETATM    6  C   UNL     1      -9.667  10.659  66.513  1.00  0.00    -0.194 C  
HETATM    7  N   UNL     1      -8.396  10.465  69.912  1.00  0.00    -0.369 N  
HETATM    8  O   UNL     1      -8.876   9.116  71.618  1.00  0.00    -0.339 OA 
HETATM    9  C   UNL     1     -10.774  10.197  68.648  1.00  0.00    -0.222 C  
HETATM   10  C   UNL     1      -8.494  10.915  68.630  1.00  0.00    -0.152 C  
HETATM   11  H   UNL     1      -7.616  10.823  70.464  1.00  0.00     0.000 HD 
HETATM   12  O   UNL     1      -7.606  11.617  68.160  1.00  0.00    -0.101 OA 
HETATM   13  N   UNL     1      -9.608  10.492  67.947  1.00  0.00    -0.149 N  
BRANCH   3  14
HETATM   14  C   UNL     1     -11.683   8.900  70.797  1.00  0.00    -0.269 A  
HETATM   15  C   UNL     1     -13.621   9.563  72.118  1.00  0.00    -0.500 A  
HETATM   16  C   UNL     1     -13.299   7.237  71.626  1.00  0.00    -0.421 A  
HETATM   17  C   UNL     1     -12.122   7.561  70.953  1.00  0.00    -0.254 A  
HETATM   18  C   UNL     1     -12.431   9.888  71.449  1.00  0.00    -0.495 A  
HETATM   19  C   UNL     1     -14.067   8.245  72.183  1.00  0.00    -0.418 A  
ENDBRANCH   3  14
ENDBRANCH   2   3
TORSDOF 2
ENDMDL
MODEL       51
REMARK 921   NORMALIZED FREE ENERGY PREDICTED BY IDOCK:   -4.77 KCAL/MOL
REMARK 922        TOTAL FREE ENERGY PREDICTED BY IDOCK:   -5.10 KCAL/MOL
REMARK 923 INTER-LIGAND FREE ENERGY PREDICTED BY IDOCK:   -5.18 KCAL/MOL
REMARK 924 INTRA-LIGAND FREE ENERGY PREDICTED BY IDOCK:    0.08 KCAL/MOL
REMARK 927      BINDING AFFINITY PREDICTED BY RF-SCORE:    0.00 PKD
ROOT
HETATM    1  C   UNL     1      -8.229  11.956  68.428  1.00  0.00    -0.160 C  
HETATM    2  C   UNL     1      -8.900  10.626  68.814  1.00  0.00    -0.161 C  
ENDROOT
BRANCH   2   3
HETATM    3  C   UNL     1     -10.466  10.625  68.622  1.00  0.00    -0.211 C  
HETATM    4  C   UNL     1     -10.937  12.041  68.205  1.00  0.00    -0.234 C  
HETATM    5  O   UNL     1     -10.958   8.487  67.484  1.00  0.00    -0.107 OA 
HETATM    6  C   UNL     1      -9.532   9.425  65.253  1.00  0.00    -0.227 C  
HETATM    7  N   UNL     1     -11.090  12.286  66.864  1.00  0.00    -0.273 N  
HETATM    8  O   UNL     1     -11.127  12.978  68.981  1.00  0.00    -0.249 OA 
HETATM    9  C   UNL     1     -10.647   9.674  67.418  1.00  0.00    -0.268 C  
HETATM   10  C   UNL     1     -10.717  11.468  65.841  1.00  0.00    -0.272 C  
HETATM   11  H   UNL     1     -11.528  13.171  66.607  1.00  0.00     0.000 HD 
HETATM   12  O   UNL     1     -10.806  11.861  64.682  1.00  0.00    -0.287 OA 
HETATM   13  N   UNL     1     -10.224  10.244  66.221  1.00  0.00    -0.233 N  
BRANCH   3  14
HETATM   14  C   UNL     1     -11.075  10.227  69.994  1.00  0.00    -0.373 A  
HETATM   15  C   UNL     1     -12.947   9.856  71.510  1.00  0.00    -0.523 A  
HETATM   16  C   UNL     1     -10.853   8.782  71.976  1.00  0.00    -0.428 A  
HETATM   17  C   UNL     1     -10.306   9.401  70.854  1.00  0.00    -0.380 A  
HETATM   18  C   UNL     1     -12.394  10.487  70.386  1.00  0.00    -0.409 A  
HETATM   19  C   UNL     1     -12.187   8.985  72.288  1.00  0.00    -0.387 A  
ENDBRANCH   3  14
ENDBRANCH   2   3
TORSDOF 2
ENDMDL
MODEL       52
REMARK 921   NORMALIZED FREE ENERGY PREDICTED BY IDOCK:   -4.75 KCAL/MOL
REMARK 922        TOTAL FREE ENERGY PREDICTED BY IDOCK:   -5.08 KCAL/MOL
REMARK 923 INTER-LIGAND FREE ENERGY PREDICTED BY IDOCK:   -4.99 KCAL/MOL
REMARK 924 INTRA-LIGAND FREE ENERGY PREDICTED BY IDOCK:   -0.09 KCAL/MOL
REMARK 927      BINDING AFFINITY PREDICTED BY RF-SCORE:    0.00 PKD
ROOT
HETATM    1  C   UNL     1      -9.881   8.259  72.251  1.00  0.00    -0.364 C  
HETATM    2  C   UNL     1      -9.834   9.211  71.042  1.00  0.00    -0.366 C  
ENDROOT
BRANCH   2   3
HETATM    3  C   UNL     1     -10.837   8.822  69.888  1.00  0.00    -0.211 C  
HETATM    4  C   UNL     1     -11.521   7.473  70.229  1.00  0.00    -0.152 C  
HETATM    5  O   UNL     1     -11.939  10.945  69.270  1.00  0.00    -0.321 OA 
HETATM    6  C   UNL     1     -13.104  11.006  71.826  1.00  0.00    -0.449 C  
HETATM    7  N   UNL     1     -12.746   7.525  70.845  1.00  0.00    -0.565 N  
HETATM    8  O   UNL     1     -11.023   6.363  70.043  1.00  0.00    -0.270 OA 
HETATM    9  C   UNL     1     -11.894   9.944  69.981  1.00  0.00    -0.067 C  
HETATM   10  C   UNL     1     -13.361   8.635  71.340  1.00  0.00    -0.230 C  
HETATM   11  H   UNL     1     -13.247   6.642  70.943  1.00  0.00     0.000 HD 
HETATM   12  O   UNL     1     -14.405   8.523  71.973  1.00  0.00    -0.430 OA 
HETATM   13  N   UNL     1     -12.706   9.819  71.104  1.00  0.00    -0.334 N  
BRANCH   3  14
HETATM   14  C   UNL     1      -9.987   8.693  68.595  1.00  0.00    -0.197 A  
HETATM   15  C   UNL     1      -9.683   8.808  66.179  1.00  0.00    -0.320 A  
HETATM   16  C   UNL     1      -7.752   8.954  67.595  1.00  0.00    -0.101 A  
HETATM   17  C   UNL     1      -8.577   8.798  68.707  1.00  0.00    -0.137 A  
HETATM   18  C   UNL     1     -10.513   8.641  67.297  1.00  0.00    -0.360 A  
HETATM   19  C   UNL     1      -8.310   8.992  66.329  1.00  0.00    -0.122 A  
ENDBRANCH   3  14
ENDBRANCH   2   3
TORSDOF 2
ENDMDL
MODEL       53
REMARK 921   NORMALIZED FREE ENERGY PREDICTED BY IDOCK:   -4.75 KCAL/MOL
REMARK 922        TOTAL FREE ENERGY PREDICTED BY IDOCK:   -5.08 KCAL/MOL
REMARK 923 INTER-LIGAND FREE ENERGY PREDICTED BY IDOCK:   -5.05 KCAL/MOL
REMARK 924 INTRA-LIGAND FREE ENERGY PREDICTED BY IDOCK:   -0.02 KCAL/MOL
REMARK 927      BINDING AFFINITY PREDICTED BY RF-SCORE:    0.00 PKD
ROOT
HETATM    1  C   UNL     1      -8.065   8.458  72.261  1.00  0.00    -0.186 C  
HETATM    2  C   UNL     1      -8.838   7.823  71.093  1.00  0.00    -0.143 C  
ENDROOT
BRANCH   2   3
HETATM    3  C   UNL     1     -10.286   7.330  71.482  1.00  0.00    -0.217 C  
HETATM    4  C   UNL     1     -10.811   6.359  70.394  1.00  0.00    -0.286 C  
HETATM    5  O   UNL     1     -10.183   6.937  73.919  1.00  0.00    -0.320 OA 
HETATM    6  C   UNL     1      -8.357   4.856  73.437  1.00  0.00    -0.107 C  
HETATM    7  N   UNL     1     -10.639   5.015  70.613  1.00  0.00    -0.152 N  
HETATM    8  O   UNL     1     -11.317   6.702  69.326  1.00  0.00    -0.291 OA 
HETATM    9  C   UNL     1     -10.022   6.524  72.773  1.00  0.00    -0.172 C  
HETATM   10  C   UNL     1      -9.910   4.440  71.608  1.00  0.00    -0.185 C  
HETATM   11  H   UNL     1     -11.105   4.382  69.962  1.00  0.00     0.000 HD 
HETATM   12  O   UNL     1      -9.742   3.225  71.619  1.00  0.00    -0.151 OA 
HETATM   13  N   UNL     1      -9.378   5.316  72.523  1.00  0.00    -0.139 N  
BRANCH   3  14
HETATM   14  C   UNL     1     -11.175   8.601  71.556  1.00  0.00    -0.360 A  
HETATM   15  C   UNL     1     -11.904  10.787  70.761  1.00  0.00    -0.443 A  
HETATM   16  C   UNL     1     -13.393   9.502  72.134  1.00  0.00    -0.545 A  
HETATM   17  C   UNL     1     -12.418   8.511  72.232  1.00  0.00    -0.448 A  
HETATM   18  C   UNL     1     -10.919   9.794  70.867  1.00  0.00    -0.411 A  
HETATM   19  C   UNL     1     -13.147  10.630  71.370  1.00  0.00    -0.499 A  
ENDBRANCH   3  14
ENDBRANCH   2   3
TORSDOF 2
ENDMDL
MODEL       54
REMARK 921   NORMALIZED FREE ENERGY PREDICTED BY IDOCK:   -4.74 KCAL/MOL
REMARK 922        TOTAL FREE ENERGY PREDICTED BY IDOCK:   -5.06 KCAL/MOL
REMARK 923 INTER-LIGAND FREE ENERGY PREDICTED BY IDOCK:   -5.23 KCAL/MOL
REMARK 924 INTRA-LIGAND FREE ENERGY PREDICTED BY IDOCK:    0.17 KCAL/MOL
REMARK 927      BINDING AFFINITY PREDICTED BY RF-SCORE:    0.00 PKD
ROOT
HETATM    1  C   UNL     1      -8.215   8.639  69.769  1.00  0.00    -0.121 C  
HETATM    2  C   UNL     1      -9.181   9.819  69.972  1.00  0.00    -0.266 C  
ENDROOT
BRANCH   2   3
HETATM    3  C   UNL     1     -10.701   9.436  69.786  1.00  0.00    -0.250 C  
HETATM    4  C   UNL     1     -11.579  10.699  69.972  1.00  0.00    -0.325 C  
HETATM    5  O   UNL     1     -10.724   7.862  67.882  1.00  0.00    -0.177 OA 
HETATM    6  C   UNL     1      -9.863   9.961  66.224  1.00  0.00    -0.245 C  
HETATM    7  N   UNL     1     -11.942  11.387  68.841  1.00  0.00    -0.339 N  
HETATM    8  O   UNL     1     -11.926  11.164  71.058  1.00  0.00    -0.293 OA 
HETATM    9  C   UNL     1     -10.753   9.016  68.300  1.00  0.00    -0.103 C  
HETATM   10  C   UNL     1     -11.480  11.176  67.578  1.00  0.00    -0.216 C  
HETATM   11  H   UNL     1     -12.627  12.133  68.960  1.00  0.00     0.000 HD 
HETATM   12  O   UNL     1     -11.800  11.941  66.675  1.00  0.00    -0.591 OA 
HETATM   13  N   UNL     1     -10.636  10.101  67.437  1.00  0.00    -0.256 N  
BRANCH   3  14
HETATM   14  C   UNL     1     -11.022   8.380  70.879  1.00  0.00    -0.279 A  
HETATM   15  C   UNL     1     -11.635   6.139  71.615  1.00  0.00    -0.317 A  
HETATM   16  C   UNL     1     -10.529   7.602  73.163  1.00  0.00    -0.433 A  
HETATM   17  C   UNL     1     -10.520   8.597  72.187  1.00  0.00    -0.411 A  
HETATM   18  C   UNL     1     -11.635   7.144  70.636  1.00  0.00    -0.354 A  
HETATM   19  C   UNL     1     -11.059   6.357  72.865  1.00  0.00    -0.259 A  
ENDBRANCH   3  14
ENDBRANCH   2   3
TORSDOF 2
ENDMDL
MODEL       55
REMARK 921   NORMALIZED FREE ENERGY PREDICTED BY IDOCK:   -4.73 KCAL/MOL
REMARK 922        TOTAL FREE ENERGY PREDICTED BY IDOCK:   -5.06 KCAL/MOL
REMARK 923 INTER-LIGAND FREE ENERGY PREDICTED BY IDOCK:   -4.87 KCAL/MOL
REMARK 924 INTRA-LIGAND FREE ENERGY PREDICTED BY IDOCK:   -0.19 KCAL/MOL
REMARK 927      BINDING AFFINITY PREDICTED BY RF-SCORE:    0.00 PKD
ROOT
HETATM    1  C   UNL     1      -7.932   8.801  69.150  1.00  0.00    -0.109 C  
HETATM    2  C   UNL     1      -8.826   9.936  69.680  1.00  0.00    -0.224 C  
ENDROOT
BRANCH   2   3
HETATM    3  C   UNL     1     -10.293   9.913  69.101  1.00  0.00    -0.225 C  
HETATM    4  C   UNL     1     -10.483   8.650  68.222  1.00  0.00    -0.184 C  
HETATM    5  O   UNL     1     -11.720  10.663  70.974  1.00  0.00    -0.325 OA 
HETATM    6  C   UNL     1     -11.002   8.330  72.366  1.00  0.00    -0.368 C  
HETATM    7  N   UNL     1     -11.039   7.546  68.818  1.00  0.00    -0.421 N  
HETATM    8  O   UNL     1     -10.120   8.545  67.051  1.00  0.00    -0.222 OA 
HETATM    9  C   UNL     1     -11.147   9.754  70.379  1.00  0.00    -0.307 C  
HETATM   10  C   UNL     1     -11.297   7.380  70.144  1.00  0.00    -0.177 C  
HETATM   11  H   UNL     1     -11.284   6.769  68.203  1.00  0.00     0.000 HD 
HETATM   12  O   UNL     1     -11.689   6.295  70.559  1.00  0.00    -0.354 OA 
HETATM   13  N   UNL     1     -11.049   8.479  70.929  1.00  0.00    -0.249 N  
BRANCH   3  14
HETATM   14  C   UNL     1     -10.447  11.201  68.248  1.00  0.00    -0.215 A  
HETATM   15  C   UNL     1     -11.769  12.934  67.156  1.00  0.00    -0.437 A  
HETATM   16  C   UNL     1      -9.468  13.384  67.665  1.00  0.00    -0.216 A  
HETATM   17  C   UNL     1      -9.348  12.095  68.180  1.00  0.00    -0.204 A  
HETATM   18  C   UNL     1     -11.646  11.633  67.666  1.00  0.00    -0.349 A  
HETATM   19  C   UNL     1     -10.691  13.816  67.180  1.00  0.00    -0.283 A  
ENDBRANCH   3  14
ENDBRANCH   2   3
TORSDOF 2
ENDMDL
MODEL       56
REMARK 921   NORMALIZED FREE ENERGY PREDICTED BY IDOCK:   -4.73 KCAL/MOL
REMARK 922        TOTAL FREE ENERGY PREDICTED BY IDOCK:   -5.05 KCAL/MOL
REMARK 923 INTER-LIGAND FREE ENERGY PREDICTED BY IDOCK:   -5.13 KCAL/MOL
REMARK 924 INTRA-LIGAND FREE ENERGY PREDICTED BY IDOCK:    0.08 KCAL/MOL
REMARK 927      BINDING AFFINITY PREDICTED BY RF-SCORE:    0.00 PKD
ROOT
HETATM    1  C   UNL     1     -12.856  14.191  65.317  1.00  0.00    -0.370 C  
HETATM    2  C   UNL     1     -12.278  13.256  66.394  1.00  0.00    -0.419 C  
ENDROOT
BRANCH   2   3
HETATM    3  C   UNL     1     -10.749  13.501  66.695  1.00  0.00    -0.282 C  
HETATM    4  C   UNL     1     -10.301  14.835  66.044  1.00  0.00    -0.305 C  
HETATM    5  O   UNL     1     -10.452  12.808  69.048  1.00  0.00    -0.130 OA 
HETATM    6  C   UNL     1     -12.124  14.933  69.813  1.00  0.00    -0.314 C  
HETATM    7  N   UNL     1     -10.311  15.956  66.834  1.00  0.00    -0.286 N  
HETATM    8  O   UNL     1      -9.994  14.973  64.861  1.00  0.00    -0.273 OA 
HETATM    9  C   UNL     1     -10.741  13.678  68.230  1.00  0.00    -0.254 C  
HETATM   10  C   UNL     1     -10.827  16.062  68.090  1.00  0.00    -0.322 C  
HETATM   11  H   UNL     1      -9.888  16.797  66.440  1.00  0.00     0.000 HD 
HETATM   12  O   UNL     1     -10.875  17.157  68.640  1.00  0.00    -0.329 OA 
HETATM   13  N   UNL     1     -11.297  14.890  68.628  1.00  0.00    -0.277 N  
BRANCH   3  14
HETATM   14  C   UNL     1      -9.983  12.303  66.071  1.00  0.00    -0.270 A  
HETATM   15  C   UNL     1      -8.306  10.535  66.128  1.00  0.00    -0.155 A  
HETATM   16  C   UNL     1     -10.130  10.348  64.581  1.00  0.00    -0.378 A  
HETATM   17  C   UNL     1     -10.610  11.579  65.026  1.00  0.00    -0.354 A  
HETATM   18  C   UNL     1      -8.783  11.778  66.569  1.00  0.00    -0.173 A  
HETATM   19  C   UNL     1      -8.992   9.809  65.157  1.00  0.00    -0.237 A  
ENDBRANCH   3  14
ENDBRANCH   2   3
TORSDOF 2
ENDMDL
MODEL       57
REMARK 921   NORMALIZED FREE ENERGY PREDICTED BY IDOCK:   -4.72 KCAL/MOL
REMARK 922        TOTAL FREE ENERGY PREDICTED BY IDOCK:   -5.04 KCAL/MOL
REMARK 923 INTER-LIGAND FREE ENERGY PREDICTED BY IDOCK:   -5.18 KCAL/MOL
REMARK 924 INTRA-LIGAND FREE ENERGY PREDICTED BY IDOCK:    0.13 KCAL/MOL
REMARK 927      BINDING AFFINITY PREDICTED BY RF-SCORE:    0.00 PKD
ROOT
HETATM    1  C   UNL     1     -10.688   8.202  67.120  1.00  0.00    -0.264 C  
HETATM    2  C   UNL     1     -10.084   9.361  66.309  1.00  0.00    -0.328 C  
ENDROOT
BRANCH   2   3
HETATM    3  C   UNL     1     -10.141  10.753  67.050  1.00  0.00    -0.249 C  
HETATM    4  C   UNL     1     -10.848  10.582  68.418  1.00  0.00    -0.240 C  
HETATM    5  O   UNL     1      -7.937  11.784  66.621  1.00  0.00    -0.148 OA 
HETATM    6  C   UNL     1      -6.758   9.730  68.134  1.00  0.00    -0.061 C  
HETATM    7  N   UNL     1     -10.053  10.386  69.519  1.00  0.00    -0.296 N  
HETATM    8  O   UNL     1     -12.068  10.551  68.583  1.00  0.00    -0.324 OA 
HETATM    9  C   UNL     1      -8.646  11.050  67.304  1.00  0.00    -0.130 C  
HETATM   10  C   UNL     1      -8.710  10.162  69.522  1.00  0.00    -0.174 C  
HETATM   11  H   UNL     1     -10.516  10.411  70.428  1.00  0.00     0.000 HD 
HETATM   12  O   UNL     1      -8.140   9.886  70.572  1.00  0.00    -0.230 OA 
HETATM   13  N   UNL     1      -8.103  10.235  68.293  1.00  0.00    -0.105 N  
BRANCH   3  14
HETATM   14  C   UNL     1     -10.952  11.706  66.129  1.00  0.00    -0.339 A  
HETATM   15  C   UNL     1     -12.145  13.780  65.669  1.00  0.00    -0.444 A  
HETATM   16  C   UNL     1     -11.298  12.501  63.825  1.00  0.00    -0.534 A  
HETATM   17  C   UNL     1     -10.825  11.549  64.726  1.00  0.00    -0.360 A  
HETATM   18  C   UNL     1     -11.679  12.817  66.576  1.00  0.00    -0.463 A  
HETATM   19  C   UNL     1     -11.932  13.637  64.300  1.00  0.00    -0.488 A  
ENDBRANCH   3  14
ENDBRANCH   2   3
TORSDOF 2
ENDMDL
MODEL       58
REMARK 921   NORMALIZED FREE ENERGY PREDICTED BY IDOCK:   -4.69 KCAL/MOL
REMARK 922        TOTAL FREE ENERGY PREDICTED BY IDOCK:   -5.01 KCAL/MOL
REMARK 923 INTER-LIGAND FREE ENERGY PREDICTED BY IDOCK:   -4.90 KCAL/MOL
REMARK 924 INTRA-LIGAND FREE ENERGY PREDICTED BY IDOCK:   -0.11 KCAL/MOL
REMARK 927      BINDING AFFINITY PREDICTED BY RF-SCORE:    0.00 PKD
ROOT
HETATM    1  C   UNL     1     -11.726  14.698  66.742  1.00  0.00    -0.355 C  
HETATM    2  C   UNL     1     -12.160  13.571  67.694  1.00  0.00    -0.321 C  
ENDROOT
BRANCH   2   3
HETATM    3  C   UNL     1     -11.029  13.112  68.694  1.00  0.00    -0.296 C  
HETATM    4  C   UNL     1      -9.995  14.253  68.864  1.00  0.00    -0.156 C  
HETATM    5  O   UNL     1     -12.226  11.896  70.481  1.00  0.00    -0.362 OA 
HETATM    6  C   UNL     1     -13.473  14.310  71.195  1.00  0.00    -0.273 C  
HETATM    7  N   UNL     1     -10.158  15.098  69.934  1.00  0.00    -0.467 N  
HETATM    8  O   UNL     1      -9.075  14.494  68.082  1.00  0.00    -0.178 OA 
HETATM    9  C   UNL     1     -11.808  12.954  70.019  1.00  0.00    -0.286 C  
HETATM   10  C   UNL     1     -11.225  15.145  70.777  1.00  0.00    -0.286 C  
HETATM   11  H   UNL     1      -9.401  15.758  70.115  1.00  0.00     0.000 HD 
HETATM   12  O   UNL     1     -11.296  16.029  71.623  1.00  0.00    -0.361 OA 
HETATM   13  N   UNL     1     -12.179  14.179  70.567  1.00  0.00    -0.338 N  
BRANCH   3  14
HETATM   14  C   UNL     1     -10.364  11.861  68.058  1.00  0.00    -0.209 A  
HETATM   15  C   UNL     1      -8.999   9.844  68.157  1.00  0.00    -0.118 A  
HETATM   16  C   UNL     1     -10.572  10.087  66.362  1.00  0.00    -0.138 A  
HETATM   17  C   UNL     1     -10.925  11.338  66.865  1.00  0.00    -0.348 A  
HETATM   18  C   UNL     1      -9.347  11.108  68.658  1.00  0.00    -0.186 A  
HETATM   19  C   UNL     1      -9.629   9.324  67.029  1.00  0.00    -0.223 A  
ENDBRANCH   3  14
ENDBRANCH   2   3
TORSDOF 2
ENDMDL
MODEL       59
REMARK 921   NORMALIZED FREE ENERGY PREDICTED BY IDOCK:   -4.68 KCAL/MOL
REMARK 922        TOTAL FREE ENERGY PREDICTED BY IDOCK:   -5.00 KCAL/MOL
REMARK 923 INTER-LIGAND FREE ENERGY PREDICTED BY IDOCK:   -5.45 KCAL/MOL
REMARK 924 INTRA-LIGAND FREE ENERGY PREDICTED BY IDOCK:    0.45 KCAL/MOL
REMARK 927      BINDING AFFINITY PREDICTED BY RF-SCORE:    0.00 PKD
ROOT
HETATM    1  C   UNL     1      -8.218  15.174  68.447  1.00  0.00    -0.145 C  
HETATM    2  C   UNL     1      -9.283  14.107  68.139  1.00  0.00    -0.194 C  
ENDROOT
BRANCH   2   3
HETATM    3  C   UNL     1     -10.742  14.521  68.574  1.00  0.00    -0.253 C  
HETATM    4  C   UNL     1     -10.668  15.698  69.579  1.00  0.00    -0.271 C  
HETATM    5  O   UNL     1     -12.073  14.406  66.496  1.00  0.00    -0.418 OA 
HETATM    6  C   UNL     1     -10.539  16.527  65.476  1.00  0.00    -0.295 C  
HETATM    7  N   UNL     1     -10.799  16.967  69.074  1.00  0.00    -0.295 N  
HETATM    8  O   UNL     1     -10.442  15.585  70.784  1.00  0.00    -0.213 OA 
HETATM    9  C   UNL     1     -11.342  15.043  67.250  1.00  0.00    -0.332 C  
HETATM   10  C   UNL     1     -10.826  17.320  67.759  1.00  0.00    -0.261 C  
HETATM   11  H   UNL     1     -10.885  17.724  69.753  1.00  0.00     0.000 HD 
HETATM   12  O   UNL     1     -10.831  18.506  67.445  1.00  0.00    -0.421 OA 
HETATM   13  N   UNL     1     -10.809  16.272  66.873  1.00  0.00    -0.219 N  
BRANCH   3  14
HETATM   14  C   UNL     1     -11.370  13.268  69.244  1.00  0.00    -0.311 A  
HETATM   15  C   UNL     1     -11.355  10.919  69.893  1.00  0.00    -0.381 A  
HETATM   16  C   UNL     1     -12.782  12.437  71.083  1.00  0.00    -0.336 A  
HETATM   17  C   UNL     1     -12.351  13.467  70.249  1.00  0.00    -0.370 A  
HETATM   18  C   UNL     1     -10.928  11.954  69.048  1.00  0.00    -0.267 A  
HETATM   19  C   UNL     1     -12.258  11.165  70.925  1.00  0.00    -0.468 A  
ENDBRANCH   3  14
ENDBRANCH   2   3
TORSDOF 2
ENDMDL
MODEL       60
REMARK 921   NORMALIZED FREE ENERGY PREDICTED BY IDOCK:   -4.66 KCAL/MOL
REMARK 922        TOTAL FREE ENERGY PREDICTED BY IDOCK:   -4.98 KCAL/MOL
REMARK 923 INTER-LIGAND FREE ENERGY PREDICTED BY IDOCK:   -5.25 KCAL/MOL
REMARK 924 INTRA-LIGAND FREE ENERGY PREDICTED BY IDOCK:    0.27 KCAL/MOL
REMARK 927      BINDING AFFINITY PREDICTED BY RF-SCORE:    0.00 PKD
ROOT
HETATM    1  C   UNL     1      -8.204   9.626  69.607  1.00  0.00    -0.148 C  
HETATM    2  C   UNL     1      -8.904   8.321  69.189  1.00  0.00    -0.143 C  
ENDROOT
BRANCH   2   3
HETATM    3  C   UNL     1     -10.457   8.478  68.959  1.00  0.00    -0.216 C  
HETATM    4  C   UNL     1     -11.080   7.089  68.670  1.00  0.00    -0.014 C  
HETATM    5  O   UNL     1     -11.181  10.121  70.657  1.00  0.00    -0.305 OA 
HETATM    6  C   UNL     1     -10.502   8.260  72.649  1.00  0.00    -0.303 C  
HETATM    7  N   UNL     1     -11.626   6.410  69.730  1.00  0.00    -0.580 N  
HETATM    8  O   UNL     1     -11.070   6.525  67.576  1.00  0.00    -0.341 OA 
HETATM    9  C   UNL     1     -10.946   8.957  70.344  1.00  0.00    -0.244 C  
HETATM   10  C   UNL     1     -11.538   6.749  71.046  1.00  0.00    -0.339 C  
HETATM   11  H   UNL     1     -12.151   5.563  69.510  1.00  0.00     0.000 HD 
HETATM   12  O   UNL     1     -11.974   5.989  71.903  1.00  0.00    -0.271 OA 
HETATM   13  N   UNL     1     -10.911   7.945  71.299  1.00  0.00    -0.235 N  
BRANCH   3  14
HETATM   14  C   UNL     1     -10.625   9.419  67.735  1.00  0.00    -0.317 A  
HETATM   15  C   UNL     1     -11.138  11.568  66.706  1.00  0.00    -0.361 A  
HETATM   16  C   UNL     1      -9.816   9.986  65.479  1.00  0.00    -0.373 A  
HETATM   17  C   UNL     1      -9.941   9.088  66.538  1.00  0.00    -0.355 A  
HETATM   18  C   UNL     1     -11.272  10.661  67.768  1.00  0.00    -0.383 A  
HETATM   19  C   UNL     1     -10.390  11.243  65.577  1.00  0.00    -0.321 A  
ENDBRANCH   3  14
ENDBRANCH   2   3
TORSDOF 2
ENDMDL
MODEL       61
REMARK 921   NORMALIZED FREE ENERGY PREDICTED BY IDOCK:   -4.66 KCAL/MOL
REMARK 922        TOTAL FREE ENERGY PREDICTED BY IDOCK:   -4.97 KCAL/MOL
REMARK 923 INTER-LIGAND FREE ENERGY PREDICTED BY IDOCK:   -4.94 KCAL/MOL
REMARK 924 INTRA-LIGAND FREE ENERGY PREDICTED BY IDOCK:   -0.03 KCAL/MOL
REMARK 927      BINDING AFFINITY PREDICTED BY RF-SCORE:    0.00 PKD
ROOT
HETATM    1  C   UNL     1     -11.008   6.007  69.195  1.00  0.00    -0.429 C  
HETATM    2  C   UNL     1     -10.697   5.918  70.700  1.00  0.00    -0.353 C  
ENDROOT
BRANCH   2   3
HETATM    3  C   UNL     1     -10.529   7.323  71.399  1.00  0.00    -0.219 C  
HETATM    4  C   UNL     1      -9.963   7.125  72.828  1.00  0.00    -0.185 C  
HETATM    5  O   UNL     1      -9.645   8.803  69.629  1.00  0.00    -0.167 OA 
HETATM    6  C   UNL     1      -7.301   7.253  69.598  1.00  0.00    -0.088 C  
HETATM    7  N   UNL     1      -8.605   7.236  72.990  1.00  0.00    -0.120 N  
HETATM    8  O   UNL     1     -10.632   6.819  73.815  1.00  0.00    -0.337 OA 
HETATM    9  C   UNL     1      -9.441   7.993  70.530  1.00  0.00    -0.166 C  
HETATM   10  C   UNL     1      -7.675   7.342  72.002  1.00  0.00    -0.089 C  
HETATM   11  H   UNL     1      -8.258   7.240  73.949  1.00  0.00     0.000 HD 
HETATM   12  O   UNL     1      -6.481   7.316  72.282  1.00  0.00    -0.051 OA 
HETATM   13  N   UNL     1      -8.182   7.434  70.729  1.00  0.00    -0.110 N  
BRANCH   3  14
HETATM   14  C   UNL     1     -11.946   7.956  71.453  1.00  0.00    -0.331 A  
HETATM   15  C   UNL     1     -14.356   7.851  71.799  1.00  0.00    -0.589 A  
HETATM   16  C   UNL     1     -13.254   9.973  71.988  1.00  0.00    -0.545 A  
HETATM   17  C   UNL     1     -12.047   9.354  71.668  1.00  0.00    -0.462 A  
HETATM   18  C   UNL     1     -13.143   7.229  71.467  1.00  0.00    -0.434 A  
HETATM   19  C   UNL     1     -14.407   9.213  72.085  1.00  0.00    -0.272 A  
ENDBRANCH   3  14
ENDBRANCH   2   3
TORSDOF 2
ENDMDL
MODEL       62
REMARK 921   NORMALIZED FREE ENERGY PREDICTED BY IDOCK:   -4.64 KCAL/MOL
REMARK 922        TOTAL FREE ENERGY PREDICTED BY IDOCK:   -4.96 KCAL/MOL
REMARK 923 INTER-LIGAND FREE ENERGY PREDICTED BY IDOCK:   -5.21 KCAL/MOL
REMARK 924 INTRA-LIGAND FREE ENERGY PREDICTED BY IDOCK:    0.25 KCAL/MOL
REMARK 927      BINDING AFFINITY PREDICTED BY RF-SCORE:    0.00 PKD
ROOT
HETATM    1  C   UNL     1      -8.105   9.277  70.412  1.00  0.00    -0.178 C  
HETATM    2  C   UNL     1      -9.169  10.154  69.729  1.00  0.00    -0.175 C  
ENDROOT
BRANCH   2   3
HETATM    3  C   UNL     1     -10.555   9.429  69.523  1.00  0.00    -0.237 C  
HETATM    4  C   UNL     1     -11.116   8.984  70.897  1.00  0.00    -0.280 C  
HETATM    5  O   UNL     1     -11.711  10.761  67.793  1.00  0.00    -0.547 OA 
HETATM    6  C   UNL     1     -11.801  12.908  69.604  1.00  0.00    -0.320 C  
HETATM    7  N   UNL     1     -12.007   9.825  71.516  1.00  0.00    -0.395 N  
HETATM    8  O   UNL     1     -10.779   7.966  71.501  1.00  0.00    -0.222 OA 
HETATM    9  C   UNL     1     -11.443  10.569  68.976  1.00  0.00    -0.237 C  
HETATM   10  C   UNL     1     -12.333  11.090  71.132  1.00  0.00    -0.359 C  
HETATM   11  H   UNL     1     -12.472   9.465  72.350  1.00  0.00     0.000 HD 
HETATM   12  O   UNL     1     -13.058  11.776  71.843  1.00  0.00    -0.468 OA 
HETATM   13  N   UNL     1     -11.766  11.506  69.952  1.00  0.00    -0.327 N  
BRANCH   3  14
HETATM   14  C   UNL     1     -10.273   8.195  68.622  1.00  0.00    -0.226 A  
HETATM   15  C   UNL     1     -10.807   5.986  67.741  1.00  0.00    -0.380 A  
HETATM   16  C   UNL     1      -9.342   7.409  66.482  1.00  0.00    -0.222 A  
HETATM   17  C   UNL     1      -9.446   8.372  67.484  1.00  0.00    -0.182 A  
HETATM   18  C   UNL     1     -10.903   6.951  68.755  1.00  0.00    -0.238 A  
HETATM   19  C   UNL     1     -10.051   6.225  66.596  1.00  0.00    -0.214 A  
ENDBRANCH   3  14
ENDBRANCH   2   3
TORSDOF 2
ENDMDL
MODEL       63
REMARK 921   NORMALIZED FREE ENERGY PREDICTED BY IDOCK:   -4.63 KCAL/MOL
REMARK 922        TOTAL FREE ENERGY PREDICTED BY IDOCK:   -4.94 KCAL/MOL
REMARK 923 INTER-LIGAND FREE ENERGY PREDICTED BY IDOCK:   -4.80 KCAL/MOL
REMARK 924 INTRA-LIGAND FREE ENERGY PREDICTED BY IDOCK:   -0.14 KCAL/MOL
REMARK 927      BINDING AFFINITY PREDICTED BY RF-SCORE:    0.00 PKD
ROOT
HETATM    1  C   UNL     1     -10.736  14.888  68.559  1.00  0.00    -0.245 C  
HETATM    2  C   UNL     1     -10.439  13.468  68.045  1.00  0.00    -0.245 C  
ENDROOT
BRANCH   2   3
HETATM    3  C   UNL     1      -9.603  13.437  66.708  1.00  0.00    -0.262 C  
HETATM    4  C   UNL     1      -9.174  14.879  66.332  1.00  0.00    -0.284 C  
HETATM    5  O   UNL     1      -8.151  11.450  66.919  1.00  0.00    -0.146 OA 
HETATM    6  C   UNL     1      -6.842  12.718  69.058  1.00  0.00    -0.081 C  
HETATM    7  N   UNL     1      -7.927  15.289  66.731  1.00  0.00    -0.309 N  
HETATM    8  O   UNL     1      -9.889  15.700  65.757  1.00  0.00    -0.315 OA 
HETATM    9  C   UNL     1      -8.345  12.645  67.126  1.00  0.00    -0.172 C  
HETATM   10  C   UNL     1      -7.080  14.625  67.564  1.00  0.00    -0.178 C  
HETATM   11  H   UNL     1      -7.602  16.185  66.365  1.00  0.00     0.000 HD 
HETATM   12  O   UNL     1      -6.040  15.161  67.932  1.00  0.00    -0.135 OA 
HETATM   13  N   UNL     1      -7.505  13.380  67.958  1.00  0.00    -0.122 N  
BRANCH   3  14
HETATM   14  C   UNL     1     -10.540  12.844  65.620  1.00  0.00    -0.295 A  
HETATM   15  C   UNL     1     -12.734  12.388  64.662  1.00  0.00    -0.372 A  
HETATM   16  C   UNL     1     -10.814  12.342  63.225  1.00  0.00    -0.300 A  
HETATM   17  C   UNL     1     -10.006  12.622  64.325  1.00  0.00    -0.202 A  
HETATM   18  C   UNL     1     -11.920  12.659  65.772  1.00  0.00    -0.503 A  
HETATM   19  C   UNL     1     -12.186  12.257  63.388  1.00  0.00    -0.630 A  
ENDBRANCH   3  14
ENDBRANCH   2   3
TORSDOF 2
ENDMDL
MODEL       64
REMARK 921   NORMALIZED FREE ENERGY PREDICTED BY IDOCK:   -4.63 KCAL/MOL
REMARK 922        TOTAL FREE ENERGY PREDICTED BY IDOCK:   -4.94 KCAL/MOL
REMARK 923 INTER-LIGAND FREE ENERGY PREDICTED BY IDOCK:   -5.01 KCAL/MOL
REMARK 924 INTRA-LIGAND FREE ENERGY PREDICTED BY IDOCK:    0.07 KCAL/MOL
REMARK 927      BINDING AFFINITY PREDICTED BY RF-SCORE:    0.00 PKD
ROOT
HETATM    1  C   UNL     1     -11.168  15.255  65.285  1.00  0.00    -0.338 C  
HETATM    2  C   UNL     1      -9.718  15.126  65.783  1.00  0.00    -0.379 C  
ENDROOT
BRANCH   2   3
HETATM    3  C   UNL     1      -9.595  14.937  67.344  1.00  0.00    -0.206 C  
HETATM    4  C   UNL     1      -8.124  15.158  67.779  1.00  0.00    -0.146 C  
HETATM    5  O   UNL     1     -11.610  16.027  68.270  1.00  0.00    -0.338 OA 
HETATM    6  C   UNL     1     -10.625  18.487  67.335  1.00  0.00    -0.424 C  
HETATM    7  N   UNL     1      -7.779  16.409  68.222  1.00  0.00    -0.156 N  
HETATM    8  O   UNL     1      -7.231  14.314  67.701  1.00  0.00    -0.158 OA 
HETATM    9  C   UNL     1     -10.447  16.107  67.884  1.00  0.00    -0.290 C  
HETATM   10  C   UNL     1      -8.549  17.531  68.171  1.00  0.00    -0.258 C  
HETATM   11  H   UNL     1      -6.849  16.510  68.631  1.00  0.00     0.000 HD 
HETATM   12  O   UNL     1      -8.073  18.614  68.496  1.00  0.00    -0.324 OA 
HETATM   13  N   UNL     1      -9.827  17.341  67.708  1.00  0.00    -0.272 N  
BRANCH   3  14
HETATM   14  C   UNL     1     -10.042  13.480  67.644  1.00  0.00    -0.229 A  
HETATM   15  C   UNL     1     -11.326  11.816  68.879  1.00  0.00    -0.326 A  
HETATM   16  C   UNL     1     -10.517  11.260  66.689  1.00  0.00    -0.292 A  
HETATM   17  C   UNL     1      -9.915  12.515  66.613  1.00  0.00    -0.243 A  
HETATM   18  C   UNL     1     -10.712  13.075  68.806  1.00  0.00    -0.250 A  
HETATM   19  C   UNL     1     -11.252  10.922  67.813  1.00  0.00    -0.384 A  
ENDBRANCH   3  14
ENDBRANCH   2   3
TORSDOF 2
ENDMDL
MODEL       65
REMARK 921   NORMALIZED FREE ENERGY PREDICTED BY IDOCK:   -4.58 KCAL/MOL
REMARK 922        TOTAL FREE ENERGY PREDICTED BY IDOCK:   -4.89 KCAL/MOL
REMARK 923 INTER-LIGAND FREE ENERGY PREDICTED BY IDOCK:   -5.24 KCAL/MOL
REMARK 924 INTRA-LIGAND FREE ENERGY PREDICTED BY IDOCK:    0.35 KCAL/MOL
REMARK 927      BINDING AFFINITY PREDICTED BY RF-SCORE:    0.00 PKD
ROOT
HETATM    1  C   UNL     1     -10.412  17.316  68.526  1.00  0.00    -0.375 C  
HETATM    2  C   UNL     1     -10.699  16.478  67.268  1.00  0.00    -0.243 C  
ENDROOT
BRANCH   2   3
HETATM    3  C   UNL     1      -9.659  15.315  67.029  1.00  0.00    -0.233 C  
HETATM    4  C   UNL     1      -9.571  14.430  68.298  1.00  0.00    -0.211 C  
HETATM    5  O   UNL     1     -10.073  14.570  64.710  1.00  0.00    -0.340 OA 
HETATM    6  C   UNL     1     -12.614  13.685  65.519  1.00  0.00    -0.496 C  
HETATM    7  N   UNL     1     -10.349  13.300  68.335  1.00  0.00    -0.248 N  
HETATM    8  O   UNL     1      -8.903  14.695  69.298  1.00  0.00    -0.090 OA 
HETATM    9  C   UNL     1     -10.337  14.497  65.907  1.00  0.00    -0.319 C  
HETATM   10  C   UNL     1     -11.317  12.950  67.444  1.00  0.00    -0.309 C  
HETATM   11  H   UNL     1     -10.185  12.657  69.109  1.00  0.00     0.000 HD 
HETATM   12  O   UNL     1     -12.020  11.969  67.659  1.00  0.00    -0.547 OA 
HETATM   13  N   UNL     1     -11.444  13.786  66.361  1.00  0.00    -0.325 N  
BRANCH   3  14
HETATM   14  C   UNL     1      -8.295  16.000  66.743  1.00  0.00    -0.305 A  
HETATM   15  C   UNL     1      -6.916  17.913  66.127  1.00  0.00    -0.336 A  
HETATM   16  C   UNL     1      -5.906  16.101  67.333  1.00  0.00    -0.166 A  
HETATM   17  C   UNL     1      -7.128  15.430  67.312  1.00  0.00    -0.206 A  
HETATM   18  C   UNL     1      -8.143  17.233  66.097  1.00  0.00    -0.272 A  
HETATM   19  C   UNL     1      -5.808  17.361  66.767  1.00  0.00    -0.221 A  
ENDBRANCH   3  14
ENDBRANCH   2   3
TORSDOF 2
ENDMDL
MODEL       66
REMARK 921   NORMALIZED FREE ENERGY PREDICTED BY IDOCK:   -4.55 KCAL/MOL
REMARK 922        TOTAL FREE ENERGY PREDICTED BY IDOCK:   -4.85 KCAL/MOL
REMARK 923 INTER-LIGAND FREE ENERGY PREDICTED BY IDOCK:   -5.13 KCAL/MOL
REMARK 924 INTRA-LIGAND FREE ENERGY PREDICTED BY IDOCK:    0.28 KCAL/MOL
REMARK 927      BINDING AFFINITY PREDICTED BY RF-SCORE:    0.00 PKD
ROOT
HETATM    1  C   UNL     1     -12.002  14.311  68.847  1.00  0.00    -0.356 C  
HETATM    2  C   UNL     1     -10.558  13.781  68.861  1.00  0.00    -0.224 C  
ENDROOT
BRANCH   2   3
HETATM    3  C   UNL     1     -10.250  12.744  67.712  1.00  0.00    -0.223 C  
HETATM    4  C   UNL     1      -8.734  12.422  67.699  1.00  0.00    -0.178 C  
HETATM    5  O   UNL     1     -12.123  11.136  67.798  1.00  0.00    -0.606 OA 
HETATM    6  C   UNL     1     -11.226  10.331  70.336  1.00  0.00    -0.332 C  
HETATM    7  N   UNL     1      -8.321  11.306  68.383  1.00  0.00    -0.145 N  
HETATM    8  O   UNL     1      -7.869  13.121  67.172  1.00  0.00    -0.145 OA 
HETATM    9  C   UNL     1     -11.014  11.490  68.189  1.00  0.00    -0.228 C  
HETATM   10  C   UNL     1      -9.076  10.535  69.212  1.00  0.00    -0.145 C  
HETATM   11  H   UNL     1      -7.348  11.027  68.257  1.00  0.00     0.000 HD 
HETATM   12  O   UNL     1      -8.550   9.632  69.854  1.00  0.00    -0.168 OA 
HETATM   13  N   UNL     1     -10.404  10.879  69.281  1.00  0.00    -0.213 N  
BRANCH   3  14
HETATM   14  C   UNL     1     -10.676  13.425  66.383  1.00  0.00    -0.289 A  
HETATM   15  C   UNL     1     -12.130  13.674  64.442  1.00  0.00    -0.470 A  
HETATM   16  C   UNL     1     -10.782  15.538  65.122  1.00  0.00    -0.460 A  
HETATM   17  C   UNL     1     -10.249  14.757  66.146  1.00  0.00    -0.310 A  
HETATM   18  C   UNL     1     -11.587  12.883  65.466  1.00  0.00    -0.395 A  
HETATM   19  C   UNL     1     -11.750  15.005  64.288  1.00  0.00    -0.245 A  
ENDBRANCH   3  14
ENDBRANCH   2   3
TORSDOF 2
ENDMDL
MODEL       67
REMARK 921   NORMALIZED FREE ENERGY PREDICTED BY IDOCK:   -4.54 KCAL/MOL
REMARK 922        TOTAL FREE ENERGY PREDICTED BY IDOCK:   -4.85 KCAL/MOL
REMARK 923 INTER-LIGAND FREE ENERGY PREDICTED BY IDOCK:   -4.87 KCAL/MOL
REMARK 924 INTRA-LIGAND FREE ENERGY PREDICTED BY IDOCK:    0.03 KCAL/MOL
REMARK 927      BINDING AFFINITY PREDICTED BY RF-SCORE:    0.00 PKD
ROOT
HETATM    1  C   UNL     1     -12.869   8.739  71.668  1.00  0.00    -0.392 C  
HETATM    2  C   UNL     1     -11.431   9.286  71.654  1.00  0.00    -0.468 C  
ENDROOT
BRANCH   2   3
HETATM    3  C   UNL     1     -10.504   8.609  70.571  1.00  0.00    -0.237 C  
HETATM    4  C   UNL     1      -9.019   8.773  70.985  1.00  0.00    -0.217 C  
HETATM    5  O   UNL     1     -11.668   6.516  69.966  1.00  0.00    -0.416 OA 
HETATM    6  C   UNL     1     -11.228   5.595  72.584  1.00  0.00    -0.300 C  
HETATM    7  N   UNL     1      -8.438   7.736  71.671  1.00  0.00    -0.107 N  
HETATM    8  O   UNL     1      -8.342   9.784  70.798  1.00  0.00    -0.229 OA 
HETATM    9  C   UNL     1     -10.886   7.118  70.698  1.00  0.00    -0.245 C  
HETATM   10  C   UNL     1      -9.068   6.639  72.173  1.00  0.00    -0.138 C  
HETATM   11  H   UNL     1      -7.430   7.794  71.820  1.00  0.00     0.000 HD 
HETATM   12  O   UNL     1      -8.447   5.843  72.869  1.00  0.00    -0.121 OA 
HETATM   13  N   UNL     1     -10.404   6.543  71.869  1.00  0.00    -0.199 N  
BRANCH   3  14
HETATM   14  C   UNL     1     -10.783   9.348  69.234  1.00  0.00    -0.228 A  
HETATM   15  C   UNL     1     -11.318  11.332  67.923  1.00  0.00    -0.367 A  
HETATM   16  C   UNL     1     -10.252   9.480  66.833  1.00  0.00    -0.317 A  
HETATM   17  C   UNL     1     -10.282   8.778  68.036  1.00  0.00    -0.264 A  
HETATM   18  C   UNL     1     -11.357  10.622  69.132  1.00  0.00    -0.338 A  
HETATM   19  C   UNL     1     -10.743  10.774  66.784  1.00  0.00    -0.291 A  
ENDBRANCH   3  14
ENDBRANCH   2   3
TORSDOF 2
ENDMDL
MODEL       68
REMARK 921   NORMALIZED FREE ENERGY PREDICTED BY IDOCK:   -4.54 KCAL/MOL
REMARK 922        TOTAL FREE ENERGY PREDICTED BY IDOCK:   -4.84 KCAL/MOL
REMARK 923 INTER-LIGAND FREE ENERGY PREDICTED BY IDOCK:   -4.81 KCAL/MOL
REMARK 924 INTRA-LIGAND FREE ENERGY PREDICTED BY IDOCK:   -0.03 KCAL/MOL
REMARK 927      BINDING AFFINITY PREDICTED BY RF-SCORE:    0.00 PKD
ROOT
HETATM    1  C   UNL     1     -11.382   6.303  69.337  1.00  0.00    -0.448 C  
HETATM    2  C   UNL     1     -10.290   6.981  70.184  1.00  0.00    -0.213 C  
ENDROOT
BRANCH   2   3
HETATM    3  C   UNL     1     -10.045   8.495  69.811  1.00  0.00    -0.197 C  
HETATM    4  C   UNL     1      -8.708   8.970  70.434  1.00  0.00    -0.199 C  
HETATM    5  O   UNL     1     -10.749   8.684  67.451  1.00  0.00    -0.264 OA 
HETATM    6  C   UNL     1      -8.630   6.975  66.753  1.00  0.00    -0.120 C  
HETATM    7  N   UNL     1      -7.590   8.922  69.640  1.00  0.00    -0.070 N  
HETATM    8  O   UNL     1      -8.562   9.331  71.602  1.00  0.00    -0.309 OA 
HETATM    9  C   UNL     1      -9.876   8.431  68.277  1.00  0.00    -0.169 C  
HETATM   10  C   UNL     1      -7.491   8.348  68.409  1.00  0.00    -0.095 C  
HETATM   11  H   UNL     1      -6.746   9.361  70.010  1.00  0.00     0.000 HD 
HETATM   12  O   UNL     1      -6.399   8.273  67.856  1.00  0.00    -0.050 OA 
HETATM   13  N   UNL     1      -8.667   7.856  67.898  1.00  0.00    -0.125 N  
BRANCH   3  14
HETATM   14  C   UNL     1     -11.239   9.291  70.405  1.00  0.00    -0.290 A  
HETATM   15  C   UNL     1     -12.930   9.713  72.109  1.00  0.00    -0.493 A  
HETATM   16  C   UNL     1     -12.288  11.505  70.649  1.00  0.00    -0.457 A  
HETATM   17  C   UNL     1     -11.419  10.635  69.993  1.00  0.00    -0.404 A  
HETATM   18  C   UNL     1     -12.063   8.835  71.443  1.00  0.00    -0.361 A  
HETATM   19  C   UNL     1     -13.022  11.051  71.732  1.00  0.00    -0.544 A  
ENDBRANCH   3  14
ENDBRANCH   2   3
TORSDOF 2
ENDMDL
MODEL       69
REMARK 921   NORMALIZED FREE ENERGY PREDICTED BY IDOCK:   -4.53 KCAL/MOL
REMARK 922        TOTAL FREE ENERGY PREDICTED BY IDOCK:   -4.83 KCAL/MOL
REMARK 923 INTER-LIGAND FREE ENERGY PREDICTED BY IDOCK:   -4.94 KCAL/MOL
REMARK 924 INTRA-LIGAND FREE ENERGY PREDICTED BY IDOCK:    0.11 KCAL/MOL
REMARK 927      BINDING AFFINITY PREDICTED BY RF-SCORE:    0.00 PKD
ROOT
HETATM    1  C   UNL     1      -9.829  14.826  65.777  1.00  0.00    -0.373 C  
HETATM    2  C   UNL     1     -10.718  15.578  66.783  1.00  0.00    -0.305 C  
ENDROOT
BRANCH   2   3
HETATM    3  C   UNL     1      -9.946  16.072  68.068  1.00  0.00    -0.229 C  
HETATM    4  C   UNL     1      -8.446  15.705  67.944  1.00  0.00    -0.150 C  
HETATM    5  O   UNL     1     -10.909  18.293  68.564  1.00  0.00    -0.063 OA 
HETATM    6  C   UNL     1      -9.822  19.228  66.147  1.00  0.00    -0.367 C  
HETATM    7  N   UNL     1      -7.600  16.667  67.453  1.00  0.00    -0.156 N  
HETATM    8  O   UNL     1      -7.967  14.599  68.196  1.00  0.00    -0.121 OA 
HETATM    9  C   UNL     1     -10.086  17.607  67.963  1.00  0.00    -0.343 C  
HETATM   10  C   UNL     1      -7.957  17.862  66.908  1.00  0.00    -0.227 C  
HETATM   11  H   UNL     1      -6.601  16.466  67.502  1.00  0.00     0.000 HD 
HETATM   12  O   UNL     1      -7.103  18.581  66.399  1.00  0.00    -0.210 OA 
HETATM   13  N   UNL     1      -9.300  18.145  66.948  1.00  0.00    -0.270 N  
BRANCH   3  14
HETATM   14  C   UNL     1     -10.592  15.338  69.274  1.00  0.00    -0.256 A  
HETATM   15  C   UNL     1     -11.622  15.286  71.483  1.00  0.00    -0.456 A  
HETATM   16  C   UNL     1     -11.997  13.446  69.990  1.00  0.00    -0.407 A  
HETATM   17  C   UNL     1     -11.175  14.065  69.050  1.00  0.00    -0.311 A  
HETATM   18  C   UNL     1     -10.787  15.905  70.541  1.00  0.00    -0.283 A  
HETATM   19  C   UNL     1     -12.246  14.074  71.199  1.00  0.00    -0.417 A  
ENDBRANCH   3  14
ENDBRANCH   2   3
TORSDOF 2
ENDMDL
MODEL       70
REMARK 921   NORMALIZED FREE ENERGY PREDICTED BY IDOCK:   -4.51 KCAL/MOL
REMARK 922        TOTAL FREE ENERGY PREDICTED BY IDOCK:   -4.81 KCAL/MOL
REMARK 923 INTER-LIGAND FREE ENERGY PREDICTED BY IDOCK:   -5.08 KCAL/MOL
REMARK 924 INTRA-LIGAND FREE ENERGY PREDICTED BY IDOCK:    0.27 KCAL/MOL
REMARK 927      BINDING AFFINITY PREDICTED BY RF-SCORE:    0.00 PKD
ROOT
HETATM    1  C   UNL     1     -10.888  15.610  69.606  1.00  0.00    -0.287 C  
HETATM    2  C   UNL     1     -11.136  16.191  68.202  1.00  0.00    -0.332 C  
ENDROOT
BRANCH   2   3
HETATM    3  C   UNL     1      -9.824  16.353  67.340  1.00  0.00    -0.244 C  
HETATM    4  C   UNL     1     -10.201  16.787  65.901  1.00  0.00    -0.328 C  
HETATM    5  O   UNL     1      -8.206  17.441  68.857  1.00  0.00    -0.254 OA 
HETATM    6  C   UNL     1      -9.854  19.717  68.872  1.00  0.00    -0.415 C  
HETATM    7  N   UNL     1     -10.174  18.129  65.619  1.00  0.00    -0.076 N  
HETATM    8  O   UNL     1     -10.580  16.025  65.011  1.00  0.00    -0.551 OA 
HETATM    9  C   UNL     1      -9.117  17.535  68.039  1.00  0.00    -0.269 C  
HETATM   10  C   UNL     1     -10.007  19.144  66.511  1.00  0.00    -0.383 C  
HETATM   11  H   UNL     1     -10.290  18.394  64.641  1.00  0.00     0.000 HD 
HETATM   12  O   UNL     1     -10.119  20.308  66.141  1.00  0.00    -0.433 OA 
HETATM   13  N   UNL     1      -9.753  18.750  67.803  1.00  0.00    -0.309 N  
BRANCH   3  14
HETATM   14  C   UNL     1      -9.133  14.962  67.330  1.00  0.00    -0.211 A  
HETATM   15  C   UNL     1      -7.216  13.491  67.647  1.00  0.00    -0.175 A  
HETATM   16  C   UNL     1      -9.420  12.545  67.703  1.00  0.00    -0.188 A  
HETATM   17  C   UNL     1      -9.949  13.808  67.445  1.00  0.00    -0.237 A  
HETATM   18  C   UNL     1      -7.747  14.761  67.376  1.00  0.00    -0.230 A  
HETATM   19  C   UNL     1      -8.050  12.392  67.836  1.00  0.00    -0.161 A  
ENDBRANCH   3  14
ENDBRANCH   2   3
TORSDOF 2
ENDMDL
MODEL       71
REMARK 921   NORMALIZED FREE ENERGY PREDICTED BY IDOCK:   -4.44 KCAL/MOL
REMARK 922        TOTAL FREE ENERGY PREDICTED BY IDOCK:   -4.73 KCAL/MOL
REMARK 923 INTER-LIGAND FREE ENERGY PREDICTED BY IDOCK:   -4.74 KCAL/MOL
REMARK 924 INTRA-LIGAND FREE ENERGY PREDICTED BY IDOCK:    0.01 KCAL/MOL
REMARK 927      BINDING AFFINITY PREDICTED BY RF-SCORE:    0.00 PKD
ROOT
HETATM    1  C   UNL     1     -11.836  12.176  68.887  1.00  0.00    -0.358 C  
HETATM    2  C   UNL     1     -11.553  11.269  67.677  1.00  0.00    -0.290 C  
ENDROOT
BRANCH   2   3
HETATM    3  C   UNL     1     -10.299  11.713  66.829  1.00  0.00    -0.257 C  
HETATM    4  C   UNL     1     -10.155  10.788  65.594  1.00  0.00    -0.267 C  
HETATM    5  O   UNL     1     -10.369  14.183  66.850  1.00  0.00    -0.265 OA 
HETATM    6  C   UNL     1     -12.760  14.060  65.379  1.00  0.00    -0.471 C  
HETATM    7  N   UNL     1     -10.709  11.219  64.415  1.00  0.00    -0.348 N  
HETATM    8  O   UNL     1      -9.635   9.672  65.605  1.00  0.00    -0.233 OA 
HETATM    9  C   UNL     1     -10.714  13.119  66.342  1.00  0.00    -0.284 C  
HETATM   10  C   UNL     1     -11.517  12.302  64.244  1.00  0.00    -0.362 C  
HETATM   11  H   UNL     1     -10.494  10.672  63.581  1.00  0.00     0.000 HD 
HETATM   12  O   UNL     1     -12.040  12.508  63.154  1.00  0.00    -0.462 OA 
HETATM   13  N   UNL     1     -11.705  13.073  65.365  1.00  0.00    -0.345 N  
BRANCH   3  14
HETATM   14  C   UNL     1      -9.066  11.574  67.763  1.00  0.00    -0.165 A  
HETATM   15  C   UNL     1      -7.760  10.428  69.472  1.00  0.00    -0.159 A  
HETATM   16  C   UNL     1      -6.653  11.987  68.023  1.00  0.00    -0.069 A  
HETATM   17  C   UNL     1      -7.873  12.250  67.404  1.00  0.00    -0.171 A  
HETATM   18  C   UNL     1      -8.990  10.700  68.855  1.00  0.00    -0.172 A  
HETATM   19  C   UNL     1      -6.590  11.048  69.040  1.00  0.00    -0.065 A  
ENDBRANCH   3  14
ENDBRANCH   2   3
TORSDOF 2
ENDMDL
MODEL       72
REMARK 921   NORMALIZED FREE ENERGY PREDICTED BY IDOCK:   -4.42 KCAL/MOL
REMARK 922        TOTAL FREE ENERGY PREDICTED BY IDOCK:   -4.71 KCAL/MOL
REMARK 923 INTER-LIGAND FREE ENERGY PREDICTED BY IDOCK:   -4.58 KCAL/MOL
REMARK 924 INTRA-LIGAND FREE ENERGY PREDICTED BY IDOCK:   -0.14 KCAL/MOL
REMARK 927      BINDING AFFINITY PREDICTED BY RF-SCORE:    0.00 PKD
ROOT
HETATM    1  C   UNL     1      -8.584  13.011  67.856  1.00  0.00    -0.189 C  
HETATM    2  C   UNL     1      -8.681  11.880  66.817  1.00  0.00    -0.193 C  
ENDROOT
BRANCH   2   3
HETATM    3  C   UNL     1     -10.046  11.090  66.861  1.00  0.00    -0.248 C  
HETATM    4  C   UNL     1     -10.992  11.750  67.896  1.00  0.00    -0.221 C  
HETATM    5  O   UNL     1     -10.544  10.563  64.499  1.00  0.00    -0.246 OA 
HETATM    6  C   UNL     1     -10.829  13.316  64.016  1.00  0.00    -0.259 C  
HETATM    7  N   UNL     1     -11.900  12.666  67.427  1.00  0.00    -0.364 N  
HETATM    8  O   UNL     1     -10.951  11.560  69.112  1.00  0.00    -0.220 OA 
HETATM    9  C   UNL     1     -10.615  11.341  65.447  1.00  0.00    -0.250 C  
HETATM   10  C   UNL     1     -11.957  13.183  66.169  1.00  0.00    -0.422 C  
HETATM   11  H   UNL     1     -12.605  12.992  68.089  1.00  0.00     0.000 HD 
HETATM   12  O   UNL     1     -12.750  14.083  65.914  1.00  0.00    -0.495 OA 
HETATM   13  N   UNL     1     -11.060  12.649  65.277  1.00  0.00    -0.288 N  
BRANCH   3  14
HETATM   14  C   UNL     1      -9.698   9.638  67.286  1.00  0.00    -0.213 A  
HETATM   15  C   UNL     1     -10.073   7.229  67.287  1.00  0.00    -0.291 A  
HETATM   16  C   UNL     1      -7.892   8.059  67.844  1.00  0.00    -0.126 A  
HETATM   17  C   UNL     1      -8.369   9.360  67.694  1.00  0.00    -0.119 A  
HETATM   18  C   UNL     1     -10.556   8.539  67.146  1.00  0.00    -0.314 A  
HETATM   19  C   UNL     1      -8.740   6.989  67.608  1.00  0.00    -0.121 A  
ENDBRANCH   3  14
ENDBRANCH   2   3
TORSDOF 2
ENDMDL
MODEL       73
REMARK 921   NORMALIZED FREE ENERGY PREDICTED BY IDOCK:   -4.42 KCAL/MOL
REMARK 922        TOTAL FREE ENERGY PREDICTED BY IDOCK:   -4.71 KCAL/MOL
REMARK 923 INTER-LIGAND FREE ENERGY PREDICTED BY IDOCK:   -4.68 KCAL/MOL
REMARK 924 INTRA-LIGAND FREE ENERGY PREDICTED BY IDOCK:   -0.03 KCAL/MOL
REMARK 927      BINDING AFFINITY PREDICTED BY RF-SCORE:    0.00 PKD
ROOT
HETATM    1  C   UNL     1      -7.392   5.899  69.284  1.00  0.00    -0.083 C  
HETATM    2  C   UNL     1      -8.315   6.701  68.349  1.00  0.00    -0.122 C  
ENDROOT
BRANCH   2   3
HETATM    3  C   UNL     1      -9.850   6.407  68.565  1.00  0.00    -0.145 C  
HETATM    4  C   UNL     1     -10.660   6.998  67.383  1.00  0.00    -0.302 C  
HETATM    5  O   UNL     1      -9.932   4.095  69.431  1.00  0.00    -0.158 OA 
HETATM    6  C   UNL     1      -8.932   3.207  66.959  1.00  0.00    -0.162 C  
HETATM    7  N   UNL     1     -10.968   6.154  66.345  1.00  0.00    -0.680 N  
HETATM    8  O   UNL     1     -10.997   8.177  67.277  1.00  0.00    -0.154 OA 
HETATM    9  C   UNL     1      -9.904   4.866  68.475  1.00  0.00    -0.141 C  
HETATM   10  C   UNL     1     -10.500   4.888  66.161  1.00  0.00    -0.302 C  
HETATM   11  H   UNL     1     -11.613   6.511  65.641  1.00  0.00     0.000 HD 
HETATM   12  O   UNL     1     -10.765   4.285  65.126  1.00  0.00    -0.251 OA 
HETATM   13  N   UNL     1      -9.715   4.402  67.177  1.00  0.00    -0.197 N  
BRANCH   3  14
HETATM   14  C   UNL     1     -10.245   7.099  69.898  1.00  0.00    -0.215 A  
HETATM   15  C   UNL     1     -10.150   8.932  71.501  1.00  0.00    -0.394 A  
HETATM   16  C   UNL     1     -12.026   7.438  71.564  1.00  0.00    -0.337 A  
HETATM   17  C   UNL     1     -11.458   6.710  70.520  1.00  0.00    -0.432 A  
HETATM   18  C   UNL     1      -9.574   8.194  70.456  1.00  0.00    -0.177 A  
HETATM   19  C   UNL     1     -11.385   8.572  72.035  1.00  0.00    -0.425 A  
ENDBRANCH   3  14
ENDBRANCH   2   3
TORSDOF 2
ENDMDL
MODEL       74
REMARK 921   NORMALIZED FREE ENERGY PREDICTED BY IDOCK:   -4.42 KCAL/MOL
REMARK 922        TOTAL FREE ENERGY PREDICTED BY IDOCK:   -4.70 KCAL/MOL
REMARK 923 INTER-LIGAND FREE ENERGY PREDICTED BY IDOCK:   -4.58 KCAL/MOL
REMARK 924 INTRA-LIGAND FREE ENERGY PREDICTED BY IDOCK:   -0.13 KCAL/MOL
REMARK 927      BINDING AFFINITY PREDICTED BY RF-SCORE:    0.00 PKD
ROOT
HETATM    1  C   UNL     1      -9.578   6.623  66.693  1.00  0.00    -0.207 C  
HETATM    2  C   UNL     1     -10.715   7.504  67.240  1.00  0.00    -0.365 C  
ENDROOT
BRANCH   2   3
HETATM    3  C   UNL     1     -10.233   8.594  68.274  1.00  0.00    -0.237 C  
HETATM    4  C   UNL     1      -8.686   8.577  68.362  1.00  0.00    -0.143 C  
HETATM    5  O   UNL     1     -11.688  10.546  67.852  1.00  0.00    -0.453 OA 
HETATM    6  C   UNL     1     -10.516  10.784  65.310  1.00  0.00    -0.212 C  
HETATM    7  N   UNL     1      -8.000   9.471  67.580  1.00  0.00    -0.106 N  
HETATM    8  O   UNL     1      -8.027   7.784  69.033  1.00  0.00    -0.118 OA 
HETATM    9  C   UNL     1     -10.671   9.909  67.591  1.00  0.00    -0.281 C  
HETATM   10  C   UNL     1      -8.522  10.270  66.608  1.00  0.00    -0.124 C  
HETATM   11  H   UNL     1      -6.996   9.546  67.743  1.00  0.00     0.000 HD 
HETATM   12  O   UNL     1      -7.777  10.940  65.902  1.00  0.00    -0.144 OA 
HETATM   13  N   UNL     1      -9.889  10.218  66.482  1.00  0.00    -0.203 N  
BRANCH   3  14
HETATM   14  C   UNL     1     -10.864   8.209  69.640  1.00  0.00    -0.162 A  
HETATM   15  C   UNL     1     -11.686   6.595  71.271  1.00  0.00    -0.386 A  
HETATM   16  C   UNL     1     -11.049   8.781  72.028  1.00  0.00    -0.441 A  
HETATM   17  C   UNL     1     -10.753   9.131  70.712  1.00  0.00    -0.327 A  
HETATM   18  C   UNL     1     -11.396   6.950  69.945  1.00  0.00    -0.321 A  
HETATM   19  C   UNL     1     -11.487   7.498  72.313  1.00  0.00    -0.348 A  
ENDBRANCH   3  14
ENDBRANCH   2   3
TORSDOF 2
ENDMDL
MODEL       75
REMARK 921   NORMALIZED FREE ENERGY PREDICTED BY IDOCK:   -4.40 KCAL/MOL
REMARK 922        TOTAL FREE ENERGY PREDICTED BY IDOCK:   -4.69 KCAL/MOL
REMARK 923 INTER-LIGAND FREE ENERGY PREDICTED BY IDOCK:   -4.66 KCAL/MOL
REMARK 924 INTRA-LIGAND FREE ENERGY PREDICTED BY IDOCK:   -0.03 KCAL/MOL
REMARK 927      BINDING AFFINITY PREDICTED BY RF-SCORE:    0.00 PKD
ROOT
HETATM    1  C   UNL     1     -11.163  11.331  69.846  1.00  0.00    -0.264 C  
HETATM    2  C   UNL     1     -11.830  11.767  68.530  1.00  0.00    -0.365 C  
ENDROOT
BRANCH   2   3
HETATM    3  C   UNL     1     -10.805  12.118  67.382  1.00  0.00    -0.286 C  
HETATM    4  C   UNL     1     -11.560  12.769  66.195  1.00  0.00    -0.379 C  
HETATM    5  O   UNL     1      -8.821  13.002  68.561  1.00  0.00    -0.141 OA 
HETATM    6  C   UNL     1     -10.380  15.181  69.409  1.00  0.00    -0.255 C  
HETATM    7  N   UNL     1     -11.598  14.140  66.147  1.00  0.00    -0.358 N  
HETATM    8  O   UNL     1     -12.175  12.150  65.327  1.00  0.00    -0.484 OA 
HETATM    9  C   UNL     1      -9.922  13.195  68.051  1.00  0.00    -0.233 C  
HETATM   10  C   UNL     1     -11.182  14.999  67.118  1.00  0.00    -0.336 C  
HETATM   11  H   UNL     1     -11.976  14.557  65.297  1.00  0.00     0.000 HD 
HETATM   12  O   UNL     1     -11.381  16.203  66.994  1.00  0.00    -0.006 OA 
HETATM   13  N   UNL     1     -10.587  14.408  68.205  1.00  0.00    -0.238 N  
BRANCH   3  14
HETATM   14  C   UNL     1     -10.157  10.775  66.949  1.00  0.00    -0.255 A  
HETATM   15  C   UNL     1     -10.223   8.380  66.502  1.00  0.00    -0.277 A  
HETATM   16  C   UNL     1      -8.492   9.697  65.490  1.00  0.00    -0.151 A  
HETATM   17  C   UNL     1      -8.994  10.823  66.139  1.00  0.00    -0.192 A  
HETATM   18  C   UNL     1     -10.723   9.512  67.163  1.00  0.00    -0.252 A  
HETATM   19  C   UNL     1      -9.128   8.477  65.646  1.00  0.00    -0.189 A  
ENDBRANCH   3  14
ENDBRANCH   2   3
TORSDOF 2
ENDMDL
MODEL       76
REMARK 921   NORMALIZED FREE ENERGY PREDICTED BY IDOCK:   -4.38 KCAL/MOL
REMARK 922        TOTAL FREE ENERGY PREDICTED BY IDOCK:   -4.67 KCAL/MOL
REMARK 923 INTER-LIGAND FREE ENERGY PREDICTED BY IDOCK:   -4.66 KCAL/MOL
REMARK 924 INTRA-LIGAND FREE ENERGY PREDICTED BY IDOCK:   -0.01 KCAL/MOL
REMARK 927      BINDING AFFINITY PREDICTED BY RF-SCORE:    0.00 PKD
ROOT
HETATM    1  C   UNL     1      -9.052   8.334  67.029  1.00  0.00    -0.172 C  
HETATM    2  C   UNL     1     -10.119   9.119  66.246  1.00  0.00    -0.319 C  
ENDROOT
BRANCH   2   3
HETATM    3  C   UNL     1      -9.754  10.638  66.022  1.00  0.00    -0.258 C  
HETATM    4  C   UNL     1      -8.260  10.867  66.365  1.00  0.00    -0.163 C  
HETATM    5  O   UNL     1     -10.926  11.266  63.940  1.00  0.00    -0.386 OA 
HETATM    6  C   UNL     1      -9.270   9.474  62.548  1.00  0.00    -0.126 C  
HETATM    7  N   UNL     1      -7.362  10.825  65.329  1.00  0.00    -0.359 N  
HETATM    8  O   UNL     1      -7.813  11.024  67.502  1.00  0.00    -0.111 OA 
HETATM    9  C   UNL     1      -9.937  10.797  64.497  1.00  0.00    -0.333 C  
HETATM   10  C   UNL     1      -7.616  10.444  64.047  1.00  0.00    -0.013 C  
HETATM   11  H   UNL     1      -6.405  11.110  65.541  1.00  0.00     0.000 HD 
HETATM   12  O   UNL     1      -6.694  10.341  63.246  1.00  0.00    -0.135 OA 
HETATM   13  N   UNL     1      -8.932  10.164  63.772  1.00  0.00    -0.223 N  
BRANCH   3  14
HETATM   14  C   UNL     1     -10.666  11.453  66.979  1.00  0.00    -0.304 A  
HETATM   15  C   UNL     1     -11.780  11.832  69.114  1.00  0.00    -0.388 A  
HETATM   16  C   UNL     1     -11.417  13.700  67.653  1.00  0.00    -0.357 A  
HETATM   17  C   UNL     1     -10.839  12.837  66.724  1.00  0.00    -0.289 A  
HETATM   18  C   UNL     1     -11.208  10.962  68.174  1.00  0.00    -0.363 A  
HETATM   19  C   UNL     1     -11.860  13.200  68.866  1.00  0.00    -0.361 A  
ENDBRANCH   3  14
ENDBRANCH   2   3
TORSDOF 2
ENDMDL
MODEL       77
REMARK 921   NORMALIZED FREE ENERGY PREDICTED BY IDOCK:   -4.38 KCAL/MOL
REMARK 922        TOTAL FREE ENERGY PREDICTED BY IDOCK:   -4.66 KCAL/MOL
REMARK 923 INTER-LIGAND FREE ENERGY PREDICTED BY IDOCK:   -5.35 KCAL/MOL
REMARK 924 INTRA-LIGAND FREE ENERGY PREDICTED BY IDOCK:    0.69 KCAL/MOL
REMARK 927      BINDING AFFINITY PREDICTED BY RF-SCORE:    0.00 PKD
ROOT
HETATM    1  C   UNL     1      -8.960   8.752  71.589  1.00  0.00    -0.301 C  
HETATM    2  C   UNL     1      -9.202   8.948  70.083  1.00  0.00    -0.195 C  
ENDROOT
BRANCH   2   3
HETATM    3  C   UNL     1     -10.727   8.939  69.677  1.00  0.00    -0.222 C  
HETATM    4  C   UNL     1     -10.853   9.021  68.134  1.00  0.00    -0.027 C  
HETATM    5  O   UNL     1     -11.767   7.275  71.178  1.00  0.00    -0.280 OA 
HETATM    6  C   UNL     1     -10.236   5.283  69.920  1.00  0.00    -0.294 C  
HETATM    7  N   UNL     1     -10.989   7.840  67.449  1.00  0.00    -0.531 N  
HETATM    8  O   UNL     1     -10.780  10.057  67.475  1.00  0.00    -0.256 OA 
HETATM    9  C   UNL     1     -11.178   7.533  70.131  1.00  0.00    -0.196 C  
HETATM   10  C   UNL     1     -10.864   6.584  67.960  1.00  0.00    -0.295 C  
HETATM   11  H   UNL     1     -11.206   7.910  66.455  1.00  0.00     0.000 HD 
HETATM   12  O   UNL     1     -10.895   5.614  67.211  1.00  0.00    -0.250 OA 
HETATM   13  N   UNL     1     -10.672   6.523  69.319  1.00  0.00    -0.251 N  
BRANCH   3  14
HETATM   14  C   UNL     1     -11.365  10.187  70.345  1.00  0.00    -0.401 A  
HETATM   15  C   UNL     1     -12.011  12.537  70.377  1.00  0.00    -0.335 A  
HETATM   16  C   UNL     1     -13.134  11.010  71.848  1.00  0.00    -0.525 A  
HETATM   17  C   UNL     1     -12.323   9.982  71.370  1.00  0.00    -0.512 A  
HETATM   18  C   UNL     1     -11.188  11.505  69.903  1.00  0.00    -0.183 A  
HETATM   19  C   UNL     1     -12.999  12.286  71.326  1.00  0.00    -0.299 A  
ENDBRANCH   3  14
ENDBRANCH   2   3
TORSDOF 2
ENDMDL
MODEL       78
REMARK 921   NORMALIZED FREE ENERGY PREDICTED BY IDOCK:   -4.37 KCAL/MOL
REMARK 922        TOTAL FREE ENERGY PREDICTED BY IDOCK:   -4.65 KCAL/MOL
REMARK 923 INTER-LIGAND FREE ENERGY PREDICTED BY IDOCK:   -4.68 KCAL/MOL
REMARK 924 INTRA-LIGAND FREE ENERGY PREDICTED BY IDOCK:    0.02 KCAL/MOL
REMARK 927      BINDING AFFINITY PREDICTED BY RF-SCORE:    0.00 PKD
ROOT
HETATM    1  C   UNL     1     -12.103  11.819  70.340  1.00  0.00    -0.440 C  
HETATM    2  C   UNL     1     -12.004  10.869  69.134  1.00  0.00    -0.359 C  
ENDROOT
BRANCH   2   3
HETATM    3  C   UNL     1     -10.561  10.796  68.498  1.00  0.00    -0.223 C  
HETATM    4  C   UNL     1     -10.590   9.873  67.253  1.00  0.00    -0.252 C  
HETATM    5  O   UNL     1      -9.700  13.108  68.629  1.00  0.00    -0.171 OA 
HETATM    6  C   UNL     1     -11.708  13.887  66.825  1.00  0.00    -0.399 C  
HETATM    7  N   UNL     1     -10.756  10.471  66.029  1.00  0.00    -0.084 N  
HETATM    8  O   UNL     1     -10.536   8.644  67.285  1.00  0.00    -0.291 OA 
HETATM    9  C   UNL     1     -10.338  12.250  68.026  1.00  0.00    -0.214 C  
HETATM   10  C   UNL     1     -11.060  11.777  65.796  1.00  0.00    -0.297 C  
HETATM   11  H   UNL     1     -10.638   9.875  65.210  1.00  0.00     0.000 HD 
HETATM   12  O   UNL     1     -11.295  12.156  64.654  1.00  0.00    -0.311 OA 
HETATM   13  N   UNL     1     -11.112  12.573  66.915  1.00  0.00    -0.265 N  
BRANCH   3  14
HETATM   14  C   UNL     1      -9.630  10.209  69.593  1.00  0.00    -0.237 A  
HETATM   15  C   UNL     1      -9.154   8.727  71.469  1.00  0.00    -0.322 A  
HETATM   16  C   UNL     1      -7.321   9.583  70.179  1.00  0.00    -0.124 A  
HETATM   17  C   UNL     1      -8.228  10.297  69.398  1.00  0.00    -0.171 A  
HETATM   18  C   UNL     1     -10.066   9.453  70.689  1.00  0.00    -0.356 A  
HETATM   19  C   UNL     1      -7.788   8.770  71.198  1.00  0.00    -0.161 A  
ENDBRANCH   3  14
ENDBRANCH   2   3
TORSDOF 2
ENDMDL
MODEL       79
REMARK 921   NORMALIZED FREE ENERGY PREDICTED BY IDOCK:   -4.37 KCAL/MOL
REMARK 922        TOTAL FREE ENERGY PREDICTED BY IDOCK:   -4.65 KCAL/MOL
REMARK 923 INTER-LIGAND FREE ENERGY PREDICTED BY IDOCK:   -4.55 KCAL/MOL
REMARK 924 INTRA-LIGAND FREE ENERGY PREDICTED BY IDOCK:   -0.10 KCAL/MOL
REMARK 927      BINDING AFFINITY PREDICTED BY RF-SCORE:    0.00 PKD
ROOT
HETATM    1  C   UNL     1     -11.143   6.259  69.011  1.00  0.00    -0.446 C  
HETATM    2  C   UNL     1     -11.869   6.733  70.283  1.00  0.00    -0.359 C  
ENDROOT
BRANCH   2   3
HETATM    3  C   UNL     1     -10.935   7.497  71.300  1.00  0.00    -0.262 C  
HETATM    4  C   UNL     1      -9.701   8.057  70.549  1.00  0.00    -0.178 C  
HETATM    5  O   UNL     1     -12.488   8.740  72.766  1.00  0.00    -0.308 OA 
HETATM    6  C   UNL     1     -13.253  10.275  70.540  1.00  0.00    -0.047 C  
HETATM    7  N   UNL     1      -9.762   9.358  70.117  1.00  0.00    -0.218 N  
HETATM    8  O   UNL     1      -8.696   7.407  70.261  1.00  0.00    -0.143 OA 
HETATM    9  C   UNL     1     -11.825   8.683  71.733  1.00  0.00    -0.337 C  
HETATM   10  C   UNL     1     -10.855  10.169  70.131  1.00  0.00    -0.311 C  
HETATM   11  H   UNL     1      -8.900   9.758  69.747  1.00  0.00     0.000 HD 
HETATM   12  O   UNL     1     -10.802  11.275  69.606  1.00  0.00    -0.201 OA 
HETATM   13  N   UNL     1     -11.971   9.634  70.727  1.00  0.00    -0.286 N  
BRANCH   3  14
HETATM   14  C   UNL     1     -10.502   6.453  72.365  1.00  0.00    -0.222 A  
HETATM   15  C   UNL     1      -9.657   5.819  74.561  1.00  0.00    -0.195 A  
HETATM   16  C   UNL     1     -10.900   4.207  73.292  1.00  0.00    -0.315 A  
HETATM   17  C   UNL     1     -11.016   5.136  72.260  1.00  0.00    -0.209 A  
HETATM   18  C   UNL     1      -9.765   6.751  73.519  1.00  0.00    -0.228 A  
HETATM   19  C   UNL     1     -10.246   4.560  74.460  1.00  0.00    -0.286 A  
ENDBRANCH   3  14
ENDBRANCH   2   3
TORSDOF 2
ENDMDL
MODEL       80
REMARK 921   NORMALIZED FREE ENERGY PREDICTED BY IDOCK:   -4.35 KCAL/MOL
REMARK 922        TOTAL FREE ENERGY PREDICTED BY IDOCK:   -4.64 KCAL/MOL
REMARK 923 INTER-LIGAND FREE ENERGY PREDICTED BY IDOCK:   -4.49 KCAL/MOL
REMARK 924 INTRA-LIGAND FREE ENERGY PREDICTED BY IDOCK:   -0.15 KCAL/MOL
REMARK 927      BINDING AFFINITY PREDICTED BY RF-SCORE:    0.00 PKD
ROOT
HETATM    1  C   UNL     1     -10.466   7.526  68.776  1.00  0.00    -0.212 C  
HETATM    2  C   UNL     1     -10.748   7.164  70.244  1.00  0.00    -0.258 C  
ENDROOT
BRANCH   2   3
HETATM    3  C   UNL     1     -10.192   8.220  71.278  1.00  0.00    -0.253 C  
HETATM    4  C   UNL     1      -9.933   9.565  70.554  1.00  0.00    -0.273 C  
HETATM    5  O   UNL     1     -11.523   7.853  73.327  1.00  0.00    -0.290 OA 
HETATM    6  C   UNL     1     -13.798   8.716  71.922  1.00  0.00    -0.432 C  
HETATM    7  N   UNL     1     -10.926  10.510  70.604  1.00  0.00    -0.398 N  
HETATM    8  O   UNL     1      -8.930   9.827  69.890  1.00  0.00    -0.206 OA 
HETATM    9  C   UNL     1     -11.390   8.402  72.236  1.00  0.00    -0.378 C  
HETATM   10  C   UNL     1     -12.188  10.339  71.085  1.00  0.00    -0.397 C  
HETATM   11  H   UNL     1     -10.695  11.437  70.244  1.00  0.00     0.000 HD 
HETATM   12  O   UNL     1     -13.016  11.235  70.963  1.00  0.00    -0.318 OA 
HETATM   13  N   UNL     1     -12.435   9.113  71.652  1.00  0.00    -0.337 N  
BRANCH   3  14
HETATM   14  C   UNL     1      -8.867   7.632  71.833  1.00  0.00    -0.143 A  
HETATM   15  C   UNL     1      -7.022   7.567  73.424  1.00  0.00    -0.081 A  
HETATM   16  C   UNL     1      -7.522   5.594  72.155  1.00  0.00    -0.099 A  
HETATM   17  C   UNL     1      -8.541   6.290  71.508  1.00  0.00    -0.131 A  
HETATM   18  C   UNL     1      -8.040   8.272  72.765  1.00  0.00    -0.206 A  
HETATM   19  C   UNL     1      -6.781   6.225  73.140  1.00  0.00    -0.074 A  
ENDBRANCH   3  14
ENDBRANCH   2   3
TORSDOF 2
ENDMDL
MODEL       81
REMARK 921   NORMALIZED FREE ENERGY PREDICTED BY IDOCK:   -4.35 KCAL/MOL
REMARK 922        TOTAL FREE ENERGY PREDICTED BY IDOCK:   -4.63 KCAL/MOL
REMARK 923 INTER-LIGAND FREE ENERGY PREDICTED BY IDOCK:   -4.63 KCAL/MOL
REMARK 924 INTRA-LIGAND FREE ENERGY PREDICTED BY IDOCK:   -0.00 KCAL/MOL
REMARK 927      BINDING AFFINITY PREDICTED BY RF-SCORE:    0.00 PKD
ROOT
HETATM    1  C   UNL     1      -9.739   6.974  69.531  1.00  0.00    -0.160 C  
HETATM    2  C   UNL     1     -10.649   8.015  68.855  1.00  0.00    -0.160 C  
ENDROOT
BRANCH   2   3
HETATM    3  C   UNL     1     -10.315   9.505  69.251  1.00  0.00    -0.219 C  
HETATM    4  C   UNL     1     -11.543  10.405  68.962  1.00  0.00    -0.150 C  
HETATM    5  O   UNL     1      -9.054   9.325  71.368  1.00  0.00    -0.299 OA 
HETATM    6  C   UNL     1     -11.374   8.312  72.585  1.00  0.00    -0.350 C  
HETATM    7  N   UNL     1     -12.400  10.655  70.004  1.00  0.00    -0.450 N  
HETATM    8  O   UNL     1     -11.837  10.863  67.858  1.00  0.00    -0.590 OA 
HETATM    9  C   UNL     1     -10.130   9.404  70.781  1.00  0.00    -0.298 C  
HETATM   10  C   UNL     1     -12.382  10.066  71.231  1.00  0.00    -0.398 C  
HETATM   11  H   UNL     1     -13.126  11.354  69.841  1.00  0.00     0.000 HD 
HETATM   12  O   UNL     1     -13.281  10.297  72.033  1.00  0.00    -0.450 OA 
HETATM   13  N   UNL     1     -11.334   9.206  71.451  1.00  0.00    -0.315 N  
BRANCH   3  14
HETATM   14  C   UNL     1      -9.106   9.930  68.373  1.00  0.00    -0.123 A  
HETATM   15  C   UNL     1      -7.795   9.881  66.319  1.00  0.00    -0.108 A  
HETATM   16  C   UNL     1      -7.538  11.743  67.810  1.00  0.00    -0.127 A  
HETATM   17  C   UNL     1      -8.452  11.150  68.679  1.00  0.00    -0.153 A  
HETATM   18  C   UNL     1      -8.708   9.280  67.198  1.00  0.00    -0.134 A  
HETATM   19  C   UNL     1      -7.233  11.122  66.610  1.00  0.00    -0.144 A  
ENDBRANCH   3  14
ENDBRANCH   2   3
TORSDOF 2
ENDMDL
MODEL       82
REMARK 921   NORMALIZED FREE ENERGY PREDICTED BY IDOCK:   -4.30 KCAL/MOL
REMARK 922        TOTAL FREE ENERGY PREDICTED BY IDOCK:   -4.58 KCAL/MOL
REMARK 923 INTER-LIGAND FREE ENERGY PREDICTED BY IDOCK:   -5.19 KCAL/MOL
REMARK 924 INTRA-LIGAND FREE ENERGY PREDICTED BY IDOCK:    0.62 KCAL/MOL
REMARK 927      BINDING AFFINITY PREDICTED BY RF-SCORE:    0.00 PKD
ROOT
HETATM    1  C   UNL     1     -10.330   9.040  66.621  1.00  0.00    -0.289 C  
HETATM    2  C   UNL     1     -10.603  10.554  66.585  1.00  0.00    -0.263 C  
ENDROOT
BRANCH   2   3
HETATM    3  C   UNL     1      -9.754  11.328  65.502  1.00  0.00    -0.268 C  
HETATM    4  C   UNL     1     -10.112  10.798  64.090  1.00  0.00    -0.353 C  
HETATM    5  O   UNL     1      -9.753  13.678  66.265  1.00  0.00    -0.289 OA 
HETATM    6  C   UNL     1     -12.525  13.754  65.815  1.00  0.00    -0.485 C  
HETATM    7  N   UNL     1     -11.061  11.488  63.380  1.00  0.00    -0.724 N  
HETATM    8  O   UNL     1      -9.652   9.775  63.583  1.00  0.00    -0.142 OA 
HETATM    9  C   UNL     1     -10.290  12.770  65.635  1.00  0.00    -0.279 C  
HETATM   10  C   UNL     1     -11.847  12.499  63.842  1.00  0.00    -0.463 C  
HETATM   11  H   UNL     1     -11.192  11.216  62.405  1.00  0.00     0.000 HD 
HETATM   12  O   UNL     1     -12.740  12.952  63.134  1.00  0.00    -0.606 OA 
HETATM   13  N   UNL     1     -11.578  12.908  65.125  1.00  0.00    -0.318 N  
BRANCH   3  14
HETATM   14  C   UNL     1      -8.263  11.045  65.832  1.00  0.00    -0.100 A  
HETATM   15  C   UNL     1      -5.996  10.386  65.226  1.00  0.00    -0.135 A  
HETATM   16  C   UNL     1      -6.330  11.681  67.218  1.00  0.00    -0.118 A  
HETATM   17  C   UNL     1      -7.703  11.659  66.980  1.00  0.00    -0.159 A  
HETATM   18  C   UNL     1      -7.379  10.356  64.992  1.00  0.00    -0.070 A  
HETATM   19  C   UNL     1      -5.471  11.069  66.320  1.00  0.00    -0.133 A  
ENDBRANCH   3  14
ENDBRANCH   2   3
TORSDOF 2
ENDMDL
MODEL       83
REMARK 921   NORMALIZED FREE ENERGY PREDICTED BY IDOCK:   -4.29 KCAL/MOL
REMARK 922        TOTAL FREE ENERGY PREDICTED BY IDOCK:   -4.56 KCAL/MOL
REMARK 923 INTER-LIGAND FREE ENERGY PREDICTED BY IDOCK:   -4.66 KCAL/MOL
REMARK 924 INTRA-LIGAND FREE ENERGY PREDICTED BY IDOCK:    0.10 KCAL/MOL
REMARK 927      BINDING AFFINITY PREDICTED BY RF-SCORE:    0.00 PKD
ROOT
HETATM    1  C   UNL     1      -9.633   9.172  66.914  1.00  0.00    -0.233 C  
HETATM    2  C   UNL     1     -10.769   9.369  67.933  1.00  0.00    -0.269 C  
ENDROOT
BRANCH   2   3
HETATM    3  C   UNL     1     -10.504  10.535  68.963  1.00  0.00    -0.238 C  
HETATM    4  C   UNL     1     -11.585  10.500  70.073  1.00  0.00    -0.313 C  
HETATM    5  O   UNL     1      -8.051  10.564  69.261  1.00  0.00    -0.146 OA 
HETATM    6  C   UNL     1      -8.231   8.018  70.435  1.00  0.00    -0.118 C  
HETATM    7  N   UNL     1     -11.278   9.832  71.232  1.00  0.00    -0.370 N  
HETATM    8  O   UNL     1     -12.716  10.974  69.971  1.00  0.00    -0.230 OA 
HETATM    9  C   UNL     1      -9.151  10.122  69.583  1.00  0.00    -0.174 C  
HETATM   10  C   UNL     1     -10.183   9.054  71.456  1.00  0.00    -0.344 C  
HETATM   11  H   UNL     1     -11.937   9.929  72.004  1.00  0.00     0.000 HD 
HETATM   12  O   UNL     1     -10.090   8.419  72.501  1.00  0.00    -0.295 OA 
HETATM   13  N   UNL     1      -9.268   9.025  70.433  1.00  0.00    -0.191 N  
BRANCH   3  14
HETATM   14  C   UNL     1     -10.590  11.859  68.156  1.00  0.00    -0.233 A  
HETATM   15  C   UNL     1      -9.680  13.975  67.358  1.00  0.00    -0.233 A  
HETATM   16  C   UNL     1     -11.483  12.961  66.143  1.00  0.00    -0.393 A  
HETATM   17  C   UNL     1     -11.510  11.929  67.080  1.00  0.00    -0.384 A  
HETATM   18  C   UNL     1      -9.713  12.941  68.307  1.00  0.00    -0.217 A  
HETATM   19  C   UNL     1     -10.543  13.971  66.265  1.00  0.00    -0.281 A  
ENDBRANCH   3  14
ENDBRANCH   2   3
TORSDOF 2
ENDMDL
MODEL       84
REMARK 921   NORMALIZED FREE ENERGY PREDICTED BY IDOCK:   -4.28 KCAL/MOL
REMARK 922        TOTAL FREE ENERGY PREDICTED BY IDOCK:   -4.55 KCAL/MOL
REMARK 923 INTER-LIGAND FREE ENERGY PREDICTED BY IDOCK:   -4.56 KCAL/MOL
REMARK 924 INTRA-LIGAND FREE ENERGY PREDICTED BY IDOCK:    0.01 KCAL/MOL
REMARK 927      BINDING AFFINITY PREDICTED BY RF-SCORE:    0.00 PKD
ROOT
HETATM    1  C   UNL     1      -7.038  14.775  69.015  1.00  0.00    -0.127 C  
HETATM    2  C   UNL     1      -8.309  15.638  69.101  1.00  0.00    -0.251 C  
ENDROOT
BRANCH   2   3
HETATM    3  C   UNL     1      -8.672  16.372  67.752  1.00  0.00    -0.182 C  
HETATM    4  C   UNL     1      -9.596  17.579  68.053  1.00  0.00    -0.282 C  
HETATM    5  O   UNL     1      -6.569  16.381  66.456  1.00  0.00    -0.245 OA 
HETATM    6  C   UNL     1      -5.452  18.063  68.409  1.00  0.00    -0.161 C  
HETATM    7  N   UNL     1      -9.002  18.808  68.193  1.00  0.00    -0.299 N  
HETATM    8  O   UNL     1     -10.812  17.510  68.233  1.00  0.00    -0.338 OA 
HETATM    9  C   UNL     1      -7.299  16.908  67.292  1.00  0.00    -0.169 C  
HETATM   10  C   UNL     1      -7.666  19.063  68.258  1.00  0.00    -0.311 C  
HETATM   11  H   UNL     1      -9.626  19.613  68.255  1.00  0.00     0.000 HD 
HETATM   12  O   UNL     1      -7.272  20.198  68.503  1.00  0.00    -0.283 OA 
HETATM   13  N   UNL     1      -6.854  17.971  68.072  1.00  0.00    -0.202 N  
BRANCH   3  14
HETATM   14  C   UNL     1      -9.407  15.326  66.870  1.00  0.00    -0.255 A  
HETATM   15  C   UNL     1     -10.820  13.365  66.553  1.00  0.00    -0.286 A  
HETATM   16  C   UNL     1     -10.590  14.928  64.747  1.00  0.00    -0.336 A  
HETATM   17  C   UNL     1      -9.717  15.679  65.532  1.00  0.00    -0.286 A  
HETATM   18  C   UNL     1      -9.933  14.116  67.340  1.00  0.00    -0.240 A  
HETATM   19  C   UNL     1     -11.168  13.784  65.271  1.00  0.00    -0.311 A  
ENDBRANCH   3  14
ENDBRANCH   2   3
TORSDOF 2
ENDMDL
MODEL       85
REMARK 921   NORMALIZED FREE ENERGY PREDICTED BY IDOCK:   -4.24 KCAL/MOL
REMARK 922        TOTAL FREE ENERGY PREDICTED BY IDOCK:   -4.51 KCAL/MOL
REMARK 923 INTER-LIGAND FREE ENERGY PREDICTED BY IDOCK:   -4.66 KCAL/MOL
REMARK 924 INTRA-LIGAND FREE ENERGY PREDICTED BY IDOCK:    0.15 KCAL/MOL
REMARK 927      BINDING AFFINITY PREDICTED BY RF-SCORE:    0.00 PKD
ROOT
HETATM    1  C   UNL     1     -10.998   6.245  68.676  1.00  0.00    -0.423 C  
HETATM    2  C   UNL     1     -11.659   6.644  70.007  1.00  0.00    -0.423 C  
ENDROOT
BRANCH   2   3
HETATM    3  C   UNL     1     -10.691   7.403  70.995  1.00  0.00    -0.244 C  
HETATM    4  C   UNL     1     -11.451   7.746  72.302  1.00  0.00    -0.332 C  
HETATM    5  O   UNL     1      -8.529   6.225  70.785  1.00  0.00    -0.131 OA 
HETATM    6  C   UNL     1      -9.740   3.946  71.894  1.00  0.00    -0.169 C  
HETATM    7  N   UNL     1     -11.325   6.872  73.352  1.00  0.00    -0.470 N  
HETATM    8  O   UNL     1     -12.203   8.710  72.448  1.00  0.00    -0.374 OA 
HETATM    9  C   UNL     1      -9.634   6.322  71.312  1.00  0.00    -0.174 C  
HETATM   10  C   UNL     1     -10.734   5.646  73.324  1.00  0.00    -0.269 C  
HETATM   11  H   UNL     1     -11.715   7.173  74.246  1.00  0.00     0.000 HD 
HETATM   12  O   UNL     1     -10.794   4.917  74.308  1.00  0.00    -0.320 OA 
HETATM   13  N   UNL     1     -10.133   5.316  72.135  1.00  0.00    -0.184 N  
BRANCH   3  14
HETATM   14  C   UNL     1     -10.247   8.699  70.264  1.00  0.00    -0.213 A  
HETATM   15  C   UNL     1      -8.560  10.243  69.420  1.00  0.00    -0.167 A  
HETATM   16  C   UNL     1     -10.756  10.290  68.454  1.00  0.00    -0.263 A  
HETATM   17  C   UNL     1     -11.148   9.290  69.343  1.00  0.00    -0.063 A  
HETATM   18  C   UNL     1      -8.958   9.244  70.321  1.00  0.00    -0.261 A  
HETATM   19  C   UNL     1      -9.448  10.745  68.472  1.00  0.00    -0.181 A  
ENDBRANCH   3  14
ENDBRANCH   2   3
TORSDOF 2
ENDMDL
MODEL       86
REMARK 921   NORMALIZED FREE ENERGY PREDICTED BY IDOCK:   -4.24 KCAL/MOL
REMARK 922        TOTAL FREE ENERGY PREDICTED BY IDOCK:   -4.50 KCAL/MOL
REMARK 923 INTER-LIGAND FREE ENERGY PREDICTED BY IDOCK:   -4.46 KCAL/MOL
REMARK 924 INTRA-LIGAND FREE ENERGY PREDICTED BY IDOCK:   -0.05 KCAL/MOL
REMARK 927      BINDING AFFINITY PREDICTED BY RF-SCORE:    0.00 PKD
ROOT
HETATM    1  C   UNL     1     -10.482   6.957  68.413  1.00  0.00    -0.235 C  
HETATM    2  C   UNL     1     -11.274   7.300  69.687  1.00  0.00    -0.109 C  
ENDROOT
BRANCH   2   3
HETATM    3  C   UNL     1     -10.402   7.977  70.815  1.00  0.00    -0.214 C  
HETATM    4  C   UNL     1      -8.912   7.974  70.389  1.00  0.00    -0.146 C  
HETATM    5  O   UNL     1     -11.741   9.913  71.566  1.00  0.00    -0.380 OA 
HETATM    6  C   UNL     1     -11.401  11.050  69.019  1.00  0.00    -0.277 C  
HETATM    7  N   UNL     1      -8.428   9.103  69.778  1.00  0.00    -0.128 N  
HETATM    8  O   UNL     1      -8.148   7.016  70.504  1.00  0.00    -0.111 OA 
HETATM    9  C   UNL     1     -10.915   9.434  70.794  1.00  0.00    -0.304 C  
HETATM   10  C   UNL     1      -9.155  10.173  69.354  1.00  0.00    -0.203 C  
HETATM   11  H   UNL     1      -7.420   9.144  69.625  1.00  0.00     0.000 HD 
HETATM   12  O   UNL     1      -8.611  11.067  68.716  1.00  0.00    -0.152 OA 
HETATM   13  N   UNL     1     -10.492  10.130  69.665  1.00  0.00    -0.236 N  
BRANCH   3  14
HETATM   14  C   UNL     1     -10.607   7.125  72.097  1.00  0.00    -0.238 A  
HETATM   15  C   UNL     1     -11.188   5.064  73.261  1.00  0.00    -0.411 A  
HETATM   16  C   UNL     1      -9.837   6.690  74.395  1.00  0.00    -0.349 A  
HETATM   17  C   UNL     1      -9.928   7.518  73.278  1.00  0.00    -0.368 A  
HETATM   18  C   UNL     1     -11.287   5.901  72.139  1.00  0.00    -0.344 A  
HETATM   19  C   UNL     1     -10.443   5.445  74.374  1.00  0.00    -0.255 A  
ENDBRANCH   3  14
ENDBRANCH   2   3
TORSDOF 2
ENDMDL
MODEL       87
REMARK 921   NORMALIZED FREE ENERGY PREDICTED BY IDOCK:   -4.22 KCAL/MOL
REMARK 922        TOTAL FREE ENERGY PREDICTED BY IDOCK:   -4.48 KCAL/MOL
REMARK 923 INTER-LIGAND FREE ENERGY PREDICTED BY IDOCK:   -4.55 KCAL/MOL
REMARK 924 INTRA-LIGAND FREE ENERGY PREDICTED BY IDOCK:    0.06 KCAL/MOL
REMARK 927      BINDING AFFINITY PREDICTED BY RF-SCORE:    0.00 PKD
ROOT
HETATM    1  C   UNL     1     -10.259  10.516  65.152  1.00  0.00    -0.358 C  
HETATM    2  C   UNL     1      -9.375  11.585  65.816  1.00  0.00    -0.238 C  
ENDROOT
BRANCH   2   3
HETATM    3  C   UNL     1      -9.783  11.912  67.305  1.00  0.00    -0.191 C  
HETATM    4  C   UNL     1     -11.166  11.285  67.612  1.00  0.00    -0.292 C  
HETATM    5  O   UNL     1      -7.697  11.647  68.602  1.00  0.00    -0.130 OA 
HETATM    6  C   UNL     1      -7.739   8.907  67.980  1.00  0.00    -0.101 C  
HETATM    7  N   UNL     1     -11.180  10.052  68.213  1.00  0.00    -0.502 N  
HETATM    8  O   UNL     1     -12.250  11.782  67.305  1.00  0.00    -0.471 OA 
HETATM    9  C   UNL     1      -8.709  11.151  68.114  1.00  0.00    -0.144 C  
HETATM   10  C   UNL     1     -10.109   9.239  68.427  1.00  0.00    -0.191 C  
HETATM   11  H   UNL     1     -12.086   9.709  68.533  1.00  0.00     0.000 HD 
HETATM   12  O   UNL     1     -10.278   8.109  68.871  1.00  0.00    -0.202 OA 
HETATM   13  N   UNL     1      -8.893   9.772  68.076  1.00  0.00    -0.119 N  
BRANCH   3  14
HETATM   14  C   UNL     1      -9.848  13.460  67.410  1.00  0.00    -0.227 A  
HETATM   15  C   UNL     1      -9.983  15.695  66.447  1.00  0.00    -0.298 A  
HETATM   16  C   UNL     1     -10.655  15.378  68.727  1.00  0.00    -0.235 A  
HETATM   17  C   UNL     1     -10.316  14.031  68.621  1.00  0.00    -0.238 A  
HETATM   18  C   UNL     1      -9.632  14.341  66.342  1.00  0.00    -0.317 A  
HETATM   19  C   UNL     1     -10.518  16.207  67.626  1.00  0.00    -0.292 A  
ENDBRANCH   3  14
ENDBRANCH   2   3
TORSDOF 2
ENDMDL
MODEL       88
REMARK 921   NORMALIZED FREE ENERGY PREDICTED BY IDOCK:   -4.18 KCAL/MOL
REMARK 922        TOTAL FREE ENERGY PREDICTED BY IDOCK:   -4.45 KCAL/MOL
REMARK 923 INTER-LIGAND FREE ENERGY PREDICTED BY IDOCK:   -4.33 KCAL/MOL
REMARK 924 INTRA-LIGAND FREE ENERGY PREDICTED BY IDOCK:   -0.11 KCAL/MOL
REMARK 927      BINDING AFFINITY PREDICTED BY RF-SCORE:    0.00 PKD
ROOT
HETATM    1  C   UNL     1     -11.783   9.526  71.120  1.00  0.00    -0.438 C  
HETATM    2  C   UNL     1     -10.343   9.129  71.489  1.00  0.00    -0.414 C  
ENDROOT
BRANCH   2   3
HETATM    3  C   UNL     1      -9.904   7.724  70.920  1.00  0.00    -0.182 C  
HETATM    4  C   UNL     1     -11.080   7.097  70.128  1.00  0.00    -0.272 C  
HETATM    5  O   UNL     1      -7.583   8.058  70.142  1.00  0.00    -0.078 OA 
HETATM    6  C   UNL     1      -8.563   9.827  68.192  1.00  0.00    -0.118 C  
HETATM    7  N   UNL     1     -11.098   7.288  68.770  1.00  0.00    -0.447 N  
HETATM    8  O   UNL     1     -12.027   6.493  70.632  1.00  0.00    -0.386 OA 
HETATM    9  C   UNL     1      -8.790   8.109  69.921  1.00  0.00    -0.139 C  
HETATM   10  C   UNL     1     -10.281   8.108  68.053  1.00  0.00    -0.212 C  
HETATM   11  H   UNL     1     -11.795   6.762  68.243  1.00  0.00     0.000 HD 
HETATM   12  O   UNL     1     -10.481   8.275  66.855  1.00  0.00    -0.319 OA 
HETATM   13  N   UNL     1      -9.291   8.725  68.778  1.00  0.00    -0.141 N  
BRANCH   3  14
HETATM   14  C   UNL     1      -9.543   6.848  72.150  1.00  0.00    -0.154 A  
HETATM   15  C   UNL     1      -9.696   6.254  74.509  1.00  0.00    -0.309 A  
HETATM   16  C   UNL     1      -8.983   4.584  72.941  1.00  0.00    -0.125 A  
HETATM   17  C   UNL     1      -9.084   5.526  71.919  1.00  0.00    -0.149 A  
HETATM   18  C   UNL     1      -9.788   7.205  73.482  1.00  0.00    -0.322 A  
HETATM   19  C   UNL     1      -9.321   4.940  74.236  1.00  0.00    -0.127 A  
ENDBRANCH   3  14
ENDBRANCH   2   3
TORSDOF 2
ENDMDL
MODEL       89
REMARK 921   NORMALIZED FREE ENERGY PREDICTED BY IDOCK:   -4.14 KCAL/MOL
REMARK 922        TOTAL FREE ENERGY PREDICTED BY IDOCK:   -4.40 KCAL/MOL
REMARK 923 INTER-LIGAND FREE ENERGY PREDICTED BY IDOCK:   -4.42 KCAL/MOL
REMARK 924 INTRA-LIGAND FREE ENERGY PREDICTED BY IDOCK:    0.02 KCAL/MOL
REMARK 927      BINDING AFFINITY PREDICTED BY RF-SCORE:    0.00 PKD
ROOT
HETATM    1  C   UNL     1      -7.827  13.648  67.085  1.00  0.00    -0.028 C  
HETATM    2  C   UNL     1      -8.115  14.623  68.241  1.00  0.00    -0.143 C  
ENDROOT
BRANCH   2   3
HETATM    3  C   UNL     1      -9.076  15.811  67.846  1.00  0.00    -0.186 C  
HETATM    4  C   UNL     1      -9.344  15.774  66.320  1.00  0.00    -0.325 C  
HETATM    5  O   UNL     1     -10.752  15.892  69.660  1.00  0.00    -0.252 OA 
HETATM    6  C   UNL     1     -11.662  13.363  68.841  1.00  0.00    -0.328 C  
HETATM    7  N   UNL     1     -10.480  15.132  65.894  1.00  0.00    -0.316 N  
HETATM    8  O   UNL     1      -8.588  16.224  65.460  1.00  0.00    -0.101 OA 
HETATM    9  C   UNL     1     -10.381  15.434  68.582  1.00  0.00    -0.234 C  
HETATM   10  C   UNL     1     -11.321  14.378  66.655  1.00  0.00    -0.353 C  
HETATM   11  H   UNL     1     -10.718  15.229  64.907  1.00  0.00     0.000 HD 
HETATM   12  O   UNL     1     -12.239  13.763  66.123  1.00  0.00    -0.422 OA 
HETATM   13  N   UNL     1     -11.029  14.350  67.996  1.00  0.00    -0.252 N  
BRANCH   3  14
HETATM   14  C   UNL     1      -8.339  17.119  68.241  1.00  0.00    -0.232 A  
HETATM   15  C   UNL     1      -8.268  19.373  69.166  1.00  0.00    -0.174 A  
HETATM   16  C   UNL     1      -6.237  18.101  69.066  1.00  0.00    -0.237 A  
HETATM   17  C   UNL     1      -6.941  17.059  68.465  1.00  0.00    -0.197 A  
HETATM   18  C   UNL     1      -8.975  18.329  68.552  1.00  0.00    -0.329 A  
HETATM   19  C   UNL     1      -6.910  19.249  69.448  1.00  0.00    -0.316 A  
ENDBRANCH   3  14
ENDBRANCH   2   3
TORSDOF 2
ENDMDL
MODEL       90
REMARK 921   NORMALIZED FREE ENERGY PREDICTED BY IDOCK:   -4.14 KCAL/MOL
REMARK 922        TOTAL FREE ENERGY PREDICTED BY IDOCK:   -4.40 KCAL/MOL
REMARK 923 INTER-LIGAND FREE ENERGY PREDICTED BY IDOCK:   -4.36 KCAL/MOL
REMARK 924 INTRA-LIGAND FREE ENERGY PREDICTED BY IDOCK:   -0.03 KCAL/MOL
REMARK 927      BINDING AFFINITY PREDICTED BY RF-SCORE:    0.00 PKD
ROOT
HETATM    1  C   UNL     1      -7.888   8.885  70.070  1.00  0.00    -0.095 C  
HETATM    2  C   UNL     1      -8.741   8.732  71.342  1.00  0.00    -0.278 C  
ENDROOT
BRANCH   2   3
HETATM    3  C   UNL     1      -9.967   7.753  71.173  1.00  0.00    -0.194 C  
HETATM    4  C   UNL     1     -10.893   7.865  72.410  1.00  0.00    -0.317 C  
HETATM    5  O   UNL     1     -10.610   7.958  68.796  1.00  0.00    -0.200 OA 
HETATM    6  C   UNL     1     -11.337  10.626  69.293  1.00  0.00    -0.282 C  
HETATM    7  N   UNL     1     -11.965   8.716  72.320  1.00  0.00    -0.375 N  
HETATM    8  O   UNL     1     -10.706   7.294  73.485  1.00  0.00    -0.382 OA 
HETATM    9  C   UNL     1     -10.701   8.356  69.955  1.00  0.00    -0.227 C  
HETATM   10  C   UNL     1     -12.219   9.601  71.318  1.00  0.00    -0.363 C  
HETATM   11  H   UNL     1     -12.642   8.681  73.083  1.00  0.00     0.000 HD 
HETATM   12  O   UNL     1     -13.155  10.387  71.419  1.00  0.00    -0.382 OA 
HETATM   13  N   UNL     1     -11.345   9.552  70.260  1.00  0.00    -0.249 N  
BRANCH   3  14
HETATM   14  C   UNL     1      -9.372   6.323  71.061  1.00  0.00    -0.170 A  
HETATM   15  C   UNL     1      -7.759   4.593  71.651  1.00  0.00    -0.095 A  
HETATM   16  C   UNL     1      -9.865   3.936  70.708  1.00  0.00    -0.211 A  
HETATM   17  C   UNL     1     -10.215   5.281  70.600  1.00  0.00    -0.327 A  
HETATM   18  C   UNL     1      -8.108   5.947  71.534  1.00  0.00    -0.115 A  
HETATM   19  C   UNL     1      -8.645   3.590  71.265  1.00  0.00    -0.104 A  
ENDBRANCH   3  14
ENDBRANCH   2   3
TORSDOF 2
ENDMDL
MODEL       91
REMARK 921   NORMALIZED FREE ENERGY PREDICTED BY IDOCK:   -4.10 KCAL/MOL
REMARK 922        TOTAL FREE ENERGY PREDICTED BY IDOCK:   -4.36 KCAL/MOL
REMARK 923 INTER-LIGAND FREE ENERGY PREDICTED BY IDOCK:   -4.35 KCAL/MOL
REMARK 924 INTRA-LIGAND FREE ENERGY PREDICTED BY IDOCK:   -0.00 KCAL/MOL
REMARK 927      BINDING AFFINITY PREDICTED BY RF-SCORE:    0.00 PKD
ROOT
HETATM    1  C   UNL     1      -8.298   9.647  70.196  1.00  0.00    -0.221 C  
HETATM    2  C   UNL     1      -8.469   9.543  68.670  1.00  0.00    -0.119 C  
ENDROOT
BRANCH   2   3
HETATM    3  C   UNL     1      -9.956   9.751  68.181  1.00  0.00    -0.179 C  
HETATM    4  C   UNL     1     -10.079   9.309  66.701  1.00  0.00    -0.271 C  
HETATM    5  O   UNL     1     -11.351   9.020  70.085  1.00  0.00    -0.222 OA 
HETATM    6  C   UNL     1     -10.377   6.411  69.710  1.00  0.00    -0.200 C  
HETATM    7  N   UNL     1     -10.513   8.030  66.459  1.00  0.00    -0.430 N  
HETATM    8  O   UNL     1      -9.763   9.997  65.731  1.00  0.00    -0.218 OA 
HETATM    9  C   UNL     1     -10.732   8.745  69.060  1.00  0.00    -0.112 C  
HETATM   10  C   UNL     1     -10.694   7.044  67.381  1.00  0.00    -0.313 C  
HETATM   11  H   UNL     1     -10.721   7.793  65.488  1.00  0.00     0.000 HD 
HETATM   12  O   UNL     1     -10.975   5.909  67.014  1.00  0.00    -0.297 OA 
HETATM   13  N   UNL     1     -10.503   7.424  68.687  1.00  0.00    -0.198 N  
BRANCH   3  14
HETATM   14  C   UNL     1     -10.256  11.267  68.327  1.00  0.00    -0.198 A  
HETATM   15  C   UNL     1      -9.689  13.624  68.073  1.00  0.00    -0.226 A  
HETATM   16  C   UNL     1     -11.997  13.009  68.297  1.00  0.00    -0.306 A  
HETATM   17  C   UNL     1     -11.610  11.676  68.423  1.00  0.00    -0.376 A  
HETATM   18  C   UNL     1      -9.299  12.284  68.210  1.00  0.00    -0.199 A  
HETATM   19  C   UNL     1     -11.035  13.983  68.089  1.00  0.00    -0.268 A  
ENDBRANCH   3  14
ENDBRANCH   2   3
TORSDOF 2
ENDMDL
MODEL       92
REMARK 921   NORMALIZED FREE ENERGY PREDICTED BY IDOCK:   -4.07 KCAL/MOL
REMARK 922        TOTAL FREE ENERGY PREDICTED BY IDOCK:   -4.32 KCAL/MOL
REMARK 923 INTER-LIGAND FREE ENERGY PREDICTED BY IDOCK:   -4.42 KCAL/MOL
REMARK 924 INTRA-LIGAND FREE ENERGY PREDICTED BY IDOCK:    0.10 KCAL/MOL
REMARK 927      BINDING AFFINITY PREDICTED BY RF-SCORE:    0.00 PKD
ROOT
HETATM    1  C   UNL     1     -11.842  11.827  69.115  1.00  0.00    -0.389 C  
HETATM    2  C   UNL     1     -11.223  11.250  67.830  1.00  0.00    -0.354 C  
ENDROOT
BRANCH   2   3
HETATM    3  C   UNL     1      -9.802  11.843  67.487  1.00  0.00    -0.194 C  
HETATM    4  C   UNL     1      -9.494  11.614  65.985  1.00  0.00    -0.229 C  
HETATM    5  O   UNL     1      -9.693  13.975  68.730  1.00  0.00    -0.205 OA 
HETATM    6  C   UNL     1     -11.763  14.952  67.101  1.00  0.00    -0.277 C  
HETATM    7  N   UNL     1      -9.781  12.639  65.119  1.00  0.00    -0.478 N  
HETATM    8  O   UNL     1      -9.069  10.564  65.504  1.00  0.00    -0.170 OA 
HETATM    9  C   UNL     1     -10.013  13.355  67.719  1.00  0.00    -0.233 C  
HETATM   10  C   UNL     1     -10.459  13.783  65.410  1.00  0.00    -0.331 C  
HETATM   11  H   UNL     1      -9.452  12.533  64.159  1.00  0.00     0.000 HD 
HETATM   12  O   UNL     1     -10.749  14.567  64.512  1.00  0.00    -0.356 OA 
HETATM   13  N   UNL     1     -10.800  13.940  66.731  1.00  0.00    -0.284 N  
BRANCH   3  14
HETATM   14  C   UNL     1      -8.783  11.079  68.376  1.00  0.00    -0.150 A  
HETATM   15  C   UNL     1      -6.811  10.962  69.803  1.00  0.00    -0.134 A  
HETATM   16  C   UNL     1      -8.459   9.226  69.966  1.00  0.00    -0.185 A  
HETATM   17  C   UNL     1      -9.191   9.852  68.959  1.00  0.00    -0.168 A  
HETATM   18  C   UNL     1      -7.542  11.586  68.782  1.00  0.00    -0.129 A  
HETATM   19  C   UNL     1      -7.281   9.801  70.412  1.00  0.00    -0.149 A  
ENDBRANCH   3  14
ENDBRANCH   2   3
TORSDOF 2
ENDMDL
MODEL       93
REMARK 921   NORMALIZED FREE ENERGY PREDICTED BY IDOCK:   -4.05 KCAL/MOL
REMARK 922        TOTAL FREE ENERGY PREDICTED BY IDOCK:   -4.30 KCAL/MOL
REMARK 923 INTER-LIGAND FREE ENERGY PREDICTED BY IDOCK:   -4.35 KCAL/MOL
REMARK 924 INTRA-LIGAND FREE ENERGY PREDICTED BY IDOCK:    0.05 KCAL/MOL
REMARK 927      BINDING AFFINITY PREDICTED BY RF-SCORE:    0.00 PKD
ROOT
HETATM    1  C   UNL     1     -11.521  10.489  69.394  1.00  0.00    -0.329 C  
HETATM    2  C   UNL     1     -10.125  11.046  69.067  1.00  0.00    -0.197 C  
ENDROOT
BRANCH   2   3
HETATM    3  C   UNL     1      -9.726  10.909  67.546  1.00  0.00    -0.187 C  
HETATM    4  C   UNL     1      -8.309  11.499  67.328  1.00  0.00    -0.154 C  
HETATM    5  O   UNL     1     -10.535   8.671  66.883  1.00  0.00    -0.294 OA 
HETATM    6  C   UNL     1      -8.672   7.546  68.661  1.00  0.00    -0.128 C  
HETATM    7  N   UNL     1      -7.251  10.626  67.357  1.00  0.00    -0.090 N  
HETATM    8  O   UNL     1      -8.058  12.696  67.189  1.00  0.00    -0.177 OA 
HETATM    9  C   UNL     1      -9.652   9.377  67.364  1.00  0.00    -0.145 C  
HETATM   10  C   UNL     1      -7.289   9.314  67.719  1.00  0.00    -0.084 C  
HETATM   11  H   UNL     1      -6.343  10.999  67.079  1.00  0.00     0.000 HD 
HETATM   12  O   UNL     1      -6.246   8.676  67.813  1.00  0.00    -0.054 OA 
HETATM   13  N   UNL     1      -8.541   8.820  67.990  1.00  0.00    -0.133 N  
BRANCH   3  14
HETATM   14  C   UNL     1     -10.784  11.713  66.742  1.00  0.00    -0.299 A  
HETATM   15  C   UNL     1     -12.285  13.607  66.423  1.00  0.00    -0.472 A  
HETATM   16  C   UNL     1     -11.583  12.352  64.502  1.00  0.00    -0.409 A  
HETATM   17  C   UNL     1     -10.860  11.506  65.341  1.00  0.00    -0.318 A  
HETATM   18  C   UNL     1     -11.565  12.750  67.269  1.00  0.00    -0.420 A  
HETATM   19  C   UNL     1     -12.272  13.425  65.042  1.00  0.00    -0.463 A  
ENDBRANCH   3  14
ENDBRANCH   2   3
TORSDOF 2
ENDMDL
MODEL       94
REMARK 921   NORMALIZED FREE ENERGY PREDICTED BY IDOCK:   -4.03 KCAL/MOL
REMARK 922        TOTAL FREE ENERGY PREDICTED BY IDOCK:   -4.28 KCAL/MOL
REMARK 923 INTER-LIGAND FREE ENERGY PREDICTED BY IDOCK:   -4.39 KCAL/MOL
REMARK 924 INTRA-LIGAND FREE ENERGY PREDICTED BY IDOCK:    0.11 KCAL/MOL
REMARK 927      BINDING AFFINITY PREDICTED BY RF-SCORE:    0.00 PKD
ROOT
HETATM    1  C   UNL     1     -12.365   6.418  71.932  1.00  0.00    -0.279 C  
HETATM    2  C   UNL     1     -12.100   6.801  70.465  1.00  0.00    -0.332 C  
ENDROOT
BRANCH   2   3
HETATM    3  C   UNL     1     -10.734   7.560  70.243  1.00  0.00    -0.247 C  
HETATM    4  C   UNL     1     -10.629   8.013  68.764  1.00  0.00    -0.118 C  
HETATM    5  O   UNL     1     -10.455   8.957  72.261  1.00  0.00    -0.313 OA 
HETATM    6  C   UNL     1     -12.720  10.423  71.477  1.00  0.00    -0.459 C  
HETATM    7  N   UNL     1     -11.024   9.293  68.468  1.00  0.00    -0.456 N  
HETATM    8  O   UNL     1     -10.274   7.294  67.830  1.00  0.00    -0.171 OA 
HETATM    9  C   UNL     1     -10.908   8.813  71.129  1.00  0.00    -0.268 C  
HETATM   10  C   UNL     1     -11.655  10.163  69.303  1.00  0.00    -0.055 C  
HETATM   11  H   UNL     1     -10.826   9.626  67.524  1.00  0.00     0.000 HD 
HETATM   12  O   UNL     1     -12.058  11.239  68.874  1.00  0.00    -0.455 OA 
HETATM   13  N   UNL     1     -11.817   9.721  70.593  1.00  0.00    -0.283 N  
BRANCH   3  14
HETATM   14  C   UNL     1      -9.609   6.545  70.586  1.00  0.00    -0.183 A  
HETATM   15  C   UNL     1      -7.534   5.899  71.690  1.00  0.00    -0.094 A  
HETATM   16  C   UNL     1      -9.058   4.180  70.997  1.00  0.00    -0.178 A  
HETATM   17  C   UNL     1      -9.898   5.162  70.474  1.00  0.00    -0.285 A  
HETATM   18  C   UNL     1      -8.375   6.886  71.154  1.00  0.00    -0.119 A  
HETATM   19  C   UNL     1      -7.888   4.553  71.636  1.00  0.00    -0.091 A  
ENDBRANCH   3  14
ENDBRANCH   2   3
TORSDOF 2
ENDMDL
MODEL       95
REMARK 921   NORMALIZED FREE ENERGY PREDICTED BY IDOCK:   -4.03 KCAL/MOL
REMARK 922        TOTAL FREE ENERGY PREDICTED BY IDOCK:   -4.27 KCAL/MOL
REMARK 923 INTER-LIGAND FREE ENERGY PREDICTED BY IDOCK:   -4.35 KCAL/MOL
REMARK 924 INTRA-LIGAND FREE ENERGY PREDICTED BY IDOCK:    0.08 KCAL/MOL
REMARK 927      BINDING AFFINITY PREDICTED BY RF-SCORE:    0.00 PKD
ROOT
HETATM    1  C   UNL     1     -12.154  14.342  65.248  1.00  0.00    -0.400 C  
HETATM    2  C   UNL     1     -12.351  13.447  66.484  1.00  0.00    -0.354 C  
ENDROOT
BRANCH   2   3
HETATM    3  C   UNL     1     -11.013  13.125  67.256  1.00  0.00    -0.288 C  
HETATM    4  C   UNL     1     -11.264  11.977  68.268  1.00  0.00    -0.261 C  
HETATM    5  O   UNL     1      -9.248  13.244  65.532  1.00  0.00     0.230 OA 
HETATM    6  C   UNL     1     -10.414  11.014  64.282  1.00  0.00    -0.359 C  
HETATM    7  N   UNL     1     -10.965  10.702  67.860  1.00  0.00    -0.273 N  
HETATM    8  O   UNL     1     -11.764  12.117  69.384  1.00  0.00    -0.291 OA 
HETATM    9  C   UNL     1     -10.104  12.593  66.127  1.00  0.00    -0.257 C  
HETATM   10  C   UNL     1     -10.622  10.309  66.603  1.00  0.00    -0.162 C  
HETATM   11  H   UNL     1     -11.003   9.973  68.573  1.00  0.00     0.000 HD 
HETATM   12  O   UNL     1     -10.493   9.116  66.349  1.00  0.00    -0.213 OA 
HETATM   13  N   UNL     1     -10.481  11.327  65.691  1.00  0.00    -0.259 N  
BRANCH   3  14
HETATM   14  C   UNL     1     -10.611  14.429  67.997  1.00  0.00    -0.241 A  
HETATM   15  C   UNL     1      -9.029  16.186  68.590  1.00  0.00    -0.221 A  
HETATM   16  C   UNL     1     -11.377  16.619  68.823  1.00  0.00    -0.139 A  
HETATM   17  C   UNL     1     -11.641  15.320  68.391  1.00  0.00    -0.365 A  
HETATM   18  C   UNL     1      -9.293  14.875  68.166  1.00  0.00    -0.193 A  
HETATM   19  C   UNL     1     -10.067  17.064  68.892  1.00  0.00    -0.307 A  
ENDBRANCH   3  14
ENDBRANCH   2   3
TORSDOF 2
ENDMDL
MODEL       96
REMARK 921   NORMALIZED FREE ENERGY PREDICTED BY IDOCK:   -4.03 KCAL/MOL
REMARK 922        TOTAL FREE ENERGY PREDICTED BY IDOCK:   -4.27 KCAL/MOL
REMARK 923 INTER-LIGAND FREE ENERGY PREDICTED BY IDOCK:   -4.18 KCAL/MOL
REMARK 924 INTRA-LIGAND FREE ENERGY PREDICTED BY IDOCK:   -0.09 KCAL/MOL
REMARK 927      BINDING AFFINITY PREDICTED BY RF-SCORE:    0.00 PKD
ROOT
HETATM    1  C   UNL     1      -8.084  10.019  69.699  1.00  0.00    -0.180 C  
HETATM    2  C   UNL     1      -8.286   9.888  68.179  1.00  0.00    -0.110 C  
ENDROOT
BRANCH   2   3
HETATM    3  C   UNL     1      -9.720   9.369  67.771  1.00  0.00    -0.182 C  
HETATM    4  C   UNL     1     -10.712   9.623  68.934  1.00  0.00    -0.206 C  
HETATM    5  O   UNL     1      -9.979  10.037  65.406  1.00  0.00    -0.297 OA 
HETATM    6  C   UNL     1      -9.926  12.723  66.230  1.00  0.00    -0.264 C  
HETATM    7  N   UNL     1     -11.461  10.772  68.884  1.00  0.00    -0.287 N  
HETATM    8  O   UNL     1     -10.837   8.904  69.925  1.00  0.00    -0.229 OA 
HETATM    9  C   UNL     1     -10.086  10.308  66.600  1.00  0.00    -0.223 C  
HETATM   10  C   UNL     1     -11.313  11.801  68.005  1.00  0.00    -0.288 C  
HETATM   11  H   UNL     1     -12.204  10.865  69.577  1.00  0.00     0.000 HD 
HETATM   12  O   UNL     1     -11.975  12.824  68.146  1.00  0.00    -0.333 OA 
HETATM   13  N   UNL     1     -10.373  11.602  67.025  1.00  0.00    -0.212 N  
BRANCH   3  14
HETATM   14  C   UNL     1      -9.573   7.847  67.499  1.00  0.00    -0.190 A  
HETATM   15  C   UNL     1      -8.472   5.691  67.780  1.00  0.00    -0.102 A  
HETATM   16  C   UNL     1     -10.761   5.735  67.061  1.00  0.00    -0.369 A  
HETATM   17  C   UNL     1     -10.721   7.128  67.080  1.00  0.00    -0.422 A  
HETATM   18  C   UNL     1      -8.429   7.093  67.790  1.00  0.00    -0.120 A  
HETATM   19  C   UNL     1      -9.642   5.014  67.443  1.00  0.00    -0.164 A  
ENDBRANCH   3  14
ENDBRANCH   2   3
TORSDOF 2
ENDMDL
MODEL       97
REMARK 921   NORMALIZED FREE ENERGY PREDICTED BY IDOCK:   -4.02 KCAL/MOL
REMARK 922        TOTAL FREE ENERGY PREDICTED BY IDOCK:   -4.26 KCAL/MOL
REMARK 923 INTER-LIGAND FREE ENERGY PREDICTED BY IDOCK:   -4.13 KCAL/MOL
REMARK 924 INTRA-LIGAND FREE ENERGY PREDICTED BY IDOCK:   -0.13 KCAL/MOL
REMARK 927      BINDING AFFINITY PREDICTED BY RF-SCORE:    0.00 PKD
ROOT
HETATM    1  C   UNL     1      -7.258   7.991  70.644  1.00  0.00    -0.052 C  
HETATM    2  C   UNL     1      -8.319   6.955  70.233  1.00  0.00    -0.134 C  
ENDROOT
BRANCH   2   3
HETATM    3  C   UNL     1      -9.712   7.154  70.949  1.00  0.00    -0.170 C  
HETATM    4  C   UNL     1      -9.713   8.501  71.715  1.00  0.00    -0.267 C  
HETATM    5  O   UNL     1     -11.380   6.363  69.307  1.00  0.00    -0.379 OA 
HETATM    6  C   UNL     1     -10.641   8.494  67.632  1.00  0.00    -0.198 C  
HETATM    7  N   UNL     1     -10.244   9.591  71.073  1.00  0.00    -0.292 N  
HETATM    8  O   UNL     1      -9.221   8.679  72.829  1.00  0.00    -0.293 OA 
HETATM    9  C   UNL     1     -10.681   7.270  69.752  1.00  0.00    -0.239 C  
HETATM   10  C   UNL     1     -10.627   9.659  69.769  1.00  0.00    -0.242 C  
HETATM   11  H   UNL     1     -10.364  10.437  71.631  1.00  0.00     0.000 HD 
HETATM   12  O   UNL     1     -10.979  10.733  69.291  1.00  0.00    -0.208 OA 
HETATM   13  N   UNL     1     -10.546   8.478  69.074  1.00  0.00    -0.194 N  
BRANCH   3  14
HETATM   14  C   UNL     1      -9.871   5.963  71.934  1.00  0.00    -0.188 A  
HETATM   15  C   UNL     1     -11.126   4.638  73.548  1.00  0.00    -0.412 A  
HETATM   16  C   UNL     1      -9.278   3.620  72.406  1.00  0.00    -0.158 A  
HETATM   17  C   UNL     1      -9.042   4.827  71.751  1.00  0.00    -0.166 A  
HETATM   18  C   UNL     1     -10.883   5.856  72.896  1.00  0.00    -0.293 A  
HETATM   19  C   UNL     1     -10.344   3.516  73.284  1.00  0.00    -0.243 A  
ENDBRANCH   3  14
ENDBRANCH   2   3
TORSDOF 2
ENDMDL
MODEL       98
REMARK 921   NORMALIZED FREE ENERGY PREDICTED BY IDOCK:   -3.98 KCAL/MOL
REMARK 922        TOTAL FREE ENERGY PREDICTED BY IDOCK:   -4.22 KCAL/MOL
REMARK 923 INTER-LIGAND FREE ENERGY PREDICTED BY IDOCK:   -4.23 KCAL/MOL
REMARK 924 INTRA-LIGAND FREE ENERGY PREDICTED BY IDOCK:    0.01 KCAL/MOL
REMARK 927      BINDING AFFINITY PREDICTED BY RF-SCORE:    0.00 PKD
ROOT
HETATM    1  C   UNL     1      -8.910  14.432  67.409  1.00  0.00    -0.211 C  
HETATM    2  C   UNL     1      -8.886  13.212  68.346  1.00  0.00    -0.117 C  
ENDROOT
BRANCH   2   3
HETATM    3  C   UNL     1      -9.897  12.073  67.933  1.00  0.00    -0.196 C  
HETATM    4  C   UNL     1     -10.017  11.044  69.087  1.00  0.00    -0.121 C  
HETATM    5  O   UNL     1     -11.737  13.253  66.781  1.00  0.00    -0.345 OA 
HETATM    6  C   UNL     1     -12.363  14.511  69.214  1.00  0.00    -0.150 C  
HETATM    7  N   UNL     1     -11.053  11.207  69.971  1.00  0.00    -0.467 N  
HETATM    8  O   UNL     1      -9.221  10.131  69.302  1.00  0.00    -0.185 OA 
HETATM    9  C   UNL     1     -11.231  12.844  67.823  1.00  0.00    -0.280 C  
HETATM   10  C   UNL     1     -11.900  12.271  70.045  1.00  0.00    -0.296 C  
HETATM   11  H   UNL     1     -11.204  10.454  70.642  1.00  0.00     0.000 HD 
HETATM   12  O   UNL     1     -12.712  12.343  70.961  1.00  0.00    -0.326 OA 
HETATM   13  N   UNL     1     -11.733  13.219  69.066  1.00  0.00    -0.302 N  
BRANCH   3  14
HETATM   14  C   UNL     1      -9.307  11.403  66.662  1.00  0.00    -0.198 A  
HETATM   15  C   UNL     1      -7.485  10.418  65.378  1.00  0.00    -0.127 A  
HETATM   16  C   UNL     1      -9.744   9.888  64.771  1.00  0.00    -0.305 A  
HETATM   17  C   UNL     1     -10.195  10.731  65.785  1.00  0.00    -0.319 A  
HETATM   18  C   UNL     1      -7.938  11.273  66.394  1.00  0.00    -0.125 A  
HETATM   19  C   UNL     1      -8.384   9.707  64.587  1.00  0.00    -0.162 A  
ENDBRANCH   3  14
ENDBRANCH   2   3
TORSDOF 2
ENDMDL
MODEL       99
REMARK 921   NORMALIZED FREE ENERGY PREDICTED BY IDOCK:   -3.98 KCAL/MOL
REMARK 922        TOTAL FREE ENERGY PREDICTED BY IDOCK:   -4.21 KCAL/MOL
REMARK 923 INTER-LIGAND FREE ENERGY PREDICTED BY IDOCK:   -4.26 KCAL/MOL
REMARK 924 INTRA-LIGAND FREE ENERGY PREDICTED BY IDOCK:    0.05 KCAL/MOL
REMARK 927      BINDING AFFINITY PREDICTED BY RF-SCORE:    0.00 PKD
ROOT
HETATM    1  C   UNL     1     -10.495   8.549  67.558  1.00  0.00    -0.328 C  
HETATM    2  C   UNL     1     -10.365   8.253  69.063  1.00  0.00    -0.233 C  
ENDROOT
BRANCH   2   3
HETATM    3  C   UNL     1      -9.697   9.422  69.885  1.00  0.00    -0.236 C  
HETATM    4  C   UNL     1     -10.253  10.783  69.395  1.00  0.00    -0.160 C  
HETATM    5  O   UNL     1      -9.613   8.587  72.209  1.00  0.00    -0.275 OA 
HETATM    6  C   UNL     1     -12.422   8.620  72.250  1.00  0.00    -0.395 C  
HETATM    7  N   UNL     1     -11.306  11.321  70.091  1.00  0.00    -0.480 N  
HETATM    8  O   UNL     1      -9.860  11.387  68.397  1.00  0.00    -0.192 OA 
HETATM    9  C   UNL     1     -10.226   9.161  71.313  1.00  0.00    -0.329 C  
HETATM   10  C   UNL     1     -12.028  10.713  71.072  1.00  0.00    -0.339 C  
HETATM   11  H   UNL     1     -11.576  12.275  69.848  1.00  0.00     0.000 HD 
HETATM   12  O   UNL     1     -13.021  11.266  71.532  1.00  0.00    -0.428 OA 
HETATM   13  N   UNL     1     -11.576   9.471  71.444  1.00  0.00    -0.369 N  
BRANCH   3  14
HETATM   14  C   UNL     1      -8.170   9.326  69.619  1.00  0.00    -0.126 A  
HETATM   15  C   UNL     1      -5.864  10.050  69.935  1.00  0.00    -0.046 A  
HETATM   16  C   UNL     1      -6.277   7.824  69.143  1.00  0.00    -0.035 A  
HETATM   17  C   UNL     1      -7.645   8.090  69.164  1.00  0.00    -0.097 A  
HETATM   18  C   UNL     1      -7.240  10.322  69.947  1.00  0.00    -0.162 A  
HETATM   19  C   UNL     1      -5.385   8.797  69.561  1.00  0.00    -0.034 A  
ENDBRANCH   3  14
ENDBRANCH   2   3
TORSDOF 2
ENDMDL
MODEL      100
REMARK 921   NORMALIZED FREE ENERGY PREDICTED BY IDOCK:   -3.89 KCAL/MOL
REMARK 922        TOTAL FREE ENERGY PREDICTED BY IDOCK:   -4.12 KCAL/MOL
REMARK 923 INTER-LIGAND FREE ENERGY PREDICTED BY IDOCK:   -4.20 KCAL/MOL
REMARK 924 INTRA-LIGAND FREE ENERGY PREDICTED BY IDOCK:    0.08 KCAL/MOL
REMARK 927      BINDING AFFINITY PREDICTED BY RF-SCORE:    0.00 PKD
ROOT
HETATM    1  C   UNL     1      -7.333   7.326  69.778  1.00  0.00    -0.084 C  
HETATM    2  C   UNL     1      -8.723   6.673  69.884  1.00  0.00    -0.141 C  
ENDROOT
BRANCH   2   3
HETATM    3  C   UNL     1      -9.881   7.693  70.218  1.00  0.00    -0.180 C  
HETATM    4  C   UNL     1     -11.132   6.916  70.699  1.00  0.00    -0.278 C  
HETATM    5  O   UNL     1      -8.753   9.573  71.358  1.00  0.00    -0.211 OA 
HETATM    6  C   UNL     1      -8.125   7.827  73.468  1.00  0.00    -0.171 C  
HETATM    7  N   UNL     1     -11.301   6.770  72.053  1.00  0.00    -0.261 N  
HETATM    8  O   UNL     1     -11.952   6.371  69.960  1.00  0.00    -0.333 OA 
HETATM    9  C   UNL     1      -9.296   8.472  71.416  1.00  0.00    -0.211 C  
HETATM   10  C   UNL     1     -10.403   7.093  73.024  1.00  0.00    -0.271 C  
HETATM   11  H   UNL     1     -12.190   6.378  72.363  1.00  0.00     0.000 HD 
HETATM   12  O   UNL     1     -10.635   6.801  74.192  1.00  0.00    -0.312 OA 
HETATM   13  N   UNL     1      -9.259   7.709  72.580  1.00  0.00    -0.146 N  
BRANCH   3  14
HETATM   14  C   UNL     1     -10.184   8.456  68.899  1.00  0.00    -0.223 A  
HETATM   15  C   UNL     1     -10.724  10.467  67.633  1.00  0.00    -0.324 A  
HETATM   16  C   UNL     1      -9.711   8.618  66.488  1.00  0.00    -0.325 A  
HETATM   17  C   UNL     1      -9.720   7.898  67.681  1.00  0.00    -0.196 A  
HETATM   18  C   UNL     1     -10.742   9.739  68.832  1.00  0.00    -0.241 A  
HETATM   19  C   UNL     1     -10.185   9.919  66.471  1.00  0.00    -0.292 A  
ENDBRANCH   3  14
ENDBRANCH   2   3
TORSDOF 2
ENDMDL
MODEL      101
REMARK 921   NORMALIZED FREE ENERGY PREDICTED BY IDOCK:   -3.89 KCAL/MOL
REMARK 922        TOTAL FREE ENERGY PREDICTED BY IDOCK:   -4.12 KCAL/MOL
REMARK 923 INTER-LIGAND FREE ENERGY PREDICTED BY IDOCK:   -3.98 KCAL/MOL
REMARK 924 INTRA-LIGAND FREE ENERGY PREDICTED BY IDOCK:   -0.14 KCAL/MOL
REMARK 927      BINDING AFFINITY PREDICTED BY RF-SCORE:    0.00 PKD
ROOT
HETATM    1  C   UNL     1      -6.927   8.122  69.626  1.00  0.00    -0.049 C  
HETATM    2  C   UNL     1      -8.119   7.378  69.000  1.00  0.00    -0.127 C  
ENDROOT
BRANCH   2   3
HETATM    3  C   UNL     1      -9.522   7.992  69.382  1.00  0.00    -0.159 C  
HETATM    4  C   UNL     1      -9.315   9.345  70.108  1.00  0.00    -0.241 C  
HETATM    5  O   UNL     1     -10.957   7.548  67.420  1.00  0.00    -0.226 OA 
HETATM    6  C   UNL     1      -9.324   9.274  65.920  1.00  0.00    -0.236 C  
HETATM    7  N   UNL     1      -9.378  10.485  69.346  1.00  0.00    -0.363 N  
HETATM    8  O   UNL     1      -9.040   9.471  71.301  1.00  0.00    -0.236 OA 
HETATM    9  C   UNL     1     -10.147   8.269  67.996  1.00  0.00    -0.198 C  
HETATM   10  C   UNL     1      -9.443  10.553  67.988  1.00  0.00    -0.148 C  
HETATM   11  H   UNL     1      -9.377  11.372  69.850  1.00  0.00     0.000 HD 
HETATM   12  O   UNL     1      -9.377  11.642  67.427  1.00  0.00    -0.165 OA 
HETATM   13  N   UNL     1      -9.545   9.343  67.347  1.00  0.00    -0.141 N  
BRANCH   3  14
HETATM   14  C   UNL     1     -10.207   6.964  70.324  1.00  0.00    -0.208 A  
HETATM   15  C   UNL     1     -10.163   5.181  71.985  1.00  0.00    -0.260 A  
HETATM   16  C   UNL     1     -12.153   6.503  71.761  1.00  0.00    -0.393 A  
HETATM   17  C   UNL     1     -11.543   7.212  70.728  1.00  0.00    -0.358 A  
HETATM   18  C   UNL     1      -9.553   5.888  70.939  1.00  0.00    -0.202 A  
HETATM   19  C   UNL     1     -11.448   5.505  72.414  1.00  0.00    -0.266 A  
ENDBRANCH   3  14
ENDBRANCH   2   3
TORSDOF 2
ENDMDL
MODEL      102
REMARK 921   NORMALIZED FREE ENERGY PREDICTED BY IDOCK:   -3.89 KCAL/MOL
REMARK 922        TOTAL FREE ENERGY PREDICTED BY IDOCK:   -4.11 KCAL/MOL
REMARK 923 INTER-LIGAND FREE ENERGY PREDICTED BY IDOCK:   -4.20 KCAL/MOL
REMARK 924 INTRA-LIGAND FREE ENERGY PREDICTED BY IDOCK:    0.09 KCAL/MOL
REMARK 927      BINDING AFFINITY PREDICTED BY RF-SCORE:    0.00 PKD
ROOT
HETATM    1  C   UNL     1     -13.303   7.750  72.180  1.00  0.00    -0.130 C  
HETATM    2  C   UNL     1     -12.694   6.980  70.995  1.00  0.00    -0.300 C  
ENDROOT
BRANCH   2   3
HETATM    3  C   UNL     1     -11.116   6.996  70.971  1.00  0.00    -0.295 C  
HETATM    4  C   UNL     1     -10.616   6.543  69.576  1.00  0.00    -0.246 C  
HETATM    5  O   UNL     1     -10.488   9.049  72.194  1.00  0.00    -0.321 OA 
HETATM    6  C   UNL     1     -11.679  10.554  70.141  1.00  0.00    -0.326 C  
HETATM    7  N   UNL     1     -10.324   7.524  68.661  1.00  0.00    -0.198 N  
HETATM    8  O   UNL     1     -10.517   5.372  69.208  1.00  0.00    -0.256 OA 
HETATM    9  C   UNL     1     -10.800   8.498  71.141  1.00  0.00    -0.243 C  
HETATM   10  C   UNL     1     -10.580   8.855  68.788  1.00  0.00    -0.157 C  
HETATM   11  H   UNL     1      -9.870   7.224  67.799  1.00  0.00     0.000 HD 
HETATM   12  O   UNL     1     -10.373   9.609  67.843  1.00  0.00    -0.196 OA 
HETATM   13  N   UNL     1     -11.100   9.237  70.000  1.00  0.00    -0.229 N  
BRANCH   3  14
HETATM   14  C   UNL     1     -10.652   6.000  72.069  1.00  0.00    -0.267 A  
HETATM   15  C   UNL     1     -10.999   4.110  73.568  1.00  0.00    -0.360 A  
HETATM   16  C   UNL     1      -8.754   4.735  72.998  1.00  0.00    -0.113 A  
HETATM   17  C   UNL     1      -9.260   5.785  72.233  1.00  0.00    -0.151 A  
HETATM   18  C   UNL     1     -11.508   5.172  72.806  1.00  0.00    -0.284 A  
HETATM   19  C   UNL     1      -9.628   3.876  73.642  1.00  0.00    -0.129 A  
ENDBRANCH   3  14
ENDBRANCH   2   3
TORSDOF 2
ENDMDL
MODEL      103
REMARK 921   NORMALIZED FREE ENERGY PREDICTED BY IDOCK:   -3.89 KCAL/MOL
REMARK 922        TOTAL FREE ENERGY PREDICTED BY IDOCK:   -4.11 KCAL/MOL
REMARK 923 INTER-LIGAND FREE ENERGY PREDICTED BY IDOCK:   -4.01 KCAL/MOL
REMARK 924 INTRA-LIGAND FREE ENERGY PREDICTED BY IDOCK:   -0.10 KCAL/MOL
REMARK 927      BINDING AFFINITY PREDICTED BY RF-SCORE:    0.00 PKD
ROOT
HETATM    1  C   UNL     1      -9.374   9.023  67.393  1.00  0.00    -0.167 C  
HETATM    2  C   UNL     1     -10.492   8.144  67.980  1.00  0.00    -0.242 C  
ENDROOT
BRANCH   2   3
HETATM    3  C   UNL     1      -9.963   6.948  68.863  1.00  0.00    -0.158 C  
HETATM    4  C   UNL     1      -8.496   7.223  69.281  1.00  0.00    -0.133 C  
HETATM    5  O   UNL     1     -11.859   6.371  70.339  1.00  0.00    -0.382 OA 
HETATM    6  C   UNL     1     -11.595   8.892  71.551  1.00  0.00    -0.318 C  
HETATM    7  N   UNL     1      -8.288   7.805  70.506  1.00  0.00    -0.123 N  
HETATM    8  O   UNL     1      -7.511   7.014  68.574  1.00  0.00    -0.097 OA 
HETATM    9  C   UNL     1     -10.858   7.048  70.119  1.00  0.00    -0.256 C  
HETATM   10  C   UNL     1      -9.239   8.319  71.334  1.00  0.00    -0.169 C  
HETATM   11  H   UNL     1      -7.322   7.857  70.829  1.00  0.00     0.000 HD 
HETATM   12  O   UNL     1      -8.905   8.916  72.351  1.00  0.00    -0.396 OA 
HETATM   13  N   UNL     1     -10.535   8.142  70.916  1.00  0.00    -0.201 N  
BRANCH   3  14
HETATM   14  C   UNL     1     -10.051   5.677  67.975  1.00  0.00    -0.211 A  
HETATM   15  C   UNL     1     -10.265   4.541  65.829  1.00  0.00    -0.289 A  
HETATM   16  C   UNL     1      -9.305   3.349  67.677  1.00  0.00    -0.246 A  
HETATM   17  C   UNL     1      -9.510   4.468  68.482  1.00  0.00    -0.213 A  
HETATM   18  C   UNL     1     -10.480   5.664  66.642  1.00  0.00    -0.340 A  
HETATM   19  C   UNL     1      -9.655   3.397  66.338  1.00  0.00    -0.072 A  
ENDBRANCH   3  14
ENDBRANCH   2   3
TORSDOF 2
ENDMDL
MODEL      104
REMARK 921   NORMALIZED FREE ENERGY PREDICTED BY IDOCK:   -3.87 KCAL/MOL
REMARK 922        TOTAL FREE ENERGY PREDICTED BY IDOCK:   -4.09 KCAL/MOL
REMARK 923 INTER-LIGAND FREE ENERGY PREDICTED BY IDOCK:   -4.16 KCAL/MOL
REMARK 924 INTRA-LIGAND FREE ENERGY PREDICTED BY IDOCK:    0.06 KCAL/MOL
REMARK 927      BINDING AFFINITY PREDICTED BY RF-SCORE:    0.00 PKD
ROOT
HETATM    1  C   UNL     1      -8.089   7.533  72.029  1.00  0.00    -0.109 C  
HETATM    2  C   UNL     1      -9.511   7.611  71.446  1.00  0.00    -0.166 C  
ENDROOT
BRANCH   2   3
HETATM    3  C   UNL     1      -9.976   6.286  70.725  1.00  0.00    -0.220 C  
HETATM    4  C   UNL     1     -11.337   6.530  70.024  1.00  0.00    -0.410 C  
HETATM    5  O   UNL     1      -7.917   5.362  69.720  1.00  0.00    -0.085 OA 
HETATM    6  C   UNL     1      -7.814   7.607  68.034  1.00  0.00    -0.121 C  
HETATM    7  N   UNL     1     -11.310   6.869  68.695  1.00  0.00    -0.530 N  
HETATM    8  O   UNL     1     -12.433   6.499  70.583  1.00  0.00    -0.211 OA 
HETATM    9  C   UNL     1      -8.891   6.106  69.640  1.00  0.00    -0.134 C  
HETATM   10  C   UNL     1     -10.208   7.175  67.956  1.00  0.00    -0.185 C  
HETATM   11  H   UNL     1     -12.208   6.893  68.211  1.00  0.00     0.000 HD 
HETATM   12  O   UNL     1     -10.337   7.576  66.805  1.00  0.00    -0.288 OA 
HETATM   13  N   UNL     1      -9.009   7.035  68.611  1.00  0.00    -0.131 N  
BRANCH   3  14
HETATM   14  C   UNL     1     -10.117   5.210  71.836  1.00  0.00    -0.255 A  
HETATM   15  C   UNL     1     -10.978   4.389  73.963  1.00  0.00    -0.268 A  
HETATM   16  C   UNL     1     -10.222   2.800  72.332  1.00  0.00    -0.209 A  
HETATM   17  C   UNL     1      -9.876   3.856  71.491  1.00  0.00    -0.247 A  
HETATM   18  C   UNL     1     -10.621   5.452  73.120  1.00  0.00    -0.278 A  
HETATM   19  C   UNL     1     -10.805   3.067  73.560  1.00  0.00    -0.312 A  
ENDBRANCH   3  14
ENDBRANCH   2   3
TORSDOF 2
ENDMDL
MODEL      105
REMARK 921   NORMALIZED FREE ENERGY PREDICTED BY IDOCK:   -3.86 KCAL/MOL
REMARK 922        TOTAL FREE ENERGY PREDICTED BY IDOCK:   -4.08 KCAL/MOL
REMARK 923 INTER-LIGAND FREE ENERGY PREDICTED BY IDOCK:   -4.25 KCAL/MOL
REMARK 924 INTRA-LIGAND FREE ENERGY PREDICTED BY IDOCK:    0.17 KCAL/MOL
REMARK 927      BINDING AFFINITY PREDICTED BY RF-SCORE:    0.00 PKD
ROOT
HETATM    1  C   UNL     1     -10.431   8.723  66.937  1.00  0.00    -0.319 C  
HETATM    2  C   UNL     1      -9.311   9.699  67.336  1.00  0.00    -0.155 C  
ENDROOT
BRANCH   2   3
HETATM    3  C   UNL     1      -9.084  10.865  66.297  1.00  0.00    -0.192 C  
HETATM    4  C   UNL     1      -7.857  11.709  66.726  1.00  0.00    -0.130 C  
HETATM    5  O   UNL     1      -9.492   9.830  64.091  1.00  0.00    -0.253 OA 
HETATM    6  C   UNL     1      -7.232   8.213  64.508  1.00  0.00    -0.084 C  
HETATM    7  N   UNL     1      -6.647  11.396  66.160  1.00  0.00    -0.367 N  
HETATM    8  O   UNL     1      -7.876  12.598  67.577  1.00  0.00    -0.152 OA 
HETATM    9  C   UNL     1      -8.720  10.091  65.010  1.00  0.00    -0.173 C  
HETATM   10  C   UNL     1      -6.370  10.316  65.380  1.00  0.00    -0.124 C  
HETATM   11  H   UNL     1      -5.876  12.039  66.343  1.00  0.00     0.000 HD 
HETATM   12  O   UNL     1      -5.215  10.092  65.034  1.00  0.00    -0.057 OA 
HETATM   13  N   UNL     1      -7.450   9.526  65.070  1.00  0.00    -0.106 N  
BRANCH   3  14
HETATM   14  C   UNL     1     -10.376  11.727  66.318  1.00  0.00    -0.259 A  
HETATM   15  C   UNL     1     -12.003  13.168  67.420  1.00  0.00    -0.379 A  
HETATM   16  C   UNL     1     -11.844  13.224  65.027  1.00  0.00    -0.384 A  
HETATM   17  C   UNL     1     -10.858  12.241  65.087  1.00  0.00    -0.340 A  
HETATM   18  C   UNL     1     -11.017  12.172  67.481  1.00  0.00    -0.304 A  
HETATM   19  C   UNL     1     -12.395  13.713  66.199  1.00  0.00    -0.476 A  
ENDBRANCH   3  14
ENDBRANCH   2   3
TORSDOF 2
ENDMDL
MODEL      106
REMARK 921   NORMALIZED FREE ENERGY PREDICTED BY IDOCK:   -3.83 KCAL/MOL
REMARK 922        TOTAL FREE ENERGY PREDICTED BY IDOCK:   -4.05 KCAL/MOL
REMARK 923 INTER-LIGAND FREE ENERGY PREDICTED BY IDOCK:   -4.20 KCAL/MOL
REMARK 924 INTRA-LIGAND FREE ENERGY PREDICTED BY IDOCK:    0.15 KCAL/MOL
REMARK 927      BINDING AFFINITY PREDICTED BY RF-SCORE:    0.00 PKD
ROOT
HETATM    1  C   UNL     1      -7.133   7.832  69.190  1.00  0.00    -0.073 C  
HETATM    2  C   UNL     1      -8.259   6.928  68.658  1.00  0.00    -0.121 C  
ENDROOT
BRANCH   2   3
HETATM    3  C   UNL     1      -9.578   7.710  68.284  1.00  0.00    -0.160 C  
HETATM    4  C   UNL     1     -10.786   6.740  68.334  1.00  0.00    -0.232 C  
HETATM    5  O   UNL     1      -9.360   9.892  69.422  1.00  0.00    -0.187 OA 
HETATM    6  C   UNL     1      -9.488   8.544  71.884  1.00  0.00    -0.280 C  
HETATM    7  N   UNL     1     -11.515   6.701  69.496  1.00  0.00    -0.603 N  
HETATM    8  O   UNL     1     -11.104   5.962  67.435  1.00  0.00    -0.247 OA 
HETATM    9  C   UNL     1      -9.706   8.714  69.451  1.00  0.00    -0.176 C  
HETATM   10  C   UNL     1     -11.200   7.305  70.675  1.00  0.00    -0.274 C  
HETATM   11  H   UNL     1     -12.383   6.165  69.473  1.00  0.00     0.000 HD 
HETATM   12  O   UNL     1     -11.882   7.092  71.671  1.00  0.00    -0.276 OA 
HETATM   13  N   UNL     1     -10.080   8.099  70.643  1.00  0.00    -0.193 N  
BRANCH   3  14
HETATM   14  C   UNL     1      -9.371   8.252  66.844  1.00  0.00    -0.222 A  
HETATM   15  C   UNL     1      -9.693   9.905  65.082  1.00  0.00    -0.376 A  
HETATM   16  C   UNL     1      -7.832   8.400  64.927  1.00  0.00    -0.121 A  
HETATM   17  C   UNL     1      -8.249   7.792  66.110  1.00  0.00    -0.123 A  
HETATM   18  C   UNL     1     -10.119   9.287  66.267  1.00  0.00    -0.322 A  
HETATM   19  C   UNL     1      -8.538   9.482  64.429  1.00  0.00    -0.213 A  
ENDBRANCH   3  14
ENDBRANCH   2   3
TORSDOF 2
ENDMDL
MODEL      107
REMARK 921   NORMALIZED FREE ENERGY PREDICTED BY IDOCK:   -3.83 KCAL/MOL
REMARK 922        TOTAL FREE ENERGY PREDICTED BY IDOCK:   -4.05 KCAL/MOL
REMARK 923 INTER-LIGAND FREE ENERGY PREDICTED BY IDOCK:   -4.63 KCAL/MOL
REMARK 924 INTRA-LIGAND FREE ENERGY PREDICTED BY IDOCK:    0.58 KCAL/MOL
REMARK 927      BINDING AFFINITY PREDICTED BY RF-SCORE:    0.00 PKD
ROOT
HETATM    1  C   UNL     1      -8.684   9.556  68.326  1.00  0.00    -0.120 C  
HETATM    2  C   UNL     1      -9.787   8.496  68.497  1.00  0.00    -0.186 C  
ENDROOT
BRANCH   2   3
HETATM    3  C   UNL     1     -10.173   8.218  70.002  1.00  0.00    -0.202 C  
HETATM    4  C   UNL     1     -10.720   6.774  70.137  1.00  0.00    -0.233 C  
HETATM    5  O   UNL     1      -8.364   9.264  71.319  1.00  0.00    -0.317 OA 
HETATM    6  C   UNL     1      -6.579   7.387  70.230  1.00  0.00    -0.046 C  
HETATM    7  N   UNL     1      -9.834   5.797  70.514  1.00  0.00    -0.179 N  
HETATM    8  O   UNL     1     -11.873   6.429  69.875  1.00  0.00    -0.384 OA 
HETATM    9  C   UNL     1      -8.803   8.291  70.710  1.00  0.00    -0.148 C  
HETATM   10  C   UNL     1      -8.484   5.924  70.628  1.00  0.00    -0.129 C  
HETATM   11  H   UNL     1     -10.228   4.881  70.731  1.00  0.00     0.000 HD 
HETATM   12  O   UNL     1      -7.795   4.937  70.861  1.00  0.00    -0.079 OA 
HETATM   13  N   UNL     1      -7.997   7.192  70.426  1.00  0.00    -0.110 N  
BRANCH   3  14
HETATM   14  C   UNL     1     -11.269   9.255  70.371  1.00  0.00    -0.290 A  
HETATM   15  C   UNL     1     -12.900  10.238  71.892  1.00  0.00    -0.528 A  
HETATM   16  C   UNL     1     -12.058  11.570  70.084  1.00  0.00    -0.432 A  
HETATM   17  C   UNL     1     -11.294  10.483  69.663  1.00  0.00    -0.345 A  
HETATM   18  C   UNL     1     -12.139   9.140  71.463  1.00  0.00    -0.422 A  
HETATM   19  C   UNL     1     -12.839  11.457  71.221  1.00  0.00    -0.481 A  
ENDBRANCH   3  14
ENDBRANCH   2   3
TORSDOF 2
ENDMDL
MODEL      108
REMARK 921   NORMALIZED FREE ENERGY PREDICTED BY IDOCK:   -3.81 KCAL/MOL
REMARK 922        TOTAL FREE ENERGY PREDICTED BY IDOCK:   -4.03 KCAL/MOL
REMARK 923 INTER-LIGAND FREE ENERGY PREDICTED BY IDOCK:   -4.14 KCAL/MOL
REMARK 924 INTRA-LIGAND FREE ENERGY PREDICTED BY IDOCK:    0.12 KCAL/MOL
REMARK 927      BINDING AFFINITY PREDICTED BY RF-SCORE:    0.00 PKD
ROOT
HETATM    1  C   UNL     1      -7.499   6.658  70.909  1.00  0.00    -0.084 C  
HETATM    2  C   UNL     1      -8.712   6.100  70.144  1.00  0.00    -0.141 C  
ENDROOT
BRANCH   2   3
HETATM    3  C   UNL     1      -9.619   7.214  69.489  1.00  0.00    -0.154 C  
HETATM    4  C   UNL     1     -10.929   6.572  68.966  1.00  0.00    -0.321 C  
HETATM    5  O   UNL     1      -9.401   9.164  70.991  1.00  0.00    -0.248 OA 
HETATM    6  C   UNL     1     -10.686   7.676  72.998  1.00  0.00    -0.391 C  
HETATM    7  N   UNL     1     -12.024   6.612  69.791  1.00  0.00    -0.618 N  
HETATM    8  O   UNL     1     -11.044   5.980  67.893  1.00  0.00    -0.301 OA 
HETATM    9  C   UNL     1      -9.961   8.110  70.700  1.00  0.00    -0.189 C  
HETATM   10  C   UNL     1     -12.047   7.012  71.093  1.00  0.00    -0.369 C  
HETATM   11  H   UNL     1     -12.912   6.312  69.388  1.00  0.00     0.000 HD 
HETATM   12  O   UNL     1     -13.074   6.887  71.752  1.00  0.00    -0.356 OA 
HETATM   13  N   UNL     1     -10.859   7.504  71.574  1.00  0.00    -0.226 N  
BRANCH   3  14
HETATM   14  C   UNL     1      -8.796   7.814  68.317  1.00  0.00    -0.129 A  
HETATM   15  C   UNL     1      -7.019   7.734  66.651  1.00  0.00    -0.071 A  
HETATM   16  C   UNL     1      -8.857   9.236  66.307  1.00  0.00    -0.172 A  
HETATM   17  C   UNL     1      -9.399   8.822  67.523  1.00  0.00    -0.161 A  
HETATM   18  C   UNL     1      -7.559   7.324  67.879  1.00  0.00    -0.111 A  
HETATM   19  C   UNL     1      -7.679   8.667  65.855  1.00  0.00    -0.101 A  
ENDBRANCH   3  14
ENDBRANCH   2   3
TORSDOF 2
ENDMDL
MODEL      109
REMARK 921   NORMALIZED FREE ENERGY PREDICTED BY IDOCK:   -3.80 KCAL/MOL
REMARK 922        TOTAL FREE ENERGY PREDICTED BY IDOCK:   -4.02 KCAL/MOL
REMARK 923 INTER-LIGAND FREE ENERGY PREDICTED BY IDOCK:   -3.93 KCAL/MOL
REMARK 924 INTRA-LIGAND FREE ENERGY PREDICTED BY IDOCK:   -0.08 KCAL/MOL
REMARK 927      BINDING AFFINITY PREDICTED BY RF-SCORE:    0.00 PKD
ROOT
HETATM    1  C   UNL     1      -7.403  19.406  69.547  1.00  0.00    -0.151 C  
HETATM    2  C   UNL     1      -6.582  18.494  68.618  1.00  0.00    -0.258 C  
ENDROOT
BRANCH   2   3
HETATM    3  C   UNL     1      -7.462  17.518  67.745  1.00  0.00    -0.197 C  
HETATM    4  C   UNL     1      -8.954  17.683  68.129  1.00  0.00    -0.269 C  
HETATM    5  O   UNL     1      -6.474  17.635  65.483  1.00  0.00    -0.116 OA 
HETATM    6  C   UNL     1      -7.274  20.325  65.347  1.00  0.00    -0.180 C  
HETATM    7  N   UNL     1      -9.710  18.538  67.366  1.00  0.00    -0.296 N  
HETATM    8  O   UNL     1      -9.496  17.154  69.099  1.00  0.00    -0.204 OA 
HETATM    9  C   UNL     1      -7.257  18.078  66.320  1.00  0.00    -0.275 C  
HETATM   10  C   UNL     1      -9.256  19.385  66.402  1.00  0.00    -0.360 C  
HETATM   11  H   UNL     1     -10.716  18.537  67.539  1.00  0.00     0.000 HD 
HETATM   12  O   UNL     1     -10.027  20.181  65.876  1.00  0.00    -0.447 OA 
HETATM   13  N   UNL     1      -7.914  19.289  66.125  1.00  0.00    -0.305 N  
BRANCH   3  14
HETATM   14  C   UNL     1      -6.970  16.080  68.067  1.00  0.00    -0.138 A  
HETATM   15  C   UNL     1      -5.946  14.414  69.521  1.00  0.00    -0.104 A  
HETATM   16  C   UNL     1      -7.366  13.672  67.735  1.00  0.00    -0.170 A  
HETATM   17  C   UNL     1      -7.543  15.000  67.349  1.00  0.00    -0.233 A  
HETATM   18  C   UNL     1      -6.117  15.749  69.128  1.00  0.00    -0.122 A  
HETATM   19  C   UNL     1      -6.590  13.381  68.845  1.00  0.00    -0.107 A  
ENDBRANCH   3  14
ENDBRANCH   2   3
TORSDOF 2
ENDMDL
MODEL      110
REMARK 921   NORMALIZED FREE ENERGY PREDICTED BY IDOCK:   -3.80 KCAL/MOL
REMARK 922        TOTAL FREE ENERGY PREDICTED BY IDOCK:   -4.01 KCAL/MOL
REMARK 923 INTER-LIGAND FREE ENERGY PREDICTED BY IDOCK:   -4.34 KCAL/MOL
REMARK 924 INTRA-LIGAND FREE ENERGY PREDICTED BY IDOCK:    0.33 KCAL/MOL
REMARK 927      BINDING AFFINITY PREDICTED BY RF-SCORE:    0.00 PKD
ROOT
HETATM    1  C   UNL     1     -10.669  16.466  66.096  1.00  0.00    -0.174 C  
HETATM    2  C   UNL     1      -9.132  16.450  66.159  1.00  0.00    -0.362 C  
ENDROOT
BRANCH   2   3
HETATM    3  C   UNL     1      -8.557  15.999  67.558  1.00  0.00    -0.190 C  
HETATM    4  C   UNL     1      -7.067  16.415  67.663  1.00  0.00    -0.135 C  
HETATM    5  O   UNL     1     -10.366  16.487  69.168  1.00  0.00    -0.276 OA 
HETATM    6  C   UNL     1     -10.026  19.221  68.618  1.00  0.00    -0.431 C  
HETATM    7  N   UNL     1      -6.788  17.605  68.287  1.00  0.00    -0.206 N  
HETATM    8  O   UNL     1      -6.124  15.789  67.179  1.00  0.00    -0.322 OA 
HETATM    9  C   UNL     1      -9.378  16.862  68.542  1.00  0.00    -0.259 C  
HETATM   10  C   UNL     1      -7.688  18.546  68.684  1.00  0.00    -0.308 C  
HETATM   11  H   UNL     1      -5.805  17.805  68.472  1.00  0.00     0.000 HD 
HETATM   12  O   UNL     1      -7.294  19.620  69.126  1.00  0.00    -0.358 OA 
HETATM   13  N   UNL     1      -9.006  18.202  68.512  1.00  0.00    -0.302 N  
BRANCH   3  14
HETATM   14  C   UNL     1      -8.698  14.454  67.612  1.00  0.00    -0.191 A  
HETATM   15  C   UNL     1      -9.218  12.288  66.621  1.00  0.00    -0.208 A  
HETATM   16  C   UNL     1      -7.818  12.362  68.568  1.00  0.00    -0.112 A  
HETATM   17  C   UNL     1      -7.964  13.748  68.598  1.00  0.00    -0.095 A  
HETATM   18  C   UNL     1      -9.373  13.682  66.657  1.00  0.00    -0.265 A  
HETATM   19  C   UNL     1      -8.422  11.633  67.557  1.00  0.00    -0.150 A  
ENDBRANCH   3  14
ENDBRANCH   2   3
TORSDOF 2
ENDMDL
MODEL      111
REMARK 921   NORMALIZED FREE ENERGY PREDICTED BY IDOCK:   -3.77 KCAL/MOL
REMARK 922        TOTAL FREE ENERGY PREDICTED BY IDOCK:   -3.99 KCAL/MOL
REMARK 923 INTER-LIGAND FREE ENERGY PREDICTED BY IDOCK:   -4.12 KCAL/MOL
REMARK 924 INTRA-LIGAND FREE ENERGY PREDICTED BY IDOCK:    0.13 KCAL/MOL
REMARK 927      BINDING AFFINITY PREDICTED BY RF-SCORE:    0.00 PKD
ROOT
HETATM    1  C   UNL     1      -8.010   6.945  67.821  1.00  0.00    -0.114 C  
HETATM    2  C   UNL     1      -8.253   8.062  68.852  1.00  0.00    -0.125 C  
ENDROOT
BRANCH   2   3
HETATM    3  C   UNL     1      -9.779   8.334  69.146  1.00  0.00    -0.171 C  
HETATM    4  C   UNL     1     -10.629   7.159  68.600  1.00  0.00    -0.189 C  
HETATM    5  O   UNL     1      -9.820   9.279  71.429  1.00  0.00    -0.295 OA 
HETATM    6  C   UNL     1      -8.891   6.809  72.394  1.00  0.00    -0.131 C  
HETATM    7  N   UNL     1     -10.963   6.160  69.480  1.00  0.00    -0.359 N  
HETATM    8  O   UNL     1     -10.976   7.025  67.427  1.00  0.00    -0.292 OA 
HETATM    9  C   UNL     1      -9.826   8.298  70.690  1.00  0.00    -0.182 C  
HETATM   10  C   UNL     1     -10.493   6.003  70.748  1.00  0.00    -0.239 C  
HETATM   11  H   UNL     1     -11.632   5.464  69.150  1.00  0.00     0.000 HD 
HETATM   12  O   UNL     1     -10.785   4.998  71.387  1.00  0.00    -0.151 OA 
HETATM   13  N   UNL     1      -9.674   7.010  71.196  1.00  0.00    -0.173 N  
BRANCH   3  14
HETATM   14  C   UNL     1     -10.137   9.656  68.413  1.00  0.00    -0.199 A  
HETATM   15  C   UNL     1     -10.148  11.120  66.464  1.00  0.00    -0.265 A  
HETATM   16  C   UNL     1     -11.779  11.477  68.187  1.00  0.00    -0.357 A  
HETATM   17  C   UNL     1     -11.218  10.426  68.911  1.00  0.00    -0.290 A  
HETATM   18  C   UNL     1      -9.576  10.069  67.197  1.00  0.00    -0.202 A  
HETATM   19  C   UNL     1     -11.262  11.804  66.944  1.00  0.00    -0.387 A  
ENDBRANCH   3  14
ENDBRANCH   2   3
TORSDOF 2
ENDMDL
MODEL      112
REMARK 921   NORMALIZED FREE ENERGY PREDICTED BY IDOCK:   -3.71 KCAL/MOL
REMARK 922        TOTAL FREE ENERGY PREDICTED BY IDOCK:   -3.91 KCAL/MOL
REMARK 923 INTER-LIGAND FREE ENERGY PREDICTED BY IDOCK:   -4.15 KCAL/MOL
REMARK 924 INTRA-LIGAND FREE ENERGY PREDICTED BY IDOCK:    0.23 KCAL/MOL
REMARK 927      BINDING AFFINITY PREDICTED BY RF-SCORE:    0.00 PKD
ROOT
HETATM    1  C   UNL     1     -11.080  10.363  67.742  1.00  0.00    -0.365 C  
HETATM    2  C   UNL     1     -10.560   9.862  66.383  1.00  0.00    -0.126 C  
ENDROOT
BRANCH   2   3
HETATM    3  C   UNL     1      -9.441  10.780  65.753  1.00  0.00    -0.244 C  
HETATM    4  C   UNL     1      -9.450  10.621  64.212  1.00  0.00    -0.274 C  
HETATM    5  O   UNL     1      -9.551  12.883  67.045  1.00  0.00    -0.218 OA 
HETATM    6  C   UNL     1     -12.117  13.319  65.986  1.00  0.00    -0.436 C  
HETATM    7  N   UNL     1     -10.166  11.541  63.488  1.00  0.00    -0.377 N  
HETATM    8  O   UNL     1      -8.913   9.702  63.594  1.00  0.00    -0.232 OA 
HETATM    9  C   UNL     1      -9.944  12.197  66.104  1.00  0.00    -0.233 C  
HETATM   10  C   UNL     1     -11.008  12.489  63.984  1.00  0.00    -0.398 C  
HETATM   11  H   UNL     1     -10.056  11.511  62.474  1.00  0.00     0.000 HD 
HETATM   12  O   UNL     1     -11.678  13.172  63.217  1.00  0.00    -0.444 OA 
HETATM   13  N   UNL     1     -11.056  12.568  65.354  1.00  0.00    -0.293 N  
BRANCH   3  14
HETATM   14  C   UNL     1      -8.091  10.291  66.346  1.00  0.00    -0.123 A  
HETATM   15  C   UNL     1      -5.751  10.601  66.953  1.00  0.00    -0.057 A  
HETATM   16  C   UNL     1      -7.008   8.874  68.045  1.00  0.00    -0.078 A  
HETATM   17  C   UNL     1      -8.115   9.214  67.268  1.00  0.00    -0.106 A  
HETATM   18  C   UNL     1      -6.861  10.937  66.164  1.00  0.00    -0.100 A  
HETATM   19  C   UNL     1      -5.832   9.591  67.909  1.00  0.00    -0.041 A  
ENDBRANCH   3  14
ENDBRANCH   2   3
TORSDOF 2
ENDMDL
MODEL      113
REMARK 921   NORMALIZED FREE ENERGY PREDICTED BY IDOCK:   -3.69 KCAL/MOL
REMARK 922        TOTAL FREE ENERGY PREDICTED BY IDOCK:   -3.89 KCAL/MOL
REMARK 923 INTER-LIGAND FREE ENERGY PREDICTED BY IDOCK:   -3.77 KCAL/MOL
REMARK 924 INTRA-LIGAND FREE ENERGY PREDICTED BY IDOCK:   -0.12 KCAL/MOL
REMARK 927      BINDING AFFINITY PREDICTED BY RF-SCORE:    0.00 PKD
ROOT
HETATM    1  C   UNL     1      -7.973   6.203  70.994  1.00  0.00    -0.116 C  
HETATM    2  C   UNL     1      -8.292   6.868  69.644  1.00  0.00    -0.133 C  
ENDROOT
BRANCH   2   3
HETATM    3  C   UNL     1      -9.717   6.498  69.074  1.00  0.00    -0.140 C  
HETATM    4  C   UNL     1     -10.447   5.564  70.072  1.00  0.00    -0.303 C  
HETATM    5  O   UNL     1     -10.567   8.601  68.094  1.00  0.00    -0.204 OA 
HETATM    6  C   UNL     1     -10.620   9.704  70.677  1.00  0.00    -0.319 C  
HETATM    7  N   UNL     1     -11.306   6.148  70.968  1.00  0.00    -0.303 N  
HETATM    8  O   UNL     1     -10.270   4.349  70.159  1.00  0.00    -0.180 OA 
HETATM    9  C   UNL     1     -10.433   7.867  69.069  1.00  0.00    -0.198 C  
HETATM   10  C   UNL     1     -11.470   7.481  71.188  1.00  0.00    -0.273 C  
HETATM   11  H   UNL     1     -11.882   5.517  71.527  1.00  0.00     0.000 HD 
HETATM   12  O   UNL     1     -12.189   7.865  72.104  1.00  0.00    -0.309 OA 
HETATM   13  N   UNL     1     -10.755   8.303  70.351  1.00  0.00    -0.229 N  
BRANCH   3  14
HETATM   14  C   UNL     1      -9.472   5.772  67.723  1.00  0.00    -0.116 A  
HETATM   15  C   UNL     1      -8.149   4.390  66.213  1.00  0.00    -0.102 A  
HETATM   16  C   UNL     1     -10.511   4.574  65.839  1.00  0.00    -0.262 A  
HETATM   17  C   UNL     1     -10.597   5.442  66.926  1.00  0.00    -0.320 A  
HETATM   18  C   UNL     1      -8.233   5.271  67.301  1.00  0.00    -0.104 A  
HETATM   19  C   UNL     1      -9.288   4.021  65.501  1.00  0.00    -0.159 A  
ENDBRANCH   3  14
ENDBRANCH   2   3
TORSDOF 2
ENDMDL
MODEL      114
REMARK 921   NORMALIZED FREE ENERGY PREDICTED BY IDOCK:   -3.67 KCAL/MOL
REMARK 922        TOTAL FREE ENERGY PREDICTED BY IDOCK:   -3.87 KCAL/MOL
REMARK 923 INTER-LIGAND FREE ENERGY PREDICTED BY IDOCK:   -4.23 KCAL/MOL
REMARK 924 INTRA-LIGAND FREE ENERGY PREDICTED BY IDOCK:    0.36 KCAL/MOL
REMARK 927      BINDING AFFINITY PREDICTED BY RF-SCORE:    0.00 PKD
ROOT
HETATM    1  C   UNL     1     -10.536  10.237  66.032  1.00  0.00    -0.181 C  
HETATM    2  C   UNL     1     -10.159   9.653  67.405  1.00  0.00    -0.257 C  
ENDROOT
BRANCH   2   3
HETATM    3  C   UNL     1     -10.115  10.725  68.562  1.00  0.00    -0.187 C  
HETATM    4  C   UNL     1     -11.548  11.251  68.835  1.00  0.00    -0.319 C  
HETATM    5  O   UNL     1      -8.517   9.808  70.208  1.00  0.00    -0.190 OA 
HETATM    6  C   UNL     1     -10.311   7.697  70.673  1.00  0.00    -0.205 C  
HETATM    7  N   UNL     1     -12.257  10.652  69.846  1.00  0.00    -0.453 N  
HETATM    8  O   UNL     1     -12.117  12.121  68.177  1.00  0.00    -0.447 OA 
HETATM    9  C   UNL     1      -9.664   9.880  69.774  1.00  0.00    -0.236 C  
HETATM   10  C   UNL     1     -11.903   9.534  70.536  1.00  0.00    -0.183 C  
HETATM   11  H   UNL     1     -13.140  11.091  70.107  1.00  0.00     0.000 HD 
HETATM   12  O   UNL     1     -12.686   9.037  71.338  1.00  0.00    -0.313 OA 
HETATM   13  N   UNL     1     -10.664   9.026  70.229  1.00  0.00    -0.221 N  
BRANCH   3  14
HETATM   14  C   UNL     1      -9.197  11.872  68.060  1.00  0.00    -0.190 A  
HETATM   15  C   UNL     1      -8.502  14.206  67.958  1.00  0.00    -0.171 A  
HETATM   16  C   UNL     1      -6.917  12.502  67.376  1.00  0.00    -0.147 A  
HETATM   17  C   UNL     1      -7.898  11.538  67.600  1.00  0.00    -0.125 A  
HETATM   18  C   UNL     1      -9.493  13.237  68.174  1.00  0.00    -0.222 A  
HETATM   19  C   UNL     1      -7.211  13.839  67.587  1.00  0.00    -0.183 A  
ENDBRANCH   3  14
ENDBRANCH   2   3
TORSDOF 2
ENDMDL
MODEL      115
REMARK 921   NORMALIZED FREE ENERGY PREDICTED BY IDOCK:   -3.66 KCAL/MOL
REMARK 922        TOTAL FREE ENERGY PREDICTED BY IDOCK:   -3.86 KCAL/MOL
REMARK 923 INTER-LIGAND FREE ENERGY PREDICTED BY IDOCK:   -3.68 KCAL/MOL
REMARK 924 INTRA-LIGAND FREE ENERGY PREDICTED BY IDOCK:   -0.18 KCAL/MOL
REMARK 927      BINDING AFFINITY PREDICTED BY RF-SCORE:    0.00 PKD
ROOT
HETATM    1  C   UNL     1      -7.219   4.759  71.566  1.00  0.00    -0.068 C  
HETATM    2  C   UNL     1      -8.051   6.015  71.253  1.00  0.00    -0.118 C  
ENDROOT
BRANCH   2   3
HETATM    3  C   UNL     1      -9.545   5.704  70.851  1.00  0.00    -0.212 C  
HETATM    4  C   UNL     1      -9.811   4.183  70.986  1.00  0.00    -0.177 C  
HETATM    5  O   UNL     1     -10.859   7.548  71.840  1.00  0.00    -0.221 OA 
HETATM    6  C   UNL     1     -10.140   6.604  74.387  1.00  0.00    -0.315 C  
HETATM    7  N   UNL     1     -10.368   3.742  72.160  1.00  0.00    -0.109 N  
HETATM    8  O   UNL     1      -9.507   3.337  70.145  1.00  0.00    -0.166 OA 
HETATM    9  C   UNL     1     -10.341   6.440  71.952  1.00  0.00    -0.202 C  
HETATM   10  C   UNL     1     -10.567   4.473  73.291  1.00  0.00    -0.216 C  
HETATM   11  H   UNL     1     -10.663   2.766  72.188  1.00  0.00     0.000 HD 
HETATM   12  O   UNL     1     -10.968   3.923  74.311  1.00  0.00    -0.171 OA 
HETATM   13  N   UNL     1     -10.251   5.806  73.188  1.00  0.00    -0.183 N  
BRANCH   3  14
HETATM   14  C   UNL     1      -9.704   6.159  69.375  1.00  0.00    -0.172 A  
HETATM   15  C   UNL     1     -11.033   6.721  67.411  1.00  0.00    -0.407 A  
HETATM   16  C   UNL     1      -8.792   7.562  67.569  1.00  0.00    -0.127 A  
HETATM   17  C   UNL     1      -8.646   6.893  68.783  1.00  0.00    -0.124 A  
HETATM   18  C   UNL     1     -10.883   6.040  68.627  1.00  0.00    -0.379 A  
HETATM   19  C   UNL     1     -10.001   7.502  66.896  1.00  0.00    -0.318 A  
ENDBRANCH   3  14
ENDBRANCH   2   3
TORSDOF 2
ENDMDL
MODEL      116
REMARK 921   NORMALIZED FREE ENERGY PREDICTED BY IDOCK:   -3.65 KCAL/MOL
REMARK 922        TOTAL FREE ENERGY PREDICTED BY IDOCK:   -3.85 KCAL/MOL
REMARK 923 INTER-LIGAND FREE ENERGY PREDICTED BY IDOCK:   -3.82 KCAL/MOL
REMARK 924 INTRA-LIGAND FREE ENERGY PREDICTED BY IDOCK:   -0.03 KCAL/MOL
REMARK 927      BINDING AFFINITY PREDICTED BY RF-SCORE:    0.00 PKD
ROOT
HETATM    1  C   UNL     1      -8.758   4.315  68.978  1.00  0.00    -0.119 C  
HETATM    2  C   UNL     1     -10.080   4.749  69.636  1.00  0.00    -0.275 C  
ENDROOT
BRANCH   2   3
HETATM    3  C   UNL     1     -10.039   6.203  70.248  1.00  0.00    -0.237 C  
HETATM    4  C   UNL     1     -11.301   6.434  71.117  1.00  0.00    -0.319 C  
HETATM    5  O   UNL     1      -7.682   6.541  70.908  1.00  0.00    -0.097 OA 
HETATM    6  C   UNL     1      -7.997   4.505  72.818  1.00  0.00    -0.092 C  
HETATM    7  N   UNL     1     -11.188   6.206  72.465  1.00  0.00    -0.274 N  
HETATM    8  O   UNL     1     -12.409   6.750  70.683  1.00  0.00    -0.359 OA 
HETATM    9  C   UNL     1      -8.808   6.132  71.179  1.00  0.00    -0.139 C  
HETATM   10  C   UNL     1     -10.130   5.640  73.109  1.00  0.00    -0.181 C  
HETATM   11  H   UNL     1     -11.979   6.489  73.045  1.00  0.00     0.000 HD 
HETATM   12  O   UNL     1     -10.208   5.387  74.306  1.00  0.00    -0.226 OA 
HETATM   13  N   UNL     1      -9.044   5.363  72.314  1.00  0.00    -0.142 N  
BRANCH   3  14
HETATM   14  C   UNL     1     -10.017   7.183  69.043  1.00  0.00    -0.174 A  
HETATM   15  C   UNL     1     -10.745   7.927  66.839  1.00  0.00    -0.219 A  
HETATM   16  C   UNL     1      -9.761   9.527  68.332  1.00  0.00    -0.168 A  
HETATM   17  C   UNL     1      -9.577   8.512  69.269  1.00  0.00    -0.170 A  
HETATM   18  C   UNL     1     -10.551   6.904  67.779  1.00  0.00    -0.305 A  
HETATM   19  C   UNL     1     -10.376   9.240  67.125  1.00  0.00    -0.330 A  
ENDBRANCH   3  14
ENDBRANCH   2   3
TORSDOF 2
ENDMDL
MODEL      117
REMARK 921   NORMALIZED FREE ENERGY PREDICTED BY IDOCK:   -3.65 KCAL/MOL
REMARK 922        TOTAL FREE ENERGY PREDICTED BY IDOCK:   -3.85 KCAL/MOL
REMARK 923 INTER-LIGAND FREE ENERGY PREDICTED BY IDOCK:   -4.11 KCAL/MOL
REMARK 924 INTRA-LIGAND FREE ENERGY PREDICTED BY IDOCK:    0.26 KCAL/MOL
REMARK 927      BINDING AFFINITY PREDICTED BY RF-SCORE:    0.00 PKD
ROOT
HETATM    1  C   UNL     1     -11.679  13.926  68.028  1.00  0.00    -0.387 C  
HETATM    2  C   UNL     1     -10.572  13.123  68.733  1.00  0.00    -0.225 C  
ENDROOT
BRANCH   2   3
HETATM    3  C   UNL     1      -9.295  12.878  67.838  1.00  0.00    -0.208 C  
HETATM    4  C   UNL     1      -9.684  12.992  66.342  1.00  0.00    -0.268 C  
HETATM    5  O   UNL     1      -7.471  14.065  69.007  1.00  0.00    -0.119 OA 
HETATM    6  C   UNL     1      -8.794  16.485  68.474  1.00  0.00    -0.228 C  
HETATM    7  N   UNL     1      -9.490  14.205  65.731  1.00  0.00    -0.526 N  
HETATM    8  O   UNL     1     -10.205  12.096  65.678  1.00  0.00    -0.243 OA 
HETATM    9  C   UNL     1      -8.402  14.083  68.206  1.00  0.00    -0.162 C  
HETATM   10  C   UNL     1      -9.143  15.374  66.336  1.00  0.00    -0.314 C  
HETATM   11  H   UNL     1      -9.619  14.234  64.719  1.00  0.00     0.000 HD 
HETATM   12  O   UNL     1      -9.117  16.414  65.686  1.00  0.00    -0.446 OA 
HETATM   13  N   UNL     1      -8.880  15.280  67.680  1.00  0.00    -0.172 N  
BRANCH   3  14
HETATM   14  C   UNL     1      -8.799  11.444  68.167  1.00  0.00    -0.162 A  
HETATM   15  C   UNL     1      -7.052   9.780  68.514  1.00  0.00    -0.068 A  
HETATM   16  C   UNL     1      -9.222   9.392  69.462  1.00  0.00    -0.182 A  
HETATM   17  C   UNL     1      -9.662  10.588  68.898  1.00  0.00    -0.206 A  
HETATM   18  C   UNL     1      -7.498  10.979  67.938  1.00  0.00    -0.093 A  
HETATM   19  C   UNL     1      -7.903   9.003  69.296  1.00  0.00    -0.095 A  
ENDBRANCH   3  14
ENDBRANCH   2   3
TORSDOF 2
ENDMDL
MODEL      118
REMARK 921   NORMALIZED FREE ENERGY PREDICTED BY IDOCK:   -3.64 KCAL/MOL
REMARK 922        TOTAL FREE ENERGY PREDICTED BY IDOCK:   -3.84 KCAL/MOL
REMARK 923 INTER-LIGAND FREE ENERGY PREDICTED BY IDOCK:   -3.73 KCAL/MOL
REMARK 924 INTRA-LIGAND FREE ENERGY PREDICTED BY IDOCK:   -0.11 KCAL/MOL
REMARK 927      BINDING AFFINITY PREDICTED BY RF-SCORE:    0.00 PKD
ROOT
HETATM    1  C   UNL     1      -9.713   8.570  66.647  1.00  0.00    -0.318 C  
HETATM    2  C   UNL     1     -10.653   8.615  67.865  1.00  0.00    -0.223 C  
ENDROOT
BRANCH   2   3
HETATM    3  C   UNL     1      -9.920   8.955  69.221  1.00  0.00    -0.192 C  
HETATM    4  C   UNL     1      -8.406   9.152  68.955  1.00  0.00    -0.127 C  
HETATM    5  O   UNL     1     -11.450  10.502  70.391  1.00  0.00    -0.300 OA 
HETATM    6  C   UNL     1     -11.005  12.379  68.349  1.00  0.00    -0.241 C  
HETATM    7  N   UNL     1      -7.962  10.435  68.761  1.00  0.00    -0.113 N  
HETATM    8  O   UNL     1      -7.585   8.242  68.848  1.00  0.00    -0.090 OA 
HETATM    9  C   UNL     1     -10.535  10.322  69.591  1.00  0.00    -0.253 C  
HETATM   10  C   UNL     1      -8.732  11.549  68.613  1.00  0.00    -0.103 C  
HETATM   11  H   UNL     1      -6.951  10.569  68.722  1.00  0.00     0.000 HD 
HETATM   12  O   UNL     1      -8.208  12.620  68.328  1.00  0.00    -0.159 OA 
HETATM   13  N   UNL     1     -10.082  11.350  68.769  1.00  0.00    -0.206 N  
BRANCH   3  14
HETATM   14  C   UNL     1     -10.158   7.742  70.162  1.00  0.00    -0.197 A  
HETATM   15  C   UNL     1     -10.630   5.390  70.590  1.00  0.00    -0.302 A  
HETATM   16  C   UNL     1      -9.571   6.687  72.308  1.00  0.00    -0.150 A  
HETATM   17  C   UNL     1      -9.639   7.806  71.480  1.00  0.00    -0.187 A  
HETATM   18  C   UNL     1     -10.708   6.518  69.760  1.00  0.00    -0.322 A  
HETATM   19  C   UNL     1     -10.039   5.467  71.849  1.00  0.00    -0.246 A  
ENDBRANCH   3  14
ENDBRANCH   2   3
TORSDOF 2
ENDMDL
MODEL      119
REMARK 921   NORMALIZED FREE ENERGY PREDICTED BY IDOCK:   -3.64 KCAL/MOL
REMARK 922        TOTAL FREE ENERGY PREDICTED BY IDOCK:   -3.84 KCAL/MOL
REMARK 923 INTER-LIGAND FREE ENERGY PREDICTED BY IDOCK:   -3.89 KCAL/MOL
REMARK 924 INTRA-LIGAND FREE ENERGY PREDICTED BY IDOCK:    0.05 KCAL/MOL
REMARK 927      BINDING AFFINITY PREDICTED BY RF-SCORE:    0.00 PKD
ROOT
HETATM    1  C   UNL     1     -11.051  12.097  68.254  1.00  0.00    -0.288 C  
HETATM    2  C   UNL     1     -10.727  11.228  69.481  1.00  0.00    -0.147 C  
ENDROOT
BRANCH   2   3
HETATM    3  C   UNL     1     -10.026   9.859  69.125  1.00  0.00    -0.205 C  
HETATM    4  C   UNL     1     -10.040   9.656  67.588  1.00  0.00    -0.194 C  
HETATM    5  O   UNL     1      -8.073   9.742  70.633  1.00  0.00    -0.264 OA 
HETATM    6  C   UNL     1      -6.992  11.964  69.296  1.00  0.00    -0.046 C  
HETATM    7  N   UNL     1      -8.925  10.046  66.890  1.00  0.00    -0.135 N  
HETATM    8  O   UNL     1     -10.996   9.227  66.943  1.00  0.00    -0.067 OA 
HETATM    9  C   UNL     1      -8.569  10.112  69.572  1.00  0.00    -0.164 C  
HETATM   10  C   UNL     1      -7.864  10.745  67.378  1.00  0.00    -0.111 C  
HETATM   11  H   UNL     1      -8.888   9.785  65.904  1.00  0.00     0.000 HD 
HETATM   12  O   UNL     1      -6.984  11.130  66.616  1.00  0.00    -0.133 OA 
HETATM   13  N   UNL     1      -7.898  10.992  68.728  1.00  0.00    -0.131 N  
BRANCH   3  14
HETATM   14  C   UNL     1     -10.850   8.749  69.832  1.00  0.00    -0.211 A  
HETATM   15  C   UNL     1     -11.302   6.428  70.421  1.00  0.00    -0.453 A  
HETATM   16  C   UNL     1     -12.215   8.168  71.797  1.00  0.00    -0.358 A  
HETATM   17  C   UNL     1     -11.650   9.114  70.944  1.00  0.00    -0.350 A  
HETATM   18  C   UNL     1     -10.741   7.379  69.557  1.00  0.00    -0.233 A  
HETATM   19  C   UNL     1     -12.014   6.820  71.553  1.00  0.00    -0.396 A  
ENDBRANCH   3  14
ENDBRANCH   2   3
TORSDOF 2
ENDMDL
MODEL      120
REMARK 921   NORMALIZED FREE ENERGY PREDICTED BY IDOCK:   -3.64 KCAL/MOL
REMARK 922        TOTAL FREE ENERGY PREDICTED BY IDOCK:   -3.84 KCAL/MOL
REMARK 923 INTER-LIGAND FREE ENERGY PREDICTED BY IDOCK:   -3.91 KCAL/MOL
REMARK 924 INTRA-LIGAND FREE ENERGY PREDICTED BY IDOCK:    0.08 KCAL/MOL
REMARK 927      BINDING AFFINITY PREDICTED BY RF-SCORE:    0.00 PKD
ROOT
HETATM    1  C   UNL     1      -7.862   6.318  71.325  1.00  0.00    -0.108 C  
HETATM    2  C   UNL     1      -8.386   6.347  69.878  1.00  0.00    -0.130 C  
ENDROOT
BRANCH   2   3
HETATM    3  C   UNL     1      -9.863   5.814  69.725  1.00  0.00    -0.232 C  
HETATM    4  C   UNL     1     -10.185   5.605  68.224  1.00  0.00    -0.186 C  
HETATM    5  O   UNL     1     -10.134   4.178  71.557  1.00  0.00    -0.179 OA 
HETATM    6  C   UNL     1      -8.201   2.565  70.310  1.00  0.00    -0.041 C  
HETATM    7  N   UNL     1     -10.014   4.344  67.711  1.00  0.00    -0.091 N  
HETATM    8  O   UNL     1     -10.526   6.496  67.445  1.00  0.00    -0.183 OA 
HETATM    9  C   UNL     1      -9.784   4.430  70.407  1.00  0.00    -0.214 C  
HETATM   10  C   UNL     1      -9.435   3.283  68.338  1.00  0.00    -0.144 C  
HETATM   11  H   UNL     1     -10.355   4.185  66.763  1.00  0.00     0.000 HD 
HETATM   12  O   UNL     1      -9.239   2.242  67.722  1.00  0.00    -0.166 OA 
HETATM   13  N   UNL     1      -9.078   3.502  69.646  1.00  0.00    -0.120 N  
BRANCH   3  14
HETATM   14  C   UNL     1     -10.786   6.903  70.337  1.00  0.00    -0.297 A  
HETATM   15  C   UNL     1     -12.647   7.635  71.731  1.00  0.00    -0.359 A  
HETATM   16  C   UNL     1     -10.927   9.213  71.178  1.00  0.00    -0.390 A  
HETATM   17  C   UNL     1     -10.292   8.229  70.422  1.00  0.00    -0.214 A  
HETATM   18  C   UNL     1     -12.014   6.647  70.962  1.00  0.00    -0.415 A  
HETATM   19  C   UNL     1     -12.091   8.906  71.861  1.00  0.00    -0.443 A  
ENDBRANCH   3  14
ENDBRANCH   2   3
TORSDOF 2
ENDMDL
MODEL      121
REMARK 921   NORMALIZED FREE ENERGY PREDICTED BY IDOCK:   -3.60 KCAL/MOL
REMARK 922        TOTAL FREE ENERGY PREDICTED BY IDOCK:   -3.80 KCAL/MOL
REMARK 923 INTER-LIGAND FREE ENERGY PREDICTED BY IDOCK:   -3.66 KCAL/MOL
REMARK 924 INTRA-LIGAND FREE ENERGY PREDICTED BY IDOCK:   -0.13 KCAL/MOL
REMARK 927      BINDING AFFINITY PREDICTED BY RF-SCORE:    0.00 PKD
ROOT
HETATM    1  C   UNL     1      -8.680   5.853  65.948  1.00  0.00    -0.152 C  
HETATM    2  C   UNL     1      -8.042   7.136  66.509  1.00  0.00    -0.114 C  
ENDROOT
BRANCH   2   3
HETATM    3  C   UNL     1      -9.044   8.039  67.328  1.00  0.00    -0.153 C  
HETATM    4  C   UNL     1     -10.327   7.230  67.647  1.00  0.00    -0.227 C  
HETATM    5  O   UNL     1      -7.617   9.274  68.922  1.00  0.00    -0.074 OA 
HETATM    6  C   UNL     1      -7.004   6.829  70.164  1.00  0.00    -0.066 C  
HETATM    7  N   UNL     1     -10.391   6.604  68.866  1.00  0.00    -0.180 N  
HETATM    8  O   UNL     1     -11.265   7.059  66.868  1.00  0.00    -0.302 OA 
HETATM    9  C   UNL     1      -8.272   8.273  68.646  1.00  0.00    -0.120 C  
HETATM   10  C   UNL     1      -9.380   6.478  69.770  1.00  0.00    -0.147 C  
HETATM   11  H   UNL     1     -11.288   6.190  69.122  1.00  0.00     0.000 HD 
HETATM   12  O   UNL     1      -9.539   5.791  70.773  1.00  0.00    -0.165 OA 
HETATM   13  N   UNL     1      -8.218   7.131  69.440  1.00  0.00    -0.130 N  
BRANCH   3  14
HETATM   14  C   UNL     1      -9.376   9.256  66.423  1.00  0.00    -0.247 A  
HETATM   15  C   UNL     1      -9.567  10.361  64.259  1.00  0.00    -0.377 A  
HETATM   16  C   UNL     1     -10.817  11.229  66.113  1.00  0.00    -0.281 A  
HETATM   17  C   UNL     1     -10.258  10.245  66.927  1.00  0.00    -0.286 A  
HETATM   18  C   UNL     1      -8.996   9.377  65.080  1.00  0.00    -0.258 A  
HETATM   19  C   UNL     1     -10.495  11.266  64.767  1.00  0.00    -0.384 A  
ENDBRANCH   3  14
ENDBRANCH   2   3
TORSDOF 2
ENDMDL
MODEL      122
REMARK 921   NORMALIZED FREE ENERGY PREDICTED BY IDOCK:   -3.60 KCAL/MOL
REMARK 922        TOTAL FREE ENERGY PREDICTED BY IDOCK:   -3.79 KCAL/MOL
REMARK 923 INTER-LIGAND FREE ENERGY PREDICTED BY IDOCK:   -3.64 KCAL/MOL
REMARK 924 INTRA-LIGAND FREE ENERGY PREDICTED BY IDOCK:   -0.15 KCAL/MOL
REMARK 927      BINDING AFFINITY PREDICTED BY RF-SCORE:    0.00 PKD
ROOT
HETATM    1  C   UNL     1     -11.397  11.081  67.930  1.00  0.00    -0.381 C  
HETATM    2  C   UNL     1     -10.913   9.716  67.409  1.00  0.00    -0.139 C  
ENDROOT
BRANCH   2   3
HETATM    3  C   UNL     1      -9.375   9.454  67.644  1.00  0.00    -0.146 C  
HETATM    4  C   UNL     1      -8.796  10.562  68.560  1.00  0.00    -0.144 C  
HETATM    5  O   UNL     1      -9.193   7.009  67.949  1.00  0.00    -0.127 OA 
HETATM    6  C   UNL     1     -10.684   7.262  70.316  1.00  0.00    -0.236 C  
HETATM    7  N   UNL     1      -8.723  10.294  69.904  1.00  0.00    -0.380 N  
HETATM    8  O   UNL     1      -8.452  11.682  68.183  1.00  0.00    -0.142 OA 
HETATM    9  C   UNL     1      -9.385   8.124  68.428  1.00  0.00    -0.135 C  
HETATM   10  C   UNL     1      -9.255   9.219  70.549  1.00  0.00    -0.261 C  
HETATM   11  H   UNL     1      -8.219  10.969  70.479  1.00  0.00     0.000 HD 
HETATM   12  O   UNL     1      -9.218   9.161  71.773  1.00  0.00    -0.338 OA 
HETATM   13  N   UNL     1      -9.840   8.280  69.734  1.00  0.00    -0.184 N  
BRANCH   3  14
HETATM   14  C   UNL     1      -8.705   9.497  66.243  1.00  0.00    -0.158 A  
HETATM   15  C   UNL     1      -6.966   8.880  64.651  1.00  0.00    -0.084 A  
HETATM   16  C   UNL     1      -9.078   9.650  63.813  1.00  0.00    -0.220 A  
HETATM   17  C   UNL     1      -9.511   9.833  65.126  1.00  0.00    -0.338 A  
HETATM   18  C   UNL     1      -7.398   9.074  65.972  1.00  0.00    -0.094 A  
HETATM   19  C   UNL     1      -7.812   9.141  63.576  1.00  0.00    -0.132 A  
ENDBRANCH   3  14
ENDBRANCH   2   3
TORSDOF 2
ENDMDL
MODEL      123
REMARK 921   NORMALIZED FREE ENERGY PREDICTED BY IDOCK:   -3.57 KCAL/MOL
REMARK 922        TOTAL FREE ENERGY PREDICTED BY IDOCK:   -3.77 KCAL/MOL
REMARK 923 INTER-LIGAND FREE ENERGY PREDICTED BY IDOCK:   -3.62 KCAL/MOL
REMARK 924 INTRA-LIGAND FREE ENERGY PREDICTED BY IDOCK:   -0.15 KCAL/MOL
REMARK 927      BINDING AFFINITY PREDICTED BY RF-SCORE:    0.00 PKD
ROOT
HETATM    1  C   UNL     1     -11.997   7.865  70.971  1.00  0.00    -0.268 C  
HETATM    2  C   UNL     1     -11.164   6.661  70.497  1.00  0.00    -0.388 C  
ENDROOT
BRANCH   2   3
HETATM    3  C   UNL     1      -9.705   7.040  70.030  1.00  0.00    -0.171 C  
HETATM    4  C   UNL     1      -9.504   8.572  70.155  1.00  0.00    -0.165 C  
HETATM    5  O   UNL     1      -8.265   5.260  70.958  1.00  0.00    -0.111 OA 
HETATM    6  C   UNL     1      -8.915   6.172  73.535  1.00  0.00    -0.124 C  
HETATM    7  N   UNL     1      -8.918   9.040  71.304  1.00  0.00    -0.234 N  
HETATM    8  O   UNL     1      -9.884   9.403  69.330  1.00  0.00    -0.163 OA 
HETATM    9  C   UNL     1      -8.829   6.343  71.094  1.00  0.00    -0.138 C  
HETATM   10  C   UNL     1      -8.636   8.320  72.424  1.00  0.00    -0.206 C  
HETATM   11  H   UNL     1      -8.667  10.029  71.320  1.00  0.00     0.000 HD 
HETATM   12  O   UNL     1      -8.216   8.888  73.426  1.00  0.00    -0.328 OA 
HETATM   13  N   UNL     1      -8.893   6.974  72.333  1.00  0.00    -0.128 N  
BRANCH   3  14
HETATM   14  C   UNL     1      -9.590   6.592  68.548  1.00  0.00    -0.123 A  
HETATM   15  C   UNL     1      -8.326   5.871  66.592  1.00  0.00    -0.110 A  
HETATM   16  C   UNL     1     -10.670   5.370  66.702  1.00  0.00    -0.309 A  
HETATM   17  C   UNL     1     -10.735   6.033  67.927  1.00  0.00    -0.363 A  
HETATM   18  C   UNL     1      -8.394   6.547  67.820  1.00  0.00    -0.119 A  
HETATM   19  C   UNL     1      -9.454   5.261  66.048  1.00  0.00    -0.169 A  
ENDBRANCH   3  14
ENDBRANCH   2   3
TORSDOF 2
ENDMDL
MODEL      124
REMARK 921   NORMALIZED FREE ENERGY PREDICTED BY IDOCK:   -3.57 KCAL/MOL
REMARK 922        TOTAL FREE ENERGY PREDICTED BY IDOCK:   -3.76 KCAL/MOL
REMARK 923 INTER-LIGAND FREE ENERGY PREDICTED BY IDOCK:   -4.32 KCAL/MOL
REMARK 924 INTRA-LIGAND FREE ENERGY PREDICTED BY IDOCK:    0.56 KCAL/MOL
REMARK 927      BINDING AFFINITY PREDICTED BY RF-SCORE:    0.00 PKD
ROOT
HETATM    1  C   UNL     1     -10.796  10.737  68.672  1.00  0.00    -0.260 C  
HETATM    2  C   UNL     1     -10.502  10.597  67.168  1.00  0.00    -0.295 C  
ENDROOT
BRANCH   2   3
HETATM    3  C   UNL     1      -9.542  11.714  66.601  1.00  0.00    -0.220 C  
HETATM    4  C   UNL     1      -9.062  12.622  67.762  1.00  0.00    -0.192 C  
HETATM    5  O   UNL     1      -8.141  10.550  64.932  1.00  0.00    -0.153 OA 
HETATM    6  C   UNL     1      -7.027   9.037  67.021  1.00  0.00    -0.078 C  
HETATM    7  N   UNL     1      -7.854  12.321  68.339  1.00  0.00    -0.149 N  
HETATM    8  O   UNL     1      -9.708  13.553  68.243  1.00  0.00    -0.218 OA 
HETATM    9  C   UNL     1      -8.339  10.886  66.097  1.00  0.00    -0.168 C  
HETATM   10  C   UNL     1      -7.098  11.212  68.113  1.00  0.00    -0.071 C  
HETATM   11  H   UNL     1      -7.484  12.999  69.006  1.00  0.00     0.000 HD 
HETATM   12  O   UNL     1      -6.092  11.011  68.785  1.00  0.00    -0.043 OA 
HETATM   13  N   UNL     1      -7.574  10.370  67.138  1.00  0.00    -0.095 N  
BRANCH   3  14
HETATM   14  C   UNL     1     -10.377  12.530  65.578  1.00  0.00    -0.303 A  
HETATM   15  C   UNL     1     -12.174  12.774  63.949  1.00  0.00    -0.543 A  
HETATM   16  C   UNL     1     -11.297  14.742  65.005  1.00  0.00    -0.391 A  
HETATM   17  C   UNL     1     -10.389  13.943  65.698  1.00  0.00    -0.337 A  
HETATM   18  C   UNL     1     -11.254  11.971  64.639  1.00  0.00    -0.380 A  
HETATM   19  C   UNL     1     -12.214  14.152  64.152  1.00  0.00    -0.423 A  
ENDBRANCH   3  14
ENDBRANCH   2   3
TORSDOF 2
ENDMDL
MODEL      125
REMARK 921   NORMALIZED FREE ENERGY PREDICTED BY IDOCK:   -3.57 KCAL/MOL
REMARK 922        TOTAL FREE ENERGY PREDICTED BY IDOCK:   -3.76 KCAL/MOL
REMARK 923 INTER-LIGAND FREE ENERGY PREDICTED BY IDOCK:   -3.88 KCAL/MOL
REMARK 924 INTRA-LIGAND FREE ENERGY PREDICTED BY IDOCK:    0.13 KCAL/MOL
REMARK 927      BINDING AFFINITY PREDICTED BY RF-SCORE:    0.00 PKD
ROOT
HETATM    1  C   UNL     1     -10.851   7.241  67.289  1.00  0.00    -0.354 C  
HETATM    2  C   UNL     1     -10.728   5.938  68.097  1.00  0.00    -0.329 C  
ENDROOT
BRANCH   2   3
HETATM    3  C   UNL     1      -9.727   6.035  69.314  1.00  0.00    -0.174 C  
HETATM    4  C   UNL     1      -9.330   4.609  69.772  1.00  0.00    -0.145 C  
HETATM    5  O   UNL     1      -8.213   7.900  68.734  1.00  0.00    -0.124 OA 
HETATM    6  C   UNL     1      -7.255   6.364  66.585  1.00  0.00    -0.077 C  
HETATM    7  N   UNL     1      -8.167   4.086  69.266  1.00  0.00    -0.061 N  
HETATM    8  O   UNL     1     -10.006   3.890  70.507  1.00  0.00    -0.165 OA 
HETATM    9  C   UNL     1      -8.494   6.706  68.669  1.00  0.00    -0.122 C  
HETATM   10  C   UNL     1      -7.399   4.618  68.275  1.00  0.00    -0.065 C  
HETATM   11  H   UNL     1      -7.844   3.208  69.674  1.00  0.00     0.000 HD 
HETATM   12  O   UNL     1      -6.444   3.986  67.836  1.00  0.00    -0.036 OA 
HETATM   13  N   UNL     1      -7.806   5.847  67.817  1.00  0.00    -0.097 N  
BRANCH   3  14
HETATM   14  C   UNL     1     -10.486   6.782  70.444  1.00  0.00    -0.236 A  
HETATM   15  C   UNL     1     -10.720   8.570  72.085  1.00  0.00    -0.426 A  
HETATM   16  C   UNL     1     -12.690   7.422  71.338  1.00  0.00    -0.408 A  
HETATM   17  C   UNL     1     -11.890   6.609  70.537  1.00  0.00    -0.430 A  
HETATM   18  C   UNL     1      -9.914   7.745  71.286  1.00  0.00    -0.199 A  
HETATM   19  C   UNL     1     -12.105   8.427  72.090  1.00  0.00    -0.435 A  
ENDBRANCH   3  14
ENDBRANCH   2   3
TORSDOF 2
ENDMDL
MODEL      126
REMARK 921   NORMALIZED FREE ENERGY PREDICTED BY IDOCK:   -3.56 KCAL/MOL
REMARK 922        TOTAL FREE ENERGY PREDICTED BY IDOCK:   -3.75 KCAL/MOL
REMARK 923 INTER-LIGAND FREE ENERGY PREDICTED BY IDOCK:   -3.85 KCAL/MOL
REMARK 924 INTRA-LIGAND FREE ENERGY PREDICTED BY IDOCK:    0.10 KCAL/MOL
REMARK 927      BINDING AFFINITY PREDICTED BY RF-SCORE:    0.00 PKD
ROOT
HETATM    1  C   UNL     1     -10.601   5.633  69.693  1.00  0.00    -0.401 C  
HETATM    2  C   UNL     1     -11.116   6.912  69.009  1.00  0.00    -0.188 C  
ENDROOT
BRANCH   2   3
HETATM    3  C   UNL     1     -10.201   8.175  69.251  1.00  0.00    -0.216 C  
HETATM    4  C   UNL     1     -10.909   9.439  68.701  1.00  0.00    -0.109 C  
HETATM    5  O   UNL     1      -9.263   7.848  71.513  1.00  0.00    -0.130 OA 
HETATM    6  C   UNL     1     -11.860   8.101  72.553  1.00  0.00    -0.376 C  
HETATM    7  N   UNL     1     -11.638  10.190  69.588  1.00  0.00    -0.414 N  
HETATM    8  O   UNL     1     -10.916   9.786  67.520  1.00  0.00    -0.275 OA 
HETATM    9  C   UNL     1     -10.167   8.264  70.793  1.00  0.00    -0.192 C  
HETATM   10  C   UNL     1     -11.944   9.861  70.873  1.00  0.00    -0.345 C  
HETATM   11  H   UNL     1     -11.986  11.088  69.250  1.00  0.00     0.000 HD 
HETATM   12  O   UNL     1     -12.703  10.572  71.522  1.00  0.00    -0.387 OA 
HETATM   13  N   UNL     1     -11.377   8.695  71.328  1.00  0.00    -0.266 N  
BRANCH   3  14
HETATM   14  C   UNL     1      -8.878   7.910  68.482  1.00  0.00    -0.134 A  
HETATM   15  C   UNL     1      -6.449   7.911  68.282  1.00  0.00    -0.054 A  
HETATM   16  C   UNL     1      -7.726   6.467  66.853  1.00  0.00    -0.100 A  
HETATM   17  C   UNL     1      -8.895   6.963  67.427  1.00  0.00    -0.118 A  
HETATM   18  C   UNL     1      -7.626   8.417  68.853  1.00  0.00    -0.096 A  
HETATM   19  C   UNL     1      -6.497   6.920  67.304  1.00  0.00    -0.049 A  
ENDBRANCH   3  14
ENDBRANCH   2   3
TORSDOF 2
ENDMDL
MODEL      127
REMARK 921   NORMALIZED FREE ENERGY PREDICTED BY IDOCK:   -3.54 KCAL/MOL
REMARK 922        TOTAL FREE ENERGY PREDICTED BY IDOCK:   -3.72 KCAL/MOL
REMARK 923 INTER-LIGAND FREE ENERGY PREDICTED BY IDOCK:   -3.63 KCAL/MOL
REMARK 924 INTRA-LIGAND FREE ENERGY PREDICTED BY IDOCK:   -0.09 KCAL/MOL
REMARK 927      BINDING AFFINITY PREDICTED BY RF-SCORE:    0.00 PKD
ROOT
HETATM    1  C   UNL     1      -9.475   8.651  72.093  1.00  0.00    -0.373 C  
HETATM    2  C   UNL     1      -8.682   7.725  71.155  1.00  0.00    -0.141 C  
ENDROOT
BRANCH   2   3
HETATM    3  C   UNL     1      -9.568   7.030  70.049  1.00  0.00    -0.164 C  
HETATM    4  C   UNL     1     -11.015   7.582  70.123  1.00  0.00    -0.254 C  
HETATM    5  O   UNL     1      -8.110   6.911  68.058  1.00  0.00    -0.113 OA 
HETATM    6  C   UNL     1      -8.141   9.719  67.952  1.00  0.00    -0.112 C  
HETATM    7  N   UNL     1     -11.338   8.617  69.282  1.00  0.00    -0.307 N  
HETATM    8  O   UNL     1     -11.875   7.202  70.917  1.00  0.00    -0.317 OA 
HETATM    9  C   UNL     1      -8.917   7.535  68.743  1.00  0.00    -0.129 C  
HETATM   10  C   UNL     1     -10.481   9.326  68.498  1.00  0.00    -0.206 C  
HETATM   11  H   UNL     1     -12.323   8.882  69.241  1.00  0.00     0.000 HD 
HETATM   12  O   UNL     1     -10.885  10.306  67.881  1.00  0.00    -0.244 OA 
HETATM   13  N   UNL     1      -9.182   8.880  68.502  1.00  0.00    -0.137 N  
BRANCH   3  14
HETATM   14  C   UNL     1      -9.546   5.509  70.363  1.00  0.00    -0.224 A  
HETATM   15  C   UNL     1      -9.527   3.161  69.711  1.00  0.00    -0.198 A  
HETATM   16  C   UNL     1      -8.735   3.760  71.895  1.00  0.00    -0.121 A  
HETATM   17  C   UNL     1      -9.037   5.092  71.619  1.00  0.00    -0.166 A  
HETATM   18  C   UNL     1      -9.840   4.500  69.437  1.00  0.00    -0.260 A  
HETATM   19  C   UNL     1      -8.951   2.795  70.925  1.00  0.00    -0.163 A  
ENDBRANCH   3  14
ENDBRANCH   2   3
TORSDOF 2
ENDMDL
MODEL      128
REMARK 921   NORMALIZED FREE ENERGY PREDICTED BY IDOCK:   -3.51 KCAL/MOL
REMARK 922        TOTAL FREE ENERGY PREDICTED BY IDOCK:   -3.69 KCAL/MOL
REMARK 923 INTER-LIGAND FREE ENERGY PREDICTED BY IDOCK:   -3.57 KCAL/MOL
REMARK 924 INTRA-LIGAND FREE ENERGY PREDICTED BY IDOCK:   -0.12 KCAL/MOL
REMARK 927      BINDING AFFINITY PREDICTED BY RF-SCORE:    0.00 PKD
ROOT
HETATM    1  C   UNL     1     -12.513   7.304  71.366  1.00  0.00    -0.418 C  
HETATM    2  C   UNL     1     -11.643   6.543  70.351  1.00  0.00    -0.470 C  
ENDROOT
BRANCH   2   3
HETATM    3  C   UNL     1     -10.106   6.891  70.443  1.00  0.00    -0.201 C  
HETATM    4  C   UNL     1      -9.850   7.775  71.690  1.00  0.00    -0.163 C  
HETATM    5  O   UNL     1      -8.949   4.797  69.827  1.00  0.00    -0.090 OA 
HETATM    6  C   UNL     1      -9.995   3.615  72.151  1.00  0.00    -0.168 C  
HETATM    7  N   UNL     1      -9.452   7.141  72.840  1.00  0.00    -0.145 N  
HETATM    8  O   UNL     1     -10.033   8.991  71.742  1.00  0.00    -0.325 OA 
HETATM    9  C   UNL     1      -9.470   5.504  70.685  1.00  0.00    -0.165 C  
HETATM   10  C   UNL     1      -9.411   5.798  73.056  1.00  0.00    -0.150 C  
HETATM   11  H   UNL     1      -9.155   7.739  73.612  1.00  0.00     0.000 HD 
HETATM   12  O   UNL     1      -9.146   5.367  74.173  1.00  0.00    -0.118 OA 
HETATM   13  N   UNL     1      -9.719   5.021  71.966  1.00  0.00    -0.159 N  
BRANCH   3  14
HETATM   14  C   UNL     1      -9.754   7.664  69.142  1.00  0.00    -0.164 A  
HETATM   15  C   UNL     1     -10.345   8.944  67.154  1.00  0.00    -0.351 A  
HETATM   16  C   UNL     1      -8.114   9.119  68.021  1.00  0.00    -0.105 A  
HETATM   17  C   UNL     1      -8.448   8.201  69.015  1.00  0.00    -0.129 A  
HETATM   18  C   UNL     1     -10.678   8.013  68.148  1.00  0.00    -0.093 A  
HETATM   19  C   UNL     1      -9.075   9.516  67.106  1.00  0.00    -0.152 A  
ENDBRANCH   3  14
ENDBRANCH   2   3
TORSDOF 2
ENDMDL
MODEL      129
REMARK 921   NORMALIZED FREE ENERGY PREDICTED BY IDOCK:   -3.48 KCAL/MOL
REMARK 922        TOTAL FREE ENERGY PREDICTED BY IDOCK:   -3.66 KCAL/MOL
REMARK 923 INTER-LIGAND FREE ENERGY PREDICTED BY IDOCK:   -3.48 KCAL/MOL
REMARK 924 INTRA-LIGAND FREE ENERGY PREDICTED BY IDOCK:   -0.19 KCAL/MOL
REMARK 927      BINDING AFFINITY PREDICTED BY RF-SCORE:    0.00 PKD
ROOT
HETATM    1  C   UNL     1      -8.324   6.488  67.356  1.00  0.00    -0.120 C  
HETATM    2  C   UNL     1      -7.893   7.612  68.315  1.00  0.00    -0.121 C  
ENDROOT
BRANCH   2   3
HETATM    3  C   UNL     1      -9.039   8.647  68.638  1.00  0.00    -0.138 C  
HETATM    4  C   UNL     1     -10.375   8.143  68.036  1.00  0.00    -0.211 C  
HETATM    5  O   UNL     1      -8.615   9.347  70.969  1.00  0.00    -0.274 OA 
HETATM    6  C   UNL     1      -9.182   6.720  71.789  1.00  0.00    -0.147 C  
HETATM    7  N   UNL     1     -11.213   7.438  68.863  1.00  0.00    -0.429 N  
HETATM    8  O   UNL     1     -10.714   8.277  66.860  1.00  0.00    -0.299 OA 
HETATM    9  C   UNL     1      -9.132   8.563  70.177  1.00  0.00    -0.152 C  
HETATM   10  C   UNL     1     -10.929   6.988  70.116  1.00  0.00    -0.272 C  
HETATM   11  H   UNL     1     -12.144   7.229  68.501  1.00  0.00     0.000 HD 
HETATM   12  O   UNL     1     -11.730   6.267  70.702  1.00  0.00    -0.343 OA 
HETATM   13  N   UNL     1      -9.707   7.372  70.611  1.00  0.00    -0.175 N  
BRANCH   3  14
HETATM   14  C   UNL     1      -8.614   9.989  67.981  1.00  0.00    -0.121 A  
HETATM   15  C   UNL     1      -8.706  12.413  67.747  1.00  0.00    -0.176 A  
HETATM   16  C   UNL     1      -6.779  11.245  66.925  1.00  0.00    -0.135 A  
HETATM   17  C   UNL     1      -7.363  10.042  67.316  1.00  0.00    -0.090 A  
HETATM   18  C   UNL     1      -9.299  11.201  68.132  1.00  0.00    -0.176 A  
HETATM   19  C   UNL     1      -7.439  12.438  67.170  1.00  0.00    -0.095 A  
ENDBRANCH   3  14
ENDBRANCH   2   3
TORSDOF 2
ENDMDL
MODEL      130
REMARK 921   NORMALIZED FREE ENERGY PREDICTED BY IDOCK:   -3.46 KCAL/MOL
REMARK 922        TOTAL FREE ENERGY PREDICTED BY IDOCK:   -3.64 KCAL/MOL
REMARK 923 INTER-LIGAND FREE ENERGY PREDICTED BY IDOCK:   -3.66 KCAL/MOL
REMARK 924 INTRA-LIGAND FREE ENERGY PREDICTED BY IDOCK:    0.02 KCAL/MOL
REMARK 927      BINDING AFFINITY PREDICTED BY RF-SCORE:    0.00 PKD
ROOT
HETATM    1  C   UNL     1     -11.247   6.769  70.022  1.00  0.00    -0.380 C  
HETATM    2  C   UNL     1      -9.935   7.302  69.419  1.00  0.00    -0.170 C  
ENDROOT
BRANCH   2   3
HETATM    3  C   UNL     1      -9.486   8.697  70.004  1.00  0.00    -0.170 C  
HETATM    4  C   UNL     1     -10.476   9.135  71.113  1.00  0.00    -0.315 C  
HETATM    5  O   UNL     1      -7.025   8.549  70.165  1.00  0.00    -0.041 OA 
HETATM    6  C   UNL     1      -7.341   6.543  72.106  1.00  0.00    -0.091 C  
HETATM    7  N   UNL     1     -10.140   8.840  72.410  1.00  0.00    -0.245 N  
HETATM    8  O   UNL     1     -11.565   9.674  70.914  1.00  0.00    -0.292 OA 
HETATM    9  C   UNL     1      -8.131   8.356  70.663  1.00  0.00    -0.114 C  
HETATM   10  C   UNL     1      -9.106   8.057  72.825  1.00  0.00    -0.238 C  
HETATM   11  H   UNL     1     -10.726   9.249  73.139  1.00  0.00     0.000 HD 
HETATM   12  O   UNL     1      -8.988   7.780  74.013  1.00  0.00    -0.258 OA 
HETATM   13  N   UNL     1      -8.279   7.605  71.825  1.00  0.00    -0.104 N  
BRANCH   3  14
HETATM   14  C   UNL     1      -9.516   9.698  68.817  1.00  0.00    -0.148 A  
HETATM   15  C   UNL     1      -8.567  11.498  67.474  1.00  0.00    -0.143 A  
HETATM   16  C   UNL     1     -10.230  10.076  66.491  1.00  0.00    -0.291 A  
HETATM   17  C   UNL     1     -10.330   9.387  67.698  1.00  0.00    -0.303 A  
HETATM   18  C   UNL     1      -8.674  10.812  68.693  1.00  0.00    -0.152 A  
HETATM   19  C   UNL     1      -9.322  11.114  66.369  1.00  0.00    -0.207 A  
ENDBRANCH   3  14
ENDBRANCH   2   3
TORSDOF 2
ENDMDL
MODEL      131
REMARK 921   NORMALIZED FREE ENERGY PREDICTED BY IDOCK:   -3.46 KCAL/MOL
REMARK 922        TOTAL FREE ENERGY PREDICTED BY IDOCK:   -3.64 KCAL/MOL
REMARK 923 INTER-LIGAND FREE ENERGY PREDICTED BY IDOCK:   -3.97 KCAL/MOL
REMARK 924 INTRA-LIGAND FREE ENERGY PREDICTED BY IDOCK:    0.33 KCAL/MOL
REMARK 927      BINDING AFFINITY PREDICTED BY RF-SCORE:    0.00 PKD
ROOT
HETATM    1  C   UNL     1      -7.812  17.763  69.270  1.00  0.00     0.146 C  
HETATM    2  C   UNL     1      -7.901  16.562  68.312  1.00  0.00    -0.175 C  
ENDROOT
BRANCH   2   3
HETATM    3  C   UNL     1      -9.358  16.283  67.775  1.00  0.00    -0.216 C  
HETATM    4  C   UNL     1     -10.396  16.805  68.801  1.00  0.00    -0.318 C  
HETATM    5  O   UNL     1      -9.248  16.797  65.361  1.00  0.00    -0.281 OA 
HETATM    6  C   UNL     1      -8.769  19.485  66.025  1.00  0.00    -0.208 C  
HETATM    7  N   UNL     1     -10.904  18.064  68.599  1.00  0.00    -0.218 N  
HETATM    8  O   UNL     1     -10.754  16.201  69.812  1.00  0.00    -0.292 OA 
HETATM    9  C   UNL     1      -9.420  17.176  66.517  1.00  0.00    -0.273 C  
HETATM   10  C   UNL     1     -10.477  18.975  67.683  1.00  0.00    -0.440 C  
HETATM   11  H   UNL     1     -11.682  18.344  69.197  1.00  0.00     0.000 HD 
HETATM   12  O   UNL     1     -10.943  20.110  67.687  1.00  0.00    -0.109 OA 
HETATM   13  N   UNL     1      -9.498  18.530  66.829  1.00  0.00    -0.291 N  
BRANCH   3  14
HETATM   14  C   UNL     1      -9.477  14.743  67.612  1.00  0.00    -0.204 A  
HETATM   15  C   UNL     1     -10.640  12.720  66.909  1.00  0.00    -0.257 A  
HETATM   16  C   UNL     1      -8.260  12.641  67.204  1.00  0.00    -0.159 A  
HETATM   17  C   UNL     1      -8.283  13.977  67.599  1.00  0.00    -0.185 A  
HETATM   18  C   UNL     1     -10.665  14.062  67.315  1.00  0.00    -0.278 A  
HETATM   19  C   UNL     1      -9.439  12.019  66.827  1.00  0.00    -0.212 A  
ENDBRANCH   3  14
ENDBRANCH   2   3
TORSDOF 2
ENDMDL
MODEL      132
REMARK 921   NORMALIZED FREE ENERGY PREDICTED BY IDOCK:   -3.44 KCAL/MOL
REMARK 922        TOTAL FREE ENERGY PREDICTED BY IDOCK:   -3.62 KCAL/MOL
REMARK 923 INTER-LIGAND FREE ENERGY PREDICTED BY IDOCK:   -3.76 KCAL/MOL
REMARK 924 INTRA-LIGAND FREE ENERGY PREDICTED BY IDOCK:    0.14 KCAL/MOL
REMARK 927      BINDING AFFINITY PREDICTED BY RF-SCORE:    0.00 PKD
ROOT
HETATM    1  C   UNL     1     -10.097   9.394  67.595  1.00  0.00    -0.262 C  
HETATM    2  C   UNL     1     -10.580   8.046  67.030  1.00  0.00    -0.364 C  
ENDROOT
BRANCH   2   3
HETATM    3  C   UNL     1      -9.613   6.840  67.347  1.00  0.00    -0.158 C  
HETATM    4  C   UNL     1      -9.864   5.695  66.333  1.00  0.00    -0.154 C  
HETATM    5  O   UNL     1      -7.452   7.899  67.907  1.00  0.00    -0.099 OA 
HETATM    6  C   UNL     1      -7.296   8.823  65.258  1.00  0.00    -0.085 C  
HETATM    7  N   UNL     1      -9.053   5.643  65.228  1.00  0.00    -0.347 N  
HETATM    8  O   UNL     1     -10.771   4.867  66.415  1.00  0.00    -0.281 OA 
HETATM    9  C   UNL     1      -8.223   7.452  67.062  1.00  0.00    -0.121 C  
HETATM   10  C   UNL     1      -8.150   6.583  64.836  1.00  0.00    -0.119 C  
HETATM   11  H   UNL     1      -9.135   4.813  64.639  1.00  0.00     0.000 HD 
HETATM   12  O   UNL     1      -7.572   6.465  63.761  1.00  0.00    -0.078 OA 
HETATM   13  N   UNL     1      -7.993   7.638  65.702  1.00  0.00    -0.109 N  
BRANCH   3  14
HETATM   14  C   UNL     1      -9.950   6.378  68.791  1.00  0.00    -0.165 A  
HETATM   15  C   UNL     1      -9.344   5.789  71.077  1.00  0.00    -0.183 A  
HETATM   16  C   UNL     1     -11.605   6.443  70.613  1.00  0.00    -0.412 A  
HETATM   17  C   UNL     1     -11.270   6.581  69.267  1.00  0.00    -0.390 A  
HETATM   18  C   UNL     1      -9.009   5.919  69.721  1.00  0.00    -0.135 A  
HETATM   19  C   UNL     1     -10.630   6.077  71.526  1.00  0.00    -0.295 A  
ENDBRANCH   3  14
ENDBRANCH   2   3
TORSDOF 2
ENDMDL
MODEL      133
REMARK 921   NORMALIZED FREE ENERGY PREDICTED BY IDOCK:   -3.44 KCAL/MOL
REMARK 922        TOTAL FREE ENERGY PREDICTED BY IDOCK:   -3.61 KCAL/MOL
REMARK 923 INTER-LIGAND FREE ENERGY PREDICTED BY IDOCK:   -3.53 KCAL/MOL
REMARK 924 INTRA-LIGAND FREE ENERGY PREDICTED BY IDOCK:   -0.08 KCAL/MOL
REMARK 927      BINDING AFFINITY PREDICTED BY RF-SCORE:    0.00 PKD
ROOT
HETATM    1  C   UNL     1     -10.659   8.040  67.251  1.00  0.00    -0.360 C  
HETATM    2  C   UNL     1     -10.759   6.916  68.297  1.00  0.00    -0.265 C  
ENDROOT
BRANCH   2   3
HETATM    3  C   UNL     1      -9.816   7.123  69.545  1.00  0.00    -0.162 C  
HETATM    4  C   UNL     1      -9.455   8.625  69.677  1.00  0.00    -0.162 C  
HETATM    5  O   UNL     1     -10.754   5.649  71.292  1.00  0.00    -0.250 OA 
HETATM    6  C   UNL     1     -13.057   7.258  71.318  1.00  0.00    -0.307 C  
HETATM    7  N   UNL     1     -10.219   9.385  70.526  1.00  0.00    -0.251 N  
HETATM    8  O   UNL     1      -8.574   9.197  69.035  1.00  0.00    -0.129 OA 
HETATM    9  C   UNL     1     -10.740   6.737  70.721  1.00  0.00    -0.233 C  
HETATM   10  C   UNL     1     -11.368   9.003  71.148  1.00  0.00    -0.307 C  
HETATM   11  H   UNL     1      -9.892  10.334  70.709  1.00  0.00     0.000 HD 
HETATM   12  O   UNL     1     -12.017   9.822  71.790  1.00  0.00    -0.392 OA 
HETATM   13  N   UNL     1     -11.725   7.691  70.959  1.00  0.00    -0.287 N  
BRANCH   3  14
HETATM   14  C   UNL     1      -8.543   6.275  69.278  1.00  0.00    -0.124 A  
HETATM   15  C   UNL     1      -7.014   5.060  67.819  1.00  0.00    -0.061 A  
HETATM   16  C   UNL     1      -6.212   5.840  69.941  1.00  0.00    -0.026 A  
HETATM   17  C   UNL     1      -7.480   6.349  70.214  1.00  0.00    -0.094 A  
HETATM   18  C   UNL     1      -8.294   5.563  68.097  1.00  0.00    -0.099 A  
HETATM   19  C   UNL     1      -5.970   5.221  68.726  1.00  0.00    -0.021 A  
ENDBRANCH   3  14
ENDBRANCH   2   3
TORSDOF 2
ENDMDL
MODEL      134
REMARK 921   NORMALIZED FREE ENERGY PREDICTED BY IDOCK:   -3.44 KCAL/MOL
REMARK 922        TOTAL FREE ENERGY PREDICTED BY IDOCK:   -3.61 KCAL/MOL
REMARK 923 INTER-LIGAND FREE ENERGY PREDICTED BY IDOCK:   -3.47 KCAL/MOL
REMARK 924 INTRA-LIGAND FREE ENERGY PREDICTED BY IDOCK:   -0.15 KCAL/MOL
REMARK 927      BINDING AFFINITY PREDICTED BY RF-SCORE:    0.00 PKD
ROOT
HETATM    1  C   UNL     1      -9.986   9.319  67.383  1.00  0.00    -0.253 C  
HETATM    2  C   UNL     1     -10.588   7.926  67.639  1.00  0.00    -0.276 C  
ENDROOT
BRANCH   2   3
HETATM    3  C   UNL     1      -9.636   6.961  68.447  1.00  0.00    -0.126 C  
HETATM    4  C   UNL     1      -8.309   7.693  68.768  1.00  0.00    -0.129 C  
HETATM    5  O   UNL     1     -11.126   5.794  70.035  1.00  0.00    -0.348 OA 
HETATM    6  C   UNL     1     -11.596   8.258  71.300  1.00  0.00    -0.281 C  
HETATM    7  N   UNL     1      -8.206   8.304  69.992  1.00  0.00    -0.116 N  
HETATM    8  O   UNL     1      -7.365   7.818  67.987  1.00  0.00    -0.096 OA 
HETATM    9  C   UNL     1     -10.416   6.759  69.765  1.00  0.00    -0.210 C  
HETATM   10  C   UNL     1      -9.205   8.478  70.901  1.00  0.00    -0.175 C  
HETATM   11  H   UNL     1      -7.286   8.664  70.248  1.00  0.00     0.000 HD 
HETATM   12  O   UNL     1      -9.004   9.147  71.909  1.00  0.00    -0.340 OA 
HETATM   13  N   UNL     1     -10.403   7.895  70.570  1.00  0.00    -0.203 N  
BRANCH   3  14
HETATM   14  C   UNL     1      -9.377   5.735  67.530  1.00  0.00    -0.111 A  
HETATM   15  C   UNL     1      -8.584   3.468  67.113  1.00  0.00    -0.117 A  
HETATM   16  C   UNL     1     -10.182   4.429  65.603  1.00  0.00    -0.259 A  
HETATM   17  C   UNL     1     -10.152   5.605  66.350  1.00  0.00    -0.199 A  
HETATM   18  C   UNL     1      -8.546   4.656  67.859  1.00  0.00    -0.106 A  
HETATM   19  C   UNL     1      -9.419   3.345  66.005  1.00  0.00    -0.121 A  
ENDBRANCH   3  14
ENDBRANCH   2   3
TORSDOF 2
ENDMDL
MODEL      135
REMARK 921   NORMALIZED FREE ENERGY PREDICTED BY IDOCK:   -3.43 KCAL/MOL
REMARK 922        TOTAL FREE ENERGY PREDICTED BY IDOCK:   -3.61 KCAL/MOL
REMARK 923 INTER-LIGAND FREE ENERGY PREDICTED BY IDOCK:   -3.48 KCAL/MOL
REMARK 924 INTRA-LIGAND FREE ENERGY PREDICTED BY IDOCK:   -0.13 KCAL/MOL
REMARK 927      BINDING AFFINITY PREDICTED BY RF-SCORE:    0.00 PKD
ROOT
HETATM    1  C   UNL     1      -7.313   6.053  71.539  1.00  0.00    -0.088 C  
HETATM    2  C   UNL     1      -8.267   6.912  70.690  1.00  0.00    -0.120 C  
ENDROOT
BRANCH   2   3
HETATM    3  C   UNL     1      -9.505   6.115  70.121  1.00  0.00    -0.177 C  
HETATM    4  C   UNL     1      -9.457   4.652  70.632  1.00  0.00    -0.172 C  
HETATM    5  O   UNL     1     -11.396   7.696  70.278  1.00  0.00    -0.262 OA 
HETATM    6  C   UNL     1     -11.160   7.596  73.076  1.00  0.00    -0.381 C  
HETATM    7  N   UNL     1     -10.184   4.353  71.757  1.00  0.00    -0.166 N  
HETATM    8  O   UNL     1      -8.772   3.755  70.140  1.00  0.00    -0.063 OA 
HETATM    9  C   UNL     1     -10.694   6.832  70.797  1.00  0.00    -0.233 C  
HETATM   10  C   UNL     1     -10.818   5.238  72.574  1.00  0.00    -0.245 C  
HETATM   11  H   UNL     1     -10.256   3.367  72.006  1.00  0.00     0.000 HD 
HETATM   12  O   UNL     1     -11.335   4.847  73.615  1.00  0.00    -0.303 OA 
HETATM   13  N   UNL     1     -10.785   6.546  72.156  1.00  0.00    -0.215 N  
BRANCH   3  14
HETATM   14  C   UNL     1      -9.379   6.159  68.574  1.00  0.00    -0.117 A  
HETATM   15  C   UNL     1      -8.097   6.304  66.506  1.00  0.00    -0.110 A  
HETATM   16  C   UNL     1     -10.304   5.364  66.434  1.00  0.00    -0.298 A  
HETATM   17  C   UNL     1     -10.432   5.607  67.801  1.00  0.00    -0.275 A  
HETATM   18  C   UNL     1      -8.230   6.557  67.879  1.00  0.00    -0.116 A  
HETATM   19  C   UNL     1      -9.120   5.684  65.791  1.00  0.00    -0.139 A  
ENDBRANCH   3  14
ENDBRANCH   2   3
TORSDOF 2
ENDMDL
MODEL      136
REMARK 921   NORMALIZED FREE ENERGY PREDICTED BY IDOCK:   -3.38 KCAL/MOL
REMARK 922        TOTAL FREE ENERGY PREDICTED BY IDOCK:   -3.55 KCAL/MOL
REMARK 923 INTER-LIGAND FREE ENERGY PREDICTED BY IDOCK:   -3.79 KCAL/MOL
REMARK 924 INTRA-LIGAND FREE ENERGY PREDICTED BY IDOCK:    0.24 KCAL/MOL
REMARK 927      BINDING AFFINITY PREDICTED BY RF-SCORE:    0.00 PKD
ROOT
HETATM    1  C   UNL     1     -10.034   9.020  67.794  1.00  0.00    -0.235 C  
HETATM    2  C   UNL     1      -9.138   8.160  68.703  1.00  0.00    -0.143 C  
ENDROOT
BRANCH   2   3
HETATM    3  C   UNL     1      -9.879   6.919  69.337  1.00  0.00    -0.161 C  
HETATM    4  C   UNL     1     -10.469   6.037  68.207  1.00  0.00    -0.235 C  
HETATM    5  O   UNL     1      -8.420   6.197  71.195  1.00  0.00    -0.123 OA 
HETATM    6  C   UNL     1      -6.460   5.515  69.301  1.00  0.00    -0.038 C  
HETATM    7  N   UNL     1      -9.717   4.971  67.783  1.00  0.00    -0.146 N  
HETATM    8  O   UNL     1     -11.530   6.254  67.624  1.00  0.00    -0.103 OA 
HETATM    9  C   UNL     1      -8.718   6.150  70.004  1.00  0.00    -0.137 C  
HETATM   10  C   UNL     1      -8.431   4.692  68.132  1.00  0.00    -0.101 C  
HETATM   11  H   UNL     1     -10.168   4.320  67.139  1.00  0.00     0.000 HD 
HETATM   12  O   UNL     1      -7.836   3.768  67.587  1.00  0.00    -0.080 OA 
HETATM   13  N   UNL     1      -7.888   5.530  69.075  1.00  0.00    -0.090 N  
BRANCH   3  14
HETATM   14  C   UNL     1     -11.012   7.495  70.229  1.00  0.00    -0.264 A  
HETATM   15  C   UNL     1     -12.892   7.267  71.764  1.00  0.00    -0.369 A  
HETATM   16  C   UNL     1     -11.704   9.350  71.694  1.00  0.00    -0.468 A  
HETATM   17  C   UNL     1     -10.887   8.830  70.692  1.00  0.00    -0.273 A  
HETATM   18  C   UNL     1     -12.076   6.746  70.748  1.00  0.00    -0.402 A  
HETATM   19  C   UNL     1     -12.690   8.555  72.254  1.00  0.00    -0.420 A  
ENDBRANCH   3  14
ENDBRANCH   2   3
TORSDOF 2
ENDMDL
MODEL      137
REMARK 921   NORMALIZED FREE ENERGY PREDICTED BY IDOCK:   -3.36 KCAL/MOL
REMARK 922        TOTAL FREE ENERGY PREDICTED BY IDOCK:   -3.52 KCAL/MOL
REMARK 923 INTER-LIGAND FREE ENERGY PREDICTED BY IDOCK:   -3.64 KCAL/MOL
REMARK 924 INTRA-LIGAND FREE ENERGY PREDICTED BY IDOCK:    0.12 KCAL/MOL
REMARK 927      BINDING AFFINITY PREDICTED BY RF-SCORE:    0.00 PKD
ROOT
HETATM    1  C   UNL     1      -8.249   8.124  72.794  1.00  0.00    -0.231 C  
HETATM    2  C   UNL     1      -9.478   8.219  71.873  1.00  0.00    -0.287 C  
ENDROOT
BRANCH   2   3
HETATM    3  C   UNL     1      -9.558   7.066  70.798  1.00  0.00    -0.164 C  
HETATM    4  C   UNL     1      -8.173   6.382  70.670  1.00  0.00    -0.125 C  
HETATM    5  O   UNL     1     -11.736   5.974  71.208  1.00  0.00    -0.225 OA 
HETATM    6  C   UNL     1     -10.770   5.140  73.711  1.00  0.00    -0.299 C  
HETATM    7  N   UNL     1      -7.960   5.246  71.410  1.00  0.00    -0.111 N  
HETATM    8  O   UNL     1      -7.233   6.812  70.001  1.00  0.00    -0.072 OA 
HETATM    9  C   UNL     1     -10.537   6.070  71.458  1.00  0.00    -0.243 C  
HETATM   10  C   UNL     1      -8.776   4.739  72.374  1.00  0.00    -0.119 C  
HETATM   11  H   UNL     1      -7.101   4.729  71.218  1.00  0.00     0.000 HD 
HETATM   12  O   UNL     1      -8.409   3.778  73.042  1.00  0.00    -0.088 OA 
HETATM   13  N   UNL     1      -9.968   5.401  72.537  1.00  0.00    -0.165 N  
BRANCH   3  14
HETATM   14  C   UNL     1      -9.960   7.743  69.459  1.00  0.00    -0.187 A  
HETATM   15  C   UNL     1     -10.073   9.645  67.940  1.00  0.00    -0.222 A  
HETATM   16  C   UNL     1     -10.279   7.432  67.037  1.00  0.00    -0.357 A  
HETATM   17  C   UNL     1     -10.171   6.916  68.327  1.00  0.00    -0.201 A  
HETATM   18  C   UNL     1      -9.975   9.126  69.240  1.00  0.00    -0.187 A  
HETATM   19  C   UNL     1     -10.197   8.800  66.840  1.00  0.00    -0.357 A  
ENDBRANCH   3  14
ENDBRANCH   2   3
TORSDOF 2
ENDMDL
MODEL      138
REMARK 921   NORMALIZED FREE ENERGY PREDICTED BY IDOCK:   -3.35 KCAL/MOL
REMARK 922        TOTAL FREE ENERGY PREDICTED BY IDOCK:   -3.51 KCAL/MOL
REMARK 923 INTER-LIGAND FREE ENERGY PREDICTED BY IDOCK:   -3.33 KCAL/MOL
REMARK 924 INTRA-LIGAND FREE ENERGY PREDICTED BY IDOCK:   -0.18 KCAL/MOL
REMARK 927      BINDING AFFINITY PREDICTED BY RF-SCORE:    0.00 PKD
ROOT
HETATM    1  C   UNL     1     -10.615   7.389  67.399  1.00  0.00    -0.371 C  
HETATM    2  C   UNL     1     -10.735   6.070  68.183  1.00  0.00    -0.353 C  
ENDROOT
BRANCH   2   3
HETATM    3  C   UNL     1      -9.523   5.797  69.156  1.00  0.00    -0.157 C  
HETATM    4  C   UNL     1      -8.576   7.024  69.160  1.00  0.00    -0.133 C  
HETATM    5  O   UNL     1     -10.529   4.674  71.113  1.00  0.00    -0.130 OA 
HETATM    6  C   UNL     1     -11.930   7.046  71.668  1.00  0.00    -0.329 C  
HETATM    7  N   UNL     1      -8.754   7.954  70.153  1.00  0.00    -0.135 N  
HETATM    8  O   UNL     1      -7.718   7.256  68.308  1.00  0.00    -0.115 OA 
HETATM    9  C   UNL     1     -10.220   5.711  70.531  1.00  0.00    -0.231 C  
HETATM   10  C   UNL     1      -9.779   8.003  71.048  1.00  0.00    -0.160 C  
HETATM   11  H   UNL     1      -8.045   8.684  70.229  1.00  0.00     0.000 HD 
HETATM   12  O   UNL     1      -9.879   8.957  71.811  1.00  0.00    -0.298 OA 
HETATM   13  N   UNL     1     -10.661   6.952  70.983  1.00  0.00    -0.218 N  
BRANCH   3  14
HETATM   14  C   UNL     1      -8.792   4.544  68.602  1.00  0.00    -0.130 A  
HETATM   15  C   UNL     1      -7.201   2.706  68.781  1.00  0.00    -0.048 A  
HETATM   16  C   UNL     1      -8.978   2.544  67.177  1.00  0.00    -0.175 A  
HETATM   17  C   UNL     1      -9.415   3.810  67.561  1.00  0.00    -0.237 A  
HETATM   18  C   UNL     1      -7.635   3.985  69.161  1.00  0.00    -0.054 A  
HETATM   19  C   UNL     1      -7.885   1.976  67.812  1.00  0.00    -0.059 A  
ENDBRANCH   3  14
ENDBRANCH   2   3
TORSDOF 2
ENDMDL
MODEL      139
REMARK 921   NORMALIZED FREE ENERGY PREDICTED BY IDOCK:   -3.33 KCAL/MOL
REMARK 922        TOTAL FREE ENERGY PREDICTED BY IDOCK:   -3.49 KCAL/MOL
REMARK 923 INTER-LIGAND FREE ENERGY PREDICTED BY IDOCK:   -3.53 KCAL/MOL
REMARK 924 INTRA-LIGAND FREE ENERGY PREDICTED BY IDOCK:    0.04 KCAL/MOL
REMARK 927      BINDING AFFINITY PREDICTED BY RF-SCORE:    0.00 PKD
ROOT
HETATM    1  C   UNL     1      -8.273   9.288  64.437  1.00  0.00    -0.151 C  
HETATM    2  C   UNL     1      -8.176  10.519  65.356  1.00  0.00    -0.152 C  
ENDROOT
BRANCH   2   3
HETATM    3  C   UNL     1      -9.125  10.449  66.615  1.00  0.00    -0.169 C  
HETATM    4  C   UNL     1      -9.491   8.972  66.905  1.00  0.00    -0.167 C  
HETATM    5  O   UNL     1      -8.192  12.101  68.197  1.00  0.00    -0.148 OA 
HETATM    6  C   UNL     1      -5.893  10.500  68.407  1.00  0.00    -0.043 C  
HETATM    7  N   UNL     1      -8.732   8.306  67.835  1.00  0.00    -0.134 N  
HETATM    8  O   UNL     1     -10.369   8.335  66.325  1.00  0.00    -0.134 OA 
HETATM    9  C   UNL     1      -8.205  10.959  67.746  1.00  0.00    -0.116 C  
HETATM   10  C   UNL     1      -7.585   8.750  68.418  1.00  0.00    -0.095 C  
HETATM   11  H   UNL     1      -9.062   7.383  68.118  1.00  0.00     0.000 HD 
HETATM   12  O   UNL     1      -6.942   8.004  69.147  1.00  0.00    -0.054 OA 
HETATM   13  N   UNL     1      -7.224  10.034  68.091  1.00  0.00    -0.081 N  
BRANCH   3  14
HETATM   14  C   UNL     1     -10.395  11.266  66.251  1.00  0.00    -0.294 A  
HETATM   15  C   UNL     1     -12.256  12.741  66.801  1.00  0.00    -0.134 A  
HETATM   16  C   UNL     1     -11.530  12.599  64.519  1.00  0.00    -0.389 A  
HETATM   17  C   UNL     1     -10.575  11.658  64.900  1.00  0.00    -0.349 A  
HETATM   18  C   UNL     1     -11.301  11.787  67.184  1.00  0.00    -0.387 A  
HETATM   19  C   UNL     1     -12.352  13.166  65.478  1.00  0.00    -0.529 A  
ENDBRANCH   3  14
ENDBRANCH   2   3
TORSDOF 2
ENDMDL
MODEL      140
REMARK 921   NORMALIZED FREE ENERGY PREDICTED BY IDOCK:   -3.28 KCAL/MOL
REMARK 922        TOTAL FREE ENERGY PREDICTED BY IDOCK:   -3.44 KCAL/MOL
REMARK 923 INTER-LIGAND FREE ENERGY PREDICTED BY IDOCK:   -3.32 KCAL/MOL
REMARK 924 INTRA-LIGAND FREE ENERGY PREDICTED BY IDOCK:   -0.12 KCAL/MOL
REMARK 927      BINDING AFFINITY PREDICTED BY RF-SCORE:    0.00 PKD
ROOT
HETATM    1  C   UNL     1      -6.934   5.831  66.141  1.00  0.00    -0.059 C  
HETATM    2  C   UNL     1      -7.427   4.935  67.290  1.00  0.00    -0.083 C  
ENDROOT
BRANCH   2   3
HETATM    3  C   UNL     1      -8.996   4.926  67.462  1.00  0.00    -0.114 C  
HETATM    4  C   UNL     1      -9.644   5.773  66.337  1.00  0.00    -0.153 C  
HETATM    5  O   UNL     1      -9.546   2.601  68.093  1.00  0.00    -0.199 OA 
HETATM    6  C   UNL     1      -8.668   1.776  65.555  1.00  0.00    -0.118 C  
HETATM    7  N   UNL     1     -10.079   5.108  65.218  1.00  0.00    -0.382 N  
HETATM    8  O   UNL     1      -9.744   7.000  66.346  1.00  0.00    -0.156 OA 
HETATM    9  C   UNL     1      -9.344   3.440  67.219  1.00  0.00    -0.201 C  
HETATM   10  C   UNL     1      -9.859   3.800  64.913  1.00  0.00    -0.183 C  
HETATM   11  H   UNL     1     -10.624   5.650  64.547  1.00  0.00     0.000 HD 
HETATM   12  O   UNL     1     -10.206   3.361  63.822  1.00  0.00    -0.174 OA 
HETATM   13  N   UNL     1      -9.211   3.075  65.882  1.00  0.00    -0.144 N  
BRANCH   3  14
HETATM   14  C   UNL     1      -9.287   5.550  68.854  1.00  0.00    -0.154 A  
HETATM   15  C   UNL     1      -8.800   7.076  70.690  1.00  0.00    -0.150 A  
HETATM   16  C   UNL     1     -11.031   6.225  70.456  1.00  0.00    -0.374 A  
HETATM   17  C   UNL     1     -10.612   5.481  69.354  1.00  0.00    -0.349 A  
HETATM   18  C   UNL     1      -8.376   6.320  69.588  1.00  0.00    -0.125 A  
HETATM   19  C   UNL     1     -10.129   7.050  71.107  1.00  0.00    -0.197 A  
ENDBRANCH   3  14
ENDBRANCH   2   3
TORSDOF 2
ENDMDL
MODEL      141
REMARK 921   NORMALIZED FREE ENERGY PREDICTED BY IDOCK:   -3.20 KCAL/MOL
REMARK 922        TOTAL FREE ENERGY PREDICTED BY IDOCK:   -3.35 KCAL/MOL
REMARK 923 INTER-LIGAND FREE ENERGY PREDICTED BY IDOCK:   -3.27 KCAL/MOL
REMARK 924 INTRA-LIGAND FREE ENERGY PREDICTED BY IDOCK:   -0.08 KCAL/MOL
REMARK 927      BINDING AFFINITY PREDICTED BY RF-SCORE:    0.00 PKD
ROOT
HETATM    1  C   UNL     1     -10.672  10.054  67.612  1.00  0.00    -0.340 C  
HETATM    2  C   UNL     1     -10.891   8.541  67.780  1.00  0.00    -0.065 C  
ENDROOT
BRANCH   2   3
HETATM    3  C   UNL     1      -9.712   7.807  68.531  1.00  0.00    -0.165 C  
HETATM    4  C   UNL     1      -8.934   8.831  69.397  1.00  0.00    -0.145 C  
HETATM    5  O   UNL     1     -10.677   5.653  69.262  1.00  0.00    -0.291 OA 
HETATM    6  C   UNL     1     -12.403   7.080  70.960  1.00  0.00    -0.356 C  
HETATM    7  N   UNL     1      -9.289   8.937  70.718  1.00  0.00    -0.208 N  
HETATM    8  O   UNL     1      -8.066   9.595  68.976  1.00  0.00    -0.095 OA 
HETATM    9  C   UNL     1     -10.472   6.846  69.472  1.00  0.00    -0.223 C  
HETATM   10  C   UNL     1     -10.362   8.356  71.322  1.00  0.00    -0.214 C  
HETATM   11  H   UNL     1      -8.686   9.510  71.309  1.00  0.00     0.000 HD 
HETATM   12  O   UNL     1     -10.629   8.628  72.487  1.00  0.00    -0.300 OA 
HETATM   13  N   UNL     1     -11.095   7.512  70.523  1.00  0.00    -0.257 N  
BRANCH   3  14
HETATM   14  C   UNL     1      -8.794   7.213  67.429  1.00  0.00    -0.119 A  
HETATM   15  C   UNL     1      -7.947   7.089  65.147  1.00  0.00    -0.128 A  
HETATM   16  C   UNL     1      -6.598   6.217  66.928  1.00  0.00    -0.059 A  
HETATM   17  C   UNL     1      -7.606   6.552  67.831  1.00  0.00    -0.103 A  
HETATM   18  C   UNL     1      -8.966   7.418  66.054  1.00  0.00    -0.156 A  
HETATM   19  C   UNL     1      -6.756   6.516  65.585  1.00  0.00    -0.048 A  
ENDBRANCH   3  14
ENDBRANCH   2   3
TORSDOF 2
ENDMDL
MODEL      142
REMARK 921   NORMALIZED FREE ENERGY PREDICTED BY IDOCK:   -3.19 KCAL/MOL
REMARK 922        TOTAL FREE ENERGY PREDICTED BY IDOCK:   -3.33 KCAL/MOL
REMARK 923 INTER-LIGAND FREE ENERGY PREDICTED BY IDOCK:   -3.37 KCAL/MOL
REMARK 924 INTRA-LIGAND FREE ENERGY PREDICTED BY IDOCK:    0.03 KCAL/MOL
REMARK 927      BINDING AFFINITY PREDICTED BY RF-SCORE:    0.00 PKD
ROOT
HETATM    1  C   UNL     1      -7.638   8.780  65.561  1.00  0.00    -0.087 C  
HETATM    2  C   UNL     1      -9.099   8.877  66.033  1.00  0.00    -0.265 C  
ENDROOT
BRANCH   2   3
HETATM    3  C   UNL     1      -9.265   9.541  67.455  1.00  0.00    -0.152 C  
HETATM    4  C   UNL     1      -7.906  10.126  67.915  1.00  0.00    -0.101 C  
HETATM    5  O   UNL     1     -11.441  10.709  67.353  1.00  0.00    -0.436 OA 
HETATM    6  C   UNL     1     -10.353  12.422  65.409  1.00  0.00    -0.277 C  
HETATM    7  N   UNL     1      -7.676  11.456  67.669  1.00  0.00    -0.115 N  
HETATM    8  O   UNL     1      -6.996   9.475  68.428  1.00  0.00    -0.065 OA 
HETATM    9  C   UNL     1     -10.228  10.713  67.158  1.00  0.00    -0.216 C  
HETATM   10  C   UNL     1      -8.448  12.290  66.919  1.00  0.00    -0.159 C  
HETATM   11  H   UNL     1      -6.842  11.862  68.093  1.00  0.00     0.000 HD 
HETATM   12  O   UNL     1      -8.064  13.431  66.684  1.00  0.00     0.149 OA 
HETATM   13  N   UNL     1      -9.613  11.739  66.446  1.00  0.00    -0.212 N  
BRANCH   3  14
HETATM   14  C   UNL     1      -9.728   8.411  68.414  1.00  0.00    -0.168 A  
HETATM   15  C   UNL     1     -11.135   7.516  70.191  1.00  0.00    -0.246 A  
HETATM   16  C   UNL     1     -10.054   5.986  68.693  1.00  0.00    -0.208 A  
HETATM   17  C   UNL     1      -9.462   7.068  68.044  1.00  0.00    -0.126 A  
HETATM   18  C   UNL     1     -10.532   8.605  69.544  1.00  0.00    -0.222 A  
HETATM   19  C   UNL     1     -10.919   6.213  69.751  1.00  0.00    -0.459 A  
ENDBRANCH   3  14
ENDBRANCH   2   3
TORSDOF 2
ENDMDL
MODEL      143
REMARK 921   NORMALIZED FREE ENERGY PREDICTED BY IDOCK:   -3.16 KCAL/MOL
REMARK 922        TOTAL FREE ENERGY PREDICTED BY IDOCK:   -3.30 KCAL/MOL
REMARK 923 INTER-LIGAND FREE ENERGY PREDICTED BY IDOCK:   -3.29 KCAL/MOL
REMARK 924 INTRA-LIGAND FREE ENERGY PREDICTED BY IDOCK:   -0.01 KCAL/MOL
REMARK 927      BINDING AFFINITY PREDICTED BY RF-SCORE:    0.00 PKD
ROOT
HETATM    1  C   UNL     1     -10.878  11.117  66.488  1.00  0.00    -0.302 C  
HETATM    2  C   UNL     1      -9.642  10.203  66.420  1.00  0.00    -0.242 C  
ENDROOT
BRANCH   2   3
HETATM    3  C   UNL     1      -9.089   9.774  67.835  1.00  0.00    -0.126 C  
HETATM    4  C   UNL     1     -10.267   9.645  68.833  1.00  0.00    -0.201 C  
HETATM    5  O   UNL     1      -7.348   8.091  67.346  1.00  0.00    -0.085 OA 
HETATM    6  C   UNL     1      -9.357   6.403  66.344  1.00  0.00    -0.147 C  
HETATM    7  N   UNL     1     -10.804   8.395  69.016  1.00  0.00    -0.421 N  
HETATM    8  O   UNL     1     -10.795  10.585  69.427  1.00  0.00    -0.216 OA 
HETATM    9  C   UNL     1      -8.527   8.363  67.553  1.00  0.00    -0.129 C  
HETATM   10  C   UNL     1     -10.523   7.276  68.294  1.00  0.00    -0.199 C  
HETATM   11  H   UNL     1     -11.484   8.295  69.770  1.00  0.00     0.000 HD 
HETATM   12  O   UNL     1     -11.162   6.248  68.487  1.00  0.00    -0.352 OA 
HETATM   13  N   UNL     1      -9.532   7.421  67.354  1.00  0.00    -0.137 N  
BRANCH   3  14
HETATM   14  C   UNL     1      -8.114  10.898  68.281  1.00  0.00    -0.124 A  
HETATM   15  C   UNL     1      -6.345  11.798  69.696  1.00  0.00    -0.129 A  
HETATM   16  C   UNL     1      -6.733  12.802  67.552  1.00  0.00    -0.154 A  
HETATM   17  C   UNL     1      -7.782  11.909  67.344  1.00  0.00    -0.158 A  
HETATM   18  C   UNL     1      -7.407  10.904  69.491  1.00  0.00    -0.095 A  
HETATM   19  C   UNL     1      -5.991  12.725  68.719  1.00  0.00    -0.071 A  
ENDBRANCH   3  14
ENDBRANCH   2   3
TORSDOF 2
ENDMDL
MODEL      144
REMARK 921   NORMALIZED FREE ENERGY PREDICTED BY IDOCK:   -3.15 KCAL/MOL
REMARK 922        TOTAL FREE ENERGY PREDICTED BY IDOCK:   -3.29 KCAL/MOL
REMARK 923 INTER-LIGAND FREE ENERGY PREDICTED BY IDOCK:   -3.38 KCAL/MOL
REMARK 924 INTRA-LIGAND FREE ENERGY PREDICTED BY IDOCK:    0.09 KCAL/MOL
REMARK 927      BINDING AFFINITY PREDICTED BY RF-SCORE:    0.00 PKD
ROOT
HETATM    1  C   UNL     1     -11.101   6.125  68.193  1.00  0.00    -0.328 C  
HETATM    2  C   UNL     1      -9.596   6.082  68.512  1.00  0.00    -0.134 C  
ENDROOT
BRANCH   2   3
HETATM    3  C   UNL     1      -9.116   7.238  69.473  1.00  0.00    -0.143 C  
HETATM    4  C   UNL     1      -7.573   7.366  69.396  1.00  0.00    -0.096 C  
HETATM    5  O   UNL     1     -10.786   9.034  69.179  1.00  0.00    -0.222 OA 
HETATM    6  C   UNL     1      -9.913   9.317  66.523  1.00  0.00    -0.274 C  
HETATM    7  N   UNL     1      -7.061   8.301  68.533  1.00  0.00    -0.075 N  
HETATM    8  O   UNL     1      -6.775   6.655  70.006  1.00  0.00    -0.046 OA 
HETATM    9  C   UNL     1      -9.746   8.488  68.821  1.00  0.00    -0.164 C  
HETATM   10  C   UNL     1      -7.755   9.023  67.610  1.00  0.00    -0.097 C  
HETATM   11  H   UNL     1      -6.057   8.473  68.588  1.00  0.00     0.000 HD 
HETATM   12  O   UNL     1      -7.154   9.742  66.819  1.00  0.00    -0.087 OA 
HETATM   13  N   UNL     1      -9.116   8.841  67.631  1.00  0.00    -0.134 N  
BRANCH   3  14
HETATM   14  C   UNL     1      -9.561   6.830  70.904  1.00  0.00    -0.173 A  
HETATM   15  C   UNL     1     -10.424   7.323  73.129  1.00  0.00    -0.385 A  
HETATM   16  C   UNL     1     -10.608   5.083  72.289  1.00  0.00    -0.269 A  
HETATM   17  C   UNL     1      -9.955   5.486  71.125  1.00  0.00    -0.253 A  
HETATM   18  C   UNL     1      -9.757   7.726  71.963  1.00  0.00    -0.224 A  
HETATM   19  C   UNL     1     -10.872   6.013  73.281  1.00  0.00    -0.277 A  
ENDBRANCH   3  14
ENDBRANCH   2   3
TORSDOF 2
ENDMDL
MODEL      145
REMARK 921   NORMALIZED FREE ENERGY PREDICTED BY IDOCK:   -3.12 KCAL/MOL
REMARK 922        TOTAL FREE ENERGY PREDICTED BY IDOCK:   -3.26 KCAL/MOL
REMARK 923 INTER-LIGAND FREE ENERGY PREDICTED BY IDOCK:   -3.22 KCAL/MOL
REMARK 924 INTRA-LIGAND FREE ENERGY PREDICTED BY IDOCK:   -0.04 KCAL/MOL
REMARK 927      BINDING AFFINITY PREDICTED BY RF-SCORE:    0.00 PKD
ROOT
HETATM    1  C   UNL     1      -8.712   9.353  66.998  1.00  0.00    -0.135 C  
HETATM    2  C   UNL     1      -9.905   8.479  67.420  1.00  0.00    -0.244 C  
ENDROOT
BRANCH   2   3
HETATM    3  C   UNL     1      -9.491   7.164  68.187  1.00  0.00    -0.132 C  
HETATM    4  C   UNL     1     -10.706   6.206  68.266  1.00  0.00    -0.290 C  
HETATM    5  O   UNL     1      -7.222   6.642  67.359  1.00  0.00    -0.081 OA 
HETATM    6  C   UNL     1      -8.330   6.184  64.818  1.00  0.00    -0.070 C  
HETATM    7  N   UNL     1     -10.806   5.234  67.302  1.00  0.00    -0.223 N  
HETATM    8  O   UNL     1     -11.617   6.287  69.090  1.00  0.00    -0.324 OA 
HETATM    9  C   UNL     1      -8.441   6.548  67.236  1.00  0.00    -0.112 C  
HETATM   10  C   UNL     1     -10.040   5.117  66.183  1.00  0.00    -0.207 C  
HETATM   11  H   UNL     1     -11.529   4.527  67.438  1.00  0.00     0.000 HD 
HETATM   12  O   UNL     1     -10.312   4.267  65.342  1.00  0.00    -0.241 OA 
HETATM   13  N   UNL     1      -9.013   6.023  66.081  1.00  0.00    -0.150 N  
BRANCH   3  14
HETATM   14  C   UNL     1      -9.051   7.607  69.609  1.00  0.00    -0.147 A  
HETATM   15  C   UNL     1      -9.241   8.996  71.603  1.00  0.00    -0.223 A  
HETATM   16  C   UNL     1      -8.122   6.880  71.771  1.00  0.00    -0.101 A  
HETATM   17  C   UNL     1      -8.334   6.680  70.408  1.00  0.00    -0.127 A  
HETATM   18  C   UNL     1      -9.446   8.800  70.230  1.00  0.00    -0.194 A  
HETATM   19  C   UNL     1      -8.606   8.027  72.377  1.00  0.00    -0.220 A  
ENDBRANCH   3  14
ENDBRANCH   2   3
TORSDOF 2
ENDMDL
MODEL      146
REMARK 921   NORMALIZED FREE ENERGY PREDICTED BY IDOCK:   -3.05 KCAL/MOL
REMARK 922        TOTAL FREE ENERGY PREDICTED BY IDOCK:   -3.18 KCAL/MOL
REMARK 923 INTER-LIGAND FREE ENERGY PREDICTED BY IDOCK:   -3.25 KCAL/MOL
REMARK 924 INTRA-LIGAND FREE ENERGY PREDICTED BY IDOCK:    0.07 KCAL/MOL
REMARK 927      BINDING AFFINITY PREDICTED BY RF-SCORE:    0.00 PKD
ROOT
HETATM    1  C   UNL     1     -11.150   6.557  68.865  1.00  0.00    -0.371 C  
HETATM    2  C   UNL     1      -9.937   7.494  69.002  1.00  0.00    -0.175 C  
ENDROOT
BRANCH   2   3
HETATM    3  C   UNL     1      -9.232   7.826  67.630  1.00  0.00    -0.146 C  
HETATM    4  C   UNL     1      -7.750   8.204  67.888  1.00  0.00    -0.114 C  
HETATM    5  O   UNL     1     -10.093   6.131  66.053  1.00  0.00     0.050 OA 
HETATM    6  C   UNL     1      -8.782   4.158  67.565  1.00  0.00    -0.107 C  
HETATM    7  N   UNL     1      -6.816   7.207  67.765  1.00  0.00    -0.071 N  
HETATM    8  O   UNL     1      -7.358   9.312  68.251  1.00  0.00    -0.077 OA 
HETATM    9  C   UNL     1      -9.271   6.464  66.903  1.00  0.00    -0.135 C  
HETATM   10  C   UNL     1      -7.061   5.878  67.598  1.00  0.00    -0.074 C  
HETATM   11  H   UNL     1      -5.836   7.491  67.802  1.00  0.00     0.000 HD 
HETATM   12  O   UNL     1      -6.131   5.078  67.619  1.00  0.00    -0.025 OA 
HETATM   13  N   UNL     1      -8.384   5.542  67.452  1.00  0.00    -0.104 N  
BRANCH   3  14
HETATM   14  C   UNL     1     -10.004   9.028  67.021  1.00  0.00    -0.295 A  
HETATM   15  C   UNL     1     -11.240  11.122  67.191  1.00  0.00    -0.320 A  
HETATM   16  C   UNL     1     -10.198  10.562  65.104  1.00  0.00    -0.358 A  
HETATM   17  C   UNL     1      -9.760   9.363  65.665  1.00  0.00    -0.336 A  
HETATM   18  C   UNL     1     -10.809   9.911  67.753  1.00  0.00    -0.321 A  
HETATM   19  C   UNL     1     -10.913  11.459  65.880  1.00  0.00    -0.268 A  
ENDBRANCH   3  14
ENDBRANCH   2   3
TORSDOF 2
ENDMDL
MODEL      147
REMARK 921   NORMALIZED FREE ENERGY PREDICTED BY IDOCK:   -3.00 KCAL/MOL
REMARK 922        TOTAL FREE ENERGY PREDICTED BY IDOCK:   -3.13 KCAL/MOL
REMARK 923 INTER-LIGAND FREE ENERGY PREDICTED BY IDOCK:   -3.68 KCAL/MOL
REMARK 924 INTRA-LIGAND FREE ENERGY PREDICTED BY IDOCK:    0.55 KCAL/MOL
REMARK 927      BINDING AFFINITY PREDICTED BY RF-SCORE:    0.00 PKD
ROOT
HETATM    1  C   UNL     1     -11.526   6.292  70.659  1.00  0.00    -0.397 C  
HETATM    2  C   UNL     1     -10.402   5.371  70.153  1.00  0.00    -0.361 C  
ENDROOT
BRANCH   2   3
HETATM    3  C   UNL     1      -9.631   5.938  68.898  1.00  0.00    -0.158 C  
HETATM    4  C   UNL     1     -10.589   6.823  68.059  1.00  0.00    -0.231 C  
HETATM    5  O   UNL     1      -7.395   6.546  69.756  1.00  0.00    -0.075 OA 
HETATM    6  C   UNL     1      -8.614   8.521  71.339  1.00  0.00    -0.175 C  
HETATM    7  N   UNL     1     -10.562   8.175  68.291  1.00  0.00    -0.381 N  
HETATM    8  O   UNL     1     -11.410   6.399  67.246  1.00  0.00    -0.295 OA 
HETATM    9  C   UNL     1      -8.568   6.849  69.551  1.00  0.00    -0.134 C  
HETATM   10  C   UNL     1      -9.902   8.816  69.294  1.00  0.00    -0.180 C  
HETATM   11  H   UNL     1     -11.093   8.760  67.645  1.00  0.00     0.000 HD 
HETATM   12  O   UNL     1     -10.058  10.021  69.456  1.00  0.00    -0.201 OA 
HETATM   13  N   UNL     1      -9.118   8.011  70.084  1.00  0.00    -0.151 N  
BRANCH   3  14
HETATM   14  C   UNL     1      -9.165   4.705  68.077  1.00  0.00    -0.158 A  
HETATM   15  C   UNL     1      -9.078   2.313  67.617  1.00  0.00    -0.208 A  
HETATM   16  C   UNL     1      -8.589   3.849  65.841  1.00  0.00    -0.111 A  
HETATM   17  C   UNL     1      -8.773   4.907  66.729  1.00  0.00    -0.107 A  
HETATM   18  C   UNL     1      -9.253   3.377  68.514  1.00  0.00    -0.229 A  
HETATM   19  C   UNL     1      -8.774   2.549  66.279  1.00  0.00    -0.126 A  
ENDBRANCH   3  14
ENDBRANCH   2   3
TORSDOF 2
ENDMDL
MODEL      148
REMARK 921   NORMALIZED FREE ENERGY PREDICTED BY IDOCK:   -3.00 KCAL/MOL
REMARK 922        TOTAL FREE ENERGY PREDICTED BY IDOCK:   -3.13 KCAL/MOL
REMARK 923 INTER-LIGAND FREE ENERGY PREDICTED BY IDOCK:   -3.20 KCAL/MOL
REMARK 924 INTRA-LIGAND FREE ENERGY PREDICTED BY IDOCK:    0.07 KCAL/MOL
REMARK 927      BINDING AFFINITY PREDICTED BY RF-SCORE:    0.00 PKD
ROOT
HETATM    1  C   UNL     1      -9.702   3.741  70.214  1.00  0.00    -0.222 C  
HETATM    2  C   UNL     1      -8.626   4.636  69.576  1.00  0.00    -0.103 C  
ENDROOT
BRANCH   2   3
HETATM    3  C   UNL     1      -9.052   6.150  69.449  1.00  0.00    -0.135 C  
HETATM    4  C   UNL     1      -7.888   6.965  68.830  1.00  0.00    -0.118 C  
HETATM    5  O   UNL     1     -11.402   6.080  68.688  1.00  0.00    -0.251 OA 
HETATM    6  C   UNL     1     -10.517   4.935  66.280  1.00  0.00    -0.304 C  
HETATM    7  N   UNL     1      -7.914   7.172  67.474  1.00  0.00    -0.112 N  
HETATM    8  O   UNL     1      -6.914   7.389  69.453  1.00  0.00    -0.058 OA 
HETATM    9  C   UNL     1     -10.203   6.081  68.421  1.00  0.00    -0.181 C  
HETATM   10  C   UNL     1      -8.769   6.602  66.581  1.00  0.00    -0.126 C  
HETATM   11  H   UNL     1      -7.222   7.820  67.096  1.00  0.00     0.000 HD 
HETATM   12  O   UNL     1      -8.608   6.784  65.379  1.00  0.00    -0.132 OA 
HETATM   13  N   UNL     1      -9.750   5.814  67.132  1.00  0.00    -0.128 N  
BRANCH   3  14
HETATM   14  C   UNL     1      -9.358   6.641  70.890  1.00  0.00    -0.159 A  
HETATM   15  C   UNL     1      -8.826   6.885  73.256  1.00  0.00    -0.148 A  
HETATM   16  C   UNL     1     -10.396   8.403  72.262  1.00  0.00    -0.403 A  
HETATM   17  C   UNL     1     -10.255   7.727  71.052  1.00  0.00    -0.210 A  
HETATM   18  C   UNL     1      -8.692   6.198  72.040  1.00  0.00    -0.135 A  
HETATM   19  C   UNL     1      -9.654   8.000  73.360  1.00  0.00    -0.277 A  
ENDBRANCH   3  14
ENDBRANCH   2   3
TORSDOF 2
ENDMDL
MODEL      149
REMARK 921   NORMALIZED FREE ENERGY PREDICTED BY IDOCK:   -3.00 KCAL/MOL
REMARK 922        TOTAL FREE ENERGY PREDICTED BY IDOCK:   -3.13 KCAL/MOL
REMARK 923 INTER-LIGAND FREE ENERGY PREDICTED BY IDOCK:   -3.41 KCAL/MOL
REMARK 924 INTRA-LIGAND FREE ENERGY PREDICTED BY IDOCK:    0.28 KCAL/MOL
REMARK 927      BINDING AFFINITY PREDICTED BY RF-SCORE:    0.00 PKD
ROOT
HETATM    1  C   UNL     1     -11.204  14.144  68.735  1.00  0.00    -0.294 C  
HETATM    2  C   UNL     1      -9.923  14.525  69.498  1.00  0.00     0.118 C  
ENDROOT
BRANCH   2   3
HETATM    3  C   UNL     1      -8.721  14.933  68.561  1.00  0.00    -0.172 C  
HETATM    4  C   UNL     1      -7.427  15.059  69.404  1.00  0.00    -0.196 C  
HETATM    5  O   UNL     1      -9.047  13.602  66.505  1.00  0.00    -0.216 OA 
HETATM    6  C   UNL     1      -8.580  11.280  68.017  1.00  0.00    -0.140 C  
HETATM    7  N   UNL     1      -6.600  13.966  69.457  1.00  0.00    -0.168 N  
HETATM    8  O   UNL     1      -7.116  16.043  70.075  1.00  0.00     0.022 OA 
HETATM    9  C   UNL     1      -8.589  13.699  67.641  1.00  0.00    -0.185 C  
HETATM   10  C   UNL     1      -6.869  12.719  68.980  1.00  0.00    -0.081 C  
HETATM   11  H   UNL     1      -5.691  14.101  69.899  1.00  0.00     0.000 HD 
HETATM   12  O   UNL     1      -6.087  11.800  69.198  1.00  0.00    -0.064 OA 
HETATM   13  N   UNL     1      -8.058  12.597  68.304  1.00  0.00    -0.158 N  
BRANCH   3  14
HETATM   14  C   UNL     1      -9.102  16.302  67.934  1.00  0.00    -0.196 A  
HETATM   15  C   UNL     1      -9.846  17.711  66.089  1.00  0.00    -0.253 A  
HETATM   16  C   UNL     1     -10.108  18.514  68.335  1.00  0.00    -0.423 A  
HETATM   17  C   UNL     1      -9.507  17.347  68.803  1.00  0.00    -0.256 A  
HETATM   18  C   UNL     1      -9.232  16.541  66.560  1.00  0.00    -0.300 A  
HETATM   19  C   UNL     1     -10.308  18.682  66.975  1.00  0.00    -0.445 A  
ENDBRANCH   3  14
ENDBRANCH   2   3
TORSDOF 2
ENDMDL
MODEL      150
REMARK 921   NORMALIZED FREE ENERGY PREDICTED BY IDOCK:   -2.98 KCAL/MOL
REMARK 922        TOTAL FREE ENERGY PREDICTED BY IDOCK:   -3.10 KCAL/MOL
REMARK 923 INTER-LIGAND FREE ENERGY PREDICTED BY IDOCK:   -3.60 KCAL/MOL
REMARK 924 INTRA-LIGAND FREE ENERGY PREDICTED BY IDOCK:    0.50 KCAL/MOL
REMARK 927      BINDING AFFINITY PREDICTED BY RF-SCORE:    0.00 PKD
ROOT
HETATM    1  C   UNL     1      -7.909  19.069  69.077  1.00  0.00    -0.268 C  
HETATM    2  C   UNL     1      -7.202  17.763  68.673  1.00  0.00    -0.260 C  
ENDROOT
BRANCH   2   3
HETATM    3  C   UNL     1      -7.576  17.259  67.225  1.00  0.00    -0.204 C  
HETATM    4  C   UNL     1      -8.865  17.973  66.745  1.00  0.00    -0.263 C  
HETATM    5  O   UNL     1      -5.416  17.108  66.035  1.00  0.00    -0.318 OA 
HETATM    6  C   UNL     1      -5.180  19.900  66.249  1.00  0.00    -0.160 C  
HETATM    7  N   UNL     1      -8.713  19.096  65.972  1.00  0.00    -0.197 N  
HETATM    8  O   UNL     1     -10.010  17.643  67.054  1.00  0.00    -0.295 OA 
HETATM    9  C   UNL     1      -6.388  17.774  66.382  1.00  0.00    -0.217 C  
HETATM   10  C   UNL     1      -7.549  19.752  65.710  1.00  0.00    -0.289 C  
HETATM   11  H   UNL     1      -9.560  19.479  65.550  1.00  0.00     0.000 HD 
HETATM   12  O   UNL     1      -7.571  20.814  65.097  1.00  0.00     0.216 OA 
HETATM   13  N   UNL     1      -6.418  19.155  66.209  1.00  0.00    -0.188 N  
BRANCH   3  14
HETATM   14  C   UNL     1      -7.809  15.728  67.342  1.00  0.00    -0.203 A  
HETATM   15  C   UNL     1      -7.733  13.608  68.542  1.00  0.00    -0.129 A  
HETATM   16  C   UNL     1      -9.237  13.832  66.687  1.00  0.00    -0.238 A  
HETATM   17  C   UNL     1      -8.771  15.130  66.489  1.00  0.00    -0.280 A  
HETATM   18  C   UNL     1      -7.256  14.912  68.337  1.00  0.00    -0.116 A  
HETATM   19  C   UNL     1      -8.739  13.080  67.738  1.00  0.00    -0.188 A  
ENDBRANCH   3  14
ENDBRANCH   2   3
TORSDOF 2
ENDMDL
MODEL      151
REMARK 921   NORMALIZED FREE ENERGY PREDICTED BY IDOCK:   -2.97 KCAL/MOL
REMARK 922        TOTAL FREE ENERGY PREDICTED BY IDOCK:   -3.09 KCAL/MOL
REMARK 923 INTER-LIGAND FREE ENERGY PREDICTED BY IDOCK:   -3.19 KCAL/MOL
REMARK 924 INTRA-LIGAND FREE ENERGY PREDICTED BY IDOCK:    0.09 KCAL/MOL
REMARK 927      BINDING AFFINITY PREDICTED BY RF-SCORE:    0.00 PKD
ROOT
HETATM    1  C   UNL     1      -8.704   8.452  71.563  1.00  0.00    -0.227 C  
HETATM    2  C   UNL     1      -8.211   8.065  70.158  1.00  0.00    -0.120 C  
ENDROOT
BRANCH   2   3
HETATM    3  C   UNL     1      -9.363   7.965  69.085  1.00  0.00    -0.154 C  
HETATM    4  C   UNL     1      -8.866   7.146  67.866  1.00  0.00    -0.124 C  
HETATM    5  O   UNL     1     -11.419   7.590  70.403  1.00  0.00    -0.269 OA 
HETATM    6  C   UNL     1     -10.376   5.105  71.196  1.00  0.00    -0.206 C  
HETATM    7  N   UNL     1      -9.161   5.806  67.844  1.00  0.00    -0.110 N  
HETATM    8  O   UNL     1      -8.178   7.594  66.949  1.00  0.00    -0.116 OA 
HETATM    9  C   UNL     1     -10.433   7.135  69.829  1.00  0.00    -0.225 C  
HETATM   10  C   UNL     1      -9.705   5.077  68.856  1.00  0.00    -0.167 C  
HETATM   11  H   UNL     1      -8.950   5.306  66.981  1.00  0.00     0.000 HD 
HETATM   12  O   UNL     1      -9.809   3.860  68.745  1.00  0.00    -0.102 OA 
HETATM   13  N   UNL     1     -10.069   5.799  69.967  1.00  0.00    -0.199 N  
BRANCH   3  14
HETATM   14  C   UNL     1      -9.698   9.422  68.665  1.00  0.00    -0.160 A  
HETATM   15  C   UNL     1     -11.249  11.249  68.220  1.00  0.00    -0.331 A  
HETATM   16  C   UNL     1      -8.958  11.771  68.703  1.00  0.00    -0.069 A  
HETATM   17  C   UNL     1      -8.687  10.407  68.803  1.00  0.00    -0.146 A  
HETATM   18  C   UNL     1     -10.975   9.876  68.310  1.00  0.00    -0.248 A  
HETATM   19  C   UNL     1     -10.250  12.194  68.443  1.00  0.00    -0.212 A  
ENDBRANCH   3  14
ENDBRANCH   2   3
TORSDOF 2
ENDMDL
MODEL      152
REMARK 921   NORMALIZED FREE ENERGY PREDICTED BY IDOCK:   -2.95 KCAL/MOL
REMARK 922        TOTAL FREE ENERGY PREDICTED BY IDOCK:   -3.07 KCAL/MOL
REMARK 923 INTER-LIGAND FREE ENERGY PREDICTED BY IDOCK:   -3.15 KCAL/MOL
REMARK 924 INTRA-LIGAND FREE ENERGY PREDICTED BY IDOCK:    0.08 KCAL/MOL
REMARK 927      BINDING AFFINITY PREDICTED BY RF-SCORE:    0.00 PKD
ROOT
HETATM    1  C   UNL     1      -6.521   6.296  67.039  1.00  0.00    -0.050 C  
HETATM    2  C   UNL     1      -7.566   7.378  67.361  1.00  0.00    -0.112 C  
ENDROOT
BRANCH   2   3
HETATM    3  C   UNL     1      -8.624   7.602  66.213  1.00  0.00    -0.153 C  
HETATM    4  C   UNL     1      -8.084   7.008  64.888  1.00  0.00    -0.107 C  
HETATM    5  O   UNL     1     -10.809   7.152  67.275  1.00  0.00    -0.311 OA 
HETATM    6  C   UNL     1     -10.023   4.474  67.600  1.00  0.00    -0.081 C  
HETATM    7  N   UNL     1      -8.472   5.732  64.564  1.00  0.00    -0.290 N  
HETATM    8  O   UNL     1      -7.288   7.570  64.135  1.00  0.00    -0.077 OA 
HETATM    9  C   UNL     1      -9.812   6.737  66.690  1.00  0.00    -0.152 C  
HETATM   10  C   UNL     1      -9.155   4.863  65.360  1.00  0.00    -0.155 C  
HETATM   11  H   UNL     1      -8.224   5.401  63.631  1.00  0.00     0.000 HD 
HETATM   12  O   UNL     1      -9.337   3.709  64.988  1.00  0.00    -0.140 OA 
HETATM   13  N   UNL     1      -9.560   5.374  66.568  1.00  0.00    -0.147 N  
BRANCH   3  14
HETATM   14  C   UNL     1      -8.814   9.138  66.087  1.00  0.00    -0.187 A  
HETATM   15  C   UNL     1     -10.052  11.121  65.396  1.00  0.00    -0.317 A  
HETATM   16  C   UNL     1      -8.411  11.331  67.134  1.00  0.00    -0.149 A  
HETATM   17  C   UNL     1      -8.116   9.976  66.993  1.00  0.00    -0.117 A  
HETATM   18  C   UNL     1      -9.748   9.760  65.248  1.00  0.00    -0.371 A  
HETATM   19  C   UNL     1      -9.405  11.898  66.354  1.00  0.00    -0.233 A  
ENDBRANCH   3  14
ENDBRANCH   2   3
TORSDOF 2
ENDMDL
MODEL      153
REMARK 921   NORMALIZED FREE ENERGY PREDICTED BY IDOCK:   -2.92 KCAL/MOL
REMARK 922        TOTAL FREE ENERGY PREDICTED BY IDOCK:   -3.03 KCAL/MOL
REMARK 923 INTER-LIGAND FREE ENERGY PREDICTED BY IDOCK:   -2.98 KCAL/MOL
REMARK 924 INTRA-LIGAND FREE ENERGY PREDICTED BY IDOCK:   -0.05 KCAL/MOL
REMARK 927      BINDING AFFINITY PREDICTED BY RF-SCORE:    0.00 PKD
ROOT
HETATM    1  C   UNL     1     -10.545   8.476  66.728  1.00  0.00    -0.227 C  
HETATM    2  C   UNL     1      -9.111   8.184  67.205  1.00  0.00    -0.163 C  
ENDROOT
BRANCH   2   3
HETATM    3  C   UNL     1      -8.831   8.635  68.691  1.00  0.00    -0.142 C  
HETATM    4  C   UNL     1     -10.093   9.324  69.269  1.00  0.00    -0.200 C  
HETATM    5  O   UNL     1      -7.557   6.766  69.685  1.00  0.00    -0.096 OA 
HETATM    6  C   UNL     1      -9.834   5.147  69.391  1.00  0.00    -0.199 C  
HETATM    7  N   UNL     1     -10.956   8.549  70.001  1.00  0.00    -0.329 N  
HETATM    8  O   UNL     1     -10.409  10.498  69.071  1.00  0.00    -0.189 OA 
HETATM    9  C   UNL     1      -8.637   7.283  69.412  1.00  0.00    -0.134 C  
HETATM   10  C   UNL     1     -10.911   7.195  70.144  1.00  0.00    -0.267 C  
HETATM   11  H   UNL     1     -11.708   9.036  70.489  1.00  0.00     0.000 HD 
HETATM   12  O   UNL     1     -11.815   6.613  70.733  1.00  0.00    -0.371 OA 
HETATM   13  N   UNL     1      -9.831   6.582  69.558  1.00  0.00    -0.151 N  
BRANCH   3  14
HETATM   14  C   UNL     1      -7.642   9.632  68.629  1.00  0.00    -0.080 A  
HETATM   15  C   UNL     1      -6.364  11.419  67.573  1.00  0.00    -0.069 A  
HETATM   16  C   UNL     1      -6.106  11.051  69.930  1.00  0.00    -0.115 A  
HETATM   17  C   UNL     1      -6.999   9.984  69.842  1.00  0.00    -0.118 A  
HETATM   18  C   UNL     1      -7.255  10.339  67.483  1.00  0.00    -0.088 A  
HETATM   19  C   UNL     1      -5.813  11.791  68.797  1.00  0.00    -0.047 A  
ENDBRANCH   3  14
ENDBRANCH   2   3
TORSDOF 2
ENDMDL
MODEL      154
REMARK 921   NORMALIZED FREE ENERGY PREDICTED BY IDOCK:   -2.87 KCAL/MOL
REMARK 922        TOTAL FREE ENERGY PREDICTED BY IDOCK:   -2.98 KCAL/MOL
REMARK 923 INTER-LIGAND FREE ENERGY PREDICTED BY IDOCK:   -3.14 KCAL/MOL
REMARK 924 INTRA-LIGAND FREE ENERGY PREDICTED BY IDOCK:    0.17 KCAL/MOL
REMARK 927      BINDING AFFINITY PREDICTED BY RF-SCORE:    0.00 PKD
ROOT
HETATM    1  C   UNL     1      -6.284  19.720  70.506  1.00  0.00    -0.245 C  
HETATM    2  C   UNL     1      -5.626  19.167  69.230  1.00  0.00    -0.224 C  
ENDROOT
BRANCH   2   3
HETATM    3  C   UNL     1      -6.541  18.164  68.426  1.00  0.00    -0.211 C  
HETATM    4  C   UNL     1      -7.981  18.730  68.344  1.00  0.00    -0.334 C  
HETATM    5  O   UNL     1      -5.128  17.387  66.554  1.00  0.00    -0.149 OA 
HETATM    6  C   UNL     1      -5.142  20.009  65.545  1.00  0.00    -0.160 C  
HETATM    7  N   UNL     1      -8.316  19.442  67.220  1.00  0.00    -0.287 N  
HETATM    8  O   UNL     1      -8.826  18.640  69.235  1.00  0.00    -0.020 OA 
HETATM    9  C   UNL     1      -5.915  18.210  67.014  1.00  0.00    -0.145 C  
HETATM   10  C   UNL     1      -7.471  19.847  66.233  1.00  0.00    -0.300 C  
HETATM   11  H   UNL     1      -9.299  19.693  67.114  1.00  0.00     0.000 HD 
HETATM   12  O   UNL     1      -7.882  20.580  65.339  1.00  0.00     0.056 OA 
HETATM   13  N   UNL     1      -6.176  19.408  66.356  1.00  0.00    -0.173 N  
BRANCH   3  14
HETATM   14  C   UNL     1      -6.523  16.826  69.215  1.00  0.00    -0.219 A  
HETATM   15  C   UNL     1      -6.908  14.429  69.428  1.00  0.00    -0.132 A  
HETATM   16  C   UNL     1      -5.358  15.487  70.922  1.00  0.00    -0.105 A  
HETATM   17  C   UNL     1      -5.638  16.711  70.317  1.00  0.00    -0.193 A  
HETATM   18  C   UNL     1      -7.198  15.662  68.825  1.00  0.00    -0.133 A  
HETATM   19  C   UNL     1      -5.972  14.337  70.455  1.00  0.00    -0.171 A  
ENDBRANCH   3  14
ENDBRANCH   2   3
TORSDOF 2
ENDMDL
MODEL      155
REMARK 921   NORMALIZED FREE ENERGY PREDICTED BY IDOCK:   -2.84 KCAL/MOL
REMARK 922        TOTAL FREE ENERGY PREDICTED BY IDOCK:   -2.94 KCAL/MOL
REMARK 923 INTER-LIGAND FREE ENERGY PREDICTED BY IDOCK:   -2.93 KCAL/MOL
REMARK 924 INTRA-LIGAND FREE ENERGY PREDICTED BY IDOCK:   -0.01 KCAL/MOL
REMARK 927      BINDING AFFINITY PREDICTED BY RF-SCORE:    0.00 PKD
ROOT
HETATM    1  C   UNL     1      -6.816   7.351  65.423  1.00  0.00    -0.048 C  
HETATM    2  C   UNL     1      -8.203   6.687  65.472  1.00  0.00    -0.138 C  
ENDROOT
BRANCH   2   3
HETATM    3  C   UNL     1      -8.884   6.740  66.895  1.00  0.00    -0.120 C  
HETATM    4  C   UNL     1     -10.025   5.693  66.961  1.00  0.00    -0.169 C  
HETATM    5  O   UNL     1      -7.009   7.014  68.479  1.00  0.00    -0.070 OA 
HETATM    6  C   UNL     1      -6.099   4.461  67.740  1.00  0.00    -0.031 C  
HETATM    7  N   UNL     1      -9.725   4.467  67.499  1.00  0.00    -0.178 N  
HETATM    8  O   UNL     1     -11.161   5.857  66.515  1.00  0.00    -0.205 OA 
HETATM    9  C   UNL     1      -7.740   6.277  67.823  1.00  0.00    -0.102 C  
HETATM   10  C   UNL     1      -8.489   4.007  67.837  1.00  0.00    -0.094 C  
HETATM   11  H   UNL     1     -10.510   3.835  67.663  1.00  0.00     0.000 HD 
HETATM   12  O   UNL     1      -8.348   2.845  68.201  1.00  0.00    -0.075 OA 
HETATM   13  N   UNL     1      -7.470   4.917  67.698  1.00  0.00    -0.078 N  
BRANCH   3  14
HETATM   14  C   UNL     1      -9.450   8.177  67.055  1.00  0.00    -0.226 A  
HETATM   15  C   UNL     1     -10.382  10.251  66.178  1.00  0.00    -0.253 A  
HETATM   16  C   UNL     1     -10.753   9.703  68.484  1.00  0.00    -0.239 A  
HETATM   17  C   UNL     1      -9.996   8.545  68.311  1.00  0.00    -0.211 A  
HETATM   18  C   UNL     1      -9.612   9.091  66.006  1.00  0.00    -0.342 A  
HETATM   19  C   UNL     1     -10.973  10.542  67.405  1.00  0.00    -0.352 A  
ENDBRANCH   3  14
ENDBRANCH   2   3
TORSDOF 2
ENDMDL
MODEL      156
REMARK 921   NORMALIZED FREE ENERGY PREDICTED BY IDOCK:   -2.79 KCAL/MOL
REMARK 922        TOTAL FREE ENERGY PREDICTED BY IDOCK:   -2.89 KCAL/MOL
REMARK 923 INTER-LIGAND FREE ENERGY PREDICTED BY IDOCK:   -3.30 KCAL/MOL
REMARK 924 INTRA-LIGAND FREE ENERGY PREDICTED BY IDOCK:    0.41 KCAL/MOL
REMARK 927      BINDING AFFINITY PREDICTED BY RF-SCORE:    0.00 PKD
ROOT
HETATM    1  C   UNL     1     -12.164   7.464  71.228  1.00  0.00    -0.374 C  
HETATM    2  C   UNL     1     -11.625   6.656  70.035  1.00  0.00    -0.423 C  
ENDROOT
BRANCH   2   3
HETATM    3  C   UNL     1     -10.107   6.246  70.177  1.00  0.00    -0.222 C  
HETATM    4  C   UNL     1      -9.771   5.139  69.146  1.00  0.00    -0.163 C  
HETATM    5  O   UNL     1      -8.911   8.379  70.530  1.00  0.00    -0.140 OA 
HETATM    6  C   UNL     1      -9.650   9.145  67.930  1.00  0.00    -0.146 C  
HETATM    7  N   UNL     1      -9.225   5.536  67.951  1.00  0.00    -0.108 N  
HETATM    8  O   UNL     1     -10.012   3.941  69.293  1.00  0.00    -0.066 OA 
HETATM    9  C   UNL     1      -9.378   7.542  69.761  1.00  0.00    -0.150 C  
HETATM   10  C   UNL     1      -9.091   6.814  67.503  1.00  0.00    -0.117 C  
HETATM   11  H   UNL     1      -8.883   4.797  67.337  1.00  0.00     0.000 HD 
HETATM   12  O   UNL     1      -8.691   7.023  66.363  1.00  0.00    -0.130 OA 
HETATM   13  N   UNL     1      -9.469   7.788  68.394  1.00  0.00    -0.146 N  
BRANCH   3  14
HETATM   14  C   UNL     1      -9.932   5.715  71.626  1.00  0.00    -0.222 A  
HETATM   15  C   UNL     1      -9.174   5.919  73.934  1.00  0.00    -0.127 A  
HETATM   16  C   UNL     1     -10.911   4.346  73.424  1.00  0.00    -0.375 A  
HETATM   17  C   UNL     1     -10.815   4.703  72.080  1.00  0.00     0.015 A  
HETATM   18  C   UNL     1      -9.070   6.271  72.580  1.00  0.00    -0.141 A  
HETATM   19  C   UNL     1     -10.110   4.979  74.358  1.00  0.00    -0.268 A  
ENDBRANCH   3  14
ENDBRANCH   2   3
TORSDOF 2
ENDMDL
MODEL      157
REMARK 921   NORMALIZED FREE ENERGY PREDICTED BY IDOCK:   -2.74 KCAL/MOL
REMARK 922        TOTAL FREE ENERGY PREDICTED BY IDOCK:   -2.84 KCAL/MOL
REMARK 923 INTER-LIGAND FREE ENERGY PREDICTED BY IDOCK:   -2.93 KCAL/MOL
REMARK 924 INTRA-LIGAND FREE ENERGY PREDICTED BY IDOCK:    0.10 KCAL/MOL
REMARK 927      BINDING AFFINITY PREDICTED BY RF-SCORE:    0.00 PKD
ROOT
HETATM    1  C   UNL     1     -11.319  17.407  67.971  1.00  0.00     0.344 C  
HETATM    2  C   UNL     1     -10.509  16.574  66.962  1.00  0.00    -0.289 C  
ENDROOT
BRANCH   2   3
HETATM    3  C   UNL     1      -9.965  15.214  67.552  1.00  0.00    -0.225 C  
HETATM    4  C   UNL     1     -11.081  14.525  68.377  1.00  0.00    -0.256 C  
HETATM    5  O   UNL     1      -8.625  14.228  65.725  1.00  0.00     0.839 OA 
HETATM    6  C   UNL     1     -10.988  13.962  64.228  1.00  0.00    -0.200 C  
HETATM    7  N   UNL     1     -11.842  13.578  67.739  1.00  0.00    -0.359 N  
HETATM    8  O   UNL     1     -11.373  14.804  69.539  1.00  0.00    -0.256 OA 
HETATM    9  C   UNL     1      -9.713  14.382  66.275  1.00  0.00    -0.310 C  
HETATM   10  C   UNL     1     -11.834  13.288  66.409  1.00  0.00    -0.396 C  
HETATM   11  H   UNL     1     -12.480  13.036  68.322  1.00  0.00     0.000 HD 
HETATM   12  O   UNL     1     -12.651  12.497  65.951  1.00  0.00    -0.514 OA 
HETATM   13  N   UNL     1     -10.895  13.965  65.670  1.00  0.00    -0.287 N  
BRANCH   3  14
HETATM   14  C   UNL     1      -8.761  15.583  68.461  1.00  0.00    -0.184 A  
HETATM   15  C   UNL     1      -6.846  15.017  69.859  1.00  0.00    -0.162 A  
HETATM   16  C   UNL     1      -6.968  17.213  68.902  1.00  0.00    -0.232 A  
HETATM   17  C   UNL     1      -8.194  16.876  68.330  1.00  0.00    -0.222 A  
HETATM   18  C   UNL     1      -8.084  14.680  69.291  1.00  0.00    -0.030 A  
HETATM   19  C   UNL     1      -6.277  16.269  69.642  1.00  0.00    -0.195 A  
ENDBRANCH   3  14
ENDBRANCH   2   3
TORSDOF 2
ENDMDL
MODEL      158
REMARK 921   NORMALIZED FREE ENERGY PREDICTED BY IDOCK:   -2.63 KCAL/MOL
REMARK 922        TOTAL FREE ENERGY PREDICTED BY IDOCK:   -2.71 KCAL/MOL
REMARK 923 INTER-LIGAND FREE ENERGY PREDICTED BY IDOCK:   -2.92 KCAL/MOL
REMARK 924 INTRA-LIGAND FREE ENERGY PREDICTED BY IDOCK:    0.21 KCAL/MOL
REMARK 927      BINDING AFFINITY PREDICTED BY RF-SCORE:    0.00 PKD
ROOT
HETATM    1  C   UNL     1      -9.953  10.090  68.405  1.00  0.00    -0.178 C  
HETATM    2  C   UNL     1     -10.183   8.694  69.010  1.00  0.00    -0.218 C  
ENDROOT
BRANCH   2   3
HETATM    3  C   UNL     1      -8.895   8.068  69.673  1.00  0.00    -0.141 C  
HETATM    4  C   UNL     1      -8.394   8.998  70.807  1.00  0.00    -0.192 C  
HETATM    5  O   UNL     1      -9.377   5.649  69.822  1.00  0.00    -0.137 OA 
HETATM    6  C   UNL     1     -11.432   6.239  71.645  1.00  0.00    -0.296 C  
HETATM    7  N   UNL     1      -8.805   8.712  72.085  1.00  0.00    -0.210 N  
HETATM    8  O   UNL     1      -7.705  10.004  70.641  1.00  0.00    -0.268 OA 
HETATM    9  C   UNL     1      -9.451   6.774  70.309  1.00  0.00    -0.162 C  
HETATM   10  C   UNL     1      -9.740   7.793  72.452  1.00  0.00    -0.192 C  
HETATM   11  H   UNL     1      -8.364   9.243  72.837  1.00  0.00     0.000 HD 
HETATM   12  O   UNL     1     -10.099   7.721  73.622  1.00  0.00    -0.294 OA 
HETATM   13  N   UNL     1     -10.240   7.027  71.427  1.00  0.00    -0.197 N  
BRANCH   3  14
HETATM   14  C   UNL     1      -7.833   7.957  68.546  1.00  0.00    -0.119 A  
HETATM   15  C   UNL     1      -5.567   7.577  67.732  1.00  0.00    -0.034 A  
HETATM   16  C   UNL     1      -7.403   7.296  66.213  1.00  0.00    -0.079 A  
HETATM   17  C   UNL     1      -8.278   7.668  67.231  1.00  0.00    -0.119 A  
HETATM   18  C   UNL     1      -6.447   7.961  68.754  1.00  0.00    -0.048 A  
HETATM   19  C   UNL     1      -6.045   7.219  66.473  1.00  0.00    -0.039 A  
ENDBRANCH   3  14
ENDBRANCH   2   3
TORSDOF 2
ENDMDL
MODEL      159
REMARK 921   NORMALIZED FREE ENERGY PREDICTED BY IDOCK:   -2.61 KCAL/MOL
REMARK 922        TOTAL FREE ENERGY PREDICTED BY IDOCK:   -2.69 KCAL/MOL
REMARK 923 INTER-LIGAND FREE ENERGY PREDICTED BY IDOCK:   -2.50 KCAL/MOL
REMARK 924 INTRA-LIGAND FREE ENERGY PREDICTED BY IDOCK:   -0.19 KCAL/MOL
REMARK 927      BINDING AFFINITY PREDICTED BY RF-SCORE:    0.00 PKD
ROOT
HETATM    1  C   UNL     1     -10.769   7.488  67.081  1.00  0.00    -0.379 C  
HETATM    2  C   UNL     1     -10.248   6.548  68.182  1.00  0.00    -0.194 C  
ENDROOT
BRANCH   2   3
HETATM    3  C   UNL     1      -8.678   6.384  68.188  1.00  0.00    -0.116 C  
HETATM    4  C   UNL     1      -8.057   7.313  67.114  1.00  0.00    -0.114 C  
HETATM    5  O   UNL     1      -8.070   6.240  70.578  1.00  0.00    -0.109 OA 
HETATM    6  C   UNL     1      -8.944   8.892  70.890  1.00  0.00    -0.222 C  
HETATM    7  N   UNL     1      -7.612   8.544  67.527  1.00  0.00    -0.097 N  
HETATM    8  O   UNL     1      -7.986   7.054  65.913  1.00  0.00    -0.100 OA 
HETATM    9  C   UNL     1      -8.298   6.924  69.584  1.00  0.00    -0.133 C  
HETATM   10  C   UNL     1      -7.803   9.109  68.750  1.00  0.00    -0.096 C  
HETATM   11  H   UNL     1      -7.085   9.091  66.846  1.00  0.00     0.000 HD 
HETATM   12  O   UNL     1      -7.453  10.267  68.949  1.00  0.00    -0.081 OA 
HETATM   13  N   UNL     1      -8.429   8.307  69.673  1.00  0.00    -0.124 N  
BRANCH   3  14
HETATM   14  C   UNL     1      -8.394   4.894  67.854  1.00  0.00    -0.103 A  
HETATM   15  C   UNL     1      -6.957   2.927  67.769  1.00  0.00    -0.049 A  
HETATM   16  C   UNL     1      -9.336   2.623  67.722  1.00  0.00    -0.229 A  
HETATM   17  C   UNL     1      -9.496   4.007  67.759  1.00  0.00    -0.228 A  
HETATM   18  C   UNL     1      -7.117   4.320  67.797  1.00  0.00    -0.064 A  
HETATM   19  C   UNL     1      -8.063   2.080  67.759  1.00  0.00    -0.065 A  
ENDBRANCH   3  14
ENDBRANCH   2   3
TORSDOF 2
ENDMDL
MODEL      160
REMARK 921   NORMALIZED FREE ENERGY PREDICTED BY IDOCK:   -2.60 KCAL/MOL
REMARK 922        TOTAL FREE ENERGY PREDICTED BY IDOCK:   -2.68 KCAL/MOL
REMARK 923 INTER-LIGAND FREE ENERGY PREDICTED BY IDOCK:   -2.85 KCAL/MOL
REMARK 924 INTRA-LIGAND FREE ENERGY PREDICTED BY IDOCK:    0.18 KCAL/MOL
REMARK 927      BINDING AFFINITY PREDICTED BY RF-SCORE:    0.00 PKD
ROOT
HETATM    1  C   UNL     1      -7.560   6.825  66.864  1.00  0.00    -0.091 C  
HETATM    2  C   UNL     1      -7.758   7.171  68.351  1.00  0.00    -0.120 C  
ENDROOT
BRANCH   2   3
HETATM    3  C   UNL     1      -9.047   6.522  68.989  1.00  0.00    -0.132 C  
HETATM    4  C   UNL     1      -9.199   7.006  70.453  1.00  0.00    -0.156 C  
HETATM    5  O   UNL     1     -10.746   6.609  67.198  1.00  0.00    -0.282 OA 
HETATM    6  C   UNL     1     -10.677   9.413  67.362  1.00  0.00    -0.210 C  
HETATM    7  N   UNL     1     -10.016   8.084  70.679  1.00  0.00    -0.189 N  
HETATM    8  O   UNL     1      -8.598   6.534  71.418  1.00  0.00    -0.125 OA 
HETATM    9  C   UNL     1     -10.180   7.147  68.145  1.00  0.00    -0.188 C  
HETATM   10  C   UNL     1     -10.586   8.884  69.736  1.00  0.00    -0.224 C  
HETATM   11  H   UNL     1     -10.217   8.310  71.654  1.00  0.00     0.000 HD 
HETATM   12  O   UNL     1     -11.202   9.888  70.078  1.00  0.00    -0.251 OA 
HETATM   13  N   UNL     1     -10.378   8.494  68.436  1.00  0.00    -0.210 N  
BRANCH   3  14
HETATM   14  C   UNL     1      -8.832   4.985  68.939  1.00  0.00    -0.111 A  
HETATM   15  C   UNL     1      -9.351   2.748  68.122  1.00  0.00    -0.258 A  
HETATM   16  C   UNL     1      -7.191   3.154  69.085  1.00  0.00    -0.048 A  
HETATM   17  C   UNL     1      -7.570   4.472  69.334  1.00  0.00    -0.055 A  
HETATM   18  C   UNL     1      -9.736   4.071  68.382  1.00  0.00    -0.135 A  
HETATM   19  C   UNL     1      -8.073   2.298  68.448  1.00  0.00    -0.068 A  
ENDBRANCH   3  14
ENDBRANCH   2   3
TORSDOF 2
ENDMDL
MODEL      161
REMARK 921   NORMALIZED FREE ENERGY PREDICTED BY IDOCK:   -2.49 KCAL/MOL
REMARK 922        TOTAL FREE ENERGY PREDICTED BY IDOCK:   -2.55 KCAL/MOL
REMARK 923 INTER-LIGAND FREE ENERGY PREDICTED BY IDOCK:   -3.69 KCAL/MOL
REMARK 924 INTRA-LIGAND FREE ENERGY PREDICTED BY IDOCK:    1.15 KCAL/MOL
REMARK 927      BINDING AFFINITY PREDICTED BY RF-SCORE:    0.00 PKD
ROOT
HETATM    1  C   UNL     1      -9.518   7.578  67.483  1.00  0.00    -0.165 C  
HETATM    2  C   UNL     1     -10.129   8.893  67.998  1.00  0.00    -0.239 C  
ENDROOT
BRANCH   2   3
HETATM    3  C   UNL     1      -9.721   9.245  69.482  1.00  0.00    -0.179 C  
HETATM    4  C   UNL     1      -9.324   7.948  70.230  1.00  0.00    -0.159 C  
HETATM    5  O   UNL     1      -8.409  11.330  69.295  1.00  0.00     0.003 OA 
HETATM    6  C   UNL     1      -6.452   9.891  67.882  1.00  0.00    -0.059 C  
HETATM    7  N   UNL     1      -7.990   7.629  70.275  1.00  0.00    -0.100 N  
HETATM    8  O   UNL     1     -10.117   7.154  70.736  1.00  0.00    -0.190 OA 
HETATM    9  C   UNL     1      -8.453  10.102  69.278  1.00  0.00    -0.163 C  
HETATM   10  C   UNL     1      -6.984   8.243  69.593  1.00  0.00    -0.045 C  
HETATM   11  H   UNL     1      -7.725   6.852  70.881  1.00  0.00     0.000 HD 
HETATM   12  O   UNL     1      -5.849   7.782  69.633  1.00  0.00    -0.023 OA 
HETATM   13  N   UNL     1      -7.360   9.346  68.865  1.00  0.00    -0.072 N  
BRANCH   3  14
HETATM   14  C   UNL     1     -10.972   9.894  70.136  1.00  0.00    -0.356 A  
HETATM   15  C   UNL     1     -12.550  10.193  71.969  1.00  0.00    -0.351 A  
HETATM   16  C   UNL     1     -12.342  11.931  70.328  1.00  0.00    -0.287 A  
HETATM   17  C   UNL     1     -11.404  11.153  69.650  1.00  0.00    -0.366 A  
HETATM   18  C   UNL     1     -11.614   9.406  71.281  1.00  0.00    -0.434 A  
HETATM   19  C   UNL     1     -12.893  11.462  71.509  1.00  0.00    -0.508 A  
ENDBRANCH   3  14
ENDBRANCH   2   3
TORSDOF 2
ENDMDL
MODEL      162
REMARK 921   NORMALIZED FREE ENERGY PREDICTED BY IDOCK:   -2.44 KCAL/MOL
REMARK 922        TOTAL FREE ENERGY PREDICTED BY IDOCK:   -2.50 KCAL/MOL
REMARK 923 INTER-LIGAND FREE ENERGY PREDICTED BY IDOCK:   -2.37 KCAL/MOL
REMARK 924 INTRA-LIGAND FREE ENERGY PREDICTED BY IDOCK:   -0.13 KCAL/MOL
REMARK 927      BINDING AFFINITY PREDICTED BY RF-SCORE:    0.00 PKD
ROOT
HETATM    1  C   UNL     1      -6.669   8.354  65.241  1.00  0.00    -0.056 C  
HETATM    2  C   UNL     1      -8.046   7.669  65.269  1.00  0.00    -0.133 C  
ENDROOT
BRANCH   2   3
HETATM    3  C   UNL     1      -8.523   7.258  66.716  1.00  0.00    -0.121 C  
HETATM    4  C   UNL     1      -7.480   7.736  67.759  1.00  0.00    -0.104 C  
HETATM    5  O   UNL     1     -10.955   7.688  66.724  1.00  0.00    -0.183 OA 
HETATM    6  C   UNL     1     -10.403  10.428  66.437  1.00  0.00    -0.213 C  
HETATM    7  N   UNL     1      -7.708   8.943  68.370  1.00  0.00    -0.098 N  
HETATM    8  O   UNL     1      -6.437   7.145  68.036  1.00  0.00    -0.044 OA 
HETATM    9  C   UNL     1      -9.809   8.096  66.888  1.00  0.00    -0.247 C  
HETATM   10  C   UNL     1      -8.670   9.850  68.046  1.00  0.00    -0.125 C  
HETATM   11  H   UNL     1      -7.094   9.185  69.148  1.00  0.00     0.000 HD 
HETATM   12  O   UNL     1      -8.689  10.944  68.599  1.00  0.00    -0.142 OA 
HETATM   13  N   UNL     1      -9.541   9.451  67.062  1.00  0.00    -0.151 N  
BRANCH   3  14
HETATM   14  C   UNL     1      -8.628   5.708  66.718  1.00  0.00    -0.111 A  
HETATM   15  C   UNL     1      -7.962   3.489  65.961  1.00  0.00    -0.092 A  
HETATM   16  C   UNL     1      -9.086   3.702  68.070  1.00  0.00    -0.198 A  
HETATM   17  C   UNL     1      -9.182   5.076  67.859  1.00  0.00    -0.135 A  
HETATM   18  C   UNL     1      -8.068   4.871  65.744  1.00  0.00    -0.112 A  
HETATM   19  C   UNL     1      -8.445   2.910  67.132  1.00  0.00    -0.104 A  
ENDBRANCH   3  14
ENDBRANCH   2   3
TORSDOF 2
ENDMDL
MODEL      163
REMARK 921   NORMALIZED FREE ENERGY PREDICTED BY IDOCK:   -2.32 KCAL/MOL
REMARK 922        TOTAL FREE ENERGY PREDICTED BY IDOCK:   -2.37 KCAL/MOL
REMARK 923 INTER-LIGAND FREE ENERGY PREDICTED BY IDOCK:   -2.48 KCAL/MOL
REMARK 924 INTRA-LIGAND FREE ENERGY PREDICTED BY IDOCK:    0.12 KCAL/MOL
REMARK 927      BINDING AFFINITY PREDICTED BY RF-SCORE:    0.00 PKD
ROOT
HETATM    1  C   UNL     1      -7.813   8.716  65.748  1.00  0.00    -0.100 C  
HETATM    2  C   UNL     1      -8.995   8.554  66.720  1.00  0.00    -0.173 C  
ENDROOT
BRANCH   2   3
HETATM    3  C   UNL     1      -8.665   8.990  68.200  1.00  0.00    -0.130 C  
HETATM    4  C   UNL     1      -9.840   8.594  69.130  1.00  0.00    -0.185 C  
HETATM    5  O   UNL     1      -6.272   8.450  68.496  1.00  0.00    -0.050 OA 
HETATM    6  C   UNL     1      -6.922   5.730  68.223  1.00  0.00    -0.069 C  
HETATM    7  N   UNL     1      -9.741   7.398  69.796  1.00  0.00    -0.170 N  
HETATM    8  O   UNL     1     -10.878   9.241  69.270  1.00  0.00    -0.221 OA 
HETATM    9  C   UNL     1      -7.449   8.100  68.540  1.00  0.00    -0.099 C  
HETATM   10  C   UNL     1      -8.795   6.438  69.608  1.00  0.00    -0.137 C  
HETATM   11  H   UNL     1     -10.450   7.210  70.505  1.00  0.00     0.000 HD 
HETATM   12  O   UNL     1      -8.891   5.363  70.189  1.00  0.00    -0.122 OA 
HETATM   13  N   UNL     1      -7.800   6.765  68.719  1.00  0.00    -0.110 N  
BRANCH   3  14
HETATM   14  C   UNL     1      -8.485  10.532  68.172  1.00  0.00    -0.123 A  
HETATM   15  C   UNL     1      -7.192  12.571  68.505  1.00  0.00    -0.110 A  
HETATM   16  C   UNL     1      -9.079  12.629  67.024  1.00  0.00    -0.215 A  
HETATM   17  C   UNL     1      -9.326  11.289  67.316  1.00  0.00    -0.173 A  
HETATM   18  C   UNL     1      -7.446  11.225  68.807  1.00  0.00    -0.123 A  
HETATM   19  C   UNL     1      -7.989  13.263  67.596  1.00  0.00    -0.176 A  
ENDBRANCH   3  14
ENDBRANCH   2   3
TORSDOF 2
ENDMDL
MODEL      164
REMARK 921   NORMALIZED FREE ENERGY PREDICTED BY IDOCK:   -2.30 KCAL/MOL
REMARK 922        TOTAL FREE ENERGY PREDICTED BY IDOCK:   -2.34 KCAL/MOL
REMARK 923 INTER-LIGAND FREE ENERGY PREDICTED BY IDOCK:   -3.58 KCAL/MOL
REMARK 924 INTRA-LIGAND FREE ENERGY PREDICTED BY IDOCK:    1.24 KCAL/MOL
REMARK 927      BINDING AFFINITY PREDICTED BY RF-SCORE:    0.00 PKD
ROOT
HETATM    1  C   UNL     1     -11.334  11.123  70.336  1.00  0.00    -0.147 C  
HETATM    2  C   UNL     1     -11.453   9.616  70.622  1.00  0.00    -0.376 C  
ENDROOT
BRANCH   2   3
HETATM    3  C   UNL     1     -10.300   8.753  69.976  1.00  0.00    -0.213 C  
HETATM    4  C   UNL     1     -10.905   7.784  68.929  1.00  0.00     0.006 C  
HETATM    5  O   UNL     1      -8.435  10.341  69.648  1.00  0.00    -0.169 OA 
HETATM    6  C   UNL     1     -10.022  11.713  67.779  1.00  0.00    -0.181 C  
HETATM    7  N   UNL     1     -10.903   8.191  67.619  1.00  0.00    -0.507 N  
HETATM    8  O   UNL     1     -11.437   6.706  69.191  1.00  0.00    -0.244 OA 
HETATM    9  C   UNL     1      -9.469   9.822  69.233  1.00  0.00    -0.194 C  
HETATM   10  C   UNL     1     -10.575   9.427  67.151  1.00  0.00    -0.224 C  
HETATM   11  H   UNL     1     -11.176   7.496  66.923  1.00  0.00     0.000 HD 
HETATM   12  O   UNL     1     -10.729   9.692  65.964  1.00  0.00     0.046 OA 
HETATM   13  N   UNL     1     -10.116  10.307  68.101  1.00  0.00    -0.146 N  
BRANCH   3  14
HETATM   14  C   UNL     1      -9.642   7.962  71.139  1.00  0.00    -0.181 A  
HETATM   15  C   UNL     1      -7.797   6.739  72.159  1.00  0.00    -0.095 A  
HETATM   16  C   UNL     1      -9.470   7.702  73.582  1.00  0.00    -0.340 A  
HETATM   17  C   UNL     1     -10.145   8.157  72.451  1.00  0.00    -0.355 A  
HETATM   18  C   UNL     1      -8.481   7.188  71.019  1.00  0.00    -0.129 A  
HETATM   19  C   UNL     1      -8.275   7.019  73.437  1.00  0.00    -0.126 A  
ENDBRANCH   3  14
ENDBRANCH   2   3
TORSDOF 2
ENDMDL
MODEL      165
REMARK 921   NORMALIZED FREE ENERGY PREDICTED BY IDOCK:   -2.25 KCAL/MOL
REMARK 922        TOTAL FREE ENERGY PREDICTED BY IDOCK:   -2.29 KCAL/MOL
REMARK 923 INTER-LIGAND FREE ENERGY PREDICTED BY IDOCK:   -2.42 KCAL/MOL
REMARK 924 INTRA-LIGAND FREE ENERGY PREDICTED BY IDOCK:    0.14 KCAL/MOL
REMARK 927      BINDING AFFINITY PREDICTED BY RF-SCORE:    0.00 PKD
ROOT
HETATM    1  C   UNL     1      -7.182   6.762  64.306  1.00  0.00    -0.070 C  
HETATM    2  C   UNL     1      -8.508   6.066  64.660  1.00  0.00    -0.004 C  
ENDROOT
BRANCH   2   3
HETATM    3  C   UNL     1      -8.709   5.829  66.207  1.00  0.00    -0.134 C  
HETATM    4  C   UNL     1     -10.043   5.075  66.445  1.00  0.00    -0.249 C  
HETATM    5  O   UNL     1      -6.469   5.211  67.044  1.00  0.00    -0.042 OA 
HETATM    6  C   UNL     1      -6.612   2.869  65.499  1.00  0.00    -0.036 C  
HETATM    7  N   UNL     1      -9.982   3.710  66.565  1.00  0.00    -0.385 N  
HETATM    8  O   UNL     1     -11.155   5.602  66.477  1.00  0.00    -0.194 OA 
HETATM    9  C   UNL     1      -7.541   4.877  66.546  1.00  0.00    -0.088 C  
HETATM   10  C   UNL     1      -8.897   2.920  66.335  1.00  0.00    -0.145 C  
HETATM   11  H   UNL     1     -10.839   3.238  66.855  1.00  0.00     0.000 HD 
HETATM   12  O   UNL     1      -9.012   1.700  66.366  1.00  0.00    -0.120 OA 
HETATM   13  N   UNL     1      -7.736   3.594  66.044  1.00  0.00    -0.088 N  
BRANCH   3  14
HETATM   14  C   UNL     1      -8.750   7.235  66.863  1.00  0.00    -0.126 A  
HETATM   15  C   UNL     1      -8.053   8.872  68.529  1.00  0.00    -0.108 A  
HETATM   16  C   UNL     1      -9.025   9.653  66.480  1.00  0.00    -0.171 A  
HETATM   17  C   UNL     1      -9.193   8.329  66.077  1.00  0.00    -0.226 A  
HETATM   18  C   UNL     1      -8.231   7.540  68.128  1.00  0.00    -0.125 A  
HETATM   19  C   UNL     1      -8.423   9.925  67.697  1.00  0.00    -0.114 A  
ENDBRANCH   3  14
ENDBRANCH   2   3
TORSDOF 2
ENDMDL
MODEL      166
REMARK 921   NORMALIZED FREE ENERGY PREDICTED BY IDOCK:   -2.25 KCAL/MOL
REMARK 922        TOTAL FREE ENERGY PREDICTED BY IDOCK:   -2.28 KCAL/MOL
REMARK 923 INTER-LIGAND FREE ENERGY PREDICTED BY IDOCK:   -2.14 KCAL/MOL
REMARK 924 INTRA-LIGAND FREE ENERGY PREDICTED BY IDOCK:   -0.14 KCAL/MOL
REMARK 927      BINDING AFFINITY PREDICTED BY RF-SCORE:    0.00 PKD
ROOT
HETATM    1  C   UNL     1      -8.556   9.102  66.459  1.00  0.00    -0.136 C  
HETATM    2  C   UNL     1      -9.166   7.694  66.350  1.00  0.00    -0.223 C  
ENDROOT
BRANCH   2   3
HETATM    3  C   UNL     1      -8.222   6.548  66.885  1.00  0.00    -0.113 C  
HETATM    4  C   UNL     1      -7.163   7.155  67.841  1.00  0.00    -0.091 C  
HETATM    5  O   UNL     1      -9.733   4.646  67.336  1.00  0.00    -0.163 OA 
HETATM    6  C   UNL     1     -10.939   6.173  69.363  1.00  0.00    -0.385 C  
HETATM    7  N   UNL     1      -7.436   7.123  69.185  1.00  0.00    -0.092 N  
HETATM    8  O   UNL     1      -6.127   7.714  67.482  1.00  0.00    -0.045 OA 
HETATM    9  C   UNL     1      -9.194   5.683  67.716  1.00  0.00    -0.106 C  
HETATM   10  C   UNL     1      -8.612   6.762  69.768  1.00  0.00    -0.141 C  
HETATM   11  H   UNL     1      -6.680   7.399  69.812  1.00  0.00     0.000 HD 
HETATM   12  O   UNL     1      -8.759   6.891  70.979  1.00  0.00    -0.135 OA 
HETATM   13  N   UNL     1      -9.575   6.301  68.904  1.00  0.00    -0.126 N  
BRANCH   3  14
HETATM   14  C   UNL     1      -7.539   5.926  65.636  1.00  0.00    -0.084 A  
HETATM   15  C   UNL     1      -6.216   4.213  64.516  1.00  0.00    -0.026 A  
HETATM   16  C   UNL     1      -7.670   5.595  63.199  1.00  0.00    -0.085 A  
HETATM   17  C   UNL     1      -8.033   6.283  64.356  1.00  0.00    -0.113 A  
HETATM   18  C   UNL     1      -6.574   4.912  65.678  1.00  0.00    -0.041 A  
HETATM   19  C   UNL     1      -6.782   4.535  63.285  1.00  0.00    -0.038 A  
ENDBRANCH   3  14
ENDBRANCH   2   3
TORSDOF 2
ENDMDL
MODEL      167
REMARK 921   NORMALIZED FREE ENERGY PREDICTED BY IDOCK:   -2.16 KCAL/MOL
REMARK 922        TOTAL FREE ENERGY PREDICTED BY IDOCK:   -2.18 KCAL/MOL
REMARK 923 INTER-LIGAND FREE ENERGY PREDICTED BY IDOCK:   -3.27 KCAL/MOL
REMARK 924 INTRA-LIGAND FREE ENERGY PREDICTED BY IDOCK:    1.09 KCAL/MOL
REMARK 927      BINDING AFFINITY PREDICTED BY RF-SCORE:    0.00 PKD
ROOT
HETATM    1  C   UNL     1      -7.147  15.042  68.726  1.00  0.00    -0.114 C  
HETATM    2  C   UNL     1      -8.211  13.981  69.058  1.00  0.00     0.116 C  
ENDROOT
BRANCH   2   3
HETATM    3  C   UNL     1      -9.398  13.925  68.020  1.00  0.00    -0.204 C  
HETATM    4  C   UNL     1     -10.747  14.068  68.770  1.00  0.00    -0.259 C  
HETATM    5  O   UNL     1      -8.609  15.250  66.090  1.00  0.00    -0.177 OA 
HETATM    6  C   UNL     1      -8.632  17.529  67.732  1.00  0.00    -0.230 C  
HETATM    7  N   UNL     1     -11.295  15.323  68.849  1.00  0.00    -0.285 N  
HETATM    8  O   UNL     1     -11.333  13.152  69.348  1.00  0.00    -0.258 OA 
HETATM    9  C   UNL     1      -9.164  15.203  67.185  1.00  0.00    -0.213 C  
HETATM   10  C   UNL     1     -10.703  16.493  68.481  1.00  0.00    -0.336 C  
HETATM   11  H   UNL     1     -12.242  15.387  69.223  1.00  0.00     0.000 HD 
HETATM   12  O   UNL     1     -11.261  17.560  68.715  1.00  0.00     0.158 OA 
HETATM   13  N   UNL     1      -9.470  16.363  67.890  1.00  0.00    -0.221 N  
BRANCH   3  14
HETATM   14  C   UNL     1      -9.304  12.541  67.322  1.00  0.00    -0.190 A  
HETATM   15  C   UNL     1     -10.081  10.847  65.750  1.00  0.00    -0.308 A  
HETATM   16  C   UNL     1      -7.795  10.787  66.478  1.00  0.00    -0.145 A  
HETATM   17  C   UNL     1      -8.044  11.891  67.291  1.00  0.00    -0.171 A  
HETATM   18  C   UNL     1     -10.334  11.953  66.576  1.00  0.00    -0.249 A  
HETATM   19  C   UNL     1      -8.809  10.283  65.680  1.00  0.00    -0.186 A  
ENDBRANCH   3  14
ENDBRANCH   2   3
TORSDOF 2
ENDMDL
MODEL      168
REMARK 921   NORMALIZED FREE ENERGY PREDICTED BY IDOCK:   -1.92 KCAL/MOL
REMARK 922        TOTAL FREE ENERGY PREDICTED BY IDOCK:   -1.91 KCAL/MOL
REMARK 923 INTER-LIGAND FREE ENERGY PREDICTED BY IDOCK:   -2.51 KCAL/MOL
REMARK 924 INTRA-LIGAND FREE ENERGY PREDICTED BY IDOCK:    0.60 KCAL/MOL
REMARK 927      BINDING AFFINITY PREDICTED BY RF-SCORE:    0.00 PKD
ROOT
HETATM    1  C   UNL     1      -8.236   7.841  74.047  1.00  0.00    -0.268 C  
HETATM    2  C   UNL     1      -7.641   8.437  72.760  1.00  0.00    -0.119 C  
ENDROOT
BRANCH   2   3
HETATM    3  C   UNL     1      -8.368   7.960  71.443  1.00  0.00    -0.119 C  
HETATM    4  C   UNL     1      -8.218   9.046  70.347  1.00  0.00    -0.151 C  
HETATM    5  O   UNL     1      -7.819   5.559  71.257  1.00  0.00    -0.104 OA 
HETATM    6  C   UNL     1      -5.127   6.273  70.884  1.00  0.00    -0.014 C  
HETATM    7  N   UNL     1      -7.187   8.902  69.453  1.00  0.00    -0.060 N  
HETATM    8  O   UNL     1      -8.916  10.056  70.255  1.00  0.00    -0.123 OA 
HETATM    9  C   UNL     1      -7.528   6.731  71.032  1.00  0.00    -0.083 C  
HETATM   10  C   UNL     1      -6.176   7.993  69.518  1.00  0.00    -0.034 C  
HETATM   11  H   UNL     1      -7.178   9.542  68.659  1.00  0.00     0.000 HD 
HETATM   12  O   UNL     1      -5.252   8.049  68.714  1.00  0.00    -0.023 OA 
HETATM   13  N   UNL     1      -6.274   7.083  70.542  1.00  0.00    -0.031 N  
BRANCH   3  14
HETATM   14  C   UNL     1      -9.862   7.761  71.816  1.00  0.00    -0.210 A  
HETATM   15  C   UNL     1     -11.964   8.489  72.812  1.00  0.00    -0.159 A  
HETATM   16  C   UNL     1     -12.013   6.769  71.141  1.00  0.00    -0.421 A  
HETATM   17  C   UNL     1     -10.623   6.832  71.061  1.00  0.00    -0.252 A  
HETATM   18  C   UNL     1     -10.564   8.547  72.739  1.00  0.00    -0.081 A  
HETATM   19  C   UNL     1     -12.688   7.623  71.996  1.00  0.00    -0.261 A  
ENDBRANCH   3  14
ENDBRANCH   2   3
TORSDOF 2
ENDMDL
MODEL      169
REMARK 921   NORMALIZED FREE ENERGY PREDICTED BY IDOCK:   -1.87 KCAL/MOL
REMARK 922        TOTAL FREE ENERGY PREDICTED BY IDOCK:   -1.86 KCAL/MOL
REMARK 923 INTER-LIGAND FREE ENERGY PREDICTED BY IDOCK:   -1.83 KCAL/MOL
REMARK 924 INTRA-LIGAND FREE ENERGY PREDICTED BY IDOCK:   -0.02 KCAL/MOL
REMARK 927      BINDING AFFINITY PREDICTED BY RF-SCORE:    0.00 PKD
ROOT
HETATM    1  C   UNL     1      -9.941   5.830  68.222  1.00  0.00    -0.185 C  
HETATM    2  C   UNL     1      -8.469   6.270  68.153  1.00  0.00    -0.114 C  
ENDROOT
BRANCH   2   3
HETATM    3  C   UNL     1      -7.810   6.069  66.733  1.00  0.00    -0.101 C  
HETATM    4  C   UNL     1      -6.269   6.176  66.858  1.00  0.00    -0.032 C  
HETATM    5  O   UNL     1      -9.106   4.241  65.693  1.00  0.00    -0.124 OA 
HETATM    6  C   UNL     1      -8.115   2.506  67.669  1.00  0.00    -0.068 C  
HETATM    7  N   UNL     1      -5.565   5.007  66.999  1.00  0.00    -0.013 N  
HETATM    8  O   UNL     1      -5.636   7.231  66.898  1.00  0.00    -0.021 OA 
HETATM    9  C   UNL     1      -8.175   4.604  66.407  1.00  0.00    -0.107 C  
HETATM   10  C   UNL     1      -6.084   3.766  67.206  1.00  0.00    -0.028 C  
HETATM   11  H   UNL     1      -4.549   5.075  66.944  1.00  0.00     0.000 HD 
HETATM   12  O   UNL     1      -5.336   2.821  67.433  1.00  0.00    -0.015 OA 
HETATM   13  N   UNL     1      -7.455   3.693  67.175  1.00  0.00    -0.070 N  
BRANCH   3  14
HETATM   14  C   UNL     1      -8.366   7.203  65.829  1.00  0.00    -0.144 A  
HETATM   15  C   UNL     1      -9.216   9.456  65.452  1.00  0.00    -0.305 A  
HETATM   16  C   UNL     1      -8.305   8.239  63.596  1.00  0.00    -0.022 A  
HETATM   17  C   UNL     1      -8.079   7.155  64.441  1.00  0.00    -0.056 A  
HETATM   18  C   UNL     1      -8.998   8.361  66.301  1.00  0.00    -0.213 A  
HETATM   19  C   UNL     1      -8.846   9.406  64.110  1.00  0.00    -0.216 A  
ENDBRANCH   3  14
ENDBRANCH   2   3
TORSDOF 2
ENDMDL
MODEL      170
REMARK 921   NORMALIZED FREE ENERGY PREDICTED BY IDOCK:   -1.77 KCAL/MOL
REMARK 922        TOTAL FREE ENERGY PREDICTED BY IDOCK:   -1.75 KCAL/MOL
REMARK 923 INTER-LIGAND FREE ENERGY PREDICTED BY IDOCK:   -2.10 KCAL/MOL
REMARK 924 INTRA-LIGAND FREE ENERGY PREDICTED BY IDOCK:    0.35 KCAL/MOL
REMARK 927      BINDING AFFINITY PREDICTED BY RF-SCORE:    0.00 PKD
ROOT
HETATM    1  C   UNL     1      -7.201  19.604  69.476  1.00  0.00    -0.215 C  
HETATM    2  C   UNL     1      -6.440  18.684  68.505  1.00  0.00    -0.240 C  
ENDROOT
BRANCH   2   3
HETATM    3  C   UNL     1      -7.374  17.705  67.692  1.00  0.00    -0.202 C  
HETATM    4  C   UNL     1      -6.520  16.889  66.689  1.00  0.00    -0.200 C  
HETATM    5  O   UNL     1      -8.969  16.828  69.362  1.00  0.00    -0.080 OA 
HETATM    6  C   UNL     1      -6.820  15.554  70.647  1.00  0.00     0.681 C  
HETATM    7  N   UNL     1      -6.096  15.646  67.087  1.00  0.00     0.075 N  
HETATM    8  O   UNL     1      -6.145  17.294  65.589  1.00  0.00    -0.021 OA 
HETATM    9  C   UNL     1      -7.883  16.749  68.794  1.00  0.00    -0.243 C  
HETATM   10  C   UNL     1      -6.206  15.110  68.334  1.00  0.00    -0.108 C  
HETATM   11  H   UNL     1      -5.653  15.064  66.376  1.00  0.00     0.000 HD 
HETATM   12  O   UNL     1      -5.679  14.031  68.584  1.00  0.00    -0.079 OA 
HETATM   13  N   UNL     1      -6.895  15.877  69.241  1.00  0.00    -0.177 N  
BRANCH   3  14
HETATM   14  C   UNL     1      -8.396  18.600  66.940  1.00  0.00    -0.269 A  
HETATM   15  C   UNL     1     -10.620  19.096  66.076  1.00  0.00    -0.524 A  
HETATM   16  C   UNL     1      -9.084  20.906  66.419  1.00  0.00     0.392 A  
HETATM   17  C   UNL     1      -8.124  19.988  66.839  1.00  0.00    -0.361 A  
HETATM   18  C   UNL     1      -9.651  18.170  66.489  1.00  0.00    -0.318 A  
HETATM   19  C   UNL     1     -10.347  20.462  66.067  1.00  0.00    -0.213 A  
ENDBRANCH   3  14
ENDBRANCH   2   3
TORSDOF 2
ENDMDL
MODEL      171
REMARK 921   NORMALIZED FREE ENERGY PREDICTED BY IDOCK:   -1.52 KCAL/MOL
REMARK 922        TOTAL FREE ENERGY PREDICTED BY IDOCK:   -1.47 KCAL/MOL
REMARK 923 INTER-LIGAND FREE ENERGY PREDICTED BY IDOCK:   -2.98 KCAL/MOL
REMARK 924 INTRA-LIGAND FREE ENERGY PREDICTED BY IDOCK:    1.51 KCAL/MOL
REMARK 927      BINDING AFFINITY PREDICTED BY RF-SCORE:    0.00 PKD
ROOT
HETATM    1  C   UNL     1     -10.921   5.853  69.024  1.00  0.00    -0.359 C  
HETATM    2  C   UNL     1      -9.801   5.622  70.054  1.00  0.00    -0.247 C  
ENDROOT
BRANCH   2   3
HETATM    3  C   UNL     1      -8.829   6.854  70.225  1.00  0.00    -0.148 C  
HETATM    4  C   UNL     1      -7.439   6.502  69.637  1.00  0.00    -0.093 C  
HETATM    5  O   UNL     1     -10.220   8.829  69.703  1.00  0.00    -0.198 OA 
HETATM    6  C   UNL     1     -10.433   7.896  67.061  1.00  0.00    -0.349 C  
HETATM    7  N   UNL     1      -7.187   6.884  68.344  1.00  0.00    -0.085 N  
HETATM    8  O   UNL     1      -6.570   5.855  70.221  1.00  0.00    -0.041 OA 
HETATM    9  C   UNL     1      -9.489   7.919  69.320  1.00  0.00    -0.152 C  
HETATM   10  C   UNL     1      -8.083   7.400  67.458  1.00  0.00    -0.114 C  
HETATM   11  H   UNL     1      -6.228   6.770  68.012  1.00  0.00     0.000 HD 
HETATM   12  O   UNL     1      -7.750   7.592  66.294  1.00  0.00    -0.086 OA 
HETATM   13  N   UNL     1      -9.337   7.634  67.966  1.00  0.00    -0.140 N  
BRANCH   3  14
HETATM   14  C   UNL     1      -8.726   7.122  71.751  1.00  0.00    -0.121 A  
HETATM   15  C   UNL     1      -8.929   6.458  74.087  1.00  0.00    -0.161 A  
HETATM   16  C   UNL     1      -7.503   8.306  73.531  1.00  0.00    -0.175 A  
HETATM   17  C   UNL     1      -7.863   8.156  72.193  1.00  0.00    -0.160 A  
HETATM   18  C   UNL     1      -9.299   6.314  72.742  1.00  0.00    -0.144 A  
HETATM   19  C   UNL     1      -8.014   7.433  74.477  1.00  0.00    -0.205 A  
ENDBRANCH   3  14
ENDBRANCH   2   3
TORSDOF 2
ENDMDL
MODEL      172
REMARK 921   NORMALIZED FREE ENERGY PREDICTED BY IDOCK:    5.45 KCAL/MOL
REMARK 922        TOTAL FREE ENERGY PREDICTED BY IDOCK:    6.31 KCAL/MOL
REMARK 923 INTER-LIGAND FREE ENERGY PREDICTED BY IDOCK:    4.94 KCAL/MOL
REMARK 924 INTRA-LIGAND FREE ENERGY PREDICTED BY IDOCK:    1.38 KCAL/MOL
REMARK 927      BINDING AFFINITY PREDICTED BY RF-SCORE:    0.00 PKD
ROOT
HETATM    1  C   UNL     1      -9.889  18.601  70.952  1.00  0.00     3.113 C  
HETATM    2  C   UNL     1     -10.490  18.794  69.549  1.00  0.00     0.681 C  
ENDROOT
BRANCH   2   3
HETATM    3  C   UNL     1      -9.815  17.900  68.439  1.00  0.00    -0.355 C  
HETATM    4  C   UNL     1      -8.332  17.646  68.810  1.00  0.00    -0.215 C  
HETATM    5  O   UNL     1     -11.525  16.211  67.866  1.00  0.00    -0.248 OA 
HETATM    6  C   UNL     1     -11.283  15.181  70.469  1.00  0.00    -0.280 C  
HETATM    7  N   UNL     1      -8.038  16.484  69.478  1.00  0.00     0.070 N  
HETATM    8  O   UNL     1      -7.409  18.434  68.604  1.00  0.00    -0.279 OA 
HETATM    9  C   UNL     1     -10.588  16.569  68.575  1.00  0.00    -0.318 C  
HETATM   10  C   UNL     1      -8.931  15.597  69.997  1.00  0.00     0.384 C  
HETATM   11  H   UNL     1      -7.050  16.262  69.597  1.00  0.00     0.000 HD 
HETATM   12  O   UNL     1      -8.533  14.655  70.673  1.00  0.00     1.387 OA 
HETATM   13  N   UNL     1     -10.250  15.873  69.732  1.00  0.00    -0.278 N  
BRANCH   3  14
HETATM   14  C   UNL     1      -9.918  18.698  67.111  1.00  0.00    -0.360 A  
HETATM   15  C   UNL     1     -11.083  19.402  65.089  1.00  0.00     0.756 A  
HETATM   16  C   UNL     1      -9.297  20.766  65.927  1.00  0.00     0.519 A  
HETATM   17  C   UNL     1      -9.098  19.844  66.953  1.00  0.00    -0.452 A  
HETATM   18  C   UNL     1     -10.877  18.469  66.116  1.00  0.00    -0.068 A  
HETATM   19  C   UNL     1     -10.314  20.560  65.010  1.00  0.00     0.882 A  
ENDBRANCH   3  14
ENDBRANCH   2   3
TORSDOF 2
ENDMDL
MODEL      173
REMARK 921   NORMALIZED FREE ENERGY PREDICTED BY IDOCK:   11.69 KCAL/MOL
REMARK 922        TOTAL FREE ENERGY PREDICTED BY IDOCK:   13.28 KCAL/MOL
REMARK 923 INTER-LIGAND FREE ENERGY PREDICTED BY IDOCK:   12.39 KCAL/MOL
REMARK 924 INTRA-LIGAND FREE ENERGY PREDICTED BY IDOCK:    0.89 KCAL/MOL
REMARK 927      BINDING AFFINITY PREDICTED BY RF-SCORE:    0.00 PKD
ROOT
HETATM    1  C   UNL     1     -10.292  19.044  70.798  1.00  0.00     2.056 C  
HETATM    2  C   UNL     1     -10.791  18.994  69.343  1.00  0.00     1.404 C  
ENDROOT
BRANCH   2   3
HETATM    3  C   UNL     1      -9.879  18.130  68.387  1.00  0.00    -0.380 C  
HETATM    4  C   UNL     1     -10.765  17.401  67.346  1.00  0.00    -0.251 C  
HETATM    5  O   UNL     1      -7.908  19.553  67.944  1.00  0.00    -0.279 OA 
HETATM    6  C   UNL     1      -9.595  21.352  66.598  1.00  0.00     1.479 C  
HETATM    7  N   UNL     1     -10.928  18.005  66.124  1.00  0.00     0.095 N  
HETATM    8  O   UNL     1     -11.379  16.355  67.551  1.00  0.00    -0.100 OA 
HETATM    9  C   UNL     1      -9.053  19.212  67.657  1.00  0.00    -0.297 C  
HETATM   10  C   UNL     1     -10.528  19.259  65.777  1.00  0.00    -0.359 C  
HETATM   11  H   UNL     1     -11.398  17.458  65.403  1.00  0.00     0.000 HD 
HETATM   12  O   UNL     1     -10.841  19.719  64.685  1.00  0.00     0.158 OA 
HETATM   13  N   UNL     1      -9.812  19.930  66.738  1.00  0.00    -0.395 N  
BRANCH   3  14
HETATM   14  C   UNL     1      -9.144  17.105  69.293  1.00  0.00     0.106 A  
HETATM   15  C   UNL     1      -7.202  16.307  70.531  1.00  0.00     1.750 A  
HETATM   16  C   UNL     1      -9.373  15.483  71.132  1.00  0.00     2.586 A  
HETATM   17  C   UNL     1      -9.927  16.248  70.107  1.00  0.00     0.396 A  
HETATM   18  C   UNL     1      -7.757  17.068  69.492  1.00  0.00     0.326 A  
HETATM   19  C   UNL     1      -8.009  15.538  71.366  1.00  0.00     4.098 A  
ENDBRANCH   3  14
ENDBRANCH   2   3
TORSDOF 2
ENDMDL
