MODEL        1
REMARK 921   NORMALIZED FREE ENERGY PREDICTED BY IDOCK:   -5.74 KCAL/MOL
REMARK 922        TOTAL FREE ENERGY PREDICTED BY IDOCK:   -6.38 KCAL/MOL
REMARK 923 INTER-LIGAND FREE ENERGY PREDICTED BY IDOCK:   -6.08 KCAL/MOL
REMARK 924 INTRA-LIGAND FREE ENERGY PREDICTED BY IDOCK:   -0.30 KCAL/MOL
REMARK 927      BINDING AFFINITY PREDICTED BY RF-SCORE:    0.00 PKD
ROOT
HETATM    1  C   UNL     1     -10.542  16.180  65.135  1.00  0.00    -0.343 C  
HETATM    2  N   UNL     1     -11.067  14.855  65.359  1.00  0.00    -0.348 N  
HETATM    3  C   UNL     1     -12.137  14.337  64.704  1.00  0.00    -0.463 C  
HETATM    4  C   UNL     1     -12.465  12.996  65.287  1.00  0.00    -0.555 C  
HETATM    5  O   UNL     1     -12.756  14.853  63.786  1.00  0.00    -0.754 OA 
HETATM    6  C   UNL     1     -11.271  12.651  66.209  1.00  0.00    -0.354 C  
HETATM    7  O   UNL     1      -9.286  14.067  66.577  1.00  0.00    -0.278 OA 
HETATM    8  C   UNL     1     -10.498  11.479  65.572  1.00  0.00    -0.327 C  
HETATM    9  C   UNL     1     -10.410  13.919  66.102  1.00  0.00    -0.301 C  
ENDROOT
BRANCH   6  10
HETATM   10  C   UNL     1     -11.587  12.371  67.689  1.00  0.00    -0.421 A  
HETATM   11  C   UNL     1     -11.908  13.367  68.625  1.00  0.00    -0.397 A  
HETATM   12  C   UNL     1     -12.064  13.064  69.983  1.00  0.00    -0.367 A  
HETATM   13  C   UNL     1     -11.925  11.758  70.435  1.00  0.00    -0.422 A  
HETATM   14  C   UNL     1     -11.651  10.746  69.527  1.00  0.00    -0.375 A  
HETATM   15  C   UNL     1     -11.489  11.048  68.172  1.00  0.00    -0.374 A  
ENDBRANCH   6  10
TORSDOF 1
ENDMDL
MODEL        2
REMARK 921   NORMALIZED FREE ENERGY PREDICTED BY IDOCK:   -5.68 KCAL/MOL
REMARK 922        TOTAL FREE ENERGY PREDICTED BY IDOCK:   -6.31 KCAL/MOL
REMARK 923 INTER-LIGAND FREE ENERGY PREDICTED BY IDOCK:   -5.95 KCAL/MOL
REMARK 924 INTRA-LIGAND FREE ENERGY PREDICTED BY IDOCK:   -0.36 KCAL/MOL
REMARK 927      BINDING AFFINITY PREDICTED BY RF-SCORE:    0.00 PKD
ROOT
HETATM    1  C   UNL     1     -12.633  12.045  63.370  1.00  0.00    -0.469 C  
HETATM    2  N   UNL     1     -11.790  12.556  64.422  1.00  0.00    -0.363 N  
HETATM    3  C   UNL     1     -10.440  12.431  64.448  1.00  0.00    -0.344 C  
HETATM    4  C   UNL     1      -9.922  12.968  65.748  1.00  0.00    -0.260 C  
HETATM    5  O   UNL     1      -9.729  11.960  63.572  1.00  0.00    -0.330 OA 
HETATM    6  C   UNL     1     -11.128  13.690  66.397  1.00  0.00    -0.307 C  
HETATM    7  O   UNL     1     -13.385  13.872  65.422  1.00  0.00    -0.710 OA 
HETATM    8  C   UNL     1     -10.841  15.205  66.385  1.00  0.00    -0.326 C  
HETATM    9  C   UNL     1     -12.252  13.399  65.391  1.00  0.00    -0.452 C  
ENDROOT
BRANCH   6  10
HETATM   10  C   UNL     1     -11.558  13.215  67.796  1.00  0.00    -0.379 A  
HETATM   11  C   UNL     1     -11.840  14.080  68.865  1.00  0.00    -0.390 A  
HETATM   12  C   UNL     1     -12.106  13.586  70.148  1.00  0.00    -0.425 A  
HETATM   13  C   UNL     1     -12.117  12.218  70.389  1.00  0.00    -0.385 A  
HETATM   14  C   UNL     1     -11.885  11.338  69.342  1.00  0.00    -0.424 A  
HETATM   15  C   UNL     1     -11.613  11.830  68.063  1.00  0.00    -0.386 A  
ENDBRANCH   6  10
TORSDOF 1
ENDMDL
MODEL        3
REMARK 921   NORMALIZED FREE ENERGY PREDICTED BY IDOCK:   -5.67 KCAL/MOL
REMARK 922        TOTAL FREE ENERGY PREDICTED BY IDOCK:   -6.31 KCAL/MOL
REMARK 923 INTER-LIGAND FREE ENERGY PREDICTED BY IDOCK:   -6.03 KCAL/MOL
REMARK 924 INTRA-LIGAND FREE ENERGY PREDICTED BY IDOCK:   -0.28 KCAL/MOL
REMARK 927      BINDING AFFINITY PREDICTED BY RF-SCORE:    0.00 PKD
ROOT
HETATM    1  C   UNL     1     -10.439  16.092  65.248  1.00  0.00    -0.331 C  
HETATM    2  N   UNL     1     -11.022  14.802  65.522  1.00  0.00    -0.329 N  
HETATM    3  C   UNL     1     -12.140  14.325  64.919  1.00  0.00    -0.435 C  
HETATM    4  C   UNL     1     -12.515  13.016  65.546  1.00  0.00    -0.496 C  
HETATM    5  O   UNL     1     -12.767  14.852  64.012  1.00  0.00    -0.792 OA 
HETATM    6  C   UNL     1     -11.305  12.631  66.432  1.00  0.00    -0.381 C  
HETATM    7  O   UNL     1      -9.239  13.950  66.693  1.00  0.00    -0.264 OA 
HETATM    8  C   UNL     1     -10.617  11.406  65.795  1.00  0.00    -0.315 C  
HETATM    9  C   UNL     1     -10.385  13.849  66.263  1.00  0.00    -0.293 C  
ENDROOT
BRANCH   6  10
HETATM   10  C   UNL     1     -11.579  12.400  67.928  1.00  0.00    -0.415 A  
HETATM   11  C   UNL     1     -11.633  11.132  68.530  1.00  0.00    -0.385 A  
HETATM   12  C   UNL     1     -12.009  10.980  69.870  1.00  0.00    -0.427 A  
HETATM   13  C   UNL     1     -12.319  12.090  70.647  1.00  0.00    -0.394 A  
HETATM   14  C   UNL     1     -12.231  13.358  70.092  1.00  0.00    -0.385 A  
HETATM   15  C   UNL     1     -11.863  13.511  68.752  1.00  0.00    -0.390 A  
ENDBRANCH   6  10
TORSDOF 1
ENDMDL
MODEL        4
REMARK 921   NORMALIZED FREE ENERGY PREDICTED BY IDOCK:   -5.55 KCAL/MOL
REMARK 922        TOTAL FREE ENERGY PREDICTED BY IDOCK:   -6.18 KCAL/MOL
REMARK 923 INTER-LIGAND FREE ENERGY PREDICTED BY IDOCK:   -5.83 KCAL/MOL
REMARK 924 INTRA-LIGAND FREE ENERGY PREDICTED BY IDOCK:   -0.35 KCAL/MOL
REMARK 927      BINDING AFFINITY PREDICTED BY RF-SCORE:    0.00 PKD
ROOT
HETATM    1  C   UNL     1     -10.076  11.946  63.588  1.00  0.00    -0.426 C  
HETATM    2  N   UNL     1     -10.900  12.639  64.547  1.00  0.00    -0.316 N  
HETATM    3  C   UNL     1     -12.241  12.806  64.424  1.00  0.00    -0.428 C  
HETATM    4  C   UNL     1     -12.731  13.679  65.539  1.00  0.00    -0.514 C  
HETATM    5  O   UNL     1     -12.962  12.337  63.556  1.00  0.00    -0.776 OA 
HETATM    6  C   UNL     1     -11.537  13.795  66.517  1.00  0.00    -0.386 C  
HETATM    7  O   UNL     1      -9.332  12.731  66.224  1.00  0.00    -0.228 OA 
HETATM    8  C   UNL     1     -11.898  13.030  67.806  1.00  0.00    -0.395 C  
HETATM    9  C   UNL     1     -10.441  13.013  65.777  1.00  0.00    -0.280 C  
ENDROOT
BRANCH   6  10
HETATM   10  C   UNL     1     -11.028  15.212  66.834  1.00  0.00    -0.323 A  
HETATM   11  C   UNL     1     -10.971  15.754  68.128  1.00  0.00    -0.330 A  
HETATM   12  C   UNL     1     -10.616  17.091  68.341  1.00  0.00    -0.375 A  
HETATM   13  C   UNL     1     -10.287  17.913  67.270  1.00  0.00    -0.374 A  
HETATM   14  C   UNL     1     -10.291  17.393  65.984  1.00  0.00    -0.309 A  
HETATM   15  C   UNL     1     -10.652  16.060  65.770  1.00  0.00    -0.366 A  
ENDBRANCH   6  10
TORSDOF 1
ENDMDL
MODEL        5
REMARK 921   NORMALIZED FREE ENERGY PREDICTED BY IDOCK:   -5.49 KCAL/MOL
REMARK 922        TOTAL FREE ENERGY PREDICTED BY IDOCK:   -6.12 KCAL/MOL
REMARK 923 INTER-LIGAND FREE ENERGY PREDICTED BY IDOCK:   -5.86 KCAL/MOL
REMARK 924 INTRA-LIGAND FREE ENERGY PREDICTED BY IDOCK:   -0.26 KCAL/MOL
REMARK 927      BINDING AFFINITY PREDICTED BY RF-SCORE:    0.00 PKD
ROOT
HETATM    1  C   UNL     1     -10.297  16.165  65.414  1.00  0.00    -0.330 C  
HETATM    2  N   UNL     1     -10.906  14.901  65.748  1.00  0.00    -0.326 N  
HETATM    3  C   UNL     1     -11.983  14.379  65.110  1.00  0.00    -0.391 C  
HETATM    4  C   UNL     1     -12.408  13.124  65.811  1.00  0.00    -0.496 C  
HETATM    5  O   UNL     1     -12.543  14.833  64.122  1.00  0.00    -0.784 OA 
HETATM    6  C   UNL     1     -11.266  12.810  66.806  1.00  0.00    -0.338 C  
HETATM    7  O   UNL     1      -9.214  14.144  67.104  1.00  0.00    -0.211 OA 
HETATM    8  C   UNL     1     -10.543  11.537  66.318  1.00  0.00    -0.309 C  
HETATM    9  C   UNL     1     -10.328  14.010  66.605  1.00  0.00    -0.278 C  
ENDROOT
BRANCH   6  10
HETATM   10  C   UNL     1     -11.643  12.699  68.294  1.00  0.00    -0.377 A  
HETATM   11  C   UNL     1     -11.798  11.482  68.976  1.00  0.00    -0.408 A  
HETATM   12  C   UNL     1     -12.263  11.443  70.296  1.00  0.00    -0.433 A  
HETATM   13  C   UNL     1     -12.565  12.618  70.973  1.00  0.00    -0.354 A  
HETATM   14  C   UNL     1     -12.381  13.839  70.339  1.00  0.00    -0.423 A  
HETATM   15  C   UNL     1     -11.922  13.878  69.019  1.00  0.00    -0.402 A  
ENDBRANCH   6  10
TORSDOF 1
ENDMDL
MODEL        6
REMARK 921   NORMALIZED FREE ENERGY PREDICTED BY IDOCK:   -5.37 KCAL/MOL
REMARK 922        TOTAL FREE ENERGY PREDICTED BY IDOCK:   -5.99 KCAL/MOL
REMARK 923 INTER-LIGAND FREE ENERGY PREDICTED BY IDOCK:   -5.63 KCAL/MOL
REMARK 924 INTRA-LIGAND FREE ENERGY PREDICTED BY IDOCK:   -0.36 KCAL/MOL
REMARK 927      BINDING AFFINITY PREDICTED BY RF-SCORE:    0.00 PKD
ROOT
HETATM    1  C   UNL     1     -12.698  14.057  65.838  1.00  0.00    -0.397 C  
HETATM    2  N   UNL     1     -12.090  13.826  67.124  1.00  0.00    -0.398 N  
HETATM    3  C   UNL     1     -11.719  12.605  67.586  1.00  0.00    -0.361 C  
HETATM    4  C   UNL     1     -11.244  12.740  69.001  1.00  0.00    -0.317 C  
HETATM    5  O   UNL     1     -11.755  11.547  66.975  1.00  0.00    -0.556 OA 
HETATM    6  C   UNL     1     -11.121  14.264  69.244  1.00  0.00    -0.297 C  
HETATM    7  O   UNL     1     -11.618  16.025  67.591  1.00  0.00    -0.106 OA 
HETATM    8  C   UNL     1      -9.624  14.607  69.378  1.00  0.00     0.054 C  
HETATM    9  C   UNL     1     -11.636  14.840  67.916  1.00  0.00    -0.351 C  
ENDROOT
BRANCH   6  10
HETATM   10  C   UNL     1     -11.934  14.855  70.409  1.00  0.00    -0.368 A  
HETATM   11  C   UNL     1     -11.416  15.761  71.347  1.00  0.00    -0.496 A  
HETATM   12  C   UNL     1     -12.168  16.168  72.456  1.00  0.00    -0.609 A  
HETATM   13  C   UNL     1     -13.462  15.698  72.643  1.00  0.00    -0.655 A  
HETATM   14  C   UNL     1     -14.016  14.835  71.708  1.00  0.00    -0.568 A  
HETATM   15  C   UNL     1     -13.264  14.424  70.604  1.00  0.00    -0.203 A  
ENDBRANCH   6  10
TORSDOF 1
ENDMDL
MODEL        7
REMARK 921   NORMALIZED FREE ENERGY PREDICTED BY IDOCK:   -5.34 KCAL/MOL
REMARK 922        TOTAL FREE ENERGY PREDICTED BY IDOCK:   -5.96 KCAL/MOL
REMARK 923 INTER-LIGAND FREE ENERGY PREDICTED BY IDOCK:   -6.02 KCAL/MOL
REMARK 924 INTRA-LIGAND FREE ENERGY PREDICTED BY IDOCK:    0.06 KCAL/MOL
REMARK 927      BINDING AFFINITY PREDICTED BY RF-SCORE:    0.00 PKD
ROOT
HETATM    1  C   UNL     1     -12.763  14.013  65.537  1.00  0.00    -0.486 C  
HETATM    2  N   UNL     1     -11.728  14.589  66.359  1.00  0.00    -0.376 N  
HETATM    3  C   UNL     1     -11.406  14.151  67.602  1.00  0.00    -0.319 C  
HETATM    4  C   UNL     1     -10.379  15.067  68.194  1.00  0.00    -0.239 C  
HETATM    5  O   UNL     1     -11.864  13.174  68.177  1.00  0.00    -0.336 OA 
HETATM    6  C   UNL     1      -9.918  15.969  67.024  1.00  0.00    -0.257 C  
HETATM    7  O   UNL     1     -10.751  15.850  64.706  1.00  0.00    -0.559 OA 
HETATM    8  C   UNL     1      -8.463  15.595  66.675  1.00  0.00    -0.323 C  
HETATM    9  C   UNL     1     -10.829  15.498  65.881  1.00  0.00    -0.313 C  
ENDROOT
BRANCH   6  10
HETATM   10  C   UNL     1     -10.073  17.489  67.209  1.00  0.00    -0.327 A  
HETATM   11  C   UNL     1     -10.298  18.389  66.155  1.00  0.00    -0.431 A  
HETATM   12  C   UNL     1     -10.307  19.771  66.370  1.00  0.00    -0.619 A  
HETATM   13  C   UNL     1     -10.112  20.289  67.645  1.00  0.00    -0.515 A  
HETATM   14  C   UNL     1      -9.931  19.423  68.713  1.00  0.00    -0.522 A  
HETATM   15  C   UNL     1      -9.916  18.042  68.498  1.00  0.00    -0.395 A  
ENDBRANCH   6  10
TORSDOF 1
ENDMDL
MODEL        8
REMARK 921   NORMALIZED FREE ENERGY PREDICTED BY IDOCK:   -5.20 KCAL/MOL
REMARK 922        TOTAL FREE ENERGY PREDICTED BY IDOCK:   -5.81 KCAL/MOL
REMARK 923 INTER-LIGAND FREE ENERGY PREDICTED BY IDOCK:   -5.53 KCAL/MOL
REMARK 924 INTRA-LIGAND FREE ENERGY PREDICTED BY IDOCK:   -0.28 KCAL/MOL
REMARK 927      BINDING AFFINITY PREDICTED BY RF-SCORE:    0.00 PKD
ROOT
HETATM    1  C   UNL     1      -9.809  16.706  67.143  1.00  0.00    -0.257 C  
HETATM    2  N   UNL     1     -10.550  15.534  67.540  1.00  0.00    -0.290 N  
HETATM    3  C   UNL     1     -11.334  14.807  66.704  1.00  0.00    -0.347 C  
HETATM    4  C   UNL     1     -12.040  13.747  67.494  1.00  0.00    -0.366 C  
HETATM    5  O   UNL     1     -11.468  14.965  65.500  1.00  0.00    -0.347 OA 
HETATM    6  C   UNL     1     -11.362  13.759  68.886  1.00  0.00    -0.328 C  
HETATM    7  O   UNL     1      -9.515  15.242  69.569  1.00  0.00    -0.239 OA 
HETATM    8  C   UNL     1     -10.563  12.449  69.040  1.00  0.00    -0.087 C  
HETATM    9  C   UNL     1     -10.369  14.923  68.745  1.00  0.00    -0.245 C  
ENDROOT
BRANCH   6  10
HETATM   10  C   UNL     1     -12.270  14.005  70.104  1.00  0.00    -0.425 A  
HETATM   11  C   UNL     1     -12.740  15.270  70.490  1.00  0.00    -0.440 A  
HETATM   12  C   UNL     1     -13.459  15.446  71.677  1.00  0.00    -0.593 A  
HETATM   13  C   UNL     1     -13.746  14.362  72.497  1.00  0.00    -0.589 A  
HETATM   14  C   UNL     1     -13.332  13.092  72.119  1.00  0.00    -0.621 A  
HETATM   15  C   UNL     1     -12.608  12.917  70.937  1.00  0.00    -0.355 A  
ENDBRANCH   6  10
TORSDOF 1
ENDMDL
MODEL        9
REMARK 921   NORMALIZED FREE ENERGY PREDICTED BY IDOCK:   -5.15 KCAL/MOL
REMARK 922        TOTAL FREE ENERGY PREDICTED BY IDOCK:   -5.76 KCAL/MOL
REMARK 923 INTER-LIGAND FREE ENERGY PREDICTED BY IDOCK:   -5.40 KCAL/MOL
REMARK 924 INTRA-LIGAND FREE ENERGY PREDICTED BY IDOCK:   -0.36 KCAL/MOL
REMARK 927      BINDING AFFINITY PREDICTED BY RF-SCORE:    0.00 PKD
ROOT
HETATM    1  C   UNL     1     -10.733  19.142  67.361  1.00  0.00    -0.481 C  
HETATM    2  N   UNL     1     -10.130  17.866  67.065  1.00  0.00    -0.324 N  
HETATM    3  C   UNL     1      -8.984  17.709  66.357  1.00  0.00    -0.231 C  
HETATM    4  C   UNL     1      -8.737  16.246  66.143  1.00  0.00    -0.353 C  
HETATM    5  O   UNL     1      -8.249  18.593  65.943  1.00  0.00    -0.488 OA 
HETATM    6  C   UNL     1      -9.755  15.525  67.059  1.00  0.00    -0.230 C  
HETATM    7  O   UNL     1     -11.395  16.630  68.531  1.00  0.00    -0.317 OA 
HETATM    8  C   UNL     1      -8.972  14.843  68.200  1.00  0.00    -0.176 C  
HETATM    9  C   UNL     1     -10.544  16.704  67.648  1.00  0.00    -0.321 C  
ENDROOT
BRANCH   6  10
HETATM   10  C   UNL     1     -10.729  14.542  66.386  1.00  0.00    -0.309 A  
HETATM   11  C   UNL     1     -11.053  13.279  66.907  1.00  0.00    -0.310 A  
HETATM   12  C   UNL     1     -11.849  12.380  66.188  1.00  0.00    -0.442 A  
HETATM   13  C   UNL     1     -12.357  12.726  64.942  1.00  0.00    -0.551 A  
HETATM   14  C   UNL     1     -12.089  13.984  64.421  1.00  0.00    -0.486 A  
HETATM   15  C   UNL     1     -11.290  14.881  65.136  1.00  0.00    -0.379 A  
ENDBRANCH   6  10
TORSDOF 1
ENDMDL
MODEL       10
REMARK 921   NORMALIZED FREE ENERGY PREDICTED BY IDOCK:   -5.11 KCAL/MOL
REMARK 922        TOTAL FREE ENERGY PREDICTED BY IDOCK:   -5.72 KCAL/MOL
REMARK 923 INTER-LIGAND FREE ENERGY PREDICTED BY IDOCK:   -5.48 KCAL/MOL
REMARK 924 INTRA-LIGAND FREE ENERGY PREDICTED BY IDOCK:   -0.24 KCAL/MOL
REMARK 927      BINDING AFFINITY PREDICTED BY RF-SCORE:    0.00 PKD
ROOT
HETATM    1  C   UNL     1     -12.534  12.556  64.859  1.00  0.00    -0.450 C  
HETATM    2  N   UNL     1     -11.746  12.447  66.062  1.00  0.00    -0.408 N  
HETATM    3  C   UNL     1     -10.759  11.535  66.249  1.00  0.00    -0.272 C  
HETATM    4  C   UNL     1     -10.256  11.639  67.657  1.00  0.00    -0.206 C  
HETATM    5  O   UNL     1     -10.327  10.741  65.426  1.00  0.00    -0.270 OA 
HETATM    6  C   UNL     1     -10.891  12.933  68.220  1.00  0.00    -0.263 C  
HETATM    7  O   UNL     1     -12.398  14.446  66.987  1.00  0.00    -0.353 OA 
HETATM    8  C   UNL     1      -9.768  13.972  68.414  1.00  0.00    -0.223 C  
HETATM    9  C   UNL     1     -11.778  13.387  67.050  1.00  0.00    -0.381 C  
ENDROOT
BRANCH   6  10
HETATM   10  C   UNL     1     -11.749  12.796  69.489  1.00  0.00    -0.383 A  
HETATM   11  C   UNL     1     -12.249  13.886  70.220  1.00  0.00    -0.428 A  
HETATM   12  C   UNL     1     -12.919  13.700  71.435  1.00  0.00    -0.427 A  
HETATM   13  C   UNL     1     -13.124  12.422  71.940  1.00  0.00    -0.471 A  
HETATM   14  C   UNL     1     -12.680  11.324  71.218  1.00  0.00    -0.510 A  
HETATM   15  C   UNL     1     -12.006  11.508  70.008  1.00  0.00    -0.435 A  
ENDBRANCH   6  10
TORSDOF 1
ENDMDL
MODEL       11
REMARK 921   NORMALIZED FREE ENERGY PREDICTED BY IDOCK:   -4.96 KCAL/MOL
REMARK 922        TOTAL FREE ENERGY PREDICTED BY IDOCK:   -5.55 KCAL/MOL
REMARK 923 INTER-LIGAND FREE ENERGY PREDICTED BY IDOCK:   -5.26 KCAL/MOL
REMARK 924 INTRA-LIGAND FREE ENERGY PREDICTED BY IDOCK:   -0.29 KCAL/MOL
REMARK 927      BINDING AFFINITY PREDICTED BY RF-SCORE:    0.00 PKD
ROOT
HETATM    1  C   UNL     1      -9.817  16.786  67.450  1.00  0.00    -0.252 C  
HETATM    2  N   UNL     1     -10.615  15.615  67.179  1.00  0.00    -0.305 N  
HETATM    3  C   UNL     1     -11.368  14.973  68.106  1.00  0.00    -0.330 C  
HETATM    4  C   UNL     1     -11.950  13.735  67.493  1.00  0.00    -0.411 C  
HETATM    5  O   UNL     1     -11.560  15.317  69.263  1.00  0.00    -0.292 OA 
HETATM    6  C   UNL     1     -11.664  13.862  65.977  1.00  0.00    -0.381 C  
HETATM    7  O   UNL     1     -10.497  15.741  64.888  1.00  0.00    -0.499 OA 
HETATM    8  C   UNL     1     -13.008  14.086  65.254  1.00  0.00    -0.315 C  
HETATM    9  C   UNL     1     -10.853  15.165  65.913  1.00  0.00    -0.339 C  
ENDROOT
BRANCH   6  10
HETATM   10  C   UNL     1     -10.861  12.726  65.319  1.00  0.00    -0.319 A  
HETATM   11  C   UNL     1     -10.803  12.507  63.933  1.00  0.00    -0.472 A  
HETATM   12  C   UNL     1     -10.157  11.385  63.402  1.00  0.00    -0.444 A  
HETATM   13  C   UNL     1      -9.536  10.465  64.238  1.00  0.00    -0.377 A  
HETATM   14  C   UNL     1      -9.539  10.679  65.609  1.00  0.00    -0.268 A  
HETATM   15  C   UNL     1     -10.189  11.796  66.141  1.00  0.00    -0.255 A  
ENDBRANCH   6  10
TORSDOF 1
ENDMDL
MODEL       12
REMARK 921   NORMALIZED FREE ENERGY PREDICTED BY IDOCK:   -4.95 KCAL/MOL
REMARK 922        TOTAL FREE ENERGY PREDICTED BY IDOCK:   -5.54 KCAL/MOL
REMARK 923 INTER-LIGAND FREE ENERGY PREDICTED BY IDOCK:   -5.21 KCAL/MOL
REMARK 924 INTRA-LIGAND FREE ENERGY PREDICTED BY IDOCK:   -0.33 KCAL/MOL
REMARK 927      BINDING AFFINITY PREDICTED BY RF-SCORE:    0.00 PKD
ROOT
HETATM    1  C   UNL     1     -11.817  15.667  63.968  1.00  0.00     0.068 C  
HETATM    2  N   UNL     1     -11.339  14.988  65.147  1.00  0.00    -0.372 N  
HETATM    3  C   UNL     1     -10.286  15.406  65.895  1.00  0.00    -0.341 C  
HETATM    4  C   UNL     1     -10.006  14.387  66.958  1.00  0.00    -0.257 C  
HETATM    5  O   UNL     1      -9.646  16.437  65.751  1.00  0.00    -0.452 OA 
HETATM    6  C   UNL     1     -11.214  13.420  66.921  1.00  0.00    -0.330 C  
HETATM    7  O   UNL     1     -13.149  13.598  65.404  1.00  0.00    -0.704 OA 
HETATM    8  C   UNL     1     -12.025  13.620  68.218  1.00  0.00    -0.385 C  
HETATM    9  C   UNL     1     -12.031  13.975  65.745  1.00  0.00    -0.404 C  
ENDROOT
BRANCH   6  10
HETATM   10  C   UNL     1     -10.912  11.931  66.678  1.00  0.00    -0.336 A  
HETATM   11  C   UNL     1     -11.123  10.921  67.630  1.00  0.00    -0.376 A  
HETATM   12  C   UNL     1     -10.714   9.604  67.394  1.00  0.00    -0.308 A  
HETATM   13  C   UNL     1     -10.103   9.258  66.195  1.00  0.00    -0.304 A  
HETATM   14  C   UNL     1      -9.920  10.226  65.218  1.00  0.00    -0.387 A  
HETATM   15  C   UNL     1     -10.323  11.543  65.455  1.00  0.00    -0.322 A  
ENDBRANCH   6  10
TORSDOF 1
ENDMDL
MODEL       13
REMARK 921   NORMALIZED FREE ENERGY PREDICTED BY IDOCK:   -4.94 KCAL/MOL
REMARK 922        TOTAL FREE ENERGY PREDICTED BY IDOCK:   -5.54 KCAL/MOL
REMARK 923 INTER-LIGAND FREE ENERGY PREDICTED BY IDOCK:   -5.36 KCAL/MOL
REMARK 924 INTRA-LIGAND FREE ENERGY PREDICTED BY IDOCK:   -0.18 KCAL/MOL
REMARK 927      BINDING AFFINITY PREDICTED BY RF-SCORE:    0.00 PKD
ROOT
HETATM    1  C   UNL     1      -8.089  15.674  68.975  1.00  0.00    -0.222 C  
HETATM    2  N   UNL     1      -9.505  15.404  68.913  1.00  0.00    -0.206 N  
HETATM    3  C   UNL     1     -10.464  16.362  68.880  1.00  0.00    -0.285 C  
HETATM    4  C   UNL     1     -11.812  15.709  68.948  1.00  0.00    -0.368 C  
HETATM    5  O   UNL     1     -10.294  17.571  68.810  1.00  0.00    -0.353 OA 
HETATM    6  C   UNL     1     -11.540  14.198  68.749  1.00  0.00    -0.362 C  
HETATM    7  O   UNL     1      -9.325  13.173  68.398  1.00  0.00    -0.207 OA 
HETATM    8  C   UNL     1     -12.111  13.786  67.377  1.00  0.00    -0.378 C  
HETATM    9  C   UNL     1     -10.006  14.159  68.670  1.00  0.00    -0.222 C  
ENDROOT
BRANCH   6  10
HETATM   10  C   UNL     1     -12.020  13.249  69.861  1.00  0.00    -0.400 A  
HETATM   11  C   UNL     1     -11.885  11.852  69.812  1.00  0.00    -0.411 A  
HETATM   12  C   UNL     1     -12.452  11.034  70.796  1.00  0.00    -0.491 A  
HETATM   13  C   UNL     1     -13.149  11.589  71.862  1.00  0.00    -0.492 A  
HETATM   14  C   UNL     1     -13.260  12.969  71.960  1.00  0.00    -0.543 A  
HETATM   15  C   UNL     1     -12.699  13.786  70.975  1.00  0.00    -0.416 A  
ENDBRANCH   6  10
TORSDOF 1
ENDMDL
MODEL       14
REMARK 921   NORMALIZED FREE ENERGY PREDICTED BY IDOCK:   -4.93 KCAL/MOL
REMARK 922        TOTAL FREE ENERGY PREDICTED BY IDOCK:   -5.52 KCAL/MOL
REMARK 923 INTER-LIGAND FREE ENERGY PREDICTED BY IDOCK:   -5.23 KCAL/MOL
REMARK 924 INTRA-LIGAND FREE ENERGY PREDICTED BY IDOCK:   -0.30 KCAL/MOL
REMARK 927      BINDING AFFINITY PREDICTED BY RF-SCORE:    0.00 PKD
ROOT
HETATM    1  C   UNL     1     -12.734  10.580  70.614  1.00  0.00    -0.355 C  
HETATM    2  N   UNL     1     -12.016  11.458  69.723  1.00  0.00    -0.334 N  
HETATM    3  C   UNL     1     -11.920  12.801  69.887  1.00  0.00    -0.298 C  
HETATM    4  C   UNL     1     -11.210  13.389  68.706  1.00  0.00    -0.315 C  
HETATM    5  O   UNL     1     -12.337  13.458  70.830  1.00  0.00    -0.353 OA 
HETATM    6  C   UNL     1     -10.643  12.177  67.929  1.00  0.00    -0.230 C  
HETATM    7  O   UNL     1     -10.899   9.811  68.575  1.00  0.00    -0.222 OA 
HETATM    8  C   UNL     1      -9.106  12.199  68.062  1.00  0.00    -0.190 C  
HETATM    9  C   UNL     1     -11.186  10.994  68.745  1.00  0.00    -0.266 C  
ENDROOT
BRANCH   6  10
HETATM   10  C   UNL     1     -11.072  12.024  66.459  1.00  0.00    -0.362 A  
HETATM   11  C   UNL     1     -10.405  11.214  65.527  1.00  0.00    -0.326 A  
HETATM   12  C   UNL     1     -10.767  11.212  64.175  1.00  0.00    -0.415 A  
HETATM   13  C   UNL     1     -11.817  12.003  63.724  1.00  0.00    -0.581 A  
HETATM   14  C   UNL     1     -12.524  12.781  64.630  1.00  0.00    -0.525 A  
HETATM   15  C   UNL     1     -12.158  12.788  65.979  1.00  0.00    -0.458 A  
ENDBRANCH   6  10
TORSDOF 1
ENDMDL
MODEL       15
REMARK 921   NORMALIZED FREE ENERGY PREDICTED BY IDOCK:   -4.93 KCAL/MOL
REMARK 922        TOTAL FREE ENERGY PREDICTED BY IDOCK:   -5.52 KCAL/MOL
REMARK 923 INTER-LIGAND FREE ENERGY PREDICTED BY IDOCK:   -5.29 KCAL/MOL
REMARK 924 INTRA-LIGAND FREE ENERGY PREDICTED BY IDOCK:   -0.24 KCAL/MOL
REMARK 927      BINDING AFFINITY PREDICTED BY RF-SCORE:    0.00 PKD
ROOT
HETATM    1  C   UNL     1      -9.633  18.573  66.673  1.00  0.00    -0.321 C  
HETATM    2  N   UNL     1     -10.121  17.216  66.667  1.00  0.00    -0.295 N  
HETATM    3  C   UNL     1     -10.809  16.656  65.640  1.00  0.00    -0.137 C  
HETATM    4  C   UNL     1     -11.259  15.285  66.042  1.00  0.00    -0.231 C  
HETATM    5  O   UNL     1     -11.044  17.161  64.552  1.00  0.00    -1.105 OA 
HETATM    6  C   UNL     1     -10.510  14.983  67.362  1.00  0.00    -0.257 C  
HETATM    7  O   UNL     1      -8.925  16.497  68.491  1.00  0.00    -0.213 OA 
HETATM    8  C   UNL     1      -9.477  13.872  67.083  1.00  0.00    -0.246 C  
HETATM    9  C   UNL     1      -9.756  16.299  67.608  1.00  0.00    -0.234 C  
ENDROOT
BRANCH   6  10
HETATM   10  C   UNL     1     -11.369  14.647  68.593  1.00  0.00    -0.305 A  
HETATM   11  C   UNL     1     -11.932  15.612  69.444  1.00  0.00    -0.349 A  
HETATM   12  C   UNL     1     -12.600  15.243  70.618  1.00  0.00    -0.471 A  
HETATM   13  C   UNL     1     -12.741  13.904  70.960  1.00  0.00    -0.428 A  
HETATM   14  C   UNL     1     -12.233  12.927  70.116  1.00  0.00    -0.336 A  
HETATM   15  C   UNL     1     -11.560  13.294  68.947  1.00  0.00    -0.357 A  
ENDBRANCH   6  10
TORSDOF 1
ENDMDL
MODEL       16
REMARK 921   NORMALIZED FREE ENERGY PREDICTED BY IDOCK:   -4.92 KCAL/MOL
REMARK 922        TOTAL FREE ENERGY PREDICTED BY IDOCK:   -5.51 KCAL/MOL
REMARK 923 INTER-LIGAND FREE ENERGY PREDICTED BY IDOCK:   -5.17 KCAL/MOL
REMARK 924 INTRA-LIGAND FREE ENERGY PREDICTED BY IDOCK:   -0.34 KCAL/MOL
REMARK 927      BINDING AFFINITY PREDICTED BY RF-SCORE:    0.00 PKD
ROOT
HETATM    1  C   UNL     1      -9.089  15.295  66.110  1.00  0.00    -0.279 C  
HETATM    2  N   UNL     1     -10.192  14.513  66.611  1.00  0.00    -0.270 N  
HETATM    3  C   UNL     1     -11.335  14.273  65.920  1.00  0.00    -0.328 C  
HETATM    4  C   UNL     1     -12.297  13.538  66.803  1.00  0.00    -0.326 C  
HETATM    5  O   UNL     1     -11.575  14.592  64.765  1.00  0.00    -0.386 OA 
HETATM    6  C   UNL     1     -11.471  13.124  68.045  1.00  0.00    -0.346 C  
HETATM    7  O   UNL     1      -9.081  13.609  68.406  1.00  0.00    -0.193 OA 
HETATM    8  C   UNL     1     -11.307  11.590  68.020  1.00  0.00    -0.368 C  
HETATM    9  C   UNL     1     -10.107  13.765  67.748  1.00  0.00    -0.245 C  
ENDROOT
BRANCH   6  10
HETATM   10  C   UNL     1     -11.977  13.607  69.415  1.00  0.00    -0.394 A  
HETATM   11  C   UNL     1     -12.407  12.749  70.440  1.00  0.00    -0.324 A  
HETATM   12  C   UNL     1     -12.972  13.251  71.618  1.00  0.00    -0.441 A  
HETATM   13  C   UNL     1     -13.102  14.621  71.811  1.00  0.00    -0.420 A  
HETATM   14  C   UNL     1     -12.645  15.494  70.834  1.00  0.00    -0.512 A  
HETATM   15  C   UNL     1     -12.087  14.994  69.655  1.00  0.00    -0.337 A  
ENDBRANCH   6  10
TORSDOF 1
ENDMDL
MODEL       17
REMARK 921   NORMALIZED FREE ENERGY PREDICTED BY IDOCK:   -4.91 KCAL/MOL
REMARK 922        TOTAL FREE ENERGY PREDICTED BY IDOCK:   -5.50 KCAL/MOL
REMARK 923 INTER-LIGAND FREE ENERGY PREDICTED BY IDOCK:   -5.17 KCAL/MOL
REMARK 924 INTRA-LIGAND FREE ENERGY PREDICTED BY IDOCK:   -0.33 KCAL/MOL
REMARK 927      BINDING AFFINITY PREDICTED BY RF-SCORE:    0.00 PKD
ROOT
HETATM    1  C   UNL     1     -10.081   9.589  66.330  1.00  0.00    -0.258 C  
HETATM    2  N   UNL     1     -10.260  10.696  65.423  1.00  0.00    -0.281 N  
HETATM    3  C   UNL     1      -9.784  10.729  64.154  1.00  0.00    -0.309 C  
HETATM    4  C   UNL     1     -10.052  12.081  63.564  1.00  0.00    -0.448 C  
HETATM    5  O   UNL     1      -9.220   9.823  63.557  1.00  0.00    -0.263 OA 
HETATM    6  C   UNL     1     -11.006  12.777  64.565  1.00  0.00    -0.370 C  
HETATM    7  O   UNL     1     -11.858  11.792  66.658  1.00  0.00    -0.569 OA 
HETATM    8  C   UNL     1     -12.388  12.910  63.893  1.00  0.00    -0.476 C  
HETATM    9  C   UNL     1     -11.108  11.732  65.687  1.00  0.00    -0.285 C  
ENDROOT
BRANCH   6  10
HETATM   10  C   UNL     1     -10.542  14.119  65.156  1.00  0.00    -0.414 A  
HETATM   11  C   UNL     1     -11.168  15.349  64.896  1.00  0.00    -0.410 A  
HETATM   12  C   UNL     1     -10.626  16.552  65.363  1.00  0.00    -0.293 A  
HETATM   13  C   UNL     1      -9.460  16.556  66.118  1.00  0.00    -0.347 A  
HETATM   14  C   UNL     1      -8.843  15.352  66.427  1.00  0.00    -0.340 A  
HETATM   15  C   UNL     1      -9.380  14.151  65.956  1.00  0.00    -0.108 A  
ENDBRANCH   6  10
TORSDOF 1
ENDMDL
MODEL       18
REMARK 921   NORMALIZED FREE ENERGY PREDICTED BY IDOCK:   -4.90 KCAL/MOL
REMARK 922        TOTAL FREE ENERGY PREDICTED BY IDOCK:   -5.49 KCAL/MOL
REMARK 923 INTER-LIGAND FREE ENERGY PREDICTED BY IDOCK:   -5.14 KCAL/MOL
REMARK 924 INTRA-LIGAND FREE ENERGY PREDICTED BY IDOCK:   -0.35 KCAL/MOL
REMARK 927      BINDING AFFINITY PREDICTED BY RF-SCORE:    0.00 PKD
ROOT
HETATM    1  C   UNL     1      -7.513  19.442  68.845  1.00  0.00    -0.364 C  
HETATM    2  N   UNL     1      -8.679  18.862  68.226  1.00  0.00    -0.321 N  
HETATM    3  C   UNL     1      -9.685  19.581  67.667  1.00  0.00    -0.344 C  
HETATM    4  C   UNL     1     -10.778  18.648  67.243  1.00  0.00    -0.449 C  
HETATM    5  O   UNL     1      -9.726  20.794  67.519  1.00  0.00    -0.439 OA 
HETATM    6  C   UNL     1     -10.173  17.229  67.377  1.00  0.00    -0.325 C  
HETATM    7  O   UNL     1      -7.884  16.709  68.131  1.00  0.00    -0.166 OA 
HETATM    8  C   UNL     1      -9.995  16.650  65.958  1.00  0.00    -0.346 C  
HETATM    9  C   UNL     1      -8.784  17.529  67.959  1.00  0.00    -0.254 C  
ENDROOT
BRANCH   6  10
HETATM   10  C   UNL     1     -10.910  16.238  68.294  1.00  0.00    -0.340 A  
HETATM   11  C   UNL     1     -11.091  16.430  69.673  1.00  0.00    -0.306 A  
HETATM   12  C   UNL     1     -11.661  15.436  70.476  1.00  0.00    -0.355 A  
HETATM   13  C   UNL     1     -12.083  14.234  69.920  1.00  0.00    -0.404 A  
HETATM   14  C   UNL     1     -11.958  14.034  68.553  1.00  0.00    -0.383 A  
HETATM   15  C   UNL     1     -11.384  15.024  67.751  1.00  0.00    -0.340 A  
ENDBRANCH   6  10
TORSDOF 1
ENDMDL
MODEL       19
REMARK 921   NORMALIZED FREE ENERGY PREDICTED BY IDOCK:   -4.88 KCAL/MOL
REMARK 922        TOTAL FREE ENERGY PREDICTED BY IDOCK:   -5.47 KCAL/MOL
REMARK 923 INTER-LIGAND FREE ENERGY PREDICTED BY IDOCK:   -5.16 KCAL/MOL
REMARK 924 INTRA-LIGAND FREE ENERGY PREDICTED BY IDOCK:   -0.31 KCAL/MOL
REMARK 927      BINDING AFFINITY PREDICTED BY RF-SCORE:    0.00 PKD
ROOT
HETATM    1  C   UNL     1     -12.156  11.598  70.418  1.00  0.00    -0.373 C  
HETATM    2  N   UNL     1     -11.788  12.581  69.430  1.00  0.00    -0.316 N  
HETATM    3  C   UNL     1     -12.148  13.889  69.481  1.00  0.00    -0.342 C  
HETATM    4  C   UNL     1     -11.695  14.571  68.226  1.00  0.00    -0.368 C  
HETATM    5  O   UNL     1     -12.746  14.450  70.387  1.00  0.00    -0.346 OA 
HETATM    6  C   UNL     1     -10.765  13.552  67.524  1.00  0.00    -0.266 C  
HETATM    7  O   UNL     1     -10.202  11.305  68.366  1.00  0.00    -0.181 OA 
HETATM    8  C   UNL     1      -9.324  14.098  67.586  1.00  0.00    -0.209 C  
HETATM    9  C   UNL     1     -10.866  12.335  68.455  1.00  0.00    -0.230 C  
ENDROOT
BRANCH   6  10
HETATM   10  C   UNL     1     -11.141  13.134  66.091  1.00  0.00    -0.301 A  
HETATM   11  C   UNL     1     -12.457  13.096  65.604  1.00  0.00    -0.485 A  
HETATM   12  C   UNL     1     -12.746  12.589  64.332  1.00  0.00    -0.447 A  
HETATM   13  C   UNL     1     -11.727  12.128  63.507  1.00  0.00    -0.579 A  
HETATM   14  C   UNL     1     -10.412  12.195  63.944  1.00  0.00    -0.442 A  
HETATM   15  C   UNL     1     -10.123  12.695  65.216  1.00  0.00    -0.271 A  
ENDBRANCH   6  10
TORSDOF 1
ENDMDL
MODEL       20
REMARK 921   NORMALIZED FREE ENERGY PREDICTED BY IDOCK:   -4.82 KCAL/MOL
REMARK 922        TOTAL FREE ENERGY PREDICTED BY IDOCK:   -5.41 KCAL/MOL
REMARK 923 INTER-LIGAND FREE ENERGY PREDICTED BY IDOCK:   -5.15 KCAL/MOL
REMARK 924 INTRA-LIGAND FREE ENERGY PREDICTED BY IDOCK:   -0.26 KCAL/MOL
REMARK 927      BINDING AFFINITY PREDICTED BY RF-SCORE:    0.00 PKD
ROOT
HETATM    1  C   UNL     1     -11.319  15.210  67.307  1.00  0.00    -0.303 C  
HETATM    2  N   UNL     1     -10.652  16.485  67.213  1.00  0.00    -0.310 N  
HETATM    3  C   UNL     1     -10.397  17.129  66.046  1.00  0.00    -0.309 C  
HETATM    4  C   UNL     1      -9.582  18.354  66.331  1.00  0.00    -0.312 C  
HETATM    5  O   UNL     1     -10.756  16.793  64.928  1.00  0.00    -0.721 OA 
HETATM    6  C   UNL     1      -9.610  18.510  67.871  1.00  0.00    -0.323 C  
HETATM    7  O   UNL     1     -10.779  17.015  69.444  1.00  0.00    -0.322 OA 
HETATM    8  C   UNL     1     -10.446  19.761  68.210  1.00  0.00    -0.449 C  
HETATM    9  C   UNL     1     -10.399  17.265  68.303  1.00  0.00    -0.361 C  
ENDROOT
BRANCH   6  10
HETATM   10  C   UNL     1      -8.253  18.535  68.597  1.00  0.00    -0.335 A  
HETATM   11  C   UNL     1      -7.632  19.705  69.061  1.00  0.00    -0.320 A  
HETATM   12  C   UNL     1      -6.342  19.677  69.603  1.00  0.00    -0.366 A  
HETATM   13  C   UNL     1      -5.649  18.478  69.714  1.00  0.00    -0.230 A  
HETATM   14  C   UNL     1      -6.255  17.299  69.305  1.00  0.00    -0.237 A  
HETATM   15  C   UNL     1      -7.540  17.327  68.758  1.00  0.00    -0.256 A  
ENDBRANCH   6  10
TORSDOF 1
ENDMDL
MODEL       21
REMARK 921   NORMALIZED FREE ENERGY PREDICTED BY IDOCK:   -4.82 KCAL/MOL
REMARK 922        TOTAL FREE ENERGY PREDICTED BY IDOCK:   -5.40 KCAL/MOL
REMARK 923 INTER-LIGAND FREE ENERGY PREDICTED BY IDOCK:   -5.04 KCAL/MOL
REMARK 924 INTRA-LIGAND FREE ENERGY PREDICTED BY IDOCK:   -0.36 KCAL/MOL
REMARK 927      BINDING AFFINITY PREDICTED BY RF-SCORE:    0.00 PKD
ROOT
HETATM    1  C   UNL     1     -10.021  10.099  65.287  1.00  0.00    -0.311 C  
HETATM    2  N   UNL     1     -10.421  11.483  65.223  1.00  0.00    -0.273 N  
HETATM    3  C   UNL     1     -10.249  12.279  64.138  1.00  0.00    -0.349 C  
HETATM    4  C   UNL     1     -10.667  13.676  64.484  1.00  0.00    -0.420 C  
HETATM    5  O   UNL     1      -9.822  11.945  63.043  1.00  0.00    -0.385 OA 
HETATM    6  C   UNL     1     -11.378  13.559  65.854  1.00  0.00    -0.321 C  
HETATM    7  O   UNL     1     -11.711  11.472  67.124  1.00  0.00    -0.567 OA 
HETATM    8  C   UNL     1     -12.879  13.841  65.640  1.00  0.00    -0.456 C  
HETATM    9  C   UNL     1     -11.203  12.067  66.177  1.00  0.00    -0.343 C  
ENDROOT
BRANCH   6  10
HETATM   10  C   UNL     1     -10.813  14.402  67.011  1.00  0.00    -0.297 A  
HETATM   11  C   UNL     1     -11.607  15.087  67.944  1.00  0.00    -0.350 A  
HETATM   12  C   UNL     1     -11.037  15.938  68.898  1.00  0.00    -0.316 A  
HETATM   13  C   UNL     1      -9.659  16.109  68.958  1.00  0.00    -0.251 A  
HETATM   14  C   UNL     1      -8.846  15.411  68.077  1.00  0.00    -0.165 A  
HETATM   15  C   UNL     1      -9.415  14.567  67.120  1.00  0.00    -0.236 A  
ENDBRANCH   6  10
TORSDOF 1
ENDMDL
MODEL       22
REMARK 921   NORMALIZED FREE ENERGY PREDICTED BY IDOCK:   -4.81 KCAL/MOL
REMARK 922        TOTAL FREE ENERGY PREDICTED BY IDOCK:   -5.40 KCAL/MOL
REMARK 923 INTER-LIGAND FREE ENERGY PREDICTED BY IDOCK:   -5.04 KCAL/MOL
REMARK 924 INTRA-LIGAND FREE ENERGY PREDICTED BY IDOCK:   -0.35 KCAL/MOL
REMARK 927      BINDING AFFINITY PREDICTED BY RF-SCORE:    0.00 PKD
ROOT
HETATM    1  C   UNL     1     -10.762  12.255  65.849  1.00  0.00    -0.258 C  
HETATM    2  N   UNL     1     -10.562  13.182  66.935  1.00  0.00    -0.261 N  
HETATM    3  C   UNL     1      -9.356  13.454  67.495  1.00  0.00    -0.218 C  
HETATM    4  C   UNL     1      -9.555  14.360  68.672  1.00  0.00    -0.208 C  
HETATM    5  O   UNL     1      -8.266  13.042  67.126  1.00  0.00    -0.177 OA 
HETATM    6  C   UNL     1     -11.030  14.822  68.582  1.00  0.00    -0.262 C  
HETATM    7  O   UNL     1     -12.638  14.159  66.835  1.00  0.00    -0.260 OA 
HETATM    8  C   UNL     1     -11.041  16.323  68.229  1.00  0.00    -0.346 C  
HETATM    9  C   UNL     1     -11.538  14.031  67.367  1.00  0.00    -0.368 C  
ENDROOT
BRANCH   6  10
HETATM   10  C   UNL     1     -11.930  14.529  69.796  1.00  0.00    -0.383 A  
HETATM   11  C   UNL     1     -12.142  13.246  70.325  1.00  0.00    -0.405 A  
HETATM   12  C   UNL     1     -13.067  13.028  71.352  1.00  0.00    -0.336 A  
HETATM   13  C   UNL     1     -13.789  14.087  71.890  1.00  0.00    -0.533 A  
HETATM   14  C   UNL     1     -13.569  15.372  71.417  1.00  0.00    -0.604 A  
HETATM   15  C   UNL     1     -12.649  15.591  70.388  1.00  0.00    -0.421 A  
ENDBRANCH   6  10
TORSDOF 1
ENDMDL
MODEL       23
REMARK 921   NORMALIZED FREE ENERGY PREDICTED BY IDOCK:   -4.81 KCAL/MOL
REMARK 922        TOTAL FREE ENERGY PREDICTED BY IDOCK:   -5.39 KCAL/MOL
REMARK 923 INTER-LIGAND FREE ENERGY PREDICTED BY IDOCK:   -5.04 KCAL/MOL
REMARK 924 INTRA-LIGAND FREE ENERGY PREDICTED BY IDOCK:   -0.36 KCAL/MOL
REMARK 927      BINDING AFFINITY PREDICTED BY RF-SCORE:    0.00 PKD
ROOT
HETATM    1  C   UNL     1      -9.077   5.816  72.371  1.00  0.00    -0.141 C  
HETATM    2  N   UNL     1     -10.220   6.347  71.671  1.00  0.00    -0.194 N  
HETATM    3  C   UNL     1     -10.629   5.929  70.447  1.00  0.00    -0.286 C  
HETATM    4  C   UNL     1     -11.764   6.793  69.987  1.00  0.00    -0.330 C  
HETATM    5  O   UNL     1     -10.167   5.004  69.795  1.00  0.00    -0.260 OA 
HETATM    6  C   UNL     1     -12.169   7.624  71.229  1.00  0.00    -0.339 C  
HETATM    7  O   UNL     1     -11.115   7.487  73.454  1.00  0.00    -0.344 OA 
HETATM    8  C   UNL     1     -13.558   7.142  71.695  1.00  0.00    -0.399 C  
HETATM    9  C   UNL     1     -11.125   7.178  72.264  1.00  0.00    -0.254 C  
ENDROOT
BRANCH   6  10
HETATM   10  C   UNL     1     -12.129   9.156  71.089  1.00  0.00    -0.365 A  
HETATM   11  C   UNL     1     -13.020  10.027  71.736  1.00  0.00    -0.560 A  
HETATM   12  C   UNL     1     -13.013  11.401  71.472  1.00  0.00    -0.505 A  
HETATM   13  C   UNL     1     -12.102  11.943  70.573  1.00  0.00    -0.422 A  
HETATM   14  C   UNL     1     -11.180  11.113  69.952  1.00  0.00    -0.293 A  
HETATM   15  C   UNL     1     -11.191   9.740  70.210  1.00  0.00    -0.347 A  
ENDBRANCH   6  10
TORSDOF 1
ENDMDL
MODEL       24
REMARK 921   NORMALIZED FREE ENERGY PREDICTED BY IDOCK:   -4.80 KCAL/MOL
REMARK 922        TOTAL FREE ENERGY PREDICTED BY IDOCK:   -5.39 KCAL/MOL
REMARK 923 INTER-LIGAND FREE ENERGY PREDICTED BY IDOCK:   -5.03 KCAL/MOL
REMARK 924 INTRA-LIGAND FREE ENERGY PREDICTED BY IDOCK:   -0.35 KCAL/MOL
REMARK 927      BINDING AFFINITY PREDICTED BY RF-SCORE:    0.00 PKD
ROOT
HETATM    1  C   UNL     1     -10.011  10.097  65.275  1.00  0.00    -0.311 C  
HETATM    2  N   UNL     1     -10.421  11.479  65.230  1.00  0.00    -0.273 N  
HETATM    3  C   UNL     1     -10.250  12.292  64.158  1.00  0.00    -0.349 C  
HETATM    4  C   UNL     1     -10.679  13.681  64.522  1.00  0.00    -0.420 C  
HETATM    5  O   UNL     1      -9.817  11.977  63.059  1.00  0.00    -0.372 OA 
HETATM    6  C   UNL     1     -11.394  13.539  65.888  1.00  0.00    -0.321 C  
HETATM    7  O   UNL     1     -11.717  11.431  67.126  1.00  0.00    -0.556 OA 
HETATM    8  C   UNL     1     -12.897  13.813  65.672  1.00  0.00    -0.456 C  
HETATM    9  C   UNL     1     -11.210  12.044  66.189  1.00  0.00    -0.343 C  
ENDROOT
BRANCH   6  10
HETATM   10  C   UNL     1     -10.839  14.369  67.059  1.00  0.00    -0.297 A  
HETATM   11  C   UNL     1      -9.482  14.413  67.416  1.00  0.00    -0.207 A  
HETATM   12  C   UNL     1      -9.056  15.088  68.566  1.00  0.00    -0.188 A  
HETATM   13  C   UNL     1      -9.969  15.752  69.374  1.00  0.00    -0.274 A  
HETATM   14  C   UNL     1     -11.311  15.763  69.022  1.00  0.00    -0.354 A  
HETATM   15  C   UNL     1     -11.739  15.085  67.878  1.00  0.00    -0.310 A  
ENDBRANCH   6  10
TORSDOF 1
ENDMDL
MODEL       25
REMARK 921   NORMALIZED FREE ENERGY PREDICTED BY IDOCK:   -4.80 KCAL/MOL
REMARK 922        TOTAL FREE ENERGY PREDICTED BY IDOCK:   -5.38 KCAL/MOL
REMARK 923 INTER-LIGAND FREE ENERGY PREDICTED BY IDOCK:   -5.17 KCAL/MOL
REMARK 924 INTRA-LIGAND FREE ENERGY PREDICTED BY IDOCK:   -0.22 KCAL/MOL
REMARK 927      BINDING AFFINITY PREDICTED BY RF-SCORE:    0.00 PKD
ROOT
HETATM    1  C   UNL     1      -7.712  13.512  67.610  1.00  0.00    -0.176 C  
HETATM    2  N   UNL     1      -8.922  14.274  67.422  1.00  0.00    -0.191 N  
HETATM    3  C   UNL     1      -9.873  13.980  66.500  1.00  0.00    -0.290 C  
HETATM    4  C   UNL     1     -10.914  15.058  66.510  1.00  0.00    -0.327 C  
HETATM    5  O   UNL     1      -9.906  13.005  65.764  1.00  0.00    -0.270 OA 
HETATM    6  C   UNL     1     -10.602  15.912  67.763  1.00  0.00    -0.302 C  
HETATM    7  O   UNL     1      -8.762  15.506  69.354  1.00  0.00    -0.246 OA 
HETATM    8  C   UNL     1     -11.733  15.688  68.788  1.00  0.00    -0.382 C  
HETATM    9  C   UNL     1      -9.324  15.243  68.294  1.00  0.00    -0.194 C  
ENDROOT
BRANCH   6  10
HETATM   10  C   UNL     1     -10.340  17.411  67.541  1.00  0.00    -0.351 A  
HETATM   11  C   UNL     1     -10.174  18.342  68.580  1.00  0.00    -0.402 A  
HETATM   12  C   UNL     1     -10.062  19.712  68.316  1.00  0.00    -0.560 A  
HETATM   13  C   UNL     1     -10.091  20.185  67.010  1.00  0.00    -0.599 A  
HETATM   14  C   UNL     1     -10.210  19.285  65.961  1.00  0.00    -0.512 A  
HETATM   15  C   UNL     1     -10.328  17.917  66.223  1.00  0.00    -0.364 A  
ENDBRANCH   6  10
TORSDOF 1
ENDMDL
MODEL       26
REMARK 921   NORMALIZED FREE ENERGY PREDICTED BY IDOCK:   -4.79 KCAL/MOL
REMARK 922        TOTAL FREE ENERGY PREDICTED BY IDOCK:   -5.37 KCAL/MOL
REMARK 923 INTER-LIGAND FREE ENERGY PREDICTED BY IDOCK:   -5.05 KCAL/MOL
REMARK 924 INTRA-LIGAND FREE ENERGY PREDICTED BY IDOCK:   -0.32 KCAL/MOL
REMARK 927      BINDING AFFINITY PREDICTED BY RF-SCORE:    0.00 PKD
ROOT
HETATM    1  C   UNL     1     -10.347  13.366  65.320  1.00  0.00    -0.319 C  
HETATM    2  N   UNL     1     -10.362  13.837  66.683  1.00  0.00    -0.275 N  
HETATM    3  C   UNL     1      -9.281  14.343  67.328  1.00  0.00    -0.209 C  
HETATM    4  C   UNL     1      -9.642  14.607  68.758  1.00  0.00    -0.210 C  
HETATM    5  O   UNL     1      -8.176  14.559  66.852  1.00  0.00    -0.171 OA 
HETATM    6  C   UNL     1     -11.180  14.446  68.823  1.00  0.00    -0.282 C  
HETATM    7  O   UNL     1     -12.646  13.877  66.924  1.00  0.00    -0.267 OA 
HETATM    8  C   UNL     1     -11.797  15.837  69.073  1.00  0.00    -0.367 C  
HETATM    9  C   UNL     1     -11.516  14.014  67.388  1.00  0.00    -0.348 C  
ENDROOT
BRANCH   6  10
HETATM   10  C   UNL     1     -11.734  13.406  69.814  1.00  0.00    -0.355 A  
HETATM   11  C   UNL     1     -11.626  12.017  69.636  1.00  0.00    -0.371 A  
HETATM   12  C   UNL     1     -12.257  11.123  70.508  1.00  0.00    -0.475 A  
HETATM   13  C   UNL     1     -12.993  11.591  71.589  1.00  0.00    -0.499 A  
HETATM   14  C   UNL     1     -13.082  12.957  71.815  1.00  0.00    -0.458 A  
HETATM   15  C   UNL     1     -12.457  13.851  70.942  1.00  0.00    -0.447 A  
ENDBRANCH   6  10
TORSDOF 1
ENDMDL
MODEL       27
REMARK 921   NORMALIZED FREE ENERGY PREDICTED BY IDOCK:   -4.78 KCAL/MOL
REMARK 922        TOTAL FREE ENERGY PREDICTED BY IDOCK:   -5.37 KCAL/MOL
REMARK 923 INTER-LIGAND FREE ENERGY PREDICTED BY IDOCK:   -5.10 KCAL/MOL
REMARK 924 INTRA-LIGAND FREE ENERGY PREDICTED BY IDOCK:   -0.27 KCAL/MOL
REMARK 927      BINDING AFFINITY PREDICTED BY RF-SCORE:    0.00 PKD
ROOT
HETATM    1  C   UNL     1      -8.038  17.433  67.806  1.00  0.00    -0.214 C  
HETATM    2  N   UNL     1      -9.141  16.505  67.822  1.00  0.00    -0.203 N  
HETATM    3  C   UNL     1     -10.062  16.396  66.831  1.00  0.00    -0.281 C  
HETATM    4  C   UNL     1     -11.122  15.424  67.253  1.00  0.00    -0.302 C  
HETATM    5  O   UNL     1     -10.060  16.981  65.758  1.00  0.00    -0.516 OA 
HETATM    6  C   UNL     1     -10.569  14.750  68.532  1.00  0.00    -0.248 C  
HETATM    7  O   UNL     1      -8.389  15.232  69.580  1.00  0.00    -0.244 OA 
HETATM    8  C   UNL     1     -10.247  13.279  68.196  1.00  0.00    -0.243 C  
HETATM    9  C   UNL     1      -9.246  15.502  68.741  1.00  0.00    -0.210 C  
ENDROOT
BRANCH   6  10
HETATM   10  C   UNL     1     -11.424  14.856  69.806  1.00  0.00    -0.328 A  
HETATM   11  C   UNL     1     -11.453  15.984  70.641  1.00  0.00    -0.427 A  
HETATM   12  C   UNL     1     -12.155  15.974  71.852  1.00  0.00    -0.590 A  
HETATM   13  C   UNL     1     -12.864  14.846  72.248  1.00  0.00    -0.414 A  
HETATM   14  C   UNL     1     -12.891  13.732  71.422  1.00  0.00    -0.449 A  
HETATM   15  C   UNL     1     -12.184  13.739  70.216  1.00  0.00    -0.429 A  
ENDBRANCH   6  10
TORSDOF 1
ENDMDL
MODEL       28
REMARK 921   NORMALIZED FREE ENERGY PREDICTED BY IDOCK:   -4.77 KCAL/MOL
REMARK 922        TOTAL FREE ENERGY PREDICTED BY IDOCK:   -5.35 KCAL/MOL
REMARK 923 INTER-LIGAND FREE ENERGY PREDICTED BY IDOCK:   -5.00 KCAL/MOL
REMARK 924 INTRA-LIGAND FREE ENERGY PREDICTED BY IDOCK:   -0.35 KCAL/MOL
REMARK 927      BINDING AFFINITY PREDICTED BY RF-SCORE:    0.00 PKD
ROOT
HETATM    1  C   UNL     1      -8.235  10.847  68.980  1.00  0.00    -0.124 C  
HETATM    2  N   UNL     1      -9.574  11.282  68.671  1.00  0.00    -0.200 N  
HETATM    3  C   UNL     1     -10.699  10.701  69.159  1.00  0.00    -0.228 C  
HETATM    4  C   UNL     1     -11.896  11.338  68.522  1.00  0.00    -0.355 C  
HETATM    5  O   UNL     1     -10.761   9.800  69.983  1.00  0.00    -0.241 OA 
HETATM    6  C   UNL     1     -11.347  12.580  67.779  1.00  0.00    -0.351 C  
HETATM    7  O   UNL     1      -8.986  13.286  67.715  1.00  0.00    -0.176 OA 
HETATM    8  C   UNL     1     -11.856  13.839  68.510  1.00  0.00    -0.406 C  
HETATM    9  C   UNL     1      -9.835  12.454  68.022  1.00  0.00    -0.205 C  
ENDROOT
BRANCH   6  10
HETATM   10  C   UNL     1     -11.617  12.666  66.267  1.00  0.00    -0.440 A  
HETATM   11  C   UNL     1     -11.158  11.725  65.332  1.00  0.00    -0.336 A  
HETATM   12  C   UNL     1     -11.329  11.923  63.957  1.00  0.00    -0.475 A  
HETATM   13  C   UNL     1     -11.982  13.054  63.483  1.00  0.00    -0.615 A  
HETATM   14  C   UNL     1     -12.486  13.981  64.384  1.00  0.00    -0.326 A  
HETATM   15  C   UNL     1     -12.309  13.787  65.757  1.00  0.00    -0.523 A  
ENDBRANCH   6  10
TORSDOF 1
ENDMDL
MODEL       29
REMARK 921   NORMALIZED FREE ENERGY PREDICTED BY IDOCK:   -4.71 KCAL/MOL
REMARK 922        TOTAL FREE ENERGY PREDICTED BY IDOCK:   -5.29 KCAL/MOL
REMARK 923 INTER-LIGAND FREE ENERGY PREDICTED BY IDOCK:   -5.06 KCAL/MOL
REMARK 924 INTRA-LIGAND FREE ENERGY PREDICTED BY IDOCK:   -0.23 KCAL/MOL
REMARK 927      BINDING AFFINITY PREDICTED BY RF-SCORE:    0.00 PKD
ROOT
HETATM    1  C   UNL     1      -8.293  19.665  67.563  1.00  0.00    -0.302 C  
HETATM    2  N   UNL     1      -8.754  18.351  67.938  1.00  0.00    -0.278 N  
HETATM    3  C   UNL     1      -8.007  17.444  68.616  1.00  0.00    -0.271 C  
HETATM    4  C   UNL     1      -8.767  16.156  68.712  1.00  0.00    -0.240 C  
HETATM    5  O   UNL     1      -6.891  17.615  69.085  1.00  0.00    -0.248 OA 
HETATM    6  C   UNL     1     -10.199  16.495  68.232  1.00  0.00    -0.268 C  
HETATM    7  O   UNL     1     -10.977  18.714  67.489  1.00  0.00    -0.392 OA 
HETATM    8  C   UNL     1     -11.144  16.408  69.448  1.00  0.00    -0.300 C  
HETATM    9  C   UNL     1     -10.059  17.971  67.828  1.00  0.00    -0.353 C  
ENDROOT
BRANCH   6  10
HETATM   10  C   UNL     1     -10.748  15.688  67.042  1.00  0.00    -0.314 A  
HETATM   11  C   UNL     1     -10.517  16.018  65.697  1.00  0.00    -0.416 A  
HETATM   12  C   UNL     1     -11.144  15.318  64.660  1.00  0.00    -0.346 A  
HETATM   13  C   UNL     1     -12.000  14.260  64.939  1.00  0.00    -0.430 A  
HETATM   14  C   UNL     1     -12.213  13.883  66.257  1.00  0.00    -0.498 A  
HETATM   15  C   UNL     1     -11.592  14.585  67.293  1.00  0.00    -0.405 A  
ENDBRANCH   6  10
TORSDOF 1
ENDMDL
MODEL       30
REMARK 921   NORMALIZED FREE ENERGY PREDICTED BY IDOCK:   -4.70 KCAL/MOL
REMARK 922        TOTAL FREE ENERGY PREDICTED BY IDOCK:   -5.28 KCAL/MOL
REMARK 923 INTER-LIGAND FREE ENERGY PREDICTED BY IDOCK:   -5.45 KCAL/MOL
REMARK 924 INTRA-LIGAND FREE ENERGY PREDICTED BY IDOCK:    0.17 KCAL/MOL
REMARK 927      BINDING AFFINITY PREDICTED BY RF-SCORE:    0.00 PKD
ROOT
HETATM    1  C   UNL     1     -12.362  15.069  64.433  1.00  0.00    -0.266 C  
HETATM    2  N   UNL     1     -11.986  14.202  65.523  1.00  0.00    -0.375 N  
HETATM    3  C   UNL     1     -12.341  12.896  65.618  1.00  0.00    -0.423 C  
HETATM    4  C   UNL     1     -11.880  12.358  66.939  1.00  0.00    -0.377 C  
HETATM    5  O   UNL     1     -12.942  12.236  64.784  1.00  0.00    -0.713 OA 
HETATM    6  C   UNL     1     -10.951  13.452  67.520  1.00  0.00    -0.284 C  
HETATM    7  O   UNL     1     -10.399  15.594  66.430  1.00  0.00    -0.276 OA 
HETATM    8  C   UNL     1      -9.508  12.907  67.511  1.00  0.00    -0.198 C  
HETATM    9  C   UNL     1     -11.061  14.559  66.460  1.00  0.00    -0.332 C  
ENDROOT
BRANCH   6  10
HETATM   10  C   UNL     1     -11.322  14.025  68.899  1.00  0.00    -0.314 A  
HETATM   11  C   UNL     1     -12.125  13.357  69.837  1.00  0.00    -0.389 A  
HETATM   12  C   UNL     1     -12.529  13.981  71.023  1.00  0.00    -0.444 A  
HETATM   13  C   UNL     1     -12.124  15.278  71.312  1.00  0.00    -0.407 A  
HETATM   14  C   UNL     1     -11.293  15.948  70.424  1.00  0.00    -0.399 A  
HETATM   15  C   UNL     1     -10.895  15.327  69.237  1.00  0.00    -0.257 A  
ENDBRANCH   6  10
TORSDOF 1
ENDMDL
MODEL       31
REMARK 921   NORMALIZED FREE ENERGY PREDICTED BY IDOCK:   -4.68 KCAL/MOL
REMARK 922        TOTAL FREE ENERGY PREDICTED BY IDOCK:   -5.26 KCAL/MOL
REMARK 923 INTER-LIGAND FREE ENERGY PREDICTED BY IDOCK:   -4.96 KCAL/MOL
REMARK 924 INTRA-LIGAND FREE ENERGY PREDICTED BY IDOCK:   -0.30 KCAL/MOL
REMARK 927      BINDING AFFINITY PREDICTED BY RF-SCORE:    0.00 PKD
ROOT
HETATM    1  C   UNL     1     -10.483  12.947  68.807  1.00  0.00    -0.161 C  
HETATM    2  N   UNL     1     -10.100  13.927  67.821  1.00  0.00    -0.237 N  
HETATM    3  C   UNL     1      -8.935  13.897  67.125  1.00  0.00    -0.235 C  
HETATM    4  C   UNL     1      -8.829  15.138  66.293  1.00  0.00    -0.211 C  
HETATM    5  O   UNL     1      -8.087  13.017  67.152  1.00  0.00    -0.171 OA 
HETATM    6  C   UNL     1     -10.226  15.801  66.373  1.00  0.00    -0.304 C  
HETATM    7  O   UNL     1     -12.160  14.924  67.626  1.00  0.00    -0.253 OA 
HETATM    8  C   UNL     1     -10.888  15.689  64.985  1.00  0.00    -0.468 C  
HETATM    9  C   UNL     1     -10.966  14.867  67.343  1.00  0.00    -0.314 C  
ENDROOT
BRANCH   6  10
HETATM   10  C   UNL     1     -10.287  17.243  66.905  1.00  0.00    -0.310 A  
HETATM   11  C   UNL     1     -10.537  18.366  66.101  1.00  0.00    -0.346 A  
HETATM   12  C   UNL     1     -10.458  19.664  66.620  1.00  0.00    -0.610 A  
HETATM   13  C   UNL     1     -10.148  19.871  67.958  1.00  0.00    -0.572 A  
HETATM   14  C   UNL     1      -9.938  18.779  68.788  1.00  0.00    -0.442 A  
HETATM   15  C   UNL     1     -10.011  17.483  68.269  1.00  0.00    -0.330 A  
ENDBRANCH   6  10
TORSDOF 1
ENDMDL
MODEL       32
REMARK 921   NORMALIZED FREE ENERGY PREDICTED BY IDOCK:   -4.68 KCAL/MOL
REMARK 922        TOTAL FREE ENERGY PREDICTED BY IDOCK:   -5.25 KCAL/MOL
REMARK 923 INTER-LIGAND FREE ENERGY PREDICTED BY IDOCK:   -4.91 KCAL/MOL
REMARK 924 INTRA-LIGAND FREE ENERGY PREDICTED BY IDOCK:   -0.35 KCAL/MOL
REMARK 927      BINDING AFFINITY PREDICTED BY RF-SCORE:    0.00 PKD
ROOT
HETATM    1  C   UNL     1     -10.868  10.150  69.642  1.00  0.00    -0.263 C  
HETATM    2  N   UNL     1     -11.145  11.542  69.385  1.00  0.00    -0.244 N  
HETATM    3  C   UNL     1     -12.011  12.295  70.108  1.00  0.00    -0.298 C  
HETATM    4  C   UNL     1     -12.133  13.647  69.472  1.00  0.00    -0.368 C  
HETATM    5  O   UNL     1     -12.612  11.958  71.117  1.00  0.00    -0.372 OA 
HETATM    6  C   UNL     1     -11.007  13.700  68.412  1.00  0.00    -0.284 C  
HETATM    7  O   UNL     1      -9.393  11.896  67.941  1.00  0.00    -0.174 OA 
HETATM    8  C   UNL     1      -9.951  14.720  68.887  1.00  0.00    -0.233 C  
HETATM    9  C   UNL     1     -10.404  12.291  68.517  1.00  0.00    -0.223 C  
ENDROOT
BRANCH   6  10
HETATM   10  C   UNL     1     -11.427  13.970  66.957  1.00  0.00    -0.370 A  
HETATM   11  C   UNL     1     -12.244  13.112  66.204  1.00  0.00    -0.451 A  
HETATM   12  C   UNL     1     -12.489  13.350  64.846  1.00  0.00    -0.447 A  
HETATM   13  C   UNL     1     -11.944  14.460  64.214  1.00  0.00    -0.433 A  
HETATM   14  C   UNL     1     -11.168  15.350  64.944  1.00  0.00    -0.410 A  
HETATM   15  C   UNL     1     -10.917  15.110  66.297  1.00  0.00    -0.335 A  
ENDBRANCH   6  10
TORSDOF 1
ENDMDL
MODEL       33
REMARK 921   NORMALIZED FREE ENERGY PREDICTED BY IDOCK:   -4.65 KCAL/MOL
REMARK 922        TOTAL FREE ENERGY PREDICTED BY IDOCK:   -5.23 KCAL/MOL
REMARK 923 INTER-LIGAND FREE ENERGY PREDICTED BY IDOCK:   -4.87 KCAL/MOL
REMARK 924 INTRA-LIGAND FREE ENERGY PREDICTED BY IDOCK:   -0.36 KCAL/MOL
REMARK 927      BINDING AFFINITY PREDICTED BY RF-SCORE:    0.00 PKD
ROOT
HETATM    1  C   UNL     1     -10.488  14.010  65.013  1.00  0.00    -0.420 C  
HETATM    2  N   UNL     1     -10.399  15.362  65.506  1.00  0.00    -0.356 N  
HETATM    3  C   UNL     1     -10.904  16.445  64.863  1.00  0.00    -0.250 C  
HETATM    4  C   UNL     1     -10.510  17.685  65.607  1.00  0.00    -0.150 C  
HETATM    5  O   UNL     1     -11.573  16.445  63.840  1.00  0.00    -1.100 OA 
HETATM    6  C   UNL     1      -9.923  17.183  66.948  1.00  0.00    -0.288 C  
HETATM    7  O   UNL     1      -9.722  14.824  67.634  1.00  0.00    -0.211 OA 
HETATM    8  C   UNL     1     -10.898  17.580  68.075  1.00  0.00    -0.260 C  
HETATM    9  C   UNL     1      -9.979  15.659  66.770  1.00  0.00    -0.250 C  
ENDROOT
BRANCH   6  10
HETATM   10  C   UNL     1      -8.482  17.607  67.283  1.00  0.00    -0.225 A  
HETATM   11  C   UNL     1      -8.113  18.265  68.467  1.00  0.00    -0.330 A  
HETATM   12  C   UNL     1      -6.809  18.735  68.660  1.00  0.00    -0.294 A  
HETATM   13  C   UNL     1      -5.837  18.541  67.687  1.00  0.00    -0.165 A  
HETATM   14  C   UNL     1      -6.161  17.855  66.526  1.00  0.00    -0.216 A  
HETATM   15  C   UNL     1      -7.464  17.391  66.329  1.00  0.00    -0.354 A  
ENDBRANCH   6  10
TORSDOF 1
ENDMDL
MODEL       34
REMARK 921   NORMALIZED FREE ENERGY PREDICTED BY IDOCK:   -4.64 KCAL/MOL
REMARK 922        TOTAL FREE ENERGY PREDICTED BY IDOCK:   -5.22 KCAL/MOL
REMARK 923 INTER-LIGAND FREE ENERGY PREDICTED BY IDOCK:   -4.86 KCAL/MOL
REMARK 924 INTRA-LIGAND FREE ENERGY PREDICTED BY IDOCK:   -0.35 KCAL/MOL
REMARK 927      BINDING AFFINITY PREDICTED BY RF-SCORE:    0.00 PKD
ROOT
HETATM    1  C   UNL     1     -11.845  12.490  63.545  1.00  0.00    -0.534 C  
HETATM    2  N   UNL     1     -11.536  13.072  64.827  1.00  0.00    -0.316 N  
HETATM    3  C   UNL     1     -12.434  13.726  65.606  1.00  0.00    -0.503 C  
HETATM    4  C   UNL     1     -11.726  14.300  66.796  1.00  0.00    -0.424 C  
HETATM    5  O   UNL     1     -13.633  13.850  65.399  1.00  0.00    -0.571 OA 
HETATM    6  C   UNL     1     -10.314  13.666  66.771  1.00  0.00    -0.268 C  
HETATM    7  O   UNL     1      -9.492  12.058  65.092  1.00  0.00    -0.137 OA 
HETATM    8  C   UNL     1     -10.203  12.698  67.967  1.00  0.00    -0.230 C  
HETATM    9  C   UNL     1     -10.359  12.839  65.477  1.00  0.00    -0.284 C  
ENDROOT
BRANCH   6  10
HETATM   10  C   UNL     1      -9.115  14.629  66.721  1.00  0.00    -0.287 A  
HETATM   11  C   UNL     1      -7.871  14.365  67.314  1.00  0.00    -0.188 A  
HETATM   12  C   UNL     1      -6.859  15.332  67.341  1.00  0.00    -0.188 A  
HETATM   13  C   UNL     1      -7.057  16.578  66.760  1.00  0.00    -0.253 A  
HETATM   14  C   UNL     1      -8.261  16.852  66.128  1.00  0.00    -0.295 A  
HETATM   15  C   UNL     1      -9.274  15.890  66.105  1.00  0.00    -0.384 A  
ENDBRANCH   6  10
TORSDOF 1
ENDMDL
MODEL       35
REMARK 921   NORMALIZED FREE ENERGY PREDICTED BY IDOCK:   -4.63 KCAL/MOL
REMARK 922        TOTAL FREE ENERGY PREDICTED BY IDOCK:   -5.20 KCAL/MOL
REMARK 923 INTER-LIGAND FREE ENERGY PREDICTED BY IDOCK:   -4.94 KCAL/MOL
REMARK 924 INTRA-LIGAND FREE ENERGY PREDICTED BY IDOCK:   -0.26 KCAL/MOL
REMARK 927      BINDING AFFINITY PREDICTED BY RF-SCORE:    0.00 PKD
ROOT
HETATM    1  C   UNL     1     -11.985  14.298  66.886  1.00  0.00    -0.438 C  
HETATM    2  N   UNL     1     -11.431  13.004  67.200  1.00  0.00    -0.312 N  
HETATM    3  C   UNL     1     -11.359  11.970  66.325  1.00  0.00    -0.357 C  
HETATM    4  C   UNL     1     -10.845  10.758  67.039  1.00  0.00    -0.311 C  
HETATM    5  O   UNL     1     -11.659  11.990  65.140  1.00  0.00    -0.329 OA 
HETATM    6  C   UNL     1     -10.354  11.275  68.413  1.00  0.00    -0.207 C  
HETATM    7  O   UNL     1     -10.435  13.617  69.177  1.00  0.00    -0.134 OA 
HETATM    8  C   UNL     1      -8.816  11.165  68.444  1.00  0.00    -0.157 C  
HETATM    9  C   UNL     1     -10.735  12.762  68.348  1.00  0.00    -0.250 C  
ENDROOT
BRANCH   6  10
HETATM   10  C   UNL     1     -10.982  10.639  69.665  1.00  0.00    -0.331 A  
HETATM   11  C   UNL     1     -10.346   9.670  70.457  1.00  0.00    -0.359 A  
HETATM   12  C   UNL     1     -11.017   9.040  71.512  1.00  0.00    -0.418 A  
HETATM   13  C   UNL     1     -12.331   9.376  71.815  1.00  0.00    -0.471 A  
HETATM   14  C   UNL     1     -12.971  10.362  71.078  1.00  0.00    -0.490 A  
HETATM   15  C   UNL     1     -12.304  10.988  70.021  1.00  0.00    -0.377 A  
ENDBRANCH   6  10
TORSDOF 1
ENDMDL
MODEL       36
REMARK 921   NORMALIZED FREE ENERGY PREDICTED BY IDOCK:   -4.61 KCAL/MOL
REMARK 922        TOTAL FREE ENERGY PREDICTED BY IDOCK:   -5.18 KCAL/MOL
REMARK 923 INTER-LIGAND FREE ENERGY PREDICTED BY IDOCK:   -4.83 KCAL/MOL
REMARK 924 INTRA-LIGAND FREE ENERGY PREDICTED BY IDOCK:   -0.35 KCAL/MOL
REMARK 927      BINDING AFFINITY PREDICTED BY RF-SCORE:    0.00 PKD
ROOT
HETATM    1  C   UNL     1     -11.988  15.925  69.115  1.00  0.00    -0.255 C  
HETATM    2  N   UNL     1     -11.068  15.581  68.060  1.00  0.00    -0.311 N  
HETATM    3  C   UNL     1     -10.419  16.487  67.286  1.00  0.00    -0.304 C  
HETATM    4  C   UNL     1      -9.653  15.763  66.221  1.00  0.00    -0.343 C  
HETATM    5  O   UNL     1     -10.438  17.703  67.408  1.00  0.00    -0.351 OA 
HETATM    6  C   UNL     1      -9.708  14.270  66.626  1.00  0.00    -0.297 C  
HETATM    7  O   UNL     1     -10.838  13.366  68.623  1.00  0.00    -0.251 OA 
HETATM    8  C   UNL     1      -8.290  13.838  67.052  1.00  0.00    -0.107 C  
HETATM    9  C   UNL     1     -10.601  14.312  67.876  1.00  0.00    -0.240 C  
ENDROOT
BRANCH   6  10
HETATM   10  C   UNL     1     -10.306  13.289  65.603  1.00  0.00    -0.292 A  
HETATM   11  C   UNL     1      -9.928  11.941  65.495  1.00  0.00    -0.266 A  
HETATM   12  C   UNL     1     -10.417  11.130  64.464  1.00  0.00    -0.415 A  
HETATM   13  C   UNL     1     -11.311  11.638  63.530  1.00  0.00    -0.447 A  
HETATM   14  C   UNL     1     -11.737  12.954  63.638  1.00  0.00    -0.572 A  
HETATM   15  C   UNL     1     -11.245  13.766  64.663  1.00  0.00    -0.383 A  
ENDBRANCH   6  10
TORSDOF 1
ENDMDL
MODEL       37
REMARK 921   NORMALIZED FREE ENERGY PREDICTED BY IDOCK:   -4.60 KCAL/MOL
REMARK 922        TOTAL FREE ENERGY PREDICTED BY IDOCK:   -5.18 KCAL/MOL
REMARK 923 INTER-LIGAND FREE ENERGY PREDICTED BY IDOCK:   -4.82 KCAL/MOL
REMARK 924 INTRA-LIGAND FREE ENERGY PREDICTED BY IDOCK:   -0.36 KCAL/MOL
REMARK 927      BINDING AFFINITY PREDICTED BY RF-SCORE:    0.00 PKD
ROOT
HETATM    1  C   UNL     1     -10.964  16.197  69.641  1.00  0.00    -0.346 C  
HETATM    2  N   UNL     1     -10.629  16.648  68.312  1.00  0.00    -0.321 N  
HETATM    3  C   UNL     1     -10.900  15.953  67.179  1.00  0.00    -0.267 C  
HETATM    4  C   UNL     1     -10.295  16.669  66.009  1.00  0.00    -0.352 C  
HETATM    5  O   UNL     1     -11.529  14.909  67.090  1.00  0.00    -0.352 OA 
HETATM    6  C   UNL     1      -9.851  18.045  66.562  1.00  0.00    -0.353 C  
HETATM    7  O   UNL     1     -10.126  18.814  68.889  1.00  0.00    -0.390 OA 
HETATM    8  C   UNL     1     -10.762  19.125  65.943  1.00  0.00    -0.435 C  
HETATM    9  C   UNL     1     -10.195  17.915  68.054  1.00  0.00    -0.376 C  
ENDROOT
BRANCH   6  10
HETATM   10  C   UNL     1      -8.366  18.415  66.409  1.00  0.00    -0.272 A  
HETATM   11  C   UNL     1      -7.905  19.708  66.115  1.00  0.00    -0.340 A  
HETATM   12  C   UNL     1      -6.550  19.957  65.866  1.00  0.00    -0.251 A  
HETATM   13  C   UNL     1      -5.620  18.927  65.926  1.00  0.00    -0.189 A  
HETATM   14  C   UNL     1      -6.039  17.647  66.258  1.00  0.00    -0.261 A  
HETATM   15  C   UNL     1      -7.393  17.396  66.501  1.00  0.00    -0.312 A  
ENDBRANCH   6  10
TORSDOF 1
ENDMDL
MODEL       38
REMARK 921   NORMALIZED FREE ENERGY PREDICTED BY IDOCK:   -4.58 KCAL/MOL
REMARK 922        TOTAL FREE ENERGY PREDICTED BY IDOCK:   -5.15 KCAL/MOL
REMARK 923 INTER-LIGAND FREE ENERGY PREDICTED BY IDOCK:   -4.80 KCAL/MOL
REMARK 924 INTRA-LIGAND FREE ENERGY PREDICTED BY IDOCK:   -0.35 KCAL/MOL
REMARK 927      BINDING AFFINITY PREDICTED BY RF-SCORE:    0.00 PKD
ROOT
HETATM    1  C   UNL     1      -9.403  15.097  68.876  1.00  0.00    -0.207 C  
HETATM    2  N   UNL     1     -10.320  14.225  68.187  1.00  0.00    -0.229 N  
HETATM    3  C   UNL     1     -11.319  13.534  68.792  1.00  0.00    -0.290 C  
HETATM    4  C   UNL     1     -11.978  12.641  67.785  1.00  0.00    -0.303 C  
HETATM    5  O   UNL     1     -11.653  13.603  69.966  1.00  0.00    -0.254 OA 
HETATM    6  C   UNL     1     -11.414  13.090  66.415  1.00  0.00    -0.384 C  
HETATM    7  O   UNL     1      -9.784  14.905  66.059  1.00  0.00    -0.294 OA 
HETATM    8  C   UNL     1     -12.556  13.763  65.625  1.00  0.00    -0.551 C  
HETATM    9  C   UNL     1     -10.403  14.171  66.826  1.00  0.00    -0.274 C  
ENDROOT
BRANCH   6  10
HETATM   10  C   UNL     1     -10.705  12.022  65.565  1.00  0.00    -0.318 A  
HETATM   11  C   UNL     1      -9.751  11.124  66.070  1.00  0.00    -0.263 A  
HETATM   12  C   UNL     1      -9.049  10.258  65.224  1.00  0.00    -0.228 A  
HETATM   13  C   UNL     1      -9.298  10.251  63.857  1.00  0.00    -0.337 A  
HETATM   14  C   UNL     1     -10.267  11.096  63.335  1.00  0.00    -0.435 A  
HETATM   15  C   UNL     1     -10.963  11.966  64.179  1.00  0.00    -0.430 A  
ENDBRANCH   6  10
TORSDOF 1
ENDMDL
MODEL       39
REMARK 921   NORMALIZED FREE ENERGY PREDICTED BY IDOCK:   -4.56 KCAL/MOL
REMARK 922        TOTAL FREE ENERGY PREDICTED BY IDOCK:   -5.13 KCAL/MOL
REMARK 923 INTER-LIGAND FREE ENERGY PREDICTED BY IDOCK:   -4.89 KCAL/MOL
REMARK 924 INTRA-LIGAND FREE ENERGY PREDICTED BY IDOCK:   -0.24 KCAL/MOL
REMARK 927      BINDING AFFINITY PREDICTED BY RF-SCORE:    0.00 PKD
ROOT
HETATM    1  C   UNL     1     -12.254  13.687  63.463  1.00  0.00    -0.268 C  
HETATM    2  N   UNL     1     -11.669  14.138  64.701  1.00  0.00    -0.396 N  
HETATM    3  C   UNL     1     -11.218  15.399  64.919  1.00  0.00    -0.403 C  
HETATM    4  C   UNL     1     -10.564  15.460  66.266  1.00  0.00    -0.311 C  
HETATM    5  O   UNL     1     -11.310  16.353  64.160  1.00  0.00    -0.941 OA 
HETATM    6  C   UNL     1     -10.926  14.121  66.953  1.00  0.00    -0.302 C  
HETATM    7  O   UNL     1     -12.297  12.326  65.965  1.00  0.00    -0.609 OA 
HETATM    8  C   UNL     1     -11.896  14.425  68.113  1.00  0.00    -0.362 C  
HETATM    9  C   UNL     1     -11.703  13.394  65.845  1.00  0.00    -0.356 C  
ENDROOT
BRANCH   6  10
HETATM   10  C   UNL     1      -9.757  13.237  67.423  1.00  0.00    -0.221 A  
HETATM   11  C   UNL     1      -9.910  12.092  68.220  1.00  0.00    -0.212 A  
HETATM   12  C   UNL     1      -8.800  11.400  68.718  1.00  0.00    -0.076 A  
HETATM   13  C   UNL     1      -7.511  11.821  68.414  1.00  0.00    -0.105 A  
HETATM   14  C   UNL     1      -7.329  12.924  67.592  1.00  0.00    -0.145 A  
HETATM   15  C   UNL     1      -8.437  13.619  67.100  1.00  0.00    -0.186 A  
ENDBRANCH   6  10
TORSDOF 1
ENDMDL
MODEL       40
REMARK 921   NORMALIZED FREE ENERGY PREDICTED BY IDOCK:   -4.56 KCAL/MOL
REMARK 922        TOTAL FREE ENERGY PREDICTED BY IDOCK:   -5.13 KCAL/MOL
REMARK 923 INTER-LIGAND FREE ENERGY PREDICTED BY IDOCK:   -4.78 KCAL/MOL
REMARK 924 INTRA-LIGAND FREE ENERGY PREDICTED BY IDOCK:   -0.35 KCAL/MOL
REMARK 927      BINDING AFFINITY PREDICTED BY RF-SCORE:    0.00 PKD
ROOT
HETATM    1  C   UNL     1     -10.745  10.884  65.988  1.00  0.00    -0.140 C  
HETATM    2  N   UNL     1     -11.121  12.209  66.417  1.00  0.00    -0.299 N  
HETATM    3  C   UNL     1     -12.154  12.917  65.895  1.00  0.00    -0.444 C  
HETATM    4  C   UNL     1     -12.161  14.289  66.497  1.00  0.00    -0.454 C  
HETATM    5  O   UNL     1     -12.965  12.530  65.066  1.00  0.00    -0.779 OA 
HETATM    6  C   UNL     1     -11.147  14.225  67.665  1.00  0.00    -0.305 C  
HETATM    7  O   UNL     1      -9.845  12.238  68.327  1.00  0.00    -0.210 OA 
HETATM    8  C   UNL     1     -11.934  14.331  68.988  1.00  0.00    -0.360 C  
HETATM    9  C   UNL     1     -10.603  12.794  67.536  1.00  0.00    -0.229 C  
ENDROOT
BRANCH   6  10
HETATM   10  C   UNL     1      -9.977  15.222  67.633  1.00  0.00    -0.222 A  
HETATM   11  C   UNL     1      -9.345  15.730  68.779  1.00  0.00    -0.218 A  
HETATM   12  C   UNL     1      -8.369  16.728  68.689  1.00  0.00    -0.252 A  
HETATM   13  C   UNL     1      -7.983  17.229  67.452  1.00  0.00    -0.201 A  
HETATM   14  C   UNL     1      -8.558  16.716  66.298  1.00  0.00    -0.359 A  
HETATM   15  C   UNL     1      -9.538  15.723  66.388  1.00  0.00    -0.311 A  
ENDBRANCH   6  10
TORSDOF 1
ENDMDL
MODEL       41
REMARK 921   NORMALIZED FREE ENERGY PREDICTED BY IDOCK:   -4.54 KCAL/MOL
REMARK 922        TOTAL FREE ENERGY PREDICTED BY IDOCK:   -5.11 KCAL/MOL
REMARK 923 INTER-LIGAND FREE ENERGY PREDICTED BY IDOCK:   -4.76 KCAL/MOL
REMARK 924 INTRA-LIGAND FREE ENERGY PREDICTED BY IDOCK:   -0.34 KCAL/MOL
REMARK 927      BINDING AFFINITY PREDICTED BY RF-SCORE:    0.00 PKD
ROOT
HETATM    1  C   UNL     1     -12.035  12.188  70.114  1.00  0.00    -0.314 C  
HETATM    2  N   UNL     1     -11.699  12.491  68.745  1.00  0.00    -0.312 N  
HETATM    3  C   UNL     1     -11.459  11.555  67.792  1.00  0.00    -0.286 C  
HETATM    4  C   UNL     1     -11.020  12.238  66.533  1.00  0.00    -0.320 C  
HETATM    5  O   UNL     1     -11.570  10.343  67.909  1.00  0.00    -0.406 OA 
HETATM    6  C   UNL     1     -11.292  13.743  66.773  1.00  0.00    -0.345 C  
HETATM    7  O   UNL     1     -12.252  14.719  68.824  1.00  0.00    -0.218 OA 
HETATM    8  C   UNL     1     -12.451  14.173  65.850  1.00  0.00    -0.479 C  
HETATM    9  C   UNL     1     -11.797  13.748  68.224  1.00  0.00    -0.378 C  
ENDROOT
BRANCH   6  10
HETATM   10  C   UNL     1     -10.094  14.700  66.644  1.00  0.00    -0.277 A  
HETATM   11  C   UNL     1      -8.791  14.388  67.064  1.00  0.00    -0.256 A  
HETATM   12  C   UNL     1      -7.770  15.345  67.035  1.00  0.00    -0.220 A  
HETATM   13  C   UNL     1      -8.018  16.629  66.565  1.00  0.00    -0.342 A  
HETATM   14  C   UNL     1      -9.285  16.953  66.102  1.00  0.00    -0.270 A  
HETATM   15  C   UNL     1     -10.307  16.000  66.137  1.00  0.00    -0.340 A  
ENDBRANCH   6  10
TORSDOF 1
ENDMDL
MODEL       42
REMARK 921   NORMALIZED FREE ENERGY PREDICTED BY IDOCK:   -4.53 KCAL/MOL
REMARK 922        TOTAL FREE ENERGY PREDICTED BY IDOCK:   -5.10 KCAL/MOL
REMARK 923 INTER-LIGAND FREE ENERGY PREDICTED BY IDOCK:   -4.77 KCAL/MOL
REMARK 924 INTRA-LIGAND FREE ENERGY PREDICTED BY IDOCK:   -0.33 KCAL/MOL
REMARK 927      BINDING AFFINITY PREDICTED BY RF-SCORE:    0.00 PKD
ROOT
HETATM    1  C   UNL     1     -11.494   5.098  73.096  1.00  0.00    -0.272 C  
HETATM    2  N   UNL     1     -10.813   6.310  72.712  1.00  0.00    -0.241 N  
HETATM    3  C   UNL     1      -9.820   6.890  73.433  1.00  0.00    -0.218 C  
HETATM    4  C   UNL     1      -9.446   8.192  72.792  1.00  0.00    -0.349 C  
HETATM    5  O   UNL     1      -9.296   6.452  74.446  1.00  0.00    -0.167 OA 
HETATM    6  C   UNL     1     -10.165   8.190  71.421  1.00  0.00    -0.248 C  
HETATM    7  O   UNL     1     -11.599   6.381  70.555  1.00  0.00    -0.369 OA 
HETATM    8  C   UNL     1      -9.093   8.067  70.319  1.00  0.00    -0.148 C  
HETATM    9  C   UNL     1     -10.958   6.876  71.479  1.00  0.00    -0.238 C  
ENDROOT
BRANCH   6  10
HETATM   10  C   UNL     1     -11.128   9.356  71.134  1.00  0.00    -0.432 A  
HETATM   11  C   UNL     1     -10.913  10.324  70.140  1.00  0.00    -0.377 A  
HETATM   12  C   UNL     1     -11.761  11.430  70.009  1.00  0.00    -0.416 A  
HETATM   13  C   UNL     1     -12.855  11.585  70.851  1.00  0.00    -0.293 A  
HETATM   14  C   UNL     1     -13.118  10.622  71.814  1.00  0.00    -0.571 A  
HETATM   15  C   UNL     1     -12.268   9.520  71.950  1.00  0.00    -0.432 A  
ENDBRANCH   6  10
TORSDOF 1
ENDMDL
MODEL       43
REMARK 921   NORMALIZED FREE ENERGY PREDICTED BY IDOCK:   -4.52 KCAL/MOL
REMARK 922        TOTAL FREE ENERGY PREDICTED BY IDOCK:   -5.08 KCAL/MOL
REMARK 923 INTER-LIGAND FREE ENERGY PREDICTED BY IDOCK:   -4.72 KCAL/MOL
REMARK 924 INTRA-LIGAND FREE ENERGY PREDICTED BY IDOCK:   -0.36 KCAL/MOL
REMARK 927      BINDING AFFINITY PREDICTED BY RF-SCORE:    0.00 PKD
ROOT
HETATM    1  C   UNL     1     -10.959  10.839  69.844  1.00  0.00    -0.239 C  
HETATM    2  N   UNL     1     -11.684   9.948  70.716  1.00  0.00    -0.316 N  
HETATM    3  C   UNL     1     -12.644  10.345  71.589  1.00  0.00    -0.417 C  
HETATM    4  C   UNL     1     -13.078   9.169  72.409  1.00  0.00    -0.493 C  
HETATM    5  O   UNL     1     -13.101  11.472  71.715  1.00  0.00    -0.472 OA 
HETATM    6  C   UNL     1     -12.440   7.938  71.721  1.00  0.00    -0.352 C  
HETATM    7  O   UNL     1     -11.025   7.995  69.703  1.00  0.00    -0.210 OA 
HETATM    8  C   UNL     1     -13.572   7.106  71.082  1.00  0.00    -0.207 C  
HETATM    9  C   UNL     1     -11.621   8.590  70.597  1.00  0.00    -0.194 C  
ENDROOT
BRANCH   6  10
HETATM   10  C   UNL     1     -11.518   7.055  72.580  1.00  0.00    -0.250 A  
HETATM   11  C   UNL     1     -11.648   5.662  72.694  1.00  0.00    -0.307 A  
HETATM   12  C   UNL     1     -10.857   4.930  73.587  1.00  0.00    -0.374 A  
HETATM   13  C   UNL     1      -9.904   5.566  74.372  1.00  0.00    -0.223 A  
HETATM   14  C   UNL     1      -9.722   6.936  74.249  1.00  0.00    -0.309 A  
HETATM   15  C   UNL     1     -10.516   7.669  73.362  1.00  0.00    -0.361 A  
ENDBRANCH   6  10
TORSDOF 1
ENDMDL
MODEL       44
REMARK 921   NORMALIZED FREE ENERGY PREDICTED BY IDOCK:   -4.50 KCAL/MOL
REMARK 922        TOTAL FREE ENERGY PREDICTED BY IDOCK:   -5.06 KCAL/MOL
REMARK 923 INTER-LIGAND FREE ENERGY PREDICTED BY IDOCK:   -4.71 KCAL/MOL
REMARK 924 INTRA-LIGAND FREE ENERGY PREDICTED BY IDOCK:   -0.36 KCAL/MOL
REMARK 927      BINDING AFFINITY PREDICTED BY RF-SCORE:    0.00 PKD
ROOT
HETATM    1  C   UNL     1     -10.118  19.885  67.244  1.00  0.00    -0.432 C  
HETATM    2  N   UNL     1      -9.468  18.598  67.251  1.00  0.00    -0.294 N  
HETATM    3  C   UNL     1      -8.405  18.274  66.472  1.00  0.00    -0.266 C  
HETATM    4  C   UNL     1      -8.085  16.822  66.659  1.00  0.00    -0.300 C  
HETATM    5  O   UNL     1      -7.786  19.020  65.727  1.00  0.00    -0.462 OA 
HETATM    6  C   UNL     1      -8.935  16.372  67.871  1.00  0.00    -0.196 C  
HETATM    7  O   UNL     1     -10.463  17.811  69.166  1.00  0.00    -0.312 OA 
HETATM    8  C   UNL     1      -7.978  16.082  69.045  1.00  0.00    -0.224 C  
HETATM    9  C   UNL     1      -9.729  17.647  68.194  1.00  0.00    -0.310 C  
ENDROOT
BRANCH   6  10
HETATM   10  C   UNL     1      -9.912  15.205  67.647  1.00  0.00    -0.229 A  
HETATM   11  C   UNL     1     -10.854  15.158  66.607  1.00  0.00    -0.318 A  
HETATM   12  C   UNL     1     -11.798  14.127  66.529  1.00  0.00    -0.439 A  
HETATM   13  C   UNL     1     -11.811  13.107  67.472  1.00  0.00    -0.409 A  
HETATM   14  C   UNL     1     -10.863  13.103  68.486  1.00  0.00    -0.285 A  
HETATM   15  C   UNL     1      -9.924  14.135  68.569  1.00  0.00    -0.235 A  
ENDBRANCH   6  10
TORSDOF 1
ENDMDL
MODEL       45
REMARK 921   NORMALIZED FREE ENERGY PREDICTED BY IDOCK:   -4.49 KCAL/MOL
REMARK 922        TOTAL FREE ENERGY PREDICTED BY IDOCK:   -5.06 KCAL/MOL
REMARK 923 INTER-LIGAND FREE ENERGY PREDICTED BY IDOCK:   -5.24 KCAL/MOL
REMARK 924 INTRA-LIGAND FREE ENERGY PREDICTED BY IDOCK:    0.19 KCAL/MOL
REMARK 927      BINDING AFFINITY PREDICTED BY RF-SCORE:    0.00 PKD
ROOT
HETATM    1  C   UNL     1     -14.409   8.693  72.435  1.00  0.00    -0.340 C  
HETATM    2  N   UNL     1     -13.158   9.068  71.825  1.00  0.00    -0.356 N  
HETATM    3  C   UNL     1     -12.758  10.349  71.627  1.00  0.00    -0.455 C  
HETATM    4  C   UNL     1     -11.473  10.348  70.856  1.00  0.00    -0.385 C  
HETATM    5  O   UNL     1     -13.330  11.363  72.000  1.00  0.00    -0.467 OA 
HETATM    6  C   UNL     1     -11.004   8.873  70.852  1.00  0.00    -0.325 C  
HETATM    7  O   UNL     1     -12.185   6.989  71.917  1.00  0.00    -0.314 OA 
HETATM    8  C   UNL     1      -9.741   8.769  71.731  1.00  0.00    -0.380 C  
HETATM    9  C   UNL     1     -12.162   8.169  71.577  1.00  0.00    -0.301 C  
ENDROOT
BRANCH   6  10
HETATM   10  C   UNL     1     -10.783   8.213  69.479  1.00  0.00    -0.180 A  
HETATM   11  C   UNL     1     -10.501   8.925  68.302  1.00  0.00    -0.243 A  
HETATM   12  C   UNL     1     -10.433   8.279  67.062  1.00  0.00    -0.384 A  
HETATM   13  C   UNL     1     -10.623   6.906  66.969  1.00  0.00    -0.403 A  
HETATM   14  C   UNL     1     -10.859   6.170  68.121  1.00  0.00    -0.389 A  
HETATM   15  C   UNL     1     -10.934   6.814  69.359  1.00  0.00    -0.321 A  
ENDBRANCH   6  10
TORSDOF 1
ENDMDL
MODEL       46
REMARK 921   NORMALIZED FREE ENERGY PREDICTED BY IDOCK:   -4.46 KCAL/MOL
REMARK 922        TOTAL FREE ENERGY PREDICTED BY IDOCK:   -5.03 KCAL/MOL
REMARK 923 INTER-LIGAND FREE ENERGY PREDICTED BY IDOCK:   -4.69 KCAL/MOL
REMARK 924 INTRA-LIGAND FREE ENERGY PREDICTED BY IDOCK:   -0.34 KCAL/MOL
REMARK 927      BINDING AFFINITY PREDICTED BY RF-SCORE:    0.00 PKD
ROOT
HETATM    1  C   UNL     1      -7.589  17.206  66.093  1.00  0.00    -0.269 C  
HETATM    2  N   UNL     1      -8.437  16.209  66.699  1.00  0.00    -0.250 N  
HETATM    3  C   UNL     1      -8.103  15.490  67.800  1.00  0.00    -0.141 C  
HETATM    4  C   UNL     1      -9.169  14.469  68.061  1.00  0.00    -0.190 C  
HETATM    5  O   UNL     1      -7.103  15.625  68.490  1.00  0.00    -0.111 OA 
HETATM    6  C   UNL     1     -10.335  14.852  67.118  1.00  0.00    -0.260 C  
HETATM    7  O   UNL     1     -10.351  16.759  65.555  1.00  0.00    -0.558 OA 
HETATM    8  C   UNL     1     -11.503  15.365  67.986  1.00  0.00    -0.333 C  
HETATM    9  C   UNL     1      -9.744  16.041  66.346  1.00  0.00    -0.284 C  
ENDROOT
BRANCH   6  10
HETATM   10  C   UNL     1     -10.811  13.781  66.122  1.00  0.00    -0.279 A  
HETATM   11  C   UNL     1      -9.956  12.872  65.479  1.00  0.00    -0.226 A  
HETATM   12  C   UNL     1     -10.432  12.002  64.490  1.00  0.00    -0.341 A  
HETATM   13  C   UNL     1     -11.775  12.004  64.135  1.00  0.00    -0.457 A  
HETATM   14  C   UNL     1     -12.652  12.860  64.784  1.00  0.00    -0.493 A  
HETATM   15  C   UNL     1     -12.177  13.733  65.767  1.00  0.00    -0.495 A  
ENDBRANCH   6  10
TORSDOF 1
ENDMDL
MODEL       47
REMARK 921   NORMALIZED FREE ENERGY PREDICTED BY IDOCK:   -4.46 KCAL/MOL
REMARK 922        TOTAL FREE ENERGY PREDICTED BY IDOCK:   -5.02 KCAL/MOL
REMARK 923 INTER-LIGAND FREE ENERGY PREDICTED BY IDOCK:   -4.66 KCAL/MOL
REMARK 924 INTRA-LIGAND FREE ENERGY PREDICTED BY IDOCK:   -0.36 KCAL/MOL
REMARK 927      BINDING AFFINITY PREDICTED BY RF-SCORE:    0.00 PKD
ROOT
HETATM    1  C   UNL     1     -11.589  11.258  69.800  1.00  0.00    -0.333 C  
HETATM    2  N   UNL     1     -11.428  11.810  68.478  1.00  0.00    -0.269 N  
HETATM    3  C   UNL     1     -11.143  11.076  67.373  1.00  0.00    -0.305 C  
HETATM    4  C   UNL     1     -10.924  12.000  66.213  1.00  0.00    -0.340 C  
HETATM    5  O   UNL     1     -11.067   9.858  67.300  1.00  0.00    -0.208 OA 
HETATM    6  C   UNL     1     -11.387  13.391  66.711  1.00  0.00    -0.353 C  
HETATM    7  O   UNL     1     -12.286  13.887  68.952  1.00  0.00    -0.354 OA 
HETATM    8  C   UNL     1     -12.676  13.766  65.950  1.00  0.00    -0.452 C  
HETATM    9  C   UNL     1     -11.752  13.100  68.174  1.00  0.00    -0.355 C  
ENDROOT
BRANCH   6  10
HETATM   10  C   UNL     1     -10.357  14.532  66.657  1.00  0.00    -0.274 A  
HETATM   11  C   UNL     1     -10.623  15.806  66.131  1.00  0.00    -0.318 A  
HETATM   12  C   UNL     1      -9.610  16.762  65.996  1.00  0.00    -0.265 A  
HETATM   13  C   UNL     1      -8.312  16.479  66.403  1.00  0.00    -0.358 A  
HETATM   14  C   UNL     1      -8.028  15.243  66.967  1.00  0.00    -0.243 A  
HETATM   15  C   UNL     1      -9.038  14.286  67.096  1.00  0.00    -0.237 A  
ENDBRANCH   6  10
TORSDOF 1
ENDMDL
MODEL       48
REMARK 921   NORMALIZED FREE ENERGY PREDICTED BY IDOCK:   -4.46 KCAL/MOL
REMARK 922        TOTAL FREE ENERGY PREDICTED BY IDOCK:   -5.02 KCAL/MOL
REMARK 923 INTER-LIGAND FREE ENERGY PREDICTED BY IDOCK:   -4.67 KCAL/MOL
REMARK 924 INTRA-LIGAND FREE ENERGY PREDICTED BY IDOCK:   -0.35 KCAL/MOL
REMARK 927      BINDING AFFINITY PREDICTED BY RF-SCORE:    0.00 PKD
ROOT
HETATM    1  C   UNL     1     -10.929  10.736  69.735  1.00  0.00    -0.252 C  
HETATM    2  N   UNL     1     -11.618   9.876  70.666  1.00  0.00    -0.311 N  
HETATM    3  C   UNL     1     -12.581  10.295  71.524  1.00  0.00    -0.440 C  
HETATM    4  C   UNL     1     -12.971   9.156  72.417  1.00  0.00    -0.468 C  
HETATM    5  O   UNL     1     -13.071  11.413  71.589  1.00  0.00    -0.455 OA 
HETATM    6  C   UNL     1     -12.302   7.907  71.796  1.00  0.00    -0.352 C  
HETATM    7  O   UNL     1     -10.907   7.887  69.762  1.00  0.00    -0.249 OA 
HETATM    8  C   UNL     1     -13.413   7.005  71.220  1.00  0.00    -0.265 C  
HETATM    9  C   UNL     1     -11.513   8.516  70.626  1.00  0.00    -0.228 C  
ENDROOT
BRANCH   6  10
HETATM   10  C   UNL     1     -11.345   7.105  72.695  1.00  0.00    -0.306 A  
HETATM   11  C   UNL     1     -10.214   7.652  73.323  1.00  0.00    -0.398 A  
HETATM   12  C   UNL     1      -9.314   6.846  74.028  1.00  0.00    -0.257 A  
HETATM   13  C   UNL     1      -9.530   5.478  74.142  1.00  0.00    -0.140 A  
HETATM   14  C   UNL     1     -10.662   4.916  73.570  1.00  0.00    -0.341 A  
HETATM   15  C   UNL     1     -11.558   5.719  72.860  1.00  0.00    -0.210 A  
ENDBRANCH   6  10
TORSDOF 1
ENDMDL
MODEL       49
REMARK 921   NORMALIZED FREE ENERGY PREDICTED BY IDOCK:   -4.46 KCAL/MOL
REMARK 922        TOTAL FREE ENERGY PREDICTED BY IDOCK:   -5.02 KCAL/MOL
REMARK 923 INTER-LIGAND FREE ENERGY PREDICTED BY IDOCK:   -4.68 KCAL/MOL
REMARK 924 INTRA-LIGAND FREE ENERGY PREDICTED BY IDOCK:   -0.34 KCAL/MOL
REMARK 927      BINDING AFFINITY PREDICTED BY RF-SCORE:    0.00 PKD
ROOT
HETATM    1  C   UNL     1      -7.629   7.279  70.320  1.00  0.00    -0.089 C  
HETATM    2  N   UNL     1      -9.046   7.381  70.567  1.00  0.00    -0.156 N  
HETATM    3  C   UNL     1      -9.973   6.528  70.063  1.00  0.00    -0.169 C  
HETATM    4  C   UNL     1     -11.341   7.021  70.426  1.00  0.00    -0.354 C  
HETATM    5  O   UNL     1      -9.762   5.515  69.413  1.00  0.00    -0.140 OA 
HETATM    6  C   UNL     1     -11.105   8.150  71.458  1.00  0.00    -0.302 C  
HETATM    7  O   UNL     1      -8.906   8.908  72.278  1.00  0.00    -0.397 OA 
HETATM    8  C   UNL     1     -11.610   7.658  72.830  1.00  0.00    -0.334 C  
HETATM    9  C   UNL     1      -9.571   8.225  71.502  1.00  0.00    -0.188 C  
ENDROOT
BRANCH   6  10
HETATM   10  C   UNL     1     -11.675   9.538  71.120  1.00  0.00    -0.438 A  
HETATM   11  C   UNL     1     -11.219  10.338  70.059  1.00  0.00    -0.376 A  
HETATM   12  C   UNL     1     -11.692  11.642  69.878  1.00  0.00    -0.414 A  
HETATM   13  C   UNL     1     -12.647  12.173  70.736  1.00  0.00    -0.305 A  
HETATM   14  C   UNL     1     -13.149  11.392  71.767  1.00  0.00    -0.523 A  
HETATM   15  C   UNL     1     -12.673  10.091  71.953  1.00  0.00    -0.493 A  
ENDBRANCH   6  10
TORSDOF 1
ENDMDL
MODEL       50
REMARK 921   NORMALIZED FREE ENERGY PREDICTED BY IDOCK:   -4.45 KCAL/MOL
REMARK 922        TOTAL FREE ENERGY PREDICTED BY IDOCK:   -5.01 KCAL/MOL
REMARK 923 INTER-LIGAND FREE ENERGY PREDICTED BY IDOCK:   -4.65 KCAL/MOL
REMARK 924 INTRA-LIGAND FREE ENERGY PREDICTED BY IDOCK:   -0.36 KCAL/MOL
REMARK 927      BINDING AFFINITY PREDICTED BY RF-SCORE:    0.00 PKD
ROOT
HETATM    1  C   UNL     1     -11.645  12.419  63.413  1.00  0.00    -0.462 C  
HETATM    2  N   UNL     1     -11.513  12.550  64.843  1.00  0.00    -0.315 N  
HETATM    3  C   UNL     1     -12.305  13.336  65.615  1.00  0.00    -0.465 C  
HETATM    4  C   UNL     1     -11.791  13.317  67.023  1.00  0.00    -0.442 C  
HETATM    5  O   UNL     1     -13.284  13.972  65.253  1.00  0.00    -0.782 OA 
HETATM    6  C   UNL     1     -10.733  12.188  67.052  1.00  0.00    -0.272 C  
HETATM    7  O   UNL     1     -10.095  10.767  65.140  1.00  0.00    -0.262 OA 
HETATM    8  C   UNL     1     -11.289  11.034  67.912  1.00  0.00    -0.381 C  
HETATM    9  C   UNL     1     -10.710  11.734  65.585  1.00  0.00    -0.280 C  
ENDROOT
BRANCH   6  10
HETATM   10  C   UNL     1      -9.310  12.573  67.491  1.00  0.00    -0.187 A  
HETATM   11  C   UNL     1      -8.498  11.774  68.312  1.00  0.00    -0.161 A  
HETATM   12  C   UNL     1      -7.261  12.234  68.778  1.00  0.00    -0.098 A  
HETATM   13  C   UNL     1      -6.795  13.493  68.421  1.00  0.00    -0.102 A  
HETATM   14  C   UNL     1      -7.556  14.288  67.575  1.00  0.00    -0.202 A  
HETATM   15  C   UNL     1      -8.793  13.832  67.114  1.00  0.00    -0.240 A  
ENDBRANCH   6  10
TORSDOF 1
ENDMDL
MODEL       51
REMARK 921   NORMALIZED FREE ENERGY PREDICTED BY IDOCK:   -4.44 KCAL/MOL
REMARK 922        TOTAL FREE ENERGY PREDICTED BY IDOCK:   -5.01 KCAL/MOL
REMARK 923 INTER-LIGAND FREE ENERGY PREDICTED BY IDOCK:   -4.65 KCAL/MOL
REMARK 924 INTRA-LIGAND FREE ENERGY PREDICTED BY IDOCK:   -0.35 KCAL/MOL
REMARK 927      BINDING AFFINITY PREDICTED BY RF-SCORE:    0.00 PKD
ROOT
HETATM    1  C   UNL     1     -10.654  13.471  64.517  1.00  0.00    -0.424 C  
HETATM    2  N   UNL     1     -10.550  13.582  65.951  1.00  0.00    -0.280 N  
HETATM    3  C   UNL     1      -9.687  14.409  66.594  1.00  0.00    -0.278 C  
HETATM    4  C   UNL     1      -9.775  14.159  68.069  1.00  0.00    -0.226 C  
HETATM    5  O   UNL     1      -8.942  15.232  66.083  1.00  0.00    -0.301 OA 
HETATM    6  C   UNL     1     -11.017  13.253  68.253  1.00  0.00    -0.280 C  
HETATM    7  O   UNL     1     -12.484  12.444  66.444  1.00  0.00    -0.418 OA 
HETATM    8  C   UNL     1     -12.107  14.076  68.969  1.00  0.00    -0.358 C  
HETATM    9  C   UNL     1     -11.458  13.018  66.800  1.00  0.00    -0.345 C  
ENDROOT
BRANCH   6  10
HETATM   10  C   UNL     1     -10.797  11.897  68.947  1.00  0.00    -0.261 A  
HETATM   11  C   UNL     1      -9.795  10.983  68.584  1.00  0.00    -0.197 A  
HETATM   12  C   UNL     1      -9.724   9.714  69.170  1.00  0.00    -0.180 A  
HETATM   13  C   UNL     1     -10.637   9.334  70.146  1.00  0.00    -0.266 A  
HETATM   14  C   UNL     1     -11.611  10.233  70.556  1.00  0.00    -0.424 A  
HETATM   15  C   UNL     1     -11.687  11.498  69.968  1.00  0.00    -0.414 A  
ENDBRANCH   6  10
TORSDOF 1
ENDMDL
MODEL       52
REMARK 921   NORMALIZED FREE ENERGY PREDICTED BY IDOCK:   -4.43 KCAL/MOL
REMARK 922        TOTAL FREE ENERGY PREDICTED BY IDOCK:   -5.00 KCAL/MOL
REMARK 923 INTER-LIGAND FREE ENERGY PREDICTED BY IDOCK:   -4.66 KCAL/MOL
REMARK 924 INTRA-LIGAND FREE ENERGY PREDICTED BY IDOCK:   -0.33 KCAL/MOL
REMARK 927      BINDING AFFINITY PREDICTED BY RF-SCORE:    0.00 PKD
ROOT
HETATM    1  C   UNL     1     -10.611   5.952  66.997  1.00  0.00    -0.305 C  
HETATM    2  N   UNL     1     -10.540   6.116  68.428  1.00  0.00    -0.235 N  
HETATM    3  C   UNL     1     -10.152   5.142  69.290  1.00  0.00    -0.213 C  
HETATM    4  C   UNL     1     -10.325   5.634  70.695  1.00  0.00    -0.320 C  
HETATM    5  O   UNL     1      -9.727   4.033  69.002  1.00  0.00    -0.169 OA 
HETATM    6  C   UNL     1     -10.616   7.148  70.561  1.00  0.00    -0.243 C  
HETATM    7  O   UNL     1     -10.744   8.404  68.443  1.00  0.00    -0.146 OA 
HETATM    8  C   UNL     1      -9.400   7.920  71.114  1.00  0.00    -0.171 C  
HETATM    9  C   UNL     1     -10.656   7.331  69.036  1.00  0.00    -0.201 C  
ENDROOT
BRANCH   6  10
HETATM   10  C   UNL     1     -11.929   7.666  71.173  1.00  0.00    -0.319 A  
HETATM   11  C   UNL     1     -13.120   6.922  71.221  1.00  0.00    -0.273 A  
HETATM   12  C   UNL     1     -14.313   7.492  71.678  1.00  0.00    -0.621 A  
HETATM   13  C   UNL     1     -14.344   8.809  72.118  1.00  0.00    -0.481 A  
HETATM   14  C   UNL     1     -13.174   9.555  72.125  1.00  0.00    -0.539 A  
HETATM   15  C   UNL     1     -11.983   8.989  71.663  1.00  0.00    -0.426 A  
ENDBRANCH   6  10
TORSDOF 1
ENDMDL
MODEL       53
REMARK 921   NORMALIZED FREE ENERGY PREDICTED BY IDOCK:   -4.41 KCAL/MOL
REMARK 922        TOTAL FREE ENERGY PREDICTED BY IDOCK:   -4.97 KCAL/MOL
REMARK 923 INTER-LIGAND FREE ENERGY PREDICTED BY IDOCK:   -4.66 KCAL/MOL
REMARK 924 INTRA-LIGAND FREE ENERGY PREDICTED BY IDOCK:   -0.31 KCAL/MOL
REMARK 927      BINDING AFFINITY PREDICTED BY RF-SCORE:    0.00 PKD
ROOT
HETATM    1  C   UNL     1      -9.460  15.156  67.319  1.00  0.00    -0.210 C  
HETATM    2  N   UNL     1     -10.204  13.929  67.176  1.00  0.00    -0.256 N  
HETATM    3  C   UNL     1     -11.328  13.800  66.427  1.00  0.00    -0.317 C  
HETATM    4  C   UNL     1     -11.891  12.424  66.621  1.00  0.00    -0.394 C  
HETATM    5  O   UNL     1     -11.830  14.648  65.703  1.00  0.00    -0.341 OA 
HETATM    6  C   UNL     1     -10.795  11.642  67.383  1.00  0.00    -0.298 C  
HETATM    7  O   UNL     1      -8.612  12.547  68.087  1.00  0.00    -0.177 OA 
HETATM    8  C   UNL     1     -10.212  10.581  66.427  1.00  0.00    -0.296 C  
HETATM    9  C   UNL     1      -9.731  12.726  67.614  1.00  0.00    -0.205 C  
ENDROOT
BRANCH   6  10
HETATM   10  C   UNL     1     -11.190  11.018  68.733  1.00  0.00    -0.327 A  
HETATM   11  C   UNL     1     -12.191  11.532  69.572  1.00  0.00    -0.287 A  
HETATM   12  C   UNL     1     -12.421  10.993  70.843  1.00  0.00    -0.509 A  
HETATM   13  C   UNL     1     -11.672   9.915  71.299  1.00  0.00    -0.472 A  
HETATM   14  C   UNL     1     -10.706   9.357  70.474  1.00  0.00    -0.335 A  
HETATM   15  C   UNL     1     -10.472   9.898  69.207  1.00  0.00    -0.240 A  
ENDBRANCH   6  10
TORSDOF 1
ENDMDL
MODEL       54
REMARK 921   NORMALIZED FREE ENERGY PREDICTED BY IDOCK:   -4.36 KCAL/MOL
REMARK 922        TOTAL FREE ENERGY PREDICTED BY IDOCK:   -4.91 KCAL/MOL
REMARK 923 INTER-LIGAND FREE ENERGY PREDICTED BY IDOCK:   -4.64 KCAL/MOL
REMARK 924 INTRA-LIGAND FREE ENERGY PREDICTED BY IDOCK:   -0.28 KCAL/MOL
REMARK 927      BINDING AFFINITY PREDICTED BY RF-SCORE:    0.00 PKD
ROOT
HETATM    1  C   UNL     1      -7.891   7.910  73.410  1.00  0.00    -0.162 C  
HETATM    2  N   UNL     1      -9.150   7.975  72.711  1.00  0.00    -0.211 N  
HETATM    3  C   UNL     1     -10.317   7.473  73.189  1.00  0.00    -0.347 C  
HETATM    4  C   UNL     1     -11.377   7.612  72.139  1.00  0.00    -0.341 C  
HETATM    5  O   UNL     1     -10.506   6.979  74.290  1.00  0.00    -0.262 OA 
HETATM    6  C   UNL     1     -10.754   8.521  71.052  1.00  0.00    -0.278 C  
HETATM    7  O   UNL     1      -8.490   9.495  71.119  1.00  0.00    -0.278 OA 
HETATM    8  C   UNL     1     -11.496   9.873  71.077  1.00  0.00    -0.466 C  
HETATM    9  C   UNL     1      -9.332   8.735  71.592  1.00  0.00    -0.275 C  
ENDROOT
BRANCH   6  10
HETATM   10  C   UNL     1     -10.680   7.954  69.623  1.00  0.00    -0.218 A  
HETATM   11  C   UNL     1     -10.424   8.731  68.483  1.00  0.00    -0.212 A  
HETATM   12  C   UNL     1     -10.491   8.180  67.198  1.00  0.00    -0.396 A  
HETATM   13  C   UNL     1     -10.794   6.835  67.022  1.00  0.00    -0.453 A  
HETATM   14  C   UNL     1     -11.008   6.032  68.132  1.00  0.00    -0.340 A  
HETATM   15  C   UNL     1     -10.947   6.583  69.415  1.00  0.00    -0.395 A  
ENDBRANCH   6  10
TORSDOF 1
ENDMDL
MODEL       55
REMARK 921   NORMALIZED FREE ENERGY PREDICTED BY IDOCK:   -4.34 KCAL/MOL
REMARK 922        TOTAL FREE ENERGY PREDICTED BY IDOCK:   -4.90 KCAL/MOL
REMARK 923 INTER-LIGAND FREE ENERGY PREDICTED BY IDOCK:   -4.55 KCAL/MOL
REMARK 924 INTRA-LIGAND FREE ENERGY PREDICTED BY IDOCK:   -0.35 KCAL/MOL
REMARK 927      BINDING AFFINITY PREDICTED BY RF-SCORE:    0.00 PKD
ROOT
HETATM    1  C   UNL     1     -12.415  12.445  64.115  1.00  0.00    -0.442 C  
HETATM    2  N   UNL     1     -11.273  11.982  64.863  1.00  0.00    -0.320 N  
HETATM    3  C   UNL     1     -10.050  11.748  64.325  1.00  0.00    -0.290 C  
HETATM    4  C   UNL     1      -9.157  11.158  65.374  1.00  0.00    -0.193 C  
HETATM    5  O   UNL     1      -9.700  11.969  63.175  1.00  0.00    -0.381 OA 
HETATM    6  C   UNL     1      -9.932  11.321  66.704  1.00  0.00    -0.242 C  
HETATM    7  O   UNL     1     -12.159  12.351  66.950  1.00  0.00    -0.564 OA 
HETATM    8  C   UNL     1      -9.192  12.366  67.564  1.00  0.00    -0.183 C  
HETATM    9  C   UNL     1     -11.258  11.934  66.227  1.00  0.00    -0.337 C  
ENDROOT
BRANCH   6  10
HETATM   10  C   UNL     1     -10.219  10.041  67.508  1.00  0.00    -0.260 A  
HETATM   11  C   UNL     1     -10.363  10.007  68.904  1.00  0.00    -0.217 A  
HETATM   12  C   UNL     1     -10.500   8.795  69.590  1.00  0.00    -0.220 A  
HETATM   13  C   UNL     1     -10.519   7.590  68.899  1.00  0.00    -0.214 A  
HETATM   14  C   UNL     1     -10.424   7.595  67.515  1.00  0.00    -0.336 A  
HETATM   15  C   UNL     1     -10.280   8.805  66.829  1.00  0.00    -0.354 A  
ENDBRANCH   6  10
TORSDOF 1
ENDMDL
MODEL       56
REMARK 921   NORMALIZED FREE ENERGY PREDICTED BY IDOCK:   -4.34 KCAL/MOL
REMARK 922        TOTAL FREE ENERGY PREDICTED BY IDOCK:   -4.90 KCAL/MOL
REMARK 923 INTER-LIGAND FREE ENERGY PREDICTED BY IDOCK:   -4.60 KCAL/MOL
REMARK 924 INTRA-LIGAND FREE ENERGY PREDICTED BY IDOCK:   -0.30 KCAL/MOL
REMARK 927      BINDING AFFINITY PREDICTED BY RF-SCORE:    0.00 PKD
ROOT
HETATM    1  C   UNL     1      -7.792   6.553  69.813  1.00  0.00    -0.115 C  
HETATM    2  N   UNL     1      -9.205   6.595  70.097  1.00  0.00    -0.155 N  
HETATM    3  C   UNL     1     -10.152   5.972  69.352  1.00  0.00    -0.192 C  
HETATM    4  C   UNL     1     -11.508   6.344  69.873  1.00  0.00    -0.483 C  
HETATM    5  O   UNL     1      -9.967   5.225  68.403  1.00  0.00    -0.148 OA 
HETATM    6  C   UNL     1     -11.242   7.067  71.215  1.00  0.00    -0.296 C  
HETATM    7  O   UNL     1      -9.023   7.472  72.212  1.00  0.00    -0.127 OA 
HETATM    8  C   UNL     1     -11.751   6.161  72.355  1.00  0.00    -0.319 C  
HETATM    9  C   UNL     1      -9.706   7.094  71.263  1.00  0.00    -0.170 C  
ENDROOT
BRANCH   6  10
HETATM   10  C   UNL     1     -11.784   8.500  71.358  1.00  0.00    -0.346 A  
HETATM   11  C   UNL     1     -12.883   8.847  72.160  1.00  0.00    -0.471 A  
HETATM   12  C   UNL     1     -13.405  10.145  72.152  1.00  0.00    -0.431 A  
HETATM   13  C   UNL     1     -12.831  11.134  71.362  1.00  0.00    -0.544 A  
HETATM   14  C   UNL     1     -11.717  10.831  70.594  1.00  0.00    -0.442 A  
HETATM   15  C   UNL     1     -11.198   9.534  70.596  1.00  0.00    -0.364 A  
ENDBRANCH   6  10
TORSDOF 1
ENDMDL
MODEL       57
REMARK 921   NORMALIZED FREE ENERGY PREDICTED BY IDOCK:   -4.34 KCAL/MOL
REMARK 922        TOTAL FREE ENERGY PREDICTED BY IDOCK:   -4.90 KCAL/MOL
REMARK 923 INTER-LIGAND FREE ENERGY PREDICTED BY IDOCK:   -4.56 KCAL/MOL
REMARK 924 INTRA-LIGAND FREE ENERGY PREDICTED BY IDOCK:   -0.33 KCAL/MOL
REMARK 927      BINDING AFFINITY PREDICTED BY RF-SCORE:    0.00 PKD
ROOT
HETATM    1  C   UNL     1     -10.283  10.033  68.292  1.00  0.00    -0.173 C  
HETATM    2  N   UNL     1     -10.908   9.682  69.543  1.00  0.00    -0.232 N  
HETATM    3  C   UNL     1     -11.783  10.476  70.209  1.00  0.00    -0.332 C  
HETATM    4  C   UNL     1     -12.120   9.840  71.524  1.00  0.00    -0.493 C  
HETATM    5  O   UNL     1     -12.242  11.544  69.830  1.00  0.00    -0.288 OA 
HETATM    6  C   UNL     1     -11.534   8.409  71.443  1.00  0.00    -0.328 C  
HETATM    7  O   UNL     1     -10.322   7.461  69.517  1.00  0.00    -0.205 OA 
HETATM    8  C   UNL     1     -12.711   7.413  71.380  1.00  0.00    -0.408 C  
HETATM    9  C   UNL     1     -10.837   8.427  70.074  1.00  0.00    -0.225 C  
ENDROOT
BRANCH   6  10
HETATM   10  C   UNL     1     -10.521   8.005  72.528  1.00  0.00    -0.383 A  
HETATM   11  C   UNL     1      -9.233   8.553  72.643  1.00  0.00    -0.269 A  
HETATM   12  C   UNL     1      -8.313   8.057  73.574  1.00  0.00    -0.292 A  
HETATM   13  C   UNL     1      -8.662   7.017  74.427  1.00  0.00    -0.229 A  
HETATM   14  C   UNL     1      -9.942   6.485  74.366  1.00  0.00    -0.374 A  
HETATM   15  C   UNL     1     -10.859   6.976  73.433  1.00  0.00    -0.332 A  
ENDBRANCH   6  10
TORSDOF 1
ENDMDL
MODEL       58
REMARK 921   NORMALIZED FREE ENERGY PREDICTED BY IDOCK:   -4.25 KCAL/MOL
REMARK 922        TOTAL FREE ENERGY PREDICTED BY IDOCK:   -4.81 KCAL/MOL
REMARK 923 INTER-LIGAND FREE ENERGY PREDICTED BY IDOCK:   -4.45 KCAL/MOL
REMARK 924 INTRA-LIGAND FREE ENERGY PREDICTED BY IDOCK:   -0.36 KCAL/MOL
REMARK 927      BINDING AFFINITY PREDICTED BY RF-SCORE:    0.00 PKD
ROOT
HETATM    1  C   UNL     1      -9.804   4.167  71.589  1.00  0.00    -0.184 C  
HETATM    2  N   UNL     1      -9.719   5.526  72.065  1.00  0.00    -0.158 N  
HETATM    3  C   UNL     1      -9.430   5.870  73.345  1.00  0.00    -0.138 C  
HETATM    4  C   UNL     1      -9.555   7.356  73.492  1.00  0.00    -0.317 C  
HETATM    5  O   UNL     1      -9.118   5.117  74.256  1.00  0.00    -0.115 OA 
HETATM    6  C   UNL     1      -9.695   7.896  72.048  1.00  0.00    -0.244 C  
HETATM    7  O   UNL     1      -9.695   6.527  69.998  1.00  0.00    -0.164 OA 
HETATM    8  C   UNL     1      -8.409   8.676  71.703  1.00  0.00    -0.216 C  
HETATM    9  C   UNL     1      -9.715   6.600  71.224  1.00  0.00    -0.173 C  
ENDROOT
BRANCH   6  10
HETATM   10  C   UNL     1     -10.951   8.725  71.729  1.00  0.00    -0.415 A  
HETATM   11  C   UNL     1     -10.971   9.807  70.834  1.00  0.00    -0.411 A  
HETATM   12  C   UNL     1     -12.114  10.600  70.679  1.00  0.00    -0.461 A  
HETATM   13  C   UNL     1     -13.271  10.320  71.396  1.00  0.00    -0.464 A  
HETATM   14  C   UNL     1     -13.294   9.230  72.255  1.00  0.00    -0.547 A  
HETATM   15  C   UNL     1     -12.152   8.442  72.415  1.00  0.00    -0.443 A  
ENDBRANCH   6  10
TORSDOF 1
ENDMDL
MODEL       59
REMARK 921   NORMALIZED FREE ENERGY PREDICTED BY IDOCK:   -4.23 KCAL/MOL
REMARK 922        TOTAL FREE ENERGY PREDICTED BY IDOCK:   -4.78 KCAL/MOL
REMARK 923 INTER-LIGAND FREE ENERGY PREDICTED BY IDOCK:   -4.46 KCAL/MOL
REMARK 924 INTRA-LIGAND FREE ENERGY PREDICTED BY IDOCK:   -0.32 KCAL/MOL
REMARK 927      BINDING AFFINITY PREDICTED BY RF-SCORE:    0.00 PKD
ROOT
HETATM    1  C   UNL     1     -10.223  17.151  67.184  1.00  0.00    -0.316 C  
HETATM    2  N   UNL     1     -10.742  15.807  67.230  1.00  0.00    -0.315 N  
HETATM    3  C   UNL     1     -11.565  15.338  68.201  1.00  0.00    -0.330 C  
HETATM    4  C   UNL     1     -11.791  13.872  67.987  1.00  0.00    -0.411 C  
HETATM    5  O   UNL     1     -12.058  15.978  69.118  1.00  0.00    -0.293 OA 
HETATM    6  C   UNL     1     -11.206  13.572  66.585  1.00  0.00    -0.328 C  
HETATM    7  O   UNL     1     -10.149  15.222  65.088  1.00  0.00    -0.345 OA 
HETATM    8  C   UNL     1     -12.379  13.246  65.638  1.00  0.00    -0.521 C  
HETATM    9  C   UNL     1     -10.622  14.936  66.186  1.00  0.00    -0.318 C  
ENDROOT
BRANCH   6  10
HETATM   10  C   UNL     1     -10.106  12.500  66.500  1.00  0.00    -0.250 A  
HETATM   11  C   UNL     1      -8.795  12.681  66.969  1.00  0.00    -0.212 A  
HETATM   12  C   UNL     1      -7.807  11.714  66.752  1.00  0.00    -0.130 A  
HETATM   13  C   UNL     1      -8.106  10.535  66.080  1.00  0.00    -0.145 A  
HETATM   14  C   UNL     1      -9.404  10.309  65.644  1.00  0.00    -0.241 A  
HETATM   15  C   UNL     1     -10.390  11.276  65.855  1.00  0.00    -0.304 A  
ENDBRANCH   6  10
TORSDOF 1
ENDMDL
MODEL       60
REMARK 921   NORMALIZED FREE ENERGY PREDICTED BY IDOCK:   -4.21 KCAL/MOL
REMARK 922        TOTAL FREE ENERGY PREDICTED BY IDOCK:   -4.76 KCAL/MOL
REMARK 923 INTER-LIGAND FREE ENERGY PREDICTED BY IDOCK:   -4.55 KCAL/MOL
REMARK 924 INTRA-LIGAND FREE ENERGY PREDICTED BY IDOCK:   -0.22 KCAL/MOL
REMARK 927      BINDING AFFINITY PREDICTED BY RF-SCORE:    0.00 PKD
ROOT
HETATM    1  C   UNL     1      -8.597  15.769  69.237  1.00  0.00    -0.259 C  
HETATM    2  N   UNL     1      -9.841  15.061  69.061  1.00  0.00    -0.230 N  
HETATM    3  C   UNL     1     -10.983  15.343  69.738  1.00  0.00    -0.287 C  
HETATM    4  C   UNL     1     -12.024  14.324  69.388  1.00  0.00    -0.381 C  
HETATM    5  O   UNL     1     -11.166  16.268  70.516  1.00  0.00    -0.376 OA 
HETATM    6  C   UNL     1     -11.437  13.539  68.190  1.00  0.00    -0.338 C  
HETATM    7  O   UNL     1      -9.244  13.951  67.141  1.00  0.00    -0.219 OA 
HETATM    8  C   UNL     1     -12.266  13.888  66.937  1.00  0.00    -0.415 C  
HETATM    9  C   UNL     1     -10.045  14.174  68.045  1.00  0.00    -0.233 C  
ENDROOT
BRANCH   6  10
HETATM   10  C   UNL     1     -11.291  12.016  68.355  1.00  0.00    -0.332 A  
HETATM   11  C   UNL     1     -11.331  11.353  69.591  1.00  0.00    -0.347 A  
HETATM   12  C   UNL     1     -11.068   9.982  69.689  1.00  0.00    -0.300 A  
HETATM   13  C   UNL     1     -10.780   9.235  68.553  1.00  0.00    -0.185 A  
HETATM   14  C   UNL     1     -10.777   9.855  67.311  1.00  0.00    -0.304 A  
HETATM   15  C   UNL     1     -11.033  11.225  67.214  1.00  0.00    -0.342 A  
ENDBRANCH   6  10
TORSDOF 1
ENDMDL
MODEL       61
REMARK 921   NORMALIZED FREE ENERGY PREDICTED BY IDOCK:   -4.20 KCAL/MOL
REMARK 922        TOTAL FREE ENERGY PREDICTED BY IDOCK:   -4.75 KCAL/MOL
REMARK 923 INTER-LIGAND FREE ENERGY PREDICTED BY IDOCK:   -4.39 KCAL/MOL
REMARK 924 INTRA-LIGAND FREE ENERGY PREDICTED BY IDOCK:   -0.36 KCAL/MOL
REMARK 927      BINDING AFFINITY PREDICTED BY RF-SCORE:    0.00 PKD
ROOT
HETATM    1  C   UNL     1     -10.398  19.664  65.666  1.00  0.00    -0.302 C  
HETATM    2  N   UNL     1     -10.314  18.678  66.716  1.00  0.00    -0.386 N  
HETATM    3  C   UNL     1     -10.341  18.969  68.041  1.00  0.00    -0.394 C  
HETATM    4  C   UNL     1     -10.103  17.713  68.823  1.00  0.00    -0.377 C  
HETATM    5  O   UNL     1     -10.523  20.066  68.548  1.00  0.00    -0.411 OA 
HETATM    6  C   UNL     1     -10.201  16.566  67.787  1.00  0.00    -0.278 C  
HETATM    7  O   UNL     1     -10.660  16.841  65.380  1.00  0.00    -0.563 OA 
HETATM    8  C   UNL     1     -11.480  15.758  68.088  1.00  0.00    -0.302 C  
HETATM    9  C   UNL     1     -10.410  17.339  66.476  1.00  0.00    -0.308 C  
ENDROOT
BRANCH   6  10
HETATM   10  C   UNL     1      -8.979  15.642  67.648  1.00  0.00    -0.183 A  
HETATM   11  C   UNL     1      -9.050  14.240  67.654  1.00  0.00    -0.192 A  
HETATM   12  C   UNL     1      -7.892  13.454  67.648  1.00  0.00    -0.174 A  
HETATM   13  C   UNL     1      -6.636  14.047  67.615  1.00  0.00    -0.175 A  
HETATM   14  C   UNL     1      -6.535  15.430  67.564  1.00  0.00    -0.174 A  
HETATM   15  C   UNL     1      -7.691  16.216  67.576  1.00  0.00    -0.170 A  
ENDBRANCH   6  10
TORSDOF 1
ENDMDL
MODEL       62
REMARK 921   NORMALIZED FREE ENERGY PREDICTED BY IDOCK:   -4.19 KCAL/MOL
REMARK 922        TOTAL FREE ENERGY PREDICTED BY IDOCK:   -4.74 KCAL/MOL
REMARK 923 INTER-LIGAND FREE ENERGY PREDICTED BY IDOCK:   -4.38 KCAL/MOL
REMARK 924 INTRA-LIGAND FREE ENERGY PREDICTED BY IDOCK:   -0.36 KCAL/MOL
REMARK 927      BINDING AFFINITY PREDICTED BY RF-SCORE:    0.00 PKD
ROOT
HETATM    1  C   UNL     1      -8.110  15.032  69.427  1.00  0.00    -0.155 C  
HETATM    2  N   UNL     1      -9.297  15.398  68.694  1.00  0.00    -0.193 N  
HETATM    3  C   UNL     1     -10.435  15.865  69.266  1.00  0.00    -0.253 C  
HETATM    4  C   UNL     1     -11.488  16.015  68.211  1.00  0.00    -0.291 C  
HETATM    5  O   UNL     1     -10.608  16.128  70.447  1.00  0.00    -0.226 OA 
HETATM    6  C   UNL     1     -10.743  15.832  66.866  1.00  0.00    -0.299 C  
HETATM    7  O   UNL     1      -8.330  15.394  66.610  1.00  0.00    -0.258 OA 
HETATM    8  C   UNL     1     -10.722  17.194  66.142  1.00  0.00    -0.094 C  
HETATM    9  C   UNL     1      -9.316  15.507  67.334  1.00  0.00    -0.207 C  
ENDROOT
BRANCH   6  10
HETATM   10  C   UNL     1     -11.244  14.714  65.935  1.00  0.00    -0.336 A  
HETATM   11  C   UNL     1     -11.561  14.904  64.581  1.00  0.00    -0.395 A  
HETATM   12  C   UNL     1     -12.129  13.877  63.817  1.00  0.00    -0.330 A  
HETATM   13  C   UNL     1     -12.374  12.631  64.380  1.00  0.00    -0.523 A  
HETATM   14  C   UNL     1     -12.029  12.400  65.704  1.00  0.00    -0.449 A  
HETATM   15  C   UNL     1     -11.468  13.426  66.469  1.00  0.00    -0.372 A  
ENDBRANCH   6  10
TORSDOF 1
ENDMDL
MODEL       63
REMARK 921   NORMALIZED FREE ENERGY PREDICTED BY IDOCK:   -4.18 KCAL/MOL
REMARK 922        TOTAL FREE ENERGY PREDICTED BY IDOCK:   -4.73 KCAL/MOL
REMARK 923 INTER-LIGAND FREE ENERGY PREDICTED BY IDOCK:   -4.37 KCAL/MOL
REMARK 924 INTRA-LIGAND FREE ENERGY PREDICTED BY IDOCK:   -0.36 KCAL/MOL
REMARK 927      BINDING AFFINITY PREDICTED BY RF-SCORE:    0.00 PKD
ROOT
HETATM    1  C   UNL     1     -10.197   8.907  67.810  1.00  0.00    -0.228 C  
HETATM    2  N   UNL     1     -10.740   9.011  69.142  1.00  0.00    -0.198 N  
HETATM    3  C   UNL     1     -11.243  10.152  69.675  1.00  0.00    -0.261 C  
HETATM    4  C   UNL     1     -11.594   9.909  71.112  1.00  0.00    -0.468 C  
HETATM    5  O   UNL     1     -11.397  11.223  69.106  1.00  0.00    -0.231 OA 
HETATM    6  C   UNL     1     -11.486   8.376  71.302  1.00  0.00    -0.325 C  
HETATM    7  O   UNL     1     -10.867   6.754  69.551  1.00  0.00    -0.238 OA 
HETATM    8  C   UNL     1     -12.909   7.821  71.519  1.00  0.00    -0.357 C  
HETATM    9  C   UNL     1     -10.991   7.919  69.921  1.00  0.00    -0.178 C  
ENDROOT
BRANCH   6  10
HETATM   10  C   UNL     1     -10.519   7.871  72.386  1.00  0.00    -0.339 A  
HETATM   11  C   UNL     1     -10.880   6.974  73.404  1.00  0.00    -0.332 A  
HETATM   12  C   UNL     1      -9.990   6.647  74.434  1.00  0.00    -0.359 A  
HETATM   13  C   UNL     1      -8.712   7.191  74.462  1.00  0.00    -0.228 A  
HETATM   14  C   UNL     1      -8.312   8.047  73.446  1.00  0.00    -0.278 A  
HETATM   15  C   UNL     1      -9.202   8.378  72.420  1.00  0.00    -0.345 A  
ENDBRANCH   6  10
TORSDOF 1
ENDMDL
MODEL       64
REMARK 921   NORMALIZED FREE ENERGY PREDICTED BY IDOCK:   -4.17 KCAL/MOL
REMARK 922        TOTAL FREE ENERGY PREDICTED BY IDOCK:   -4.72 KCAL/MOL
REMARK 923 INTER-LIGAND FREE ENERGY PREDICTED BY IDOCK:   -4.36 KCAL/MOL
REMARK 924 INTRA-LIGAND FREE ENERGY PREDICTED BY IDOCK:   -0.36 KCAL/MOL
REMARK 927      BINDING AFFINITY PREDICTED BY RF-SCORE:    0.00 PKD
ROOT
HETATM    1  C   UNL     1      -9.723   4.174  69.295  1.00  0.00    -0.149 C  
HETATM    2  N   UNL     1     -10.002   4.953  70.477  1.00  0.00    -0.225 N  
HETATM    3  C   UNL     1     -10.032   4.448  71.735  1.00  0.00    -0.186 C  
HETATM    4  C   UNL     1     -10.478   5.520  72.683  1.00  0.00    -0.257 C  
HETATM    5  O   UNL     1      -9.751   3.308  72.076  1.00  0.00    -0.144 OA 
HETATM    6  C   UNL     1     -10.451   6.828  71.857  1.00  0.00    -0.221 C  
HETATM    7  O   UNL     1      -9.793   7.016  69.488  1.00  0.00    -0.159 OA 
HETATM    8  C   UNL     1      -9.306   7.710  72.396  1.00  0.00    -0.211 C  
HETATM    9  C   UNL     1     -10.056   6.316  70.463  1.00  0.00    -0.189 C  
ENDROOT
BRANCH   6  10
HETATM   10  C   UNL     1     -11.765   7.621  71.757  1.00  0.00    -0.319 A  
HETATM   11  C   UNL     1     -11.865   9.005  71.972  1.00  0.00    -0.426 A  
HETATM   12  C   UNL     1     -13.108   9.649  71.989  1.00  0.00    -0.537 A  
HETATM   13  C   UNL     1     -14.278   8.933  71.771  1.00  0.00    -0.392 A  
HETATM   14  C   UNL     1     -14.207   7.572  71.512  1.00  0.00    -0.580 A  
HETATM   15  C   UNL     1     -12.967   6.926  71.501  1.00  0.00    -0.362 A  
ENDBRANCH   6  10
TORSDOF 1
ENDMDL
MODEL       65
REMARK 921   NORMALIZED FREE ENERGY PREDICTED BY IDOCK:   -4.17 KCAL/MOL
REMARK 922        TOTAL FREE ENERGY PREDICTED BY IDOCK:   -4.71 KCAL/MOL
REMARK 923 INTER-LIGAND FREE ENERGY PREDICTED BY IDOCK:   -4.36 KCAL/MOL
REMARK 924 INTRA-LIGAND FREE ENERGY PREDICTED BY IDOCK:   -0.35 KCAL/MOL
REMARK 927      BINDING AFFINITY PREDICTED BY RF-SCORE:    0.00 PKD
ROOT
HETATM    1  C   UNL     1     -13.407   9.945  72.087  1.00  0.00    -0.399 C  
HETATM    2  N   UNL     1     -12.117   9.639  71.520  1.00  0.00    -0.376 N  
HETATM    3  C   UNL     1     -11.444  10.454  70.669  1.00  0.00    -0.349 C  
HETATM    4  C   UNL     1     -10.209   9.752  70.192  1.00  0.00    -0.328 C  
HETATM    5  O   UNL     1     -11.766  11.582  70.324  1.00  0.00    -0.327 OA 
HETATM    6  C   UNL     1     -10.085   8.497  71.089  1.00  0.00    -0.263 C  
HETATM    7  O   UNL     1     -11.635   7.867  72.899  1.00  0.00    -0.383 OA 
HETATM    8  C   UNL     1      -8.858   8.683  72.005  1.00  0.00    -0.264 C  
HETATM    9  C   UNL     1     -11.354   8.592  71.948  1.00  0.00    -0.347 C  
ENDROOT
BRANCH   6  10
HETATM   10  C   UNL     1     -10.048   7.131  70.380  1.00  0.00    -0.199 A  
HETATM   11  C   UNL     1      -9.375   6.005  70.881  1.00  0.00    -0.175 A  
HETATM   12  C   UNL     1      -9.274   4.827  70.132  1.00  0.00    -0.195 A  
HETATM   13  C   UNL     1      -9.859   4.737  68.875  1.00  0.00    -0.230 A  
HETATM   14  C   UNL     1     -10.568   5.819  68.373  1.00  0.00    -0.289 A  
HETATM   15  C   UNL     1     -10.664   6.997  69.117  1.00  0.00    -0.240 A  
ENDBRANCH   6  10
TORSDOF 1
ENDMDL
MODEL       66
REMARK 921   NORMALIZED FREE ENERGY PREDICTED BY IDOCK:   -4.17 KCAL/MOL
REMARK 922        TOTAL FREE ENERGY PREDICTED BY IDOCK:   -4.71 KCAL/MOL
REMARK 923 INTER-LIGAND FREE ENERGY PREDICTED BY IDOCK:   -4.38 KCAL/MOL
REMARK 924 INTRA-LIGAND FREE ENERGY PREDICTED BY IDOCK:   -0.34 KCAL/MOL
REMARK 927      BINDING AFFINITY PREDICTED BY RF-SCORE:    0.00 PKD
ROOT
HETATM    1  C   UNL     1      -6.644  19.720  65.557  1.00  0.00    -0.269 C  
HETATM    2  N   UNL     1      -7.463  19.474  66.719  1.00  0.00    -0.233 N  
HETATM    3  C   UNL     1      -7.180  19.932  67.964  1.00  0.00    -0.292 C  
HETATM    4  C   UNL     1      -8.181  19.374  68.930  1.00  0.00    -0.339 C  
HETATM    5  O   UNL     1      -6.266  20.678  68.282  1.00  0.00    -0.293 OA 
HETATM    6  C   UNL     1      -9.278  18.728  68.050  1.00  0.00    -0.334 C  
HETATM    7  O   UNL     1      -9.296  18.680  65.585  1.00  0.00    -0.307 OA 
HETATM    8  C   UNL     1     -10.561  19.572  68.189  1.00  0.00    -0.404 C  
HETATM    9  C   UNL     1      -8.712  18.931  66.636  1.00  0.00    -0.312 C  
ENDROOT
BRANCH   6  10
HETATM   10  C   UNL     1      -9.567  17.234  68.276  1.00  0.00    -0.288 A  
HETATM   11  C   UNL     1      -8.588  16.287  68.617  1.00  0.00    -0.222 A  
HETATM   12  C   UNL     1      -8.891  14.923  68.688  1.00  0.00    -0.179 A  
HETATM   13  C   UNL     1     -10.182  14.472  68.441  1.00  0.00    -0.239 A  
HETATM   14  C   UNL     1     -11.180  15.388  68.144  1.00  0.00    -0.326 A  
HETATM   15  C   UNL     1     -10.878  16.750  68.067  1.00  0.00    -0.341 A  
ENDBRANCH   6  10
TORSDOF 1
ENDMDL
MODEL       67
REMARK 921   NORMALIZED FREE ENERGY PREDICTED BY IDOCK:   -4.15 KCAL/MOL
REMARK 922        TOTAL FREE ENERGY PREDICTED BY IDOCK:   -4.70 KCAL/MOL
REMARK 923 INTER-LIGAND FREE ENERGY PREDICTED BY IDOCK:   -4.65 KCAL/MOL
REMARK 924 INTRA-LIGAND FREE ENERGY PREDICTED BY IDOCK:   -0.04 KCAL/MOL
REMARK 927      BINDING AFFINITY PREDICTED BY RF-SCORE:    0.00 PKD
ROOT
HETATM    1  C   UNL     1     -11.170  14.894  69.747  1.00  0.00    -0.280 C  
HETATM    2  N   UNL     1     -10.488  14.142  68.724  1.00  0.00    -0.248 N  
HETATM    3  C   UNL     1      -9.213  14.378  68.324  1.00  0.00    -0.201 C  
HETATM    4  C   UNL     1      -8.891  13.487  67.162  1.00  0.00    -0.231 C  
HETATM    5  O   UNL     1      -8.428  15.180  68.807  1.00  0.00    -0.159 OA 
HETATM    6  C   UNL     1     -10.064  12.479  67.087  1.00  0.00    -0.219 C  
HETATM    7  O   UNL     1     -12.006  12.422  68.605  1.00  0.00    -0.310 OA 
HETATM    8  C   UNL     1      -9.526  11.090  67.486  1.00  0.00    -0.175 C  
HETATM    9  C   UNL     1     -10.988  12.983  68.206  1.00  0.00    -0.260 C  
ENDROOT
BRANCH   6  10
HETATM   10  C   UNL     1     -10.848  12.414  65.765  1.00  0.00    -0.312 A  
HETATM   11  C   UNL     1     -12.155  12.900  65.603  1.00  0.00    -0.511 A  
HETATM   12  C   UNL     1     -12.861  12.701  64.411  1.00  0.00    -0.344 A  
HETATM   13  C   UNL     1     -12.273  12.030  63.345  1.00  0.00    -0.627 A  
HETATM   14  C   UNL     1     -10.967  11.577  63.461  1.00  0.00    -0.453 A  
HETATM   15  C   UNL     1     -10.263  11.770  64.653  1.00  0.00    -0.326 A  
ENDBRANCH   6  10
TORSDOF 1
ENDMDL
MODEL       68
REMARK 921   NORMALIZED FREE ENERGY PREDICTED BY IDOCK:   -4.15 KCAL/MOL
REMARK 922        TOTAL FREE ENERGY PREDICTED BY IDOCK:   -4.69 KCAL/MOL
REMARK 923 INTER-LIGAND FREE ENERGY PREDICTED BY IDOCK:   -4.33 KCAL/MOL
REMARK 924 INTRA-LIGAND FREE ENERGY PREDICTED BY IDOCK:   -0.36 KCAL/MOL
REMARK 927      BINDING AFFINITY PREDICTED BY RF-SCORE:    0.00 PKD
ROOT
HETATM    1  C   UNL     1      -6.675  17.892  65.857  1.00  0.00    -0.277 C  
HETATM    2  N   UNL     1      -7.544  17.262  66.821  1.00  0.00    -0.211 N  
HETATM    3  C   UNL     1      -7.188  16.975  68.098  1.00  0.00    -0.186 C  
HETATM    4  C   UNL     1      -8.298  16.213  68.757  1.00  0.00    -0.231 C  
HETATM    5  O   UNL     1      -6.140  17.272  68.653  1.00  0.00    -0.156 OA 
HETATM    6  C   UNL     1      -9.495  16.315  67.780  1.00  0.00    -0.221 C  
HETATM    7  O   UNL     1      -9.488  17.506  65.621  1.00  0.00    -0.498 OA 
HETATM    8  C   UNL     1     -10.571  17.206  68.435  1.00  0.00    -0.371 C  
HETATM    9  C   UNL     1      -8.879  17.083  66.601  1.00  0.00    -0.254 C  
ENDROOT
BRANCH   6  10
HETATM   10  C   UNL     1     -10.099  14.995  67.272  1.00  0.00    -0.235 A  
HETATM   11  C   UNL     1     -11.477  14.737  67.203  1.00  0.00    -0.375 A  
HETATM   12  C   UNL     1     -11.963  13.473  66.849  1.00  0.00    -0.447 A  
HETATM   13  C   UNL     1     -11.086  12.442  66.535  1.00  0.00    -0.346 A  
HETATM   14  C   UNL     1      -9.720  12.680  66.551  1.00  0.00    -0.256 A  
HETATM   15  C   UNL     1      -9.233  13.940  66.911  1.00  0.00    -0.269 A  
ENDBRANCH   6  10
TORSDOF 1
ENDMDL
MODEL       69
REMARK 921   NORMALIZED FREE ENERGY PREDICTED BY IDOCK:   -4.15 KCAL/MOL
REMARK 922        TOTAL FREE ENERGY PREDICTED BY IDOCK:   -4.69 KCAL/MOL
REMARK 923 INTER-LIGAND FREE ENERGY PREDICTED BY IDOCK:   -4.52 KCAL/MOL
REMARK 924 INTRA-LIGAND FREE ENERGY PREDICTED BY IDOCK:   -0.17 KCAL/MOL
REMARK 927      BINDING AFFINITY PREDICTED BY RF-SCORE:    0.00 PKD
ROOT
HETATM    1  C   UNL     1     -10.477   8.120  68.726  1.00  0.00    -0.174 C  
HETATM    2  N   UNL     1     -10.333   9.524  68.431  1.00  0.00    -0.198 N  
HETATM    3  C   UNL     1     -10.598  10.521  69.312  1.00  0.00    -0.236 C  
HETATM    4  C   UNL     1     -10.458  11.841  68.615  1.00  0.00    -0.242 C  
HETATM    5  O   UNL     1     -10.906  10.399  70.488  1.00  0.00    -0.276 OA 
HETATM    6  C   UNL     1      -9.802  11.512  67.253  1.00  0.00    -0.208 C  
HETATM    7  O   UNL     1      -9.152   9.263  66.478  1.00  0.00    -0.142 OA 
HETATM    8  C   UNL     1      -8.369  12.083  67.262  1.00  0.00    -0.176 C  
HETATM    9  C   UNL     1      -9.716   9.979  67.302  1.00  0.00    -0.167 C  
ENDROOT
BRANCH   6  10
HETATM   10  C   UNL     1     -10.564  11.941  65.987  1.00  0.00    -0.304 A  
HETATM   11  C   UNL     1     -11.900  12.373  65.983  1.00  0.00    -0.459 A  
HETATM   12  C   UNL     1     -12.576  12.632  64.785  1.00  0.00    -0.530 A  
HETATM   13  C   UNL     1     -11.929  12.488  63.564  1.00  0.00    -0.629 A  
HETATM   14  C   UNL     1     -10.596  12.105  63.538  1.00  0.00    -0.501 A  
HETATM   15  C   UNL     1      -9.922  11.840  64.733  1.00  0.00    -0.275 A  
ENDBRANCH   6  10
TORSDOF 1
ENDMDL
MODEL       70
REMARK 921   NORMALIZED FREE ENERGY PREDICTED BY IDOCK:   -4.11 KCAL/MOL
REMARK 922        TOTAL FREE ENERGY PREDICTED BY IDOCK:   -4.65 KCAL/MOL
REMARK 923 INTER-LIGAND FREE ENERGY PREDICTED BY IDOCK:   -4.35 KCAL/MOL
REMARK 924 INTRA-LIGAND FREE ENERGY PREDICTED BY IDOCK:   -0.30 KCAL/MOL
REMARK 927      BINDING AFFINITY PREDICTED BY RF-SCORE:    0.00 PKD
ROOT
HETATM    1  C   UNL     1     -14.345   6.765  71.795  1.00  0.00    -0.126 C  
HETATM    2  N   UNL     1     -13.319   7.773  71.700  1.00  0.00    -0.346 N  
HETATM    3  C   UNL     1     -13.420   9.019  72.227  1.00  0.00    -0.475 C  
HETATM    4  C   UNL     1     -12.222   9.822  71.820  1.00  0.00    -0.449 C  
HETATM    5  O   UNL     1     -14.328   9.450  72.922  1.00  0.00    -0.369 OA 
HETATM    6  C   UNL     1     -11.242   8.800  71.196  1.00  0.00    -0.339 C  
HETATM    7  O   UNL     1     -11.647   6.379  70.966  1.00  0.00    -0.324 OA 
HETATM    8  C   UNL     1     -10.033   8.656  72.143  1.00  0.00    -0.386 C  
HETATM    9  C   UNL     1     -12.060   7.501  71.249  1.00  0.00    -0.323 C  
ENDROOT
BRANCH   6  10
HETATM   10  C   UNL     1     -10.787   9.059  69.749  1.00  0.00    -0.215 A  
HETATM   11  C   UNL     1      -9.656   8.468  69.164  1.00  0.00    -0.167 A  
HETATM   12  C   UNL     1      -9.222   8.838  67.885  1.00  0.00    -0.149 A  
HETATM   13  C   UNL     1      -9.919   9.791  67.152  1.00  0.00    -0.252 A  
HETATM   14  C   UNL     1     -11.065  10.360  67.686  1.00  0.00    -0.361 A  
HETATM   15  C   UNL     1     -11.495   9.996  68.965  1.00  0.00    -0.069 A  
ENDBRANCH   6  10
TORSDOF 1
ENDMDL
MODEL       71
REMARK 921   NORMALIZED FREE ENERGY PREDICTED BY IDOCK:   -4.10 KCAL/MOL
REMARK 922        TOTAL FREE ENERGY PREDICTED BY IDOCK:   -4.64 KCAL/MOL
REMARK 923 INTER-LIGAND FREE ENERGY PREDICTED BY IDOCK:   -4.28 KCAL/MOL
REMARK 924 INTRA-LIGAND FREE ENERGY PREDICTED BY IDOCK:   -0.36 KCAL/MOL
REMARK 927      BINDING AFFINITY PREDICTED BY RF-SCORE:    0.00 PKD
ROOT
HETATM    1  C   UNL     1      -6.718  14.893  70.142  1.00  0.00    -0.117 C  
HETATM    2  N   UNL     1      -7.318  15.356  68.915  1.00  0.00    -0.135 N  
HETATM    3  C   UNL     1      -6.767  15.194  67.686  1.00  0.00    -0.176 C  
HETATM    4  C   UNL     1      -7.607  15.911  66.674  1.00  0.00    -0.150 C  
HETATM    5  O   UNL     1      -5.750  14.572  67.414  1.00  0.00    -0.342 OA 
HETATM    6  C   UNL     1      -8.901  16.305  67.427  1.00  0.00    -0.198 C  
HETATM    7  O   UNL     1      -9.393  15.810  69.791  1.00  0.00    -0.241 OA 
HETATM    8  C   UNL     1     -10.061  15.463  66.857  1.00  0.00    -0.258 C  
HETATM    9  C   UNL     1      -8.600  15.818  68.852  1.00  0.00    -0.220 C  
ENDROOT
BRANCH   6  10
HETATM   10  C   UNL     1      -9.263  17.800  67.461  1.00  0.00    -0.244 A  
HETATM   11  C   UNL     1     -10.575  18.292  67.370  1.00  0.00    -0.425 A  
HETATM   12  C   UNL     1     -10.831  19.665  67.283  1.00  0.00    -0.519 A  
HETATM   13  C   UNL     1      -9.787  20.581  67.306  1.00  0.00    -0.581 A  
HETATM   14  C   UNL     1      -8.483  20.127  67.440  1.00  0.00    -0.398 A  
HETATM   15  C   UNL     1      -8.226  18.755  67.521  1.00  0.00    -0.278 A  
ENDBRANCH   6  10
TORSDOF 1
ENDMDL
MODEL       72
REMARK 921   NORMALIZED FREE ENERGY PREDICTED BY IDOCK:   -4.07 KCAL/MOL
REMARK 922        TOTAL FREE ENERGY PREDICTED BY IDOCK:   -4.62 KCAL/MOL
REMARK 923 INTER-LIGAND FREE ENERGY PREDICTED BY IDOCK:   -4.26 KCAL/MOL
REMARK 924 INTRA-LIGAND FREE ENERGY PREDICTED BY IDOCK:   -0.36 KCAL/MOL
REMARK 927      BINDING AFFINITY PREDICTED BY RF-SCORE:    0.00 PKD
ROOT
HETATM    1  C   UNL     1      -7.430   8.069  72.269  1.00  0.00    -0.098 C  
HETATM    2  N   UNL     1      -8.575   7.941  71.402  1.00  0.00    -0.119 N  
HETATM    3  C   UNL     1      -8.620   8.393  70.124  1.00  0.00    -0.131 C  
HETATM    4  C   UNL     1     -10.005   8.199  69.584  1.00  0.00    -0.193 C  
HETATM    5  O   UNL     1      -7.701   8.887  69.487  1.00  0.00    -0.083 OA 
HETATM    6  C   UNL     1     -10.725   7.311  70.627  1.00  0.00    -0.252 C  
HETATM    7  O   UNL     1      -9.727   6.441  72.707  1.00  0.00    -0.158 OA 
HETATM    8  C   UNL     1     -10.966   5.926  69.991  1.00  0.00    -0.430 C  
HETATM    9  C   UNL     1      -9.653   7.166  71.717  1.00  0.00    -0.151 C  
ENDROOT
BRANCH   6  10
HETATM   10  C   UNL     1     -12.016   7.870  71.250  1.00  0.00    -0.321 A  
HETATM   11  C   UNL     1     -13.220   7.152  71.339  1.00  0.00    -0.391 A  
HETATM   12  C   UNL     1     -14.393   7.756  71.803  1.00  0.00    -0.594 A  
HETATM   13  C   UNL     1     -14.390   9.085  72.210  1.00  0.00    -0.356 A  
HETATM   14  C   UNL     1     -13.206   9.807  72.175  1.00  0.00    -0.530 A  
HETATM   15  C   UNL     1     -12.035   9.206  71.705  1.00  0.00    -0.449 A  
ENDBRANCH   6  10
TORSDOF 1
ENDMDL
MODEL       73
REMARK 921   NORMALIZED FREE ENERGY PREDICTED BY IDOCK:   -4.07 KCAL/MOL
REMARK 922        TOTAL FREE ENERGY PREDICTED BY IDOCK:   -4.61 KCAL/MOL
REMARK 923 INTER-LIGAND FREE ENERGY PREDICTED BY IDOCK:   -4.37 KCAL/MOL
REMARK 924 INTRA-LIGAND FREE ENERGY PREDICTED BY IDOCK:   -0.24 KCAL/MOL
REMARK 927      BINDING AFFINITY PREDICTED BY RF-SCORE:    0.00 PKD
ROOT
HETATM    1  C   UNL     1      -7.098   8.813  66.895  1.00  0.00    -0.078 C  
HETATM    2  N   UNL     1      -8.437   9.311  67.091  1.00  0.00    -0.123 N  
HETATM    3  C   UNL     1      -9.474   8.560  67.539  1.00  0.00    -0.149 C  
HETATM    4  C   UNL     1     -10.729   9.379  67.493  1.00  0.00    -0.290 C  
HETATM    5  O   UNL     1      -9.429   7.400  67.922  1.00  0.00    -0.139 OA 
HETATM    6  C   UNL     1     -10.257  10.826  67.212  1.00  0.00    -0.245 C  
HETATM    7  O   UNL     1      -7.916  11.542  66.919  1.00  0.00    -0.154 OA 
HETATM    8  C   UNL     1     -10.509  11.667  68.480  1.00  0.00    -0.236 C  
HETATM    9  C   UNL     1      -8.742  10.641  67.043  1.00  0.00    -0.128 C  
ENDROOT
BRANCH   6  10
HETATM   10  C   UNL     1     -10.830  11.519  65.963  1.00  0.00    -0.330 A  
HETATM   11  C   UNL     1     -11.881  12.450  65.993  1.00  0.00    -0.459 A  
HETATM   12  C   UNL     1     -12.440  12.952  64.813  1.00  0.00    -0.517 A  
HETATM   13  C   UNL     1     -11.952  12.554  63.575  1.00  0.00    -0.629 A  
HETATM   14  C   UNL     1     -10.886  11.669  63.514  1.00  0.00    -0.497 A  
HETATM   15  C   UNL     1     -10.330  11.162  64.691  1.00  0.00    -0.393 A  
ENDBRANCH   6  10
TORSDOF 1
ENDMDL
MODEL       74
REMARK 921   NORMALIZED FREE ENERGY PREDICTED BY IDOCK:   -4.06 KCAL/MOL
REMARK 922        TOTAL FREE ENERGY PREDICTED BY IDOCK:   -4.60 KCAL/MOL
REMARK 923 INTER-LIGAND FREE ENERGY PREDICTED BY IDOCK:   -4.25 KCAL/MOL
REMARK 924 INTRA-LIGAND FREE ENERGY PREDICTED BY IDOCK:   -0.35 KCAL/MOL
REMARK 927      BINDING AFFINITY PREDICTED BY RF-SCORE:    0.00 PKD
ROOT
HETATM    1  C   UNL     1     -12.260   6.130  72.105  1.00  0.00    -0.146 C  
HETATM    2  N   UNL     1     -11.299   7.098  71.635  1.00  0.00    -0.244 N  
HETATM    3  C   UNL     1     -10.459   7.793  72.442  1.00  0.00    -0.263 C  
HETATM    4  C   UNL     1      -9.702   8.790  71.618  1.00  0.00    -0.366 C  
HETATM    5  O   UNL     1     -10.318   7.657  73.648  1.00  0.00    -0.324 OA 
HETATM    6  C   UNL     1     -10.004   8.413  70.147  1.00  0.00    -0.190 C  
HETATM    7  O   UNL     1     -11.436   6.547  69.410  1.00  0.00    -0.355 OA 
HETATM    8  C   UNL     1      -8.708   7.860  69.519  1.00  0.00    -0.134 C  
HETATM    9  C   UNL     1     -10.998   7.254  70.314  1.00  0.00    -0.260 C  
ENDROOT
BRANCH   6  10
HETATM   10  C   UNL     1     -10.632   9.502  69.260  1.00  0.00    -0.236 A  
HETATM   11  C   UNL     1     -10.444   9.588  67.871  1.00  0.00    -0.293 A  
HETATM   12  C   UNL     1     -10.939  10.672  67.138  1.00  0.00    -0.312 A  
HETATM   13  C   UNL     1     -11.652  11.685  67.767  1.00  0.00    -0.359 A  
HETATM   14  C   UNL     1     -11.891  11.605  69.132  1.00  0.00    -0.390 A  
HETATM   15  C   UNL     1     -11.392  10.527  69.866  1.00  0.00    -0.380 A  
ENDBRANCH   6  10
TORSDOF 1
ENDMDL
MODEL       75
REMARK 921   NORMALIZED FREE ENERGY PREDICTED BY IDOCK:   -4.05 KCAL/MOL
REMARK 922        TOTAL FREE ENERGY PREDICTED BY IDOCK:   -4.59 KCAL/MOL
REMARK 923 INTER-LIGAND FREE ENERGY PREDICTED BY IDOCK:   -4.52 KCAL/MOL
REMARK 924 INTRA-LIGAND FREE ENERGY PREDICTED BY IDOCK:   -0.07 KCAL/MOL
REMARK 927      BINDING AFFINITY PREDICTED BY RF-SCORE:    0.00 PKD
ROOT
HETATM    1  C   UNL     1      -7.925  14.264  68.687  1.00  0.00    -0.139 C  
HETATM    2  N   UNL     1      -8.731  13.140  68.279  1.00  0.00    -0.178 N  
HETATM    3  C   UNL     1      -8.321  11.848  68.329  1.00  0.00    -0.159 C  
HETATM    4  C   UNL     1      -9.371  10.976  67.708  1.00  0.00    -0.162 C  
HETATM    5  O   UNL     1      -7.272  11.428  68.794  1.00  0.00    -0.092 OA 
HETATM    6  C   UNL     1     -10.602  11.896  67.521  1.00  0.00    -0.250 C  
HETATM    7  O   UNL     1     -10.722  14.278  68.145  1.00  0.00    -0.236 OA 
HETATM    8  C   UNL     1     -11.699  11.433  68.501  1.00  0.00    -0.386 C  
HETATM    9  C   UNL     1     -10.062  13.252  68.000  1.00  0.00    -0.235 C  
ENDROOT
BRANCH   6  10
HETATM   10  C   UNL     1     -11.157  12.041  66.093  1.00  0.00    -0.367 A  
HETATM   11  C   UNL     1     -10.582  11.438  64.963  1.00  0.00    -0.359 A  
HETATM   12  C   UNL     1     -11.060  11.707  63.675  1.00  0.00    -0.506 A  
HETATM   13  C   UNL     1     -12.134  12.567  63.485  1.00  0.00    -0.653 A  
HETATM   14  C   UNL     1     -12.750  13.143  64.586  1.00  0.00    -0.326 A  
HETATM   15  C   UNL     1     -12.270  12.880  65.872  1.00  0.00    -0.469 A  
ENDBRANCH   6  10
TORSDOF 1
ENDMDL
MODEL       76
REMARK 921   NORMALIZED FREE ENERGY PREDICTED BY IDOCK:   -4.04 KCAL/MOL
REMARK 922        TOTAL FREE ENERGY PREDICTED BY IDOCK:   -4.58 KCAL/MOL
REMARK 923 INTER-LIGAND FREE ENERGY PREDICTED BY IDOCK:   -4.22 KCAL/MOL
REMARK 924 INTRA-LIGAND FREE ENERGY PREDICTED BY IDOCK:   -0.36 KCAL/MOL
REMARK 927      BINDING AFFINITY PREDICTED BY RF-SCORE:    0.00 PKD
ROOT
HETATM    1  C   UNL     1      -6.653   9.360  70.893  1.00  0.00    -0.098 C  
HETATM    2  N   UNL     1      -7.950   8.800  70.604  1.00  0.00    -0.107 N  
HETATM    3  C   UNL     1      -8.316   8.305  69.395  1.00  0.00    -0.122 C  
HETATM    4  C   UNL     1      -9.767   7.932  69.436  1.00  0.00    -0.170 C  
HETATM    5  O   UNL     1      -7.604   8.173  68.409  1.00  0.00    -0.100 OA 
HETATM    6  C   UNL     1     -10.164   8.016  70.930  1.00  0.00    -0.213 C  
HETATM    7  O   UNL     1      -8.660   8.638  72.782  1.00  0.00    -0.394 OA 
HETATM    8  C   UNL     1     -10.434   6.584  71.435  1.00  0.00    -0.246 C  
HETATM    9  C   UNL     1      -8.866   8.525  71.576  1.00  0.00    -0.199 C  
ENDROOT
BRANCH   6  10
HETATM   10  C   UNL     1     -11.322   8.962  71.294  1.00  0.00    -0.371 A  
HETATM   11  C   UNL     1     -12.420   8.590  72.085  1.00  0.00    -0.437 A  
HETATM   12  C   UNL     1     -13.502   9.456  72.279  1.00  0.00    -0.539 A  
HETATM   13  C   UNL     1     -13.505  10.722  71.706  1.00  0.00    -0.303 A  
HETATM   14  C   UNL     1     -12.413  11.134  70.956  1.00  0.00    -0.506 A  
HETATM   15  C   UNL     1     -11.335  10.268  70.757  1.00  0.00    -0.421 A  
ENDBRANCH   6  10
TORSDOF 1
ENDMDL
MODEL       77
REMARK 921   NORMALIZED FREE ENERGY PREDICTED BY IDOCK:   -4.04 KCAL/MOL
REMARK 922        TOTAL FREE ENERGY PREDICTED BY IDOCK:   -4.58 KCAL/MOL
REMARK 923 INTER-LIGAND FREE ENERGY PREDICTED BY IDOCK:   -4.21 KCAL/MOL
REMARK 924 INTRA-LIGAND FREE ENERGY PREDICTED BY IDOCK:   -0.36 KCAL/MOL
REMARK 927      BINDING AFFINITY PREDICTED BY RF-SCORE:    0.00 PKD
ROOT
HETATM    1  C   UNL     1      -6.695   7.366  72.293  1.00  0.00    -0.058 C  
HETATM    2  N   UNL     1      -8.051   7.099  71.878  1.00  0.00    -0.097 N  
HETATM    3  C   UNL     1      -8.385   6.385  70.774  1.00  0.00    -0.126 C  
HETATM    4  C   UNL     1      -9.873   6.426  70.596  1.00  0.00    -0.206 C  
HETATM    5  O   UNL     1      -7.623   5.794  70.023  1.00  0.00    -0.079 OA 
HETATM    6  C   UNL     1     -10.421   7.040  71.907  1.00  0.00    -0.223 C  
HETATM    7  O   UNL     1      -9.060   7.765  73.831  1.00  0.00    -0.268 OA 
HETATM    8  C   UNL     1     -11.179   5.936  72.672  1.00  0.00    -0.335 C  
HETATM    9  C   UNL     1      -9.128   7.363  72.672  1.00  0.00    -0.143 C  
ENDROOT
BRANCH   6  10
HETATM   10  C   UNL     1     -11.273   8.315  71.780  1.00  0.00    -0.346 A  
HETATM   11  C   UNL     1     -12.512   8.498  72.415  1.00  0.00    -0.416 A  
HETATM   12  C   UNL     1     -13.297   9.629  72.163  1.00  0.00    -0.545 A  
HETATM   13  C   UNL     1     -12.856  10.614  71.288  1.00  0.00    -0.535 A  
HETATM   14  C   UNL     1     -11.616  10.482  70.680  1.00  0.00    -0.445 A  
HETATM   15  C   UNL     1     -10.834   9.351  70.926  1.00  0.00    -0.392 A  
ENDBRANCH   6  10
TORSDOF 1
ENDMDL
MODEL       78
REMARK 921   NORMALIZED FREE ENERGY PREDICTED BY IDOCK:   -4.03 KCAL/MOL
REMARK 922        TOTAL FREE ENERGY PREDICTED BY IDOCK:   -4.57 KCAL/MOL
REMARK 923 INTER-LIGAND FREE ENERGY PREDICTED BY IDOCK:   -4.21 KCAL/MOL
REMARK 924 INTRA-LIGAND FREE ENERGY PREDICTED BY IDOCK:   -0.36 KCAL/MOL
REMARK 927      BINDING AFFINITY PREDICTED BY RF-SCORE:    0.00 PKD
ROOT
HETATM    1  C   UNL     1      -9.891  15.858  68.775  1.00  0.00    -0.216 C  
HETATM    2  N   UNL     1     -10.624  14.756  68.203  1.00  0.00    -0.238 N  
HETATM    3  C   UNL     1     -11.750  14.225  68.743  1.00  0.00    -0.343 C  
HETATM    4  C   UNL     1     -12.155  13.022  67.947  1.00  0.00    -0.234 C  
HETATM    5  O   UNL     1     -12.359  14.635  69.721  1.00  0.00    -0.311 OA 
HETATM    6  C   UNL     1     -11.268  13.057  66.680  1.00  0.00    -0.341 C  
HETATM    7  O   UNL     1      -9.574  14.772  66.160  1.00  0.00    -0.287 OA 
HETATM    8  C   UNL     1     -12.172  13.374  65.471  1.00  0.00    -0.499 C  
HETATM    9  C   UNL     1     -10.373  14.276  66.951  1.00  0.00    -0.268 C  
ENDROOT
BRANCH   6  10
HETATM   10  C   UNL     1     -10.387  11.825  66.407  1.00  0.00    -0.257 A  
HETATM   11  C   UNL     1     -10.377  11.120  65.193  1.00  0.00    -0.354 A  
HETATM   12  C   UNL     1      -9.646   9.935  65.048  1.00  0.00    -0.364 A  
HETATM   13  C   UNL     1      -8.892   9.436  66.102  1.00  0.00    -0.178 A  
HETATM   14  C   UNL     1      -8.847  10.135  67.300  1.00  0.00    -0.137 A  
HETATM   15  C   UNL     1      -9.581  11.315  67.448  1.00  0.00    -0.182 A  
ENDBRANCH   6  10
TORSDOF 1
ENDMDL
MODEL       79
REMARK 921   NORMALIZED FREE ENERGY PREDICTED BY IDOCK:   -3.98 KCAL/MOL
REMARK 922        TOTAL FREE ENERGY PREDICTED BY IDOCK:   -4.52 KCAL/MOL
REMARK 923 INTER-LIGAND FREE ENERGY PREDICTED BY IDOCK:   -4.17 KCAL/MOL
REMARK 924 INTRA-LIGAND FREE ENERGY PREDICTED BY IDOCK:   -0.34 KCAL/MOL
REMARK 927      BINDING AFFINITY PREDICTED BY RF-SCORE:    0.00 PKD
ROOT
HETATM    1  C   UNL     1     -10.879  17.836  66.590  1.00  0.00     0.020 C  
HETATM    2  N   UNL     1      -9.442  17.885  66.485  1.00  0.00    -0.296 N  
HETATM    3  C   UNL     1      -8.662  16.821  66.166  1.00  0.00    -0.264 C  
HETATM    4  C   UNL     1      -7.221  17.219  66.278  1.00  0.00    -0.335 C  
HETATM    5  O   UNL     1      -9.040  15.706  65.839  1.00  0.00    -0.335 OA 
HETATM    6  C   UNL     1      -7.237  18.758  66.446  1.00  0.00    -0.263 C  
HETATM    7  O   UNL     1      -9.254  20.174  66.500  1.00  0.00    -0.355 OA 
HETATM    8  C   UNL     1      -6.653  19.384  65.163  1.00  0.00    -0.269 C  
HETATM    9  C   UNL     1      -8.743  19.057  66.492  1.00  0.00    -0.322 C  
ENDROOT
BRANCH   6  10
HETATM   10  C   UNL     1      -6.562  19.332  67.703  1.00  0.00    -0.228 A  
HETATM   11  C   UNL     1      -6.619  18.729  68.970  1.00  0.00    -0.306 A  
HETATM   12  C   UNL     1      -6.090  19.363  70.100  1.00  0.00    -0.265 A  
HETATM   13  C   UNL     1      -5.473  20.603  69.991  1.00  0.00    -0.378 A  
HETATM   14  C   UNL     1      -5.362  21.203  68.745  1.00  0.00    -0.307 A  
HETATM   15  C   UNL     1      -5.895  20.574  67.616  1.00  0.00    -0.270 A  
ENDBRANCH   6  10
TORSDOF 1
ENDMDL
MODEL       80
REMARK 921   NORMALIZED FREE ENERGY PREDICTED BY IDOCK:   -3.98 KCAL/MOL
REMARK 922        TOTAL FREE ENERGY PREDICTED BY IDOCK:   -4.51 KCAL/MOL
REMARK 923 INTER-LIGAND FREE ENERGY PREDICTED BY IDOCK:   -4.20 KCAL/MOL
REMARK 924 INTRA-LIGAND FREE ENERGY PREDICTED BY IDOCK:   -0.32 KCAL/MOL
REMARK 927      BINDING AFFINITY PREDICTED BY RF-SCORE:    0.00 PKD
ROOT
HETATM    1  C   UNL     1      -8.954  13.605  68.287  1.00  0.00    -0.187 C  
HETATM    2  N   UNL     1      -8.246  14.862  68.293  1.00  0.00    -0.139 N  
HETATM    3  C   UNL     1      -7.334  15.220  69.232  1.00  0.00    -0.191 C  
HETATM    4  C   UNL     1      -6.906  16.635  68.985  1.00  0.00    -0.207 C  
HETATM    5  O   UNL     1      -6.910  14.528  70.146  1.00  0.00    -0.142 OA 
HETATM    6  C   UNL     1      -7.485  16.996  67.595  1.00  0.00    -0.179 C  
HETATM    7  O   UNL     1      -8.814  15.495  66.160  1.00  0.00    -0.320 OA 
HETATM    8  C   UNL     1      -6.308  17.137  66.609  1.00  0.00    -0.254 C  
HETATM    9  C   UNL     1      -8.271  15.725  67.238  1.00  0.00    -0.184 C  
ENDROOT
BRANCH   6  10
HETATM   10  C   UNL     1      -8.422  18.215  67.522  1.00  0.00    -0.248 A  
HETATM   11  C   UNL     1      -9.247  18.635  68.577  1.00  0.00    -0.377 A  
HETATM   12  C   UNL     1     -10.168  19.676  68.409  1.00  0.00    -0.553 A  
HETATM   13  C   UNL     1     -10.272  20.336  67.191  1.00  0.00    -0.500 A  
HETATM   14  C   UNL     1      -9.439  19.972  66.143  1.00  0.00    -0.447 A  
HETATM   15  C   UNL     1      -8.523  18.929  66.309  1.00  0.00    -0.268 A  
ENDBRANCH   6  10
TORSDOF 1
ENDMDL
MODEL       81
REMARK 921   NORMALIZED FREE ENERGY PREDICTED BY IDOCK:   -3.98 KCAL/MOL
REMARK 922        TOTAL FREE ENERGY PREDICTED BY IDOCK:   -4.51 KCAL/MOL
REMARK 923 INTER-LIGAND FREE ENERGY PREDICTED BY IDOCK:   -4.15 KCAL/MOL
REMARK 924 INTRA-LIGAND FREE ENERGY PREDICTED BY IDOCK:   -0.36 KCAL/MOL
REMARK 927      BINDING AFFINITY PREDICTED BY RF-SCORE:    0.00 PKD
ROOT
HETATM    1  C   UNL     1     -10.521   9.820  68.994  1.00  0.00    -0.213 C  
HETATM    2  N   UNL     1     -10.122  10.408  67.739  1.00  0.00    -0.174 N  
HETATM    3  C   UNL     1      -9.085   9.967  66.984  1.00  0.00    -0.142 C  
HETATM    4  C   UNL     1      -8.894  10.897  65.824  1.00  0.00    -0.202 C  
HETATM    5  O   UNL     1      -8.395   8.979  67.189  1.00  0.00    -0.109 OA 
HETATM    6  C   UNL     1     -10.141  11.814  65.830  1.00  0.00    -0.267 C  
HETATM    7  O   UNL     1     -12.001  11.696  67.444  1.00  0.00    -0.621 OA 
HETATM    8  C   UNL     1     -10.996  11.466  64.595  1.00  0.00    -0.324 C  
HETATM    9  C   UNL     1     -10.882  11.335  67.087  1.00  0.00    -0.270 C  
ENDROOT
BRANCH   6  10
HETATM   10  C   UNL     1      -9.894  13.330  65.928  1.00  0.00    -0.241 A  
HETATM   11  C   UNL     1     -10.539  14.283  65.124  1.00  0.00    -0.423 A  
HETATM   12  C   UNL     1     -10.182  15.636  65.174  1.00  0.00    -0.297 A  
HETATM   13  C   UNL     1      -9.189  16.073  66.042  1.00  0.00    -0.375 A  
HETATM   14  C   UNL     1      -8.565  15.160  66.880  1.00  0.00    -0.289 A  
HETATM   15  C   UNL     1      -8.916  13.808  66.826  1.00  0.00    -0.202 A  
ENDBRANCH   6  10
TORSDOF 1
ENDMDL
MODEL       82
REMARK 921   NORMALIZED FREE ENERGY PREDICTED BY IDOCK:   -3.96 KCAL/MOL
REMARK 922        TOTAL FREE ENERGY PREDICTED BY IDOCK:   -4.50 KCAL/MOL
REMARK 923 INTER-LIGAND FREE ENERGY PREDICTED BY IDOCK:   -4.14 KCAL/MOL
REMARK 924 INTRA-LIGAND FREE ENERGY PREDICTED BY IDOCK:   -0.36 KCAL/MOL
REMARK 927      BINDING AFFINITY PREDICTED BY RF-SCORE:    0.00 PKD
ROOT
HETATM    1  C   UNL     1     -11.184   6.302  69.621  1.00  0.00    -0.437 C  
HETATM    2  N   UNL     1     -10.322   7.263  68.978  1.00  0.00    -0.201 N  
HETATM    3  C   UNL     1      -9.240   7.832  69.566  1.00  0.00    -0.149 C  
HETATM    4  C   UNL     1      -8.671   8.869  68.645  1.00  0.00    -0.134 C  
HETATM    5  O   UNL     1      -8.778   7.568  70.666  1.00  0.00    -0.139 OA 
HETATM    6  C   UNL     1      -9.400   8.658  67.297  1.00  0.00    -0.186 C  
HETATM    7  O   UNL     1     -11.119   6.948  66.847  1.00  0.00    -0.379 OA 
HETATM    8  C   UNL     1      -8.378   8.108  66.281  1.00  0.00    -0.119 C  
HETATM    9  C   UNL     1     -10.393   7.538  67.644  1.00  0.00    -0.229 C  
ENDROOT
BRANCH   6  10
HETATM   10  C   UNL     1     -10.167   9.860  66.720  1.00  0.00    -0.301 A  
HETATM   11  C   UNL     1     -10.034  10.316  65.398  1.00  0.00    -0.371 A  
HETATM   12  C   UNL     1     -10.663  11.489  64.968  1.00  0.00    -0.350 A  
HETATM   13  C   UNL     1     -11.459  12.225  65.838  1.00  0.00    -0.428 A  
HETATM   14  C   UNL     1     -11.645  11.775  67.137  1.00  0.00    -0.342 A  
HETATM   15  C   UNL     1     -11.011  10.607  67.570  1.00  0.00    -0.371 A  
ENDBRANCH   6  10
TORSDOF 1
ENDMDL
MODEL       83
REMARK 921   NORMALIZED FREE ENERGY PREDICTED BY IDOCK:   -3.94 KCAL/MOL
REMARK 922        TOTAL FREE ENERGY PREDICTED BY IDOCK:   -4.48 KCAL/MOL
REMARK 923 INTER-LIGAND FREE ENERGY PREDICTED BY IDOCK:   -4.13 KCAL/MOL
REMARK 924 INTRA-LIGAND FREE ENERGY PREDICTED BY IDOCK:   -0.35 KCAL/MOL
REMARK 927      BINDING AFFINITY PREDICTED BY RF-SCORE:    0.00 PKD
ROOT
HETATM    1  C   UNL     1     -12.615  10.971  70.837  1.00  0.00    -0.391 C  
HETATM    2  N   UNL     1     -12.326   9.585  71.110  1.00  0.00    -0.319 N  
HETATM    3  C   UNL     1     -13.201   8.721  71.685  1.00  0.00    -0.357 C  
HETATM    4  C   UNL     1     -12.511   7.413  71.926  1.00  0.00    -0.334 C  
HETATM    5  O   UNL     1     -14.368   8.942  71.974  1.00  0.00    -0.392 OA 
HETATM    6  C   UNL     1     -11.167   7.517  71.165  1.00  0.00    -0.277 C  
HETATM    7  O   UNL     1     -10.408   9.462  69.853  1.00  0.00    -0.200 OA 
HETATM    8  C   UNL     1     -11.219   6.545  69.968  1.00  0.00    -0.453 C  
HETATM    9  C   UNL     1     -11.217   8.955  70.627  1.00  0.00    -0.266 C  
ENDROOT
BRANCH   6  10
HETATM   10  C   UNL     1      -9.880   7.321  71.985  1.00  0.00    -0.183 A  
HETATM   11  C   UNL     1      -9.662   7.889  73.250  1.00  0.00    -0.352 A  
HETATM   12  C   UNL     1      -8.424   7.777  73.893  1.00  0.00    -0.298 A  
HETATM   13  C   UNL     1      -7.380   7.078  73.298  1.00  0.00    -0.075 A  
HETATM   14  C   UNL     1      -7.580   6.469  72.068  1.00  0.00    -0.093 A  
HETATM   15  C   UNL     1      -8.814   6.586  71.423  1.00  0.00    -0.137 A  
ENDBRANCH   6  10
TORSDOF 1
ENDMDL
MODEL       84
REMARK 921   NORMALIZED FREE ENERGY PREDICTED BY IDOCK:   -3.93 KCAL/MOL
REMARK 922        TOTAL FREE ENERGY PREDICTED BY IDOCK:   -4.46 KCAL/MOL
REMARK 923 INTER-LIGAND FREE ENERGY PREDICTED BY IDOCK:   -4.12 KCAL/MOL
REMARK 924 INTRA-LIGAND FREE ENERGY PREDICTED BY IDOCK:   -0.34 KCAL/MOL
REMARK 927      BINDING AFFINITY PREDICTED BY RF-SCORE:    0.00 PKD
ROOT
HETATM    1  C   UNL     1     -10.981  13.374  68.711  1.00  0.00    -0.257 C  
HETATM    2  N   UNL     1     -10.426  14.319  67.774  1.00  0.00    -0.244 N  
HETATM    3  C   UNL     1      -9.670  13.977  66.701  1.00  0.00    -0.289 C  
HETATM    4  C   UNL     1      -9.168  15.223  66.037  1.00  0.00    -0.308 C  
HETATM    5  O   UNL     1      -9.415  12.846  66.313  1.00  0.00    -0.254 OA 
HETATM    6  C   UNL     1      -9.956  16.380  66.700  1.00  0.00    -0.281 C  
HETATM    7  O   UNL     1     -11.659  16.130  68.464  1.00  0.00    -0.377 OA 
HETATM    8  C   UNL     1     -10.920  16.966  65.648  1.00  0.00     0.026 C  
HETATM    9  C   UNL     1     -10.784  15.636  67.758  1.00  0.00    -0.297 C  
ENDROOT
BRANCH   6  10
HETATM   10  C   UNL     1      -9.132  17.488  67.379  1.00  0.00    -0.237 A  
HETATM   11  C   UNL     1      -7.931  17.262  68.071  1.00  0.00    -0.215 A  
HETATM   12  C   UNL     1      -7.293  18.290  68.773  1.00  0.00    -0.298 A  
HETATM   13  C   UNL     1      -7.826  19.573  68.786  1.00  0.00    -0.377 A  
HETATM   14  C   UNL     1      -8.988  19.837  68.075  1.00  0.00    -0.376 A  
HETATM   15  C   UNL     1      -9.629  18.809  67.378  1.00  0.00    -0.337 A  
ENDBRANCH   6  10
TORSDOF 1
ENDMDL
MODEL       85
REMARK 921   NORMALIZED FREE ENERGY PREDICTED BY IDOCK:   -3.93 KCAL/MOL
REMARK 922        TOTAL FREE ENERGY PREDICTED BY IDOCK:   -4.46 KCAL/MOL
REMARK 923 INTER-LIGAND FREE ENERGY PREDICTED BY IDOCK:   -4.12 KCAL/MOL
REMARK 924 INTRA-LIGAND FREE ENERGY PREDICTED BY IDOCK:   -0.34 KCAL/MOL
REMARK 927      BINDING AFFINITY PREDICTED BY RF-SCORE:    0.00 PKD
ROOT
HETATM    1  C   UNL     1     -10.698  12.810  66.891  1.00  0.00    -0.253 C  
HETATM    2  N   UNL     1     -10.226  11.804  67.810  1.00  0.00    -0.188 N  
HETATM    3  C   UNL     1      -8.985  11.792  68.359  1.00  0.00    -0.168 C  
HETATM    4  C   UNL     1      -8.814  10.535  69.156  1.00  0.00    -0.161 C  
HETATM    5  O   UNL     1      -8.122  12.649  68.240  1.00  0.00    -0.152 OA 
HETATM    6  C   UNL     1     -10.229   9.912  69.239  1.00  0.00    -0.222 C  
HETATM    7  O   UNL     1     -12.275  10.860  68.242  1.00  0.00    -0.526 OA 
HETATM    8  C   UNL     1     -10.714  10.019  70.699  1.00  0.00    -0.325 C  
HETATM    9  C   UNL     1     -11.054  10.881  68.378  1.00  0.00    -0.262 C  
ENDROOT
BRANCH   6  10
HETATM   10  C   UNL     1     -10.396   8.480  68.700  1.00  0.00    -0.224 A  
HETATM   11  C   UNL     1     -10.262   8.130  67.347  1.00  0.00    -0.327 A  
HETATM   12  C   UNL     1     -10.548   6.834  66.901  1.00  0.00    -0.374 A  
HETATM   13  C   UNL     1     -10.953   5.852  67.797  1.00  0.00    -0.245 A  
HETATM   14  C   UNL     1     -11.051   6.157  69.146  1.00  0.00    -0.448 A  
HETATM   15  C   UNL     1     -10.773   7.452  69.592  1.00  0.00    -0.245 A  
ENDBRANCH   6  10
TORSDOF 1
ENDMDL
MODEL       86
REMARK 921   NORMALIZED FREE ENERGY PREDICTED BY IDOCK:   -3.91 KCAL/MOL
REMARK 922        TOTAL FREE ENERGY PREDICTED BY IDOCK:   -4.45 KCAL/MOL
REMARK 923 INTER-LIGAND FREE ENERGY PREDICTED BY IDOCK:   -4.09 KCAL/MOL
REMARK 924 INTRA-LIGAND FREE ENERGY PREDICTED BY IDOCK:   -0.36 KCAL/MOL
REMARK 927      BINDING AFFINITY PREDICTED BY RF-SCORE:    0.00 PKD
ROOT
HETATM    1  C   UNL     1      -8.201  17.267  68.567  1.00  0.00    -0.267 C  
HETATM    2  N   UNL     1      -9.362  16.544  68.111  1.00  0.00    -0.214 N  
HETATM    3  C   UNL     1     -10.558  17.119  67.828  1.00  0.00    -0.360 C  
HETATM    4  C   UNL     1     -11.554  16.046  67.509  1.00  0.00     0.162 C  
HETATM    5  O   UNL     1     -10.816  18.314  67.827  1.00  0.00    -0.386 OA 
HETATM    6  C   UNL     1     -10.722  14.748  67.371  1.00  0.00    -0.281 C  
HETATM    7  O   UNL     1      -8.276  14.577  67.632  1.00  0.00    -0.151 OA 
HETATM    8  C   UNL     1     -10.741  14.324  65.888  1.00  0.00    -0.304 C  
HETATM    9  C   UNL     1      -9.308  15.238  67.720  1.00  0.00    -0.196 C  
ENDROOT
BRANCH   6  10
HETATM   10  C   UNL     1     -11.098  13.574  68.290  1.00  0.00    -0.287 A  
HETATM   11  C   UNL     1     -11.034  12.225  67.907  1.00  0.00    -0.265 A  
HETATM   12  C   UNL     1     -11.507  11.208  68.745  1.00  0.00    -0.366 A  
HETATM   13  C   UNL     1     -12.036  11.511  69.993  1.00  0.00    -0.435 A  
HETATM   14  C   UNL     1     -12.072  12.831  70.418  1.00  0.00    -0.382 A  
HETATM   15  C   UNL     1     -11.606  13.847  69.579  1.00  0.00    -0.358 A  
ENDBRANCH   6  10
TORSDOF 1
ENDMDL
MODEL       87
REMARK 921   NORMALIZED FREE ENERGY PREDICTED BY IDOCK:   -3.90 KCAL/MOL
REMARK 922        TOTAL FREE ENERGY PREDICTED BY IDOCK:   -4.43 KCAL/MOL
REMARK 923 INTER-LIGAND FREE ENERGY PREDICTED BY IDOCK:   -4.07 KCAL/MOL
REMARK 924 INTRA-LIGAND FREE ENERGY PREDICTED BY IDOCK:   -0.35 KCAL/MOL
REMARK 927      BINDING AFFINITY PREDICTED BY RF-SCORE:    0.00 PKD
ROOT
HETATM    1  C   UNL     1      -9.022  14.432  68.679  1.00  0.00    -0.172 C  
HETATM    2  N   UNL     1      -9.370  15.769  68.266  1.00  0.00    -0.191 N  
HETATM    3  C   UNL     1     -10.538  16.102  67.660  1.00  0.00    -0.315 C  
HETATM    4  C   UNL     1     -10.491  17.547  67.265  1.00  0.00    -0.327 C  
HETATM    5  O   UNL     1     -11.492  15.367  67.451  1.00  0.00    -0.303 OA 
HETATM    6  C   UNL     1      -9.233  18.117  67.965  1.00  0.00    -0.285 C  
HETATM    7  O   UNL     1      -7.693  16.844  69.409  1.00  0.00    -0.131 OA 
HETATM    8  C   UNL     1      -9.699  19.089  69.069  1.00  0.00    -0.388 C  
HETATM    9  C   UNL     1      -8.646  16.865  68.634  1.00  0.00    -0.267 C  
ENDROOT
BRANCH   6  10
HETATM   10  C   UNL     1      -8.166  18.766  67.066  1.00  0.00    -0.271 A  
HETATM   11  C   UNL     1      -7.502  18.095  66.027  1.00  0.00    -0.264 A  
HETATM   12  C   UNL     1      -6.453  18.702  65.325  1.00  0.00    -0.271 A  
HETATM   13  C   UNL     1      -6.056  19.998  65.629  1.00  0.00    -0.219 A  
HETATM   14  C   UNL     1      -6.724  20.701  66.622  1.00  0.00    -0.328 A  
HETATM   15  C   UNL     1      -7.767  20.095  67.327  1.00  0.00    -0.341 A  
ENDBRANCH   6  10
TORSDOF 1
ENDMDL
MODEL       88
REMARK 921   NORMALIZED FREE ENERGY PREDICTED BY IDOCK:   -3.88 KCAL/MOL
REMARK 922        TOTAL FREE ENERGY PREDICTED BY IDOCK:   -4.41 KCAL/MOL
REMARK 923 INTER-LIGAND FREE ENERGY PREDICTED BY IDOCK:   -4.10 KCAL/MOL
REMARK 924 INTRA-LIGAND FREE ENERGY PREDICTED BY IDOCK:   -0.31 KCAL/MOL
REMARK 927      BINDING AFFINITY PREDICTED BY RF-SCORE:    0.00 PKD
ROOT
HETATM    1  C   UNL     1     -12.012  11.673  70.208  1.00  0.00    -0.358 C  
HETATM    2  N   UNL     1     -11.162  12.242  69.192  1.00  0.00    -0.250 N  
HETATM    3  C   UNL     1     -10.996  13.573  68.991  1.00  0.00    -0.225 C  
HETATM    4  C   UNL     1     -10.146  13.783  67.774  1.00  0.00    -0.245 C  
HETATM    5  O   UNL     1     -11.453  14.481  69.670  1.00  0.00    -0.262 OA 
HETATM    6  C   UNL     1      -9.590  12.382  67.422  1.00  0.00    -0.184 C  
HETATM    7  O   UNL     1     -10.055  10.301  68.659  1.00  0.00    -0.161 OA 
HETATM    8  C   UNL     1      -8.074  12.384  67.703  1.00  0.00    -0.168 C  
HETATM    9  C   UNL     1     -10.279  11.494  68.468  1.00  0.00    -0.213 C  
ENDROOT
BRANCH   6  10
HETATM   10  C   UNL     1      -9.894  11.843  66.013  1.00  0.00    -0.258 A  
HETATM   11  C   UNL     1      -9.167  10.815  65.392  1.00  0.00    -0.234 A  
HETATM   12  C   UNL     1      -9.412  10.453  64.063  1.00  0.00    -0.351 A  
HETATM   13  C   UNL     1     -10.402  11.093  63.327  1.00  0.00    -0.368 A  
HETATM   14  C   UNL     1     -11.166  12.083  63.928  1.00  0.00    -0.490 A  
HETATM   15  C   UNL     1     -10.918  12.449  65.253  1.00  0.00    -0.335 A  
ENDBRANCH   6  10
TORSDOF 1
ENDMDL
MODEL       89
REMARK 921   NORMALIZED FREE ENERGY PREDICTED BY IDOCK:   -3.88 KCAL/MOL
REMARK 922        TOTAL FREE ENERGY PREDICTED BY IDOCK:   -4.41 KCAL/MOL
REMARK 923 INTER-LIGAND FREE ENERGY PREDICTED BY IDOCK:   -4.26 KCAL/MOL
REMARK 924 INTRA-LIGAND FREE ENERGY PREDICTED BY IDOCK:   -0.15 KCAL/MOL
REMARK 927      BINDING AFFINITY PREDICTED BY RF-SCORE:    0.00 PKD
ROOT
HETATM    1  C   UNL     1     -11.784   9.114  71.932  1.00  0.00    -0.366 C  
HETATM    2  N   UNL     1     -10.882   8.048  71.569  1.00  0.00    -0.228 N  
HETATM    3  C   UNL     1      -9.548   8.058  71.819  1.00  0.00    -0.176 C  
HETATM    4  C   UNL     1      -8.923   6.851  71.188  1.00  0.00    -0.143 C  
HETATM    5  O   UNL     1      -8.925   8.900  72.449  1.00  0.00    -0.383 OA 
HETATM    6  C   UNL     1     -10.111   5.960  70.752  1.00  0.00    -0.253 C  
HETATM    7  O   UNL     1     -12.497   6.493  71.072  1.00  0.00    -0.252 OA 
HETATM    8  C   UNL     1     -10.121   4.704  71.647  1.00  0.00    -0.258 C  
HETATM    9  C   UNL     1     -11.318   6.834  71.126  1.00  0.00    -0.296 C  
ENDROOT
BRANCH   6  10
HETATM   10  C   UNL     1     -10.194   5.584  69.263  1.00  0.00    -0.315 A  
HETATM   11  C   UNL     1      -9.597   4.441  68.708  1.00  0.00    -0.224 A  
HETATM   12  C   UNL     1      -9.602   4.217  67.326  1.00  0.00    -0.228 A  
HETATM   13  C   UNL     1     -10.221   5.116  66.467  1.00  0.00    -0.300 A  
HETATM   14  C   UNL     1     -10.858   6.232  66.991  1.00  0.00    -0.458 A  
HETATM   15  C   UNL     1     -10.848   6.460  68.369  1.00  0.00    -0.383 A  
ENDBRANCH   6  10
TORSDOF 1
ENDMDL
MODEL       90
REMARK 921   NORMALIZED FREE ENERGY PREDICTED BY IDOCK:   -3.85 KCAL/MOL
REMARK 922        TOTAL FREE ENERGY PREDICTED BY IDOCK:   -4.38 KCAL/MOL
REMARK 923 INTER-LIGAND FREE ENERGY PREDICTED BY IDOCK:   -4.31 KCAL/MOL
REMARK 924 INTRA-LIGAND FREE ENERGY PREDICTED BY IDOCK:   -0.07 KCAL/MOL
REMARK 927      BINDING AFFINITY PREDICTED BY RF-SCORE:    0.00 PKD
ROOT
HETATM    1  C   UNL     1      -7.850  10.160  69.440  1.00  0.00    -0.150 C  
HETATM    2  N   UNL     1      -8.792   9.075  69.560  1.00  0.00    -0.141 N  
HETATM    3  C   UNL     1      -9.080   8.199  68.564  1.00  0.00    -0.136 C  
HETATM    4  C   UNL     1     -10.190   7.297  69.011  1.00  0.00    -0.197 C  
HETATM    5  O   UNL     1      -8.544   8.131  67.468  1.00  0.00    -0.128 OA 
HETATM    6  C   UNL     1     -10.351   7.572  70.526  1.00  0.00    -0.217 C  
HETATM    7  O   UNL     1      -9.015   9.170  71.844  1.00  0.00    -0.340 OA 
HETATM    8  C   UNL     1      -9.877   6.319  71.292  1.00  0.00    -0.197 C  
HETATM    9  C   UNL     1      -9.331   8.697  70.755  1.00  0.00    -0.191 C  
ENDROOT
BRANCH   6  10
HETATM   10  C   UNL     1     -11.737   8.030  71.011  1.00  0.00    -0.295 A  
HETATM   11  C   UNL     1     -12.046   9.353  71.367  1.00  0.00    -0.442 A  
HETATM   12  C   UNL     1     -13.289   9.684  71.919  1.00  0.00    -0.526 A  
HETATM   13  C   UNL     1     -14.261   8.709  72.109  1.00  0.00    -0.520 A  
HETATM   14  C   UNL     1     -13.999   7.401  71.726  1.00  0.00    -0.469 A  
HETATM   15  C   UNL     1     -12.756   7.068  71.181  1.00  0.00    -0.361 A  
ENDBRANCH   6  10
TORSDOF 1
ENDMDL
MODEL       91
REMARK 921   NORMALIZED FREE ENERGY PREDICTED BY IDOCK:   -3.84 KCAL/MOL
REMARK 922        TOTAL FREE ENERGY PREDICTED BY IDOCK:   -4.37 KCAL/MOL
REMARK 923 INTER-LIGAND FREE ENERGY PREDICTED BY IDOCK:   -4.01 KCAL/MOL
REMARK 924 INTRA-LIGAND FREE ENERGY PREDICTED BY IDOCK:   -0.36 KCAL/MOL
REMARK 927      BINDING AFFINITY PREDICTED BY RF-SCORE:    0.00 PKD
ROOT
HETATM    1  C   UNL     1      -8.683   8.492  68.764  1.00  0.00    -0.139 C  
HETATM    2  N   UNL     1      -8.569   9.291  67.569  1.00  0.00    -0.116 N  
HETATM    3  C   UNL     1      -7.509  10.087  67.280  1.00  0.00    -0.091 C  
HETATM    4  C   UNL     1      -7.801  10.855  66.026  1.00  0.00    -0.121 C  
HETATM    5  O   UNL     1      -6.471  10.188  67.917  1.00  0.00    -0.061 OA 
HETATM    6  C   UNL     1      -9.080  10.207  65.443  1.00  0.00    -0.227 C  
HETATM    7  O   UNL     1     -10.309   8.313  66.432  1.00  0.00    -0.227 OA 
HETATM    8  C   UNL     1      -8.693   9.469  64.145  1.00  0.00    -0.239 C  
HETATM    9  C   UNL     1      -9.425   9.162  66.514  1.00  0.00    -0.208 C  
ENDROOT
BRANCH   6  10
HETATM   10  C   UNL     1     -10.291  11.129  65.218  1.00  0.00    -0.336 A  
HETATM   11  C   UNL     1     -10.989  11.227  64.004  1.00  0.00    -0.377 A  
HETATM   12  C   UNL     1     -12.004  12.174  63.824  1.00  0.00    -0.607 A  
HETATM   13  C   UNL     1     -12.362  13.030  64.858  1.00  0.00    -0.512 A  
HETATM   14  C   UNL     1     -11.721  12.927  66.084  1.00  0.00    -0.451 A  
HETATM   15  C   UNL     1     -10.703  11.986  66.262  1.00  0.00    -0.302 A  
ENDBRANCH   6  10
TORSDOF 1
ENDMDL
MODEL       92
REMARK 921   NORMALIZED FREE ENERGY PREDICTED BY IDOCK:   -3.84 KCAL/MOL
REMARK 922        TOTAL FREE ENERGY PREDICTED BY IDOCK:   -4.37 KCAL/MOL
REMARK 923 INTER-LIGAND FREE ENERGY PREDICTED BY IDOCK:   -4.25 KCAL/MOL
REMARK 924 INTRA-LIGAND FREE ENERGY PREDICTED BY IDOCK:   -0.12 KCAL/MOL
REMARK 927      BINDING AFFINITY PREDICTED BY RF-SCORE:    0.00 PKD
ROOT
HETATM    1  C   UNL     1     -12.277  12.903  65.243  1.00  0.00    -0.476 C  
HETATM    2  N   UNL     1     -11.416  13.104  66.383  1.00  0.00    -0.320 N  
HETATM    3  C   UNL     1     -11.448  12.345  67.507  1.00  0.00    -0.346 C  
HETATM    4  C   UNL     1     -10.506  12.926  68.517  1.00  0.00    -0.260 C  
HETATM    5  O   UNL     1     -12.126  11.346  67.700  1.00  0.00    -0.630 OA 
HETATM    6  C   UNL     1      -9.690  13.991  67.745  1.00  0.00    -0.228 C  
HETATM    7  O   UNL     1      -9.951  14.544  65.356  1.00  0.00    -0.352 OA 
HETATM    8  C   UNL     1      -8.239  13.483  67.620  1.00  0.00    -0.178 C  
HETATM    9  C   UNL     1     -10.343  13.946  66.355  1.00  0.00    -0.289 C  
ENDROOT
BRANCH   6  10
HETATM   10  C   UNL     1      -9.732  15.431  68.284  1.00  0.00    -0.209 A  
HETATM   11  C   UNL     1     -10.571  15.855  69.327  1.00  0.00    -0.252 A  
HETATM   12  C   UNL     1     -10.653  17.204  69.689  1.00  0.00     0.008 A  
HETATM   13  C   UNL     1      -9.885  18.160  69.035  1.00  0.00    -0.259 A  
HETATM   14  C   UNL     1      -9.014  17.764  68.030  1.00  0.00    -0.263 A  
HETATM   15  C   UNL     1      -8.935  16.418  67.663  1.00  0.00    -0.198 A  
ENDBRANCH   6  10
TORSDOF 1
ENDMDL
MODEL       93
REMARK 921   NORMALIZED FREE ENERGY PREDICTED BY IDOCK:   -3.84 KCAL/MOL
REMARK 922        TOTAL FREE ENERGY PREDICTED BY IDOCK:   -4.36 KCAL/MOL
REMARK 923 INTER-LIGAND FREE ENERGY PREDICTED BY IDOCK:   -4.00 KCAL/MOL
REMARK 924 INTRA-LIGAND FREE ENERGY PREDICTED BY IDOCK:   -0.36 KCAL/MOL
REMARK 927      BINDING AFFINITY PREDICTED BY RF-SCORE:    0.00 PKD
ROOT
HETATM    1  C   UNL     1      -7.104   6.433  71.340  1.00  0.00    -0.077 C  
HETATM    2  N   UNL     1      -8.504   6.726  71.153  1.00  0.00    -0.124 N  
HETATM    3  C   UNL     1      -9.444   5.799  70.842  1.00  0.00    -0.165 C  
HETATM    4  C   UNL     1     -10.753   6.488  70.603  1.00  0.00    -0.297 C  
HETATM    5  O   UNL     1      -9.284   4.590  70.760  1.00  0.00    -0.122 OA 
HETATM    6  C   UNL     1     -10.537   7.944  71.081  1.00  0.00    -0.238 C  
HETATM    7  O   UNL     1      -8.448   8.849  72.029  1.00  0.00    -0.367 OA 
HETATM    8  C   UNL     1     -11.380   8.159  72.355  1.00  0.00    -0.456 C  
HETATM    9  C   UNL     1      -9.052   7.933  71.476  1.00  0.00    -0.137 C  
ENDROOT
BRANCH   6  10
HETATM   10  C   UNL     1     -10.784   9.063  70.054  1.00  0.00    -0.247 A  
HETATM   11  C   UNL     1     -11.501  10.238  70.331  1.00  0.00    -0.415 A  
HETATM   12  C   UNL     1     -11.799  11.161  69.322  1.00  0.00    -0.422 A  
HETATM   13  C   UNL     1     -11.372  10.945  68.018  1.00  0.00    -0.382 A  
HETATM   14  C   UNL     1     -10.624   9.815  67.723  1.00  0.00    -0.320 A  
HETATM   15  C   UNL     1     -10.331   8.889  68.729  1.00  0.00    -0.232 A  
ENDBRANCH   6  10
TORSDOF 1
ENDMDL
MODEL       94
REMARK 921   NORMALIZED FREE ENERGY PREDICTED BY IDOCK:   -3.83 KCAL/MOL
REMARK 922        TOTAL FREE ENERGY PREDICTED BY IDOCK:   -4.36 KCAL/MOL
REMARK 923 INTER-LIGAND FREE ENERGY PREDICTED BY IDOCK:   -4.01 KCAL/MOL
REMARK 924 INTRA-LIGAND FREE ENERGY PREDICTED BY IDOCK:   -0.35 KCAL/MOL
REMARK 927      BINDING AFFINITY PREDICTED BY RF-SCORE:    0.00 PKD
ROOT
HETATM    1  C   UNL     1      -8.236   9.183  66.028  1.00  0.00    -0.115 C  
HETATM    2  N   UNL     1      -8.864  10.153  66.891  1.00  0.00    -0.132 N  
HETATM    3  C   UNL     1      -8.308  11.341  67.237  1.00  0.00    -0.145 C  
HETATM    4  C   UNL     1      -9.188  12.020  68.242  1.00  0.00    -0.192 C  
HETATM    5  O   UNL     1      -7.260  11.812  66.818  1.00  0.00    -0.128 OA 
HETATM    6  C   UNL     1     -10.499  11.198  68.254  1.00  0.00    -0.215 C  
HETATM    7  O   UNL     1     -10.957   9.207  66.872  1.00  0.00    -0.063 OA 
HETATM    8  C   UNL     1     -11.614  12.065  67.634  1.00  0.00    -0.392 C  
HETATM    9  C   UNL     1     -10.169  10.058  67.277  1.00  0.00    -0.222 C  
ENDROOT
BRANCH   6  10
HETATM   10  C   UNL     1     -10.941  10.604  69.602  1.00  0.00    -0.331 A  
HETATM   11  C   UNL     1     -10.187   9.675  70.337  1.00  0.00    -0.348 A  
HETATM   12  C   UNL     1     -10.697   9.078  71.495  1.00  0.00    -0.421 A  
HETATM   13  C   UNL     1     -11.964   9.409  71.960  1.00  0.00    -0.345 A  
HETATM   14  C   UNL     1     -12.716  10.356  71.280  1.00  0.00    -0.536 A  
HETATM   15  C   UNL     1     -12.209  10.948  70.120  1.00  0.00    -0.423 A  
ENDBRANCH   6  10
TORSDOF 1
ENDMDL
MODEL       95
REMARK 921   NORMALIZED FREE ENERGY PREDICTED BY IDOCK:   -3.83 KCAL/MOL
REMARK 922        TOTAL FREE ENERGY PREDICTED BY IDOCK:   -4.36 KCAL/MOL
REMARK 923 INTER-LIGAND FREE ENERGY PREDICTED BY IDOCK:   -4.29 KCAL/MOL
REMARK 924 INTRA-LIGAND FREE ENERGY PREDICTED BY IDOCK:   -0.06 KCAL/MOL
REMARK 927      BINDING AFFINITY PREDICTED BY RF-SCORE:    0.00 PKD
ROOT
HETATM    1  C   UNL     1      -7.279   6.971  71.143  1.00  0.00    -0.075 C  
HETATM    2  N   UNL     1      -8.650   6.523  71.140  1.00  0.00    -0.130 N  
HETATM    3  C   UNL     1      -9.152   5.606  70.274  1.00  0.00    -0.143 C  
HETATM    4  C   UNL     1     -10.630   5.488  70.488  1.00  0.00    -0.339 C  
HETATM    5  O   UNL     1      -8.529   4.966  69.440  1.00  0.00    -0.086 OA 
HETATM    6  C   UNL     1     -10.913   6.265  71.797  1.00  0.00    -0.305 C  
HETATM    7  O   UNL     1      -9.225   7.418  73.176  1.00  0.00    -0.146 OA 
HETATM    8  C   UNL     1     -11.315   5.244  72.881  1.00  0.00    -0.368 C  
HETATM    9  C   UNL     1      -9.524   6.822  72.143  1.00  0.00    -0.139 C  
ENDROOT
BRANCH   6  10
HETATM   10  C   UNL     1     -11.925   7.422  71.720  1.00  0.00    -0.338 A  
HETATM   11  C   UNL     1     -11.568   8.779  71.747  1.00  0.00    -0.416 A  
HETATM   12  C   UNL     1     -12.540   9.785  71.798  1.00  0.00    -0.506 A  
HETATM   13  C   UNL     1     -13.891   9.461  71.802  1.00  0.00    -0.357 A  
HETATM   14  C   UNL     1     -14.275   8.130  71.732  1.00  0.00    -0.548 A  
HETATM   15  C   UNL     1     -13.305   7.125  71.687  1.00  0.00    -0.397 A  
ENDBRANCH   6  10
TORSDOF 1
ENDMDL
MODEL       96
REMARK 921   NORMALIZED FREE ENERGY PREDICTED BY IDOCK:   -3.80 KCAL/MOL
REMARK 922        TOTAL FREE ENERGY PREDICTED BY IDOCK:   -4.33 KCAL/MOL
REMARK 923 INTER-LIGAND FREE ENERGY PREDICTED BY IDOCK:   -4.30 KCAL/MOL
REMARK 924 INTRA-LIGAND FREE ENERGY PREDICTED BY IDOCK:   -0.03 KCAL/MOL
REMARK 927      BINDING AFFINITY PREDICTED BY RF-SCORE:    0.00 PKD
ROOT
HETATM    1  C   UNL     1     -10.749  17.239  65.686  1.00  0.00    -0.120 C  
HETATM    2  N   UNL     1      -9.893  17.221  66.846  1.00  0.00    -0.275 N  
HETATM    3  C   UNL     1     -10.296  16.850  68.087  1.00  0.00    -0.336 C  
HETATM    4  C   UNL     1      -9.176  17.080  69.056  1.00  0.00    -0.154 C  
HETATM    5  O   UNL     1     -11.389  16.400  68.401  1.00  0.00    -0.366 OA 
HETATM    6  C   UNL     1      -7.939  17.388  68.179  1.00  0.00    -0.233 C  
HETATM    7  O   UNL     1      -7.909  17.459  65.714  1.00  0.00    -0.526 OA 
HETATM    8  C   UNL     1      -6.958  16.205  68.303  1.00  0.00    -0.126 C  
HETATM    9  C   UNL     1      -8.540  17.377  66.765  1.00  0.00    -0.260 C  
ENDROOT
BRANCH   6  10
HETATM   10  C   UNL     1      -7.226  18.730  68.421  1.00  0.00    -0.304 A  
HETATM   11  C   UNL     1      -7.253  19.807  67.520  1.00  0.00    -0.279 A  
HETATM   12  C   UNL     1      -6.483  20.956  67.739  1.00  0.00    -0.400 A  
HETATM   13  C   UNL     1      -5.685  21.066  68.870  1.00  0.00    -0.329 A  
HETATM   14  C   UNL     1      -5.672  20.036  69.800  1.00  0.00    -0.317 A  
HETATM   15  C   UNL     1      -6.435  18.887  69.580  1.00  0.00    -0.270 A  
ENDBRANCH   6  10
TORSDOF 1
ENDMDL
MODEL       97
REMARK 921   NORMALIZED FREE ENERGY PREDICTED BY IDOCK:   -3.79 KCAL/MOL
REMARK 922        TOTAL FREE ENERGY PREDICTED BY IDOCK:   -4.32 KCAL/MOL
REMARK 923 INTER-LIGAND FREE ENERGY PREDICTED BY IDOCK:   -3.96 KCAL/MOL
REMARK 924 INTRA-LIGAND FREE ENERGY PREDICTED BY IDOCK:   -0.35 KCAL/MOL
REMARK 927      BINDING AFFINITY PREDICTED BY RF-SCORE:    0.00 PKD
ROOT
HETATM    1  C   UNL     1     -13.013  14.245  65.233  1.00  0.00    -0.173 C  
HETATM    2  N   UNL     1     -11.668  13.998  65.691  1.00  0.00    -0.342 N  
HETATM    3  C   UNL     1     -10.606  14.794  65.410  1.00  0.00    -0.378 C  
HETATM    4  C   UNL     1      -9.360  14.155  65.944  1.00  0.00    -0.036 C  
HETATM    5  O   UNL     1     -10.626  15.863  64.818  1.00  0.00    -0.562 OA 
HETATM    6  C   UNL     1      -9.852  12.987  66.832  1.00  0.00    -0.240 C  
HETATM    7  O   UNL     1     -12.208  12.381  67.231  1.00  0.00    -0.478 OA 
HETATM    8  C   UNL     1      -9.540  13.339  68.301  1.00  0.00    -0.221 C  
HETATM    9  C   UNL     1     -11.373  13.050  66.628  1.00  0.00    -0.325 C  
ENDROOT
BRANCH   6  10
HETATM   10  C   UNL     1      -9.346  11.577  66.478  1.00  0.00    -0.210 A  
HETATM   11  C   UNL     1      -9.548  10.960  65.234  1.00  0.00    -0.276 A  
HETATM   12  C   UNL     1      -9.173   9.630  65.013  1.00  0.00    -0.310 A  
HETATM   13  C   UNL     1      -8.567   8.890  66.022  1.00  0.00    -0.162 A  
HETATM   14  C   UNL     1      -8.314   9.488  67.248  1.00  0.00    -0.125 A  
HETATM   15  C   UNL     1      -8.695  10.814  67.471  1.00  0.00    -0.125 A  
ENDBRANCH   6  10
TORSDOF 1
ENDMDL
MODEL       98
REMARK 921   NORMALIZED FREE ENERGY PREDICTED BY IDOCK:   -3.75 KCAL/MOL
REMARK 922        TOTAL FREE ENERGY PREDICTED BY IDOCK:   -4.27 KCAL/MOL
REMARK 923 INTER-LIGAND FREE ENERGY PREDICTED BY IDOCK:   -3.91 KCAL/MOL
REMARK 924 INTRA-LIGAND FREE ENERGY PREDICTED BY IDOCK:   -0.36 KCAL/MOL
REMARK 927      BINDING AFFINITY PREDICTED BY RF-SCORE:    0.00 PKD
ROOT
HETATM    1  C   UNL     1      -6.810   8.573  67.381  1.00  0.00    -0.067 C  
HETATM    2  N   UNL     1      -8.239   8.415  67.493  1.00  0.00    -0.124 N  
HETATM    3  C   UNL     1      -9.145   9.134  66.785  1.00  0.00    -0.144 C  
HETATM    4  C   UNL     1     -10.524   8.786  67.258  1.00  0.00    -0.353 C  
HETATM    5  O   UNL     1      -8.911   9.946  65.901  1.00  0.00    -0.140 OA 
HETATM    6  C   UNL     1     -10.340   7.547  68.167  1.00  0.00    -0.244 C  
HETATM    7  O   UNL     1      -8.194   6.443  68.671  1.00  0.00    -0.118 OA 
HETATM    8  C   UNL     1     -10.964   6.332  67.451  1.00  0.00    -0.447 C  
HETATM    9  C   UNL     1      -8.813   7.379  68.170  1.00  0.00    -0.127 C  
ENDROOT
BRANCH   6  10
HETATM   10  C   UNL     1     -10.845   7.660  69.616  1.00  0.00    -0.195 A  
HETATM   11  C   UNL     1     -11.598   6.668  70.264  1.00  0.00    -0.454 A  
HETATM   12  C   UNL     1     -12.134   6.881  71.539  1.00  0.00    -0.401 A  
HETATM   13  C   UNL     1     -11.915   8.080  72.207  1.00  0.00    -0.412 A  
HETATM   14  C   UNL     1     -11.138   9.061  71.609  1.00  0.00    -0.433 A  
HETATM   15  C   UNL     1     -10.607   8.852  70.334  1.00  0.00    -0.252 A  
ENDBRANCH   6  10
TORSDOF 1
ENDMDL
MODEL       99
REMARK 921   NORMALIZED FREE ENERGY PREDICTED BY IDOCK:   -3.72 KCAL/MOL
REMARK 922        TOTAL FREE ENERGY PREDICTED BY IDOCK:   -4.24 KCAL/MOL
REMARK 923 INTER-LIGAND FREE ENERGY PREDICTED BY IDOCK:   -3.98 KCAL/MOL
REMARK 924 INTRA-LIGAND FREE ENERGY PREDICTED BY IDOCK:   -0.27 KCAL/MOL
REMARK 927      BINDING AFFINITY PREDICTED BY RF-SCORE:    0.00 PKD
ROOT
HETATM    1  C   UNL     1     -10.681   6.181  73.282  1.00  0.00    -0.260 C  
HETATM    2  N   UNL     1     -10.193   6.798  72.073  1.00  0.00    -0.191 N  
HETATM    3  C   UNL     1      -8.880   6.937  71.763  1.00  0.00    -0.131 C  
HETATM    4  C   UNL     1      -8.756   7.734  70.500  1.00  0.00    -0.140 C  
HETATM    5  O   UNL     1      -7.927   6.499  72.391  1.00  0.00    -0.101 OA 
HETATM    6  C   UNL     1     -10.195   7.826  69.937  1.00  0.00    -0.213 C  
HETATM    7  O   UNL     1     -12.205   6.836  70.966  1.00  0.00    -0.377 OA 
HETATM    8  C   UNL     1     -10.260   6.980  68.648  1.00  0.00    -0.182 C  
HETATM    9  C   UNL     1     -11.010   7.114  71.027  1.00  0.00    -0.252 C  
ENDROOT
BRANCH   6  10
HETATM   10  C   UNL     1     -10.769   9.235  69.707  1.00  0.00    -0.245 A  
HETATM   11  C   UNL     1     -11.323  10.032  70.722  1.00  0.00    -0.439 A  
HETATM   12  C   UNL     1     -11.940  11.253  70.430  1.00  0.00    -0.471 A  
HETATM   13  C   UNL     1     -12.000  11.720  69.122  1.00  0.00    -0.356 A  
HETATM   14  C   UNL     1     -11.422  10.975  68.105  1.00  0.00    -0.374 A  
HETATM   15  C   UNL     1     -10.811   9.752  68.394  1.00  0.00    -0.244 A  
ENDBRANCH   6  10
TORSDOF 1
ENDMDL
MODEL      100
REMARK 921   NORMALIZED FREE ENERGY PREDICTED BY IDOCK:   -3.72 KCAL/MOL
REMARK 922        TOTAL FREE ENERGY PREDICTED BY IDOCK:   -4.24 KCAL/MOL
REMARK 923 INTER-LIGAND FREE ENERGY PREDICTED BY IDOCK:   -4.18 KCAL/MOL
REMARK 924 INTRA-LIGAND FREE ENERGY PREDICTED BY IDOCK:   -0.06 KCAL/MOL
REMARK 927      BINDING AFFINITY PREDICTED BY RF-SCORE:    0.00 PKD
ROOT
HETATM    1  C   UNL     1     -11.974  15.900  71.929  1.00  0.00    -0.504 C  
HETATM    2  N   UNL     1     -11.820  14.970  70.838  1.00  0.00    -0.301 N  
HETATM    3  C   UNL     1     -12.387  13.738  70.797  1.00  0.00    -0.379 C  
HETATM    4  C   UNL     1     -11.903  13.016  69.577  1.00  0.00    -0.385 C  
HETATM    5  O   UNL     1     -13.167  13.262  71.609  1.00  0.00    -0.383 OA 
HETATM    6  C   UNL     1     -11.171  14.089  68.734  1.00  0.00    -0.298 C  
HETATM    7  O   UNL     1     -10.911  16.463  69.347  1.00  0.00    -0.312 OA 
HETATM    8  C   UNL     1     -12.010  14.356  67.468  1.00  0.00    -0.389 C  
HETATM    9  C   UNL     1     -11.258  15.323  69.645  1.00  0.00    -0.278 C  
ENDROOT
BRANCH   6  10
HETATM   10  C   UNL     1      -9.699  13.817  68.380  1.00  0.00    -0.219 A  
HETATM   11  C   UNL     1      -8.831  14.780  67.841  1.00  0.00    -0.167 A  
HETATM   12  C   UNL     1      -7.539  14.440  67.424  1.00  0.00    -0.196 A  
HETATM   13  C   UNL     1      -7.074  13.136  67.554  1.00  0.00    -0.156 A  
HETATM   14  C   UNL     1      -7.894  12.173  68.123  1.00  0.00    -0.147 A  
HETATM   15  C   UNL     1      -9.187  12.510  68.534  1.00  0.00    -0.071 A  
ENDBRANCH   6  10
TORSDOF 1
ENDMDL
MODEL      101
REMARK 921   NORMALIZED FREE ENERGY PREDICTED BY IDOCK:   -3.72 KCAL/MOL
REMARK 922        TOTAL FREE ENERGY PREDICTED BY IDOCK:   -4.24 KCAL/MOL
REMARK 923 INTER-LIGAND FREE ENERGY PREDICTED BY IDOCK:   -3.96 KCAL/MOL
REMARK 924 INTRA-LIGAND FREE ENERGY PREDICTED BY IDOCK:   -0.28 KCAL/MOL
REMARK 927      BINDING AFFINITY PREDICTED BY RF-SCORE:    0.00 PKD
ROOT
HETATM    1  C   UNL     1      -8.814  11.923  67.185  1.00  0.00    -0.180 C  
HETATM    2  N   UNL     1      -9.416  10.666  67.553  1.00  0.00    -0.153 N  
HETATM    3  C   UNL     1     -10.008   9.817  66.676  1.00  0.00    -0.229 C  
HETATM    4  C   UNL     1     -10.630   8.683  67.434  1.00  0.00    -0.298 C  
HETATM    5  O   UNL     1     -10.050   9.929  65.459  1.00  0.00    -0.303 OA 
HETATM    6  C   UNL     1     -10.093   8.821  68.880  1.00  0.00    -0.210 C  
HETATM    7  O   UNL     1      -8.544  10.566  69.676  1.00  0.00    -0.107 OA 
HETATM    8  C   UNL     1      -9.136   7.642  69.150  1.00  0.00    -0.141 C  
HETATM    9  C   UNL     1      -9.264  10.111  68.790  1.00  0.00    -0.164 C  
ENDROOT
BRANCH   6  10
HETATM   10  C   UNL     1     -11.136   8.960  70.003  1.00  0.00    -0.180 A  
HETATM   11  C   UNL     1     -11.807  10.155  70.308  1.00  0.00    -0.342 A  
HETATM   12  C   UNL     1     -12.653  10.249  71.419  1.00  0.00    -0.539 A  
HETATM   13  C   UNL     1     -12.865   9.150  72.241  1.00  0.00    -0.472 A  
HETATM   14  C   UNL     1     -12.249   7.943  71.940  1.00  0.00    -0.351 A  
HETATM   15  C   UNL     1     -11.400   7.849  70.834  1.00  0.00    -0.290 A  
ENDBRANCH   6  10
TORSDOF 1
ENDMDL
MODEL      102
REMARK 921   NORMALIZED FREE ENERGY PREDICTED BY IDOCK:   -3.68 KCAL/MOL
REMARK 922        TOTAL FREE ENERGY PREDICTED BY IDOCK:   -4.20 KCAL/MOL
REMARK 923 INTER-LIGAND FREE ENERGY PREDICTED BY IDOCK:   -3.86 KCAL/MOL
REMARK 924 INTRA-LIGAND FREE ENERGY PREDICTED BY IDOCK:   -0.34 KCAL/MOL
REMARK 927      BINDING AFFINITY PREDICTED BY RF-SCORE:    0.00 PKD
ROOT
HETATM    1  C   UNL     1      -9.754   8.222  67.787  1.00  0.00    -0.158 C  
HETATM    2  N   UNL     1     -10.273   8.141  69.130  1.00  0.00    -0.210 N  
HETATM    3  C   UNL     1     -10.304   9.181  70.001  1.00  0.00    -0.207 C  
HETATM    4  C   UNL     1     -10.790   8.692  71.332  1.00  0.00    -0.339 C  
HETATM    5  O   UNL     1      -9.990  10.340  69.773  1.00  0.00    -0.230 OA 
HETATM    6  C   UNL     1     -11.312   7.258  71.070  1.00  0.00    -0.301 C  
HETATM    7  O   UNL     1     -11.309   6.106  68.890  1.00  0.00    -0.367 OA 
HETATM    8  C   UNL     1     -12.846   7.272  71.226  1.00  0.00    -0.391 C  
HETATM    9  C   UNL     1     -10.975   7.063  69.584  1.00  0.00    -0.236 C  
ENDROOT
BRANCH   6  10
HETATM   10  C   UNL     1     -10.679   6.122  71.891  1.00  0.00    -0.277 A  
HETATM   11  C   UNL     1      -9.333   5.735  71.790  1.00  0.00    -0.163 A  
HETATM   12  C   UNL     1      -8.846   4.614  72.473  1.00  0.00    -0.126 A  
HETATM   13  C   UNL     1      -9.685   3.864  73.288  1.00  0.00    -0.151 A  
HETATM   14  C   UNL     1     -11.009   4.248  73.442  1.00  0.00    -0.366 A  
HETATM   15  C   UNL     1     -11.498   5.363  72.757  1.00  0.00    -0.333 A  
ENDBRANCH   6  10
TORSDOF 1
ENDMDL
MODEL      103
REMARK 921   NORMALIZED FREE ENERGY PREDICTED BY IDOCK:   -3.67 KCAL/MOL
REMARK 922        TOTAL FREE ENERGY PREDICTED BY IDOCK:   -4.19 KCAL/MOL
REMARK 923 INTER-LIGAND FREE ENERGY PREDICTED BY IDOCK:   -3.84 KCAL/MOL
REMARK 924 INTRA-LIGAND FREE ENERGY PREDICTED BY IDOCK:   -0.35 KCAL/MOL
REMARK 927      BINDING AFFINITY PREDICTED BY RF-SCORE:    0.00 PKD
ROOT
HETATM    1  C   UNL     1      -9.587  10.507  65.132  1.00  0.00    -0.260 C  
HETATM    2  N   UNL     1      -9.871  10.978  66.465  1.00  0.00    -0.197 N  
HETATM    3  C   UNL     1      -9.785  12.275  66.852  1.00  0.00    -0.212 C  
HETATM    4  C   UNL     1     -10.028  12.364  68.329  1.00  0.00    -0.224 C  
HETATM    5  O   UNL     1      -9.546  13.240  66.140  1.00  0.00    -0.264 OA 
HETATM    6  C   UNL     1     -10.547  10.964  68.738  1.00  0.00    -0.231 C  
HETATM    7  O   UNL     1     -10.877   9.054  67.215  1.00  0.00    -0.223 OA 
HETATM    8  C   UNL     1     -12.034  11.100  69.126  1.00  0.00    -0.413 C  
HETATM    9  C   UNL     1     -10.458  10.191  67.413  1.00  0.00    -0.256 C  
ENDROOT
BRANCH   6  10
HETATM   10  C   UNL     1      -9.755  10.214  69.823  1.00  0.00    -0.232 A  
HETATM   11  C   UNL     1      -8.366  10.013  69.783  1.00  0.00    -0.187 A  
HETATM   12  C   UNL     1      -7.720   9.216  70.735  1.00  0.00    -0.162 A  
HETATM   13  C   UNL     1      -8.440   8.618  71.762  1.00  0.00    -0.221 A  
HETATM   14  C   UNL     1      -9.808   8.835  71.853  1.00  0.00    -0.395 A  
HETATM   15  C   UNL     1     -10.455   9.625  70.899  1.00  0.00    -0.359 A  
ENDBRANCH   6  10
TORSDOF 1
ENDMDL
MODEL      104
REMARK 921   NORMALIZED FREE ENERGY PREDICTED BY IDOCK:   -3.67 KCAL/MOL
REMARK 922        TOTAL FREE ENERGY PREDICTED BY IDOCK:   -4.19 KCAL/MOL
REMARK 923 INTER-LIGAND FREE ENERGY PREDICTED BY IDOCK:   -3.90 KCAL/MOL
REMARK 924 INTRA-LIGAND FREE ENERGY PREDICTED BY IDOCK:   -0.28 KCAL/MOL
REMARK 927      BINDING AFFINITY PREDICTED BY RF-SCORE:    0.00 PKD
ROOT
HETATM    1  C   UNL     1      -7.332  17.629  68.145  1.00  0.00    -0.228 C  
HETATM    2  N   UNL     1      -7.877  16.324  67.867  1.00  0.00    -0.143 N  
HETATM    3  C   UNL     1      -7.129  15.217  67.633  1.00  0.00    -0.186 C  
HETATM    4  C   UNL     1      -8.034  14.083  67.258  1.00  0.00    -0.157 C  
HETATM    5  O   UNL     1      -5.912  15.125  67.704  1.00  0.00    -0.230 OA 
HETATM    6  C   UNL     1      -9.464  14.588  67.565  1.00  0.00    -0.203 C  
HETATM    7  O   UNL     1     -10.038  16.804  68.480  1.00  0.00    -0.251 OA 
HETATM    8  C   UNL     1     -10.006  13.788  68.767  1.00  0.00    -0.117 C  
HETATM    9  C   UNL     1      -9.202  16.032  68.018  1.00  0.00    -0.193 C  
ENDROOT
BRANCH   6  10
HETATM   10  C   UNL     1     -10.470  14.592  66.400  1.00  0.00    -0.295 A  
HETATM   11  C   UNL     1     -10.499  15.568  65.391  1.00  0.00    -0.429 A  
HETATM   12  C   UNL     1     -11.514  15.587  64.428  1.00  0.00    -0.264 A  
HETATM   13  C   UNL     1     -12.514  14.622  64.436  1.00  0.00    -0.312 A  
HETATM   14  C   UNL     1     -12.487  13.619  65.395  1.00  0.00    -0.537 A  
HETATM   15  C   UNL     1     -11.476  13.602  66.360  1.00  0.00    -0.358 A  
ENDBRANCH   6  10
TORSDOF 1
ENDMDL
MODEL      105
REMARK 921   NORMALIZED FREE ENERGY PREDICTED BY IDOCK:   -3.66 KCAL/MOL
REMARK 922        TOTAL FREE ENERGY PREDICTED BY IDOCK:   -4.17 KCAL/MOL
REMARK 923 INTER-LIGAND FREE ENERGY PREDICTED BY IDOCK:   -3.84 KCAL/MOL
REMARK 924 INTRA-LIGAND FREE ENERGY PREDICTED BY IDOCK:   -0.34 KCAL/MOL
REMARK 927      BINDING AFFINITY PREDICTED BY RF-SCORE:    0.00 PKD
ROOT
HETATM    1  C   UNL     1     -10.385  15.447  69.962  1.00  0.00    -0.272 C  
HETATM    2  N   UNL     1      -9.295  15.878  69.121  1.00  0.00    -0.238 N  
HETATM    3  C   UNL     1      -8.424  15.038  68.509  1.00  0.00    -0.163 C  
HETATM    4  C   UNL     1      -7.358  15.845  67.831  1.00  0.00    -0.148 C  
HETATM    5  O   UNL     1      -8.468  13.816  68.496  1.00  0.00    -0.160 OA 
HETATM    6  C   UNL     1      -7.861  17.308  67.887  1.00  0.00    -0.197 C  
HETATM    7  O   UNL     1      -9.982  18.059  68.896  1.00  0.00    -0.370 OA 
HETATM    8  C   UNL     1      -8.219  17.746  66.452  1.00  0.00    -0.290 C  
HETATM    9  C   UNL     1      -9.162  17.166  68.692  1.00  0.00    -0.263 C  
ENDROOT
BRANCH   6  10
HETATM   10  C   UNL     1      -6.945  18.337  68.572  1.00  0.00    -0.261 A  
HETATM   11  C   UNL     1      -6.138  18.052  69.685  1.00  0.00    -0.233 A  
HETATM   12  C   UNL     1      -5.421  19.060  70.339  1.00  0.00    -0.245 A  
HETATM   13  C   UNL     1      -5.475  20.373  69.886  1.00  0.00    -0.350 A  
HETATM   14  C   UNL     1      -6.229  20.677  68.762  1.00  0.00    -0.327 A  
HETATM   15  C   UNL     1      -6.950  19.672  68.112  1.00  0.00    -0.319 A  
ENDBRANCH   6  10
TORSDOF 1
ENDMDL
MODEL      106
REMARK 921   NORMALIZED FREE ENERGY PREDICTED BY IDOCK:   -3.65 KCAL/MOL
REMARK 922        TOTAL FREE ENERGY PREDICTED BY IDOCK:   -4.17 KCAL/MOL
REMARK 923 INTER-LIGAND FREE ENERGY PREDICTED BY IDOCK:   -3.88 KCAL/MOL
REMARK 924 INTRA-LIGAND FREE ENERGY PREDICTED BY IDOCK:   -0.29 KCAL/MOL
REMARK 927      BINDING AFFINITY PREDICTED BY RF-SCORE:    0.00 PKD
ROOT
HETATM    1  C   UNL     1     -11.682  15.006  73.428  1.00  0.00    -0.116 C  
HETATM    2  N   UNL     1     -12.157  15.031  72.066  1.00  0.00    -0.361 N  
HETATM    3  C   UNL     1     -13.433  15.320  71.707  1.00  0.00    -0.463 C  
HETATM    4  C   UNL     1     -13.583  15.125  70.229  1.00  0.00     0.312 C  
HETATM    5  O   UNL     1     -14.339  15.681  72.444  1.00  0.00    -0.546 OA 
HETATM    6  C   UNL     1     -12.141  14.940  69.697  1.00  0.00    -0.334 C  
HETATM    7  O   UNL     1     -10.090  14.978  71.065  1.00  0.00     0.464 OA 
HETATM    8  C   UNL     1     -11.778  16.181  68.856  1.00  0.00    -0.250 C  
HETATM    9  C   UNL     1     -11.317  14.972  70.993  1.00  0.00    -0.273 C  
ENDROOT
BRANCH   6  10
HETATM   10  C   UNL     1     -11.839  13.640  68.931  1.00  0.00    -0.402 A  
HETATM   11  C   UNL     1     -11.651  13.574  67.541  1.00  0.00    -0.385 A  
HETATM   12  C   UNL     1     -11.502  12.346  66.886  1.00  0.00    -0.423 A  
HETATM   13  C   UNL     1     -11.516  11.157  67.603  1.00  0.00    -0.328 A  
HETATM   14  C   UNL     1     -11.656  11.193  68.983  1.00  0.00    -0.392 A  
HETATM   15  C   UNL     1     -11.811  12.418  69.637  1.00  0.00    -0.380 A  
ENDBRANCH   6  10
TORSDOF 1
ENDMDL
MODEL      107
REMARK 921   NORMALIZED FREE ENERGY PREDICTED BY IDOCK:   -3.61 KCAL/MOL
REMARK 922        TOTAL FREE ENERGY PREDICTED BY IDOCK:   -4.13 KCAL/MOL
REMARK 923 INTER-LIGAND FREE ENERGY PREDICTED BY IDOCK:   -3.80 KCAL/MOL
REMARK 924 INTRA-LIGAND FREE ENERGY PREDICTED BY IDOCK:   -0.33 KCAL/MOL
REMARK 927      BINDING AFFINITY PREDICTED BY RF-SCORE:    0.00 PKD
ROOT
HETATM    1  C   UNL     1     -11.417  10.452  70.309  1.00  0.00    -0.325 C  
HETATM    2  N   UNL     1     -10.895  10.183  68.992  1.00  0.00    -0.215 N  
HETATM    3  C   UNL     1     -11.260  10.856  67.872  1.00  0.00    -0.321 C  
HETATM    4  C   UNL     1     -10.610  10.218  66.682  1.00  0.00    -0.232 C  
HETATM    5  O   UNL     1     -12.000  11.827  67.808  1.00  0.00    -0.586 OA 
HETATM    6  C   UNL     1      -9.577   9.226  67.269  1.00  0.00    -0.200 C  
HETATM    7  O   UNL     1      -9.153   8.845  69.667  1.00  0.00    -0.144 OA 
HETATM    8  C   UNL     1      -8.166   9.765  66.955  1.00  0.00    -0.117 C  
HETATM    9  C   UNL     1      -9.826   9.362  68.778  1.00  0.00    -0.163 C  
ENDROOT
BRANCH   6  10
HETATM   10  C   UNL     1      -9.713   7.750  66.858  1.00  0.00    -0.282 A  
HETATM   11  C   UNL     1     -10.751   6.908  67.288  1.00  0.00    -0.421 A  
HETATM   12  C   UNL     1     -10.752   5.542  66.981  1.00  0.00    -0.286 A  
HETATM   13  C   UNL     1      -9.731   4.988  66.220  1.00  0.00    -0.195 A  
HETATM   14  C   UNL     1      -8.715   5.804  65.744  1.00  0.00    -0.152 A  
HETATM   15  C   UNL     1      -8.709   7.166  66.055  1.00  0.00    -0.162 A  
ENDBRANCH   6  10
TORSDOF 1
ENDMDL
MODEL      108
REMARK 921   NORMALIZED FREE ENERGY PREDICTED BY IDOCK:   -3.61 KCAL/MOL
REMARK 922        TOTAL FREE ENERGY PREDICTED BY IDOCK:   -4.12 KCAL/MOL
REMARK 923 INTER-LIGAND FREE ENERGY PREDICTED BY IDOCK:   -3.78 KCAL/MOL
REMARK 924 INTRA-LIGAND FREE ENERGY PREDICTED BY IDOCK:   -0.34 KCAL/MOL
REMARK 927      BINDING AFFINITY PREDICTED BY RF-SCORE:    0.00 PKD
ROOT
HETATM    1  C   UNL     1     -12.286  15.195  69.664  1.00  0.00    -0.207 C  
HETATM    2  N   UNL     1     -11.541  15.113  68.432  1.00  0.00    -0.332 N  
HETATM    3  C   UNL     1     -11.730  14.159  67.486  1.00  0.00    -0.386 C  
HETATM    4  C   UNL     1     -10.695  14.318  66.415  1.00  0.00    -0.297 C  
HETATM    5  O   UNL     1     -12.593  13.293  67.479  1.00  0.00     0.047 OA 
HETATM    6  C   UNL     1     -10.017  15.679  66.706  1.00  0.00    -0.258 C  
HETATM    7  O   UNL     1     -10.588  17.199  68.562  1.00  0.00    -0.345 OA 
HETATM    8  C   UNL     1     -10.414  16.661  65.585  1.00  0.00    -0.313 C  
HETATM    9  C   UNL     1     -10.716  16.112  68.004  1.00  0.00    -0.321 C  
ENDROOT
BRANCH   6  10
HETATM   10  C   UNL     1      -8.494  15.670  66.924  1.00  0.00    -0.286 A  
HETATM   11  C   UNL     1      -7.803  14.647  67.594  1.00  0.00    -0.196 A  
HETATM   12  C   UNL     1      -6.435  14.755  67.869  1.00  0.00    -0.176 A  
HETATM   13  C   UNL     1      -5.719  15.875  67.465  1.00  0.00    -0.139 A  
HETATM   14  C   UNL     1      -6.366  16.881  66.762  1.00  0.00    -0.239 A  
HETATM   15  C   UNL     1      -7.733  16.778  66.492  1.00  0.00    -0.334 A  
ENDBRANCH   6  10
TORSDOF 1
ENDMDL
MODEL      109
REMARK 921   NORMALIZED FREE ENERGY PREDICTED BY IDOCK:   -3.60 KCAL/MOL
REMARK 922        TOTAL FREE ENERGY PREDICTED BY IDOCK:   -4.12 KCAL/MOL
REMARK 923 INTER-LIGAND FREE ENERGY PREDICTED BY IDOCK:   -3.79 KCAL/MOL
REMARK 924 INTRA-LIGAND FREE ENERGY PREDICTED BY IDOCK:   -0.33 KCAL/MOL
REMARK 927      BINDING AFFINITY PREDICTED BY RF-SCORE:    0.00 PKD
ROOT
HETATM    1  C   UNL     1      -7.012  10.766  66.745  1.00  0.00    -0.119 C  
HETATM    2  N   UNL     1      -8.383  10.343  66.888  1.00  0.00    -0.123 N  
HETATM    3  C   UNL     1      -9.360  10.598  65.982  1.00  0.00    -0.186 C  
HETATM    4  C   UNL     1     -10.671  10.119  66.528  1.00  0.00    -0.118 C  
HETATM    5  O   UNL     1      -9.229  11.131  64.891  1.00  0.00    -0.209 OA 
HETATM    6  C   UNL     1     -10.309   9.287  67.782  1.00  0.00    -0.292 C  
HETATM    7  O   UNL     1      -8.028   8.884  68.626  1.00  0.00    -0.100 OA 
HETATM    8  C   UNL     1     -10.616   7.806  67.478  1.00  0.00    -0.319 C  
HETATM    9  C   UNL     1      -8.784   9.464  67.851  1.00  0.00    -0.120 C  
ENDROOT
BRANCH   6  10
HETATM   10  C   UNL     1     -10.936   9.723  69.117  1.00  0.00    -0.205 A  
HETATM   11  C   UNL     1     -11.104   8.872  70.221  1.00  0.00    -0.251 A  
HETATM   12  C   UNL     1     -11.794   9.293  71.364  1.00  0.00    -0.428 A  
HETATM   13  C   UNL     1     -12.313  10.579  71.442  1.00  0.00    -0.477 A  
HETATM   14  C   UNL     1     -12.124  11.457  70.385  1.00  0.00    -0.473 A  
HETATM   15  C   UNL     1     -11.441  11.036  69.240  1.00  0.00    -0.370 A  
ENDBRANCH   6  10
TORSDOF 1
ENDMDL
MODEL      110
REMARK 921   NORMALIZED FREE ENERGY PREDICTED BY IDOCK:   -3.59 KCAL/MOL
REMARK 922        TOTAL FREE ENERGY PREDICTED BY IDOCK:   -4.11 KCAL/MOL
REMARK 923 INTER-LIGAND FREE ENERGY PREDICTED BY IDOCK:   -3.84 KCAL/MOL
REMARK 924 INTRA-LIGAND FREE ENERGY PREDICTED BY IDOCK:   -0.27 KCAL/MOL
REMARK 927      BINDING AFFINITY PREDICTED BY RF-SCORE:    0.00 PKD
ROOT
HETATM    1  C   UNL     1      -8.078  10.959  67.747  1.00  0.00    -0.115 C  
HETATM    2  N   UNL     1      -9.322  11.686  67.796  1.00  0.00    -0.173 N  
HETATM    3  C   UNL     1     -10.548  11.107  67.747  1.00  0.00    -0.209 C  
HETATM    4  C   UNL     1     -11.595  12.179  67.693  1.00  0.00    -0.413 C  
HETATM    5  O   UNL     1     -10.796   9.910  67.742  1.00  0.00    -0.268 OA 
HETATM    6  C   UNL     1     -10.841  13.497  67.994  1.00  0.00    -0.266 C  
HETATM    7  O   UNL     1      -8.427  13.696  68.458  1.00  0.00    -0.161 OA 
HETATM    8  C   UNL     1     -11.297  14.004  69.378  1.00  0.00    -0.317 C  
HETATM    9  C   UNL     1      -9.387  13.013  68.108  1.00  0.00    -0.217 C  
ENDROOT
BRANCH   6  10
HETATM   10  C   UNL     1     -10.928  14.611  66.937  1.00  0.00    -0.324 A  
HETATM   11  C   UNL     1     -11.218  14.386  65.582  1.00  0.00    -0.323 A  
HETATM   12  C   UNL     1     -11.162  15.425  64.645  1.00  0.00    -0.374 A  
HETATM   13  C   UNL     1     -10.835  16.716  65.041  1.00  0.00    -0.190 A  
HETATM   14  C   UNL     1     -10.586  16.977  66.380  1.00  0.00    -0.172 A  
HETATM   15  C   UNL     1     -10.636  15.940  67.315  1.00  0.00    -0.314 A  
ENDBRANCH   6  10
TORSDOF 1
ENDMDL
MODEL      111
REMARK 921   NORMALIZED FREE ENERGY PREDICTED BY IDOCK:   -3.56 KCAL/MOL
REMARK 922        TOTAL FREE ENERGY PREDICTED BY IDOCK:   -4.07 KCAL/MOL
REMARK 923 INTER-LIGAND FREE ENERGY PREDICTED BY IDOCK:   -3.86 KCAL/MOL
REMARK 924 INTRA-LIGAND FREE ENERGY PREDICTED BY IDOCK:   -0.21 KCAL/MOL
REMARK 927      BINDING AFFINITY PREDICTED BY RF-SCORE:    0.00 PKD
ROOT
HETATM    1  C   UNL     1     -10.007   5.045  69.451  1.00  0.00    -0.220 C  
HETATM    2  N   UNL     1      -9.740   6.197  70.275  1.00  0.00    -0.163 N  
HETATM    3  C   UNL     1      -9.417   6.137  71.591  1.00  0.00    -0.148 C  
HETATM    4  C   UNL     1      -9.338   7.529  72.141  1.00  0.00    -0.176 C  
HETATM    5  O   UNL     1      -9.218   5.129  72.253  1.00  0.00    -0.137 OA 
HETATM    6  C   UNL     1      -9.390   8.457  70.903  1.00  0.00    -0.201 C  
HETATM    7  O   UNL     1      -9.563   7.713  68.558  1.00  0.00    -0.146 OA 
HETATM    8  C   UNL     1      -8.008   9.121  70.744  1.00  0.00    -0.192 C  
HETATM    9  C   UNL     1      -9.581   7.450  69.758  1.00  0.00    -0.163 C  
ENDROOT
BRANCH   6  10
HETATM   10  C   UNL     1     -10.519   9.502  70.859  1.00  0.00    -0.382 A  
HETATM   11  C   UNL     1     -11.661   9.459  71.673  1.00  0.00    -0.468 A  
HETATM   12  C   UNL     1     -12.711  10.369  71.501  1.00  0.00    -0.564 A  
HETATM   13  C   UNL     1     -12.637  11.356  70.526  1.00  0.00    -0.309 A  
HETATM   14  C   UNL     1     -11.501  11.451  69.735  1.00  0.00    -0.376 A  
HETATM   15  C   UNL     1     -10.455  10.540  69.903  1.00  0.00    -0.213 A  
ENDBRANCH   6  10
TORSDOF 1
ENDMDL
MODEL      112
REMARK 921   NORMALIZED FREE ENERGY PREDICTED BY IDOCK:   -3.52 KCAL/MOL
REMARK 922        TOTAL FREE ENERGY PREDICTED BY IDOCK:   -4.03 KCAL/MOL
REMARK 923 INTER-LIGAND FREE ENERGY PREDICTED BY IDOCK:   -3.99 KCAL/MOL
REMARK 924 INTRA-LIGAND FREE ENERGY PREDICTED BY IDOCK:   -0.03 KCAL/MOL
REMARK 927      BINDING AFFINITY PREDICTED BY RF-SCORE:    0.00 PKD
ROOT
HETATM    1  C   UNL     1      -8.024  10.320  66.378  1.00  0.00    -0.121 C  
HETATM    2  N   UNL     1      -8.676  11.487  66.919  1.00  0.00    -0.174 N  
HETATM    3  C   UNL     1      -8.044  12.653  67.205  1.00  0.00    -0.178 C  
HETATM    4  C   UNL     1      -9.012  13.586  67.866  1.00  0.00    -0.200 C  
HETATM    5  O   UNL     1      -6.875  12.929  66.977  1.00  0.00    -0.051 OA 
HETATM    6  C   UNL     1     -10.399  12.921  67.693  1.00  0.00    -0.218 C  
HETATM    7  O   UNL     1     -10.830  10.778  66.552  1.00  0.00    -0.218 OA 
HETATM    8  C   UNL     1     -11.221  13.778  66.709  1.00  0.00    -0.327 C  
HETATM    9  C   UNL     1     -10.034  11.599  67.000  1.00  0.00    -0.204 C  
ENDROOT
BRANCH   6  10
HETATM   10  C   UNL     1     -11.197  12.624  68.974  1.00  0.00    -0.322 A  
HETATM   11  C   UNL     1     -11.422  11.332  69.477  1.00  0.00    -0.376 A  
HETATM   12  C   UNL     1     -12.260  11.117  70.577  1.00  0.00    -0.475 A  
HETATM   13  C   UNL     1     -12.877  12.187  71.215  1.00  0.00    -0.349 A  
HETATM   14  C   UNL     1     -12.638  13.478  70.768  1.00  0.00    -0.382 A  
HETATM   15  C   UNL     1     -11.806  13.693  69.666  1.00  0.00    -0.396 A  
ENDBRANCH   6  10
TORSDOF 1
ENDMDL
MODEL      113
REMARK 921   NORMALIZED FREE ENERGY PREDICTED BY IDOCK:   -3.51 KCAL/MOL
REMARK 922        TOTAL FREE ENERGY PREDICTED BY IDOCK:   -4.02 KCAL/MOL
REMARK 923 INTER-LIGAND FREE ENERGY PREDICTED BY IDOCK:   -4.25 KCAL/MOL
REMARK 924 INTRA-LIGAND FREE ENERGY PREDICTED BY IDOCK:    0.22 KCAL/MOL
REMARK 927      BINDING AFFINITY PREDICTED BY RF-SCORE:    0.00 PKD
ROOT
HETATM    1  C   UNL     1      -9.523   9.403  66.386  1.00  0.00    -0.201 C  
HETATM    2  N   UNL     1      -9.577   8.890  67.732  1.00  0.00    -0.144 N  
HETATM    3  C   UNL     1      -9.468   7.576  68.054  1.00  0.00    -0.142 C  
HETATM    4  C   UNL     1      -9.699   7.411  69.525  1.00  0.00    -0.159 C  
HETATM    5  O   UNL     1      -9.226   6.651  67.292  1.00  0.00    -0.122 OA 
HETATM    6  C   UNL     1      -9.692   8.849  70.100  1.00  0.00    -0.199 C  
HETATM    7  O   UNL     1      -9.360  10.914  68.796  1.00  0.00    -0.179 OA 
HETATM    8  C   UNL     1      -8.422   9.013  70.960  1.00  0.00    -0.254 C  
HETATM    9  C   UNL     1      -9.533   9.698  68.830  1.00  0.00    -0.157 C  
ENDROOT
BRANCH   6  10
HETATM   10  C   UNL     1     -10.946   9.302  70.867  1.00  0.00    -0.368 A  
HETATM   11  C   UNL     1     -11.585   8.533  71.852  1.00  0.00    -0.410 A  
HETATM   12  C   UNL     1     -12.793   8.946  72.425  1.00  0.00    -0.446 A  
HETATM   13  C   UNL     1     -13.382  10.146  72.046  1.00  0.00    -0.492 A  
HETATM   14  C   UNL     1     -12.751  10.949  71.107  1.00  0.00    -0.530 A  
HETATM   15  C   UNL     1     -11.548  10.534  70.529  1.00  0.00    -0.441 A  
ENDBRANCH   6  10
TORSDOF 1
ENDMDL
MODEL      114
REMARK 921   NORMALIZED FREE ENERGY PREDICTED BY IDOCK:   -3.50 KCAL/MOL
REMARK 922        TOTAL FREE ENERGY PREDICTED BY IDOCK:   -4.01 KCAL/MOL
REMARK 923 INTER-LIGAND FREE ENERGY PREDICTED BY IDOCK:   -3.65 KCAL/MOL
REMARK 924 INTRA-LIGAND FREE ENERGY PREDICTED BY IDOCK:   -0.35 KCAL/MOL
REMARK 927      BINDING AFFINITY PREDICTED BY RF-SCORE:    0.00 PKD
ROOT
HETATM    1  C   UNL     1      -8.334   8.185  67.734  1.00  0.00    -0.128 C  
HETATM    2  N   UNL     1      -9.223   7.257  68.388  1.00  0.00    -0.138 N  
HETATM    3  C   UNL     1     -10.467   6.948  67.943  1.00  0.00    -0.212 C  
HETATM    4  C   UNL     1     -11.138   6.054  68.941  1.00  0.00    -0.349 C  
HETATM    5  O   UNL     1     -10.989   7.323  66.903  1.00  0.00    -0.343 OA 
HETATM    6  C   UNL     1     -10.020   5.640  69.929  1.00  0.00    -0.268 C  
HETATM    7  O   UNL     1      -7.661   6.347  69.805  1.00  0.00    -0.089 OA 
HETATM    8  C   UNL     1      -9.733   4.138  69.725  1.00  0.00    -0.278 C  
HETATM    9  C   UNL     1      -8.819   6.441  69.404  1.00  0.00    -0.132 C  
ENDROOT
BRANCH   6  10
HETATM   10  C   UNL     1     -10.243   5.967  71.416  1.00  0.00    -0.261 A  
HETATM   11  C   UNL     1     -10.677   7.216  71.888  1.00  0.00    -0.243 A  
HETATM   12  C   UNL     1     -10.743   7.490  73.259  1.00  0.00    -0.437 A  
HETATM   13  C   UNL     1     -10.397   6.520  74.191  1.00  0.00    -0.351 A  
HETATM   14  C   UNL     1     -10.006   5.262  73.755  1.00  0.00    -0.197 A  
HETATM   15  C   UNL     1      -9.935   4.989  72.386  1.00  0.00    -0.226 A  
ENDBRANCH   6  10
TORSDOF 1
ENDMDL
MODEL      115
REMARK 921   NORMALIZED FREE ENERGY PREDICTED BY IDOCK:   -3.45 KCAL/MOL
REMARK 922        TOTAL FREE ENERGY PREDICTED BY IDOCK:   -3.96 KCAL/MOL
REMARK 923 INTER-LIGAND FREE ENERGY PREDICTED BY IDOCK:   -3.66 KCAL/MOL
REMARK 924 INTRA-LIGAND FREE ENERGY PREDICTED BY IDOCK:   -0.30 KCAL/MOL
REMARK 927      BINDING AFFINITY PREDICTED BY RF-SCORE:    0.00 PKD
ROOT
HETATM    1  C   UNL     1     -11.899  15.695  70.039  1.00  0.00    -0.367 C  
HETATM    2  N   UNL     1     -10.702  15.617  69.238  1.00  0.00    -0.222 N  
HETATM    3  C   UNL     1     -10.120  14.456  68.845  1.00  0.00    -0.200 C  
HETATM    4  C   UNL     1      -8.834  14.765  68.142  1.00  0.00    -0.170 C  
HETATM    5  O   UNL     1     -10.547  13.324  69.022  1.00  0.00    -0.181 OA 
HETATM    6  C   UNL     1      -8.851  16.297  67.922  1.00  0.00    -0.183 C  
HETATM    7  O   UNL     1     -10.659  17.826  68.612  1.00  0.00    -0.317 OA 
HETATM    8  C   UNL     1      -9.006  16.562  66.410  1.00  0.00    -0.340 C  
HETATM    9  C   UNL     1     -10.156  16.705  68.623  1.00  0.00    -0.270 C  
ENDROOT
BRANCH   6  10
HETATM   10  C   UNL     1      -7.680  17.103  68.511  1.00  0.00    -0.248 A  
HETATM   11  C   UNL     1      -7.352  18.411  68.121  1.00  0.00    -0.271 A  
HETATM   12  C   UNL     1      -6.202  19.046  68.603  1.00  0.00    -0.246 A  
HETATM   13  C   UNL     1      -5.362  18.399  69.501  1.00  0.00    -0.197 A  
HETATM   14  C   UNL     1      -5.684  17.122  69.938  1.00  0.00    -0.227 A  
HETATM   15  C   UNL     1      -6.829  16.485  69.453  1.00  0.00    -0.220 A  
ENDBRANCH   6  10
TORSDOF 1
ENDMDL
MODEL      116
REMARK 921   NORMALIZED FREE ENERGY PREDICTED BY IDOCK:   -3.45 KCAL/MOL
REMARK 922        TOTAL FREE ENERGY PREDICTED BY IDOCK:   -3.95 KCAL/MOL
REMARK 923 INTER-LIGAND FREE ENERGY PREDICTED BY IDOCK:   -3.59 KCAL/MOL
REMARK 924 INTRA-LIGAND FREE ENERGY PREDICTED BY IDOCK:   -0.36 KCAL/MOL
REMARK 927      BINDING AFFINITY PREDICTED BY RF-SCORE:    0.00 PKD
ROOT
HETATM    1  C   UNL     1      -8.854   8.320  68.484  1.00  0.00    -0.137 C  
HETATM    2  N   UNL     1      -9.238   8.191  69.868  1.00  0.00    -0.151 N  
HETATM    3  C   UNL     1      -8.701   8.917  70.881  1.00  0.00    -0.210 C  
HETATM    4  C   UNL     1      -9.251   8.421  72.184  1.00  0.00    -0.313 C  
HETATM    5  O   UNL     1      -7.895   9.831  70.783  1.00  0.00    -0.304 OA 
HETATM    6  C   UNL     1     -10.410   7.470  71.799  1.00  0.00    -0.221 C  
HETATM    7  O   UNL     1     -11.132   6.944  69.501  1.00  0.00    -0.252 OA 
HETATM    8  C   UNL     1     -11.736   8.137  72.219  1.00  0.00    -0.439 C  
HETATM    9  C   UNL     1     -10.328   7.473  70.265  1.00  0.00    -0.213 C  
ENDROOT
BRANCH   6  10
HETATM   10  C   UNL     1     -10.328   6.023  72.313  1.00  0.00    -0.223 A  
HETATM   11  C   UNL     1     -11.408   5.329  72.883  1.00  0.00    -0.368 A  
HETATM   12  C   UNL     1     -11.240   4.059  73.445  1.00  0.00    -0.313 A  
HETATM   13  C   UNL     1      -9.996   3.440  73.434  1.00  0.00    -0.178 A  
HETATM   14  C   UNL     1      -8.920   4.082  72.838  1.00  0.00    -0.116 A  
HETATM   15  C   UNL     1      -9.085   5.354  72.282  1.00  0.00    -0.151 A  
ENDBRANCH   6  10
TORSDOF 1
ENDMDL
MODEL      117
REMARK 921   NORMALIZED FREE ENERGY PREDICTED BY IDOCK:   -3.39 KCAL/MOL
REMARK 922        TOTAL FREE ENERGY PREDICTED BY IDOCK:   -3.90 KCAL/MOL
REMARK 923 INTER-LIGAND FREE ENERGY PREDICTED BY IDOCK:   -3.63 KCAL/MOL
REMARK 924 INTRA-LIGAND FREE ENERGY PREDICTED BY IDOCK:   -0.26 KCAL/MOL
REMARK 927      BINDING AFFINITY PREDICTED BY RF-SCORE:    0.00 PKD
ROOT
HETATM    1  C   UNL     1     -12.567   6.736  71.116  1.00  0.00    -0.250 C  
HETATM    2  N   UNL     1     -11.759   7.898  70.842  1.00  0.00    -0.282 N  
HETATM    3  C   UNL     1     -11.959   9.117  71.403  1.00  0.00    -0.339 C  
HETATM    4  C   UNL     1     -11.012  10.102  70.786  1.00  0.00    -0.313 C  
HETATM    5  O   UNL     1     -12.772   9.402  72.270  1.00  0.00    -0.376 OA 
HETATM    6  C   UNL     1     -10.018   9.247  69.964  1.00  0.00    -0.238 C  
HETATM    7  O   UNL     1     -10.056   6.790  69.770  1.00  0.00    -0.178 OA 
HETATM    8  C   UNL     1      -8.641   9.317  70.655  1.00  0.00    -0.270 C  
HETATM    9  C   UNL     1     -10.585   7.832  70.150  1.00  0.00    -0.237 C  
ENDROOT
BRANCH   6  10
HETATM   10  C   UNL     1      -9.903   9.559  68.461  1.00  0.00    -0.172 A  
HETATM   11  C   UNL     1     -10.900  10.207  67.715  1.00  0.00    -0.346 A  
HETATM   12  C   UNL     1     -10.790  10.352  66.328  1.00  0.00    -0.022 A  
HETATM   13  C   UNL     1      -9.674   9.873  65.654  1.00  0.00    -0.346 A  
HETATM   14  C   UNL     1      -8.651   9.268  66.370  1.00  0.00    -0.141 A  
HETATM   15  C   UNL     1      -8.763   9.117  67.755  1.00  0.00    -0.121 A  
ENDBRANCH   6  10
TORSDOF 1
ENDMDL
MODEL      118
REMARK 921   NORMALIZED FREE ENERGY PREDICTED BY IDOCK:   -3.39 KCAL/MOL
REMARK 922        TOTAL FREE ENERGY PREDICTED BY IDOCK:   -3.89 KCAL/MOL
REMARK 923 INTER-LIGAND FREE ENERGY PREDICTED BY IDOCK:   -3.60 KCAL/MOL
REMARK 924 INTRA-LIGAND FREE ENERGY PREDICTED BY IDOCK:   -0.29 KCAL/MOL
REMARK 927      BINDING AFFINITY PREDICTED BY RF-SCORE:    0.00 PKD
ROOT
HETATM    1  C   UNL     1     -12.234  12.125  69.838  1.00  0.00    -0.170 C  
HETATM    2  N   UNL     1     -11.142  11.280  69.424  1.00  0.00    -0.255 N  
HETATM    3  C   UNL     1     -10.182  11.650  68.541  1.00  0.00    -0.210 C  
HETATM    4  C   UNL     1      -9.294  10.475  68.260  1.00  0.00    -0.156 C  
HETATM    5  O   UNL     1     -10.036  12.753  68.034  1.00  0.00    -0.212 OA 
HETATM    6  C   UNL     1      -9.688   9.410  69.311  1.00  0.00    -0.173 C  
HETATM    7  O   UNL     1     -11.419   9.677  71.047  1.00  0.00    -0.309 OA 
HETATM    8  C   UNL     1      -8.514   9.255  70.299  1.00  0.00    -0.224 C  
HETATM    9  C   UNL     1     -10.852  10.098  70.042  1.00  0.00    -0.307 C  
ENDROOT
BRANCH   6  10
HETATM   10  C   UNL     1     -10.154   8.042  68.782  1.00  0.00    -0.206 A  
HETATM   11  C   UNL     1     -10.225   6.880  69.565  1.00  0.00    -0.198 A  
HETATM   12  C   UNL     1     -10.538   5.639  68.997  1.00  0.00    -0.316 A  
HETATM   13  C   UNL     1     -10.807   5.532  67.639  1.00  0.00    -0.085 A  
HETATM   14  C   UNL     1     -10.787   6.671  66.847  1.00  0.00    -0.415 A  
HETATM   15  C   UNL     1     -10.469   7.909  67.412  1.00  0.00    -0.360 A  
ENDBRANCH   6  10
TORSDOF 1
ENDMDL
MODEL      119
REMARK 921   NORMALIZED FREE ENERGY PREDICTED BY IDOCK:   -3.38 KCAL/MOL
REMARK 922        TOTAL FREE ENERGY PREDICTED BY IDOCK:   -3.88 KCAL/MOL
REMARK 923 INTER-LIGAND FREE ENERGY PREDICTED BY IDOCK:   -3.53 KCAL/MOL
REMARK 924 INTRA-LIGAND FREE ENERGY PREDICTED BY IDOCK:   -0.35 KCAL/MOL
REMARK 927      BINDING AFFINITY PREDICTED BY RF-SCORE:    0.00 PKD
ROOT
HETATM    1  C   UNL     1      -6.607   7.840  68.062  1.00  0.00    -0.056 C  
HETATM    2  N   UNL     1      -8.012   7.520  68.121  1.00  0.00    -0.121 N  
HETATM    3  C   UNL     1      -8.857   7.596  67.062  1.00  0.00    -0.128 C  
HETATM    4  C   UNL     1     -10.254   7.314  67.529  1.00  0.00    -0.284 C  
HETATM    5  O   UNL     1      -8.563   7.852  65.904  1.00  0.00    -0.140 OA 
HETATM    6  C   UNL     1     -10.098   6.785  68.975  1.00  0.00    -0.172 C  
HETATM    7  O   UNL     1      -7.964   6.496  70.176  1.00  0.00    -0.108 OA 
HETATM    8  C   UNL     1     -10.472   5.288  68.980  1.00  0.00    -0.206 C  
HETATM    9  C   UNL     1      -8.583   6.909  69.198  1.00  0.00    -0.128 C  
ENDROOT
BRANCH   6  10
HETATM   10  C   UNL     1     -10.843   7.548  70.083  1.00  0.00    -0.259 A  
HETATM   11  C   UNL     1     -11.787   6.963  70.942  1.00  0.00    -0.424 A  
HETATM   12  C   UNL     1     -12.522   7.735  71.848  1.00  0.00    -0.343 A  
HETATM   13  C   UNL     1     -12.319   9.107  71.935  1.00  0.00    -0.455 A  
HETATM   14  C   UNL     1     -11.361   9.707  71.131  1.00  0.00    -0.456 A  
HETATM   15  C   UNL     1     -10.631   8.937  70.221  1.00  0.00    -0.246 A  
ENDBRANCH   6  10
TORSDOF 1
ENDMDL
MODEL      120
REMARK 921   NORMALIZED FREE ENERGY PREDICTED BY IDOCK:   -3.37 KCAL/MOL
REMARK 922        TOTAL FREE ENERGY PREDICTED BY IDOCK:   -3.87 KCAL/MOL
REMARK 923 INTER-LIGAND FREE ENERGY PREDICTED BY IDOCK:   -3.78 KCAL/MOL
REMARK 924 INTRA-LIGAND FREE ENERGY PREDICTED BY IDOCK:   -0.09 KCAL/MOL
REMARK 927      BINDING AFFINITY PREDICTED BY RF-SCORE:    0.00 PKD
ROOT
HETATM    1  C   UNL     1      -8.782   9.448  68.546  1.00  0.00    -0.128 C  
HETATM    2  N   UNL     1      -9.130  10.720  67.963  1.00  0.00    -0.146 N  
HETATM    3  C   UNL     1      -8.371  11.375  67.050  1.00  0.00    -0.161 C  
HETATM    4  C   UNL     1      -8.985  12.714  66.773  1.00  0.00    -0.197 C  
HETATM    5  O   UNL     1      -7.347  10.971  66.520  1.00  0.00    -0.138 OA 
HETATM    6  C   UNL     1     -10.378  12.668  67.445  1.00  0.00    -0.224 C  
HETATM    7  O   UNL     1     -11.311  10.752  68.686  1.00  0.00    -0.254 OA 
HETATM    8  C   UNL     1     -11.446  12.656  66.333  1.00  0.00    -0.409 C  
HETATM    9  C   UNL     1     -10.361  11.288  68.120  1.00  0.00    -0.186 C  
ENDROOT
BRANCH   6  10
HETATM   10  C   UNL     1     -10.684  13.748  68.498  1.00  0.00    -0.274 A  
HETATM   11  C   UNL     1     -11.822  13.745  69.319  1.00  0.00    -0.392 A  
HETATM   12  C   UNL     1     -12.108  14.818  70.170  1.00  0.00    -0.382 A  
HETATM   13  C   UNL     1     -11.253  15.912  70.238  1.00  0.00    -0.388 A  
HETATM   14  C   UNL     1     -10.097  15.924  69.471  1.00  0.00    -0.277 A  
HETATM   15  C   UNL     1      -9.815  14.855  68.617  1.00  0.00    -0.225 A  
ENDBRANCH   6  10
TORSDOF 1
ENDMDL
MODEL      121
REMARK 921   NORMALIZED FREE ENERGY PREDICTED BY IDOCK:   -3.36 KCAL/MOL
REMARK 922        TOTAL FREE ENERGY PREDICTED BY IDOCK:   -3.86 KCAL/MOL
REMARK 923 INTER-LIGAND FREE ENERGY PREDICTED BY IDOCK:   -3.54 KCAL/MOL
REMARK 924 INTRA-LIGAND FREE ENERGY PREDICTED BY IDOCK:   -0.32 KCAL/MOL
REMARK 927      BINDING AFFINITY PREDICTED BY RF-SCORE:    0.00 PKD
ROOT
HETATM    1  C   UNL     1      -6.656   7.905  69.338  1.00  0.00    -0.035 C  
HETATM    2  N   UNL     1      -8.080   8.014  69.145  1.00  0.00    -0.117 N  
HETATM    3  C   UNL     1      -8.833   7.107  68.472  1.00  0.00    -0.125 C  
HETATM    4  C   UNL     1     -10.238   7.618  68.367  1.00  0.00    -0.226 C  
HETATM    5  O   UNL     1      -8.457   6.040  68.011  1.00  0.00    -0.115 OA 
HETATM    6  C   UNL     1     -10.296   8.842  69.313  1.00  0.00    -0.221 C  
HETATM    7  O   UNL     1      -8.424   9.697  70.670  1.00  0.00    -0.212 OA 
HETATM    8  C   UNL     1     -11.192   8.476  70.514  1.00  0.00    -0.262 C  
HETATM    9  C   UNL     1      -8.843   8.937  69.801  1.00  0.00    -0.144 C  
ENDROOT
BRANCH   6  10
HETATM   10  C   UNL     1     -10.717  10.186  68.693  1.00  0.00    -0.253 A  
HETATM   11  C   UNL     1     -11.239  11.261  69.430  1.00  0.00    -0.345 A  
HETATM   12  C   UNL     1     -11.719  12.411  68.794  1.00  0.00    -0.379 A  
HETATM   13  C   UNL     1     -11.670  12.527  67.410  1.00  0.00    -0.432 A  
HETATM   14  C   UNL     1     -11.119  11.499  66.659  1.00  0.00    -0.355 A  
HETATM   15  C   UNL     1     -10.646  10.347  67.292  1.00  0.00    -0.322 A  
ENDBRANCH   6  10
TORSDOF 1
ENDMDL
MODEL      122
REMARK 921   NORMALIZED FREE ENERGY PREDICTED BY IDOCK:   -3.34 KCAL/MOL
REMARK 922        TOTAL FREE ENERGY PREDICTED BY IDOCK:   -3.84 KCAL/MOL
REMARK 923 INTER-LIGAND FREE ENERGY PREDICTED BY IDOCK:   -3.48 KCAL/MOL
REMARK 924 INTRA-LIGAND FREE ENERGY PREDICTED BY IDOCK:   -0.35 KCAL/MOL
REMARK 927      BINDING AFFINITY PREDICTED BY RF-SCORE:    0.00 PKD
ROOT
HETATM    1  C   UNL     1     -12.125   8.353  71.988  1.00  0.00    -0.356 C  
HETATM    2  N   UNL     1     -11.411   8.509  70.744  1.00  0.00    -0.268 N  
HETATM    3  C   UNL     1     -11.153   7.497  69.879  1.00  0.00    -0.171 C  
HETATM    4  C   UNL     1     -10.286   8.009  68.769  1.00  0.00    -0.223 C  
HETATM    5  O   UNL     1     -11.545   6.342  69.962  1.00  0.00    -0.425 OA 
HETATM    6  C   UNL     1     -10.280   9.548  68.938  1.00  0.00    -0.213 C  
HETATM    7  O   UNL     1     -11.477  10.805  70.689  1.00  0.00    -0.325 OA 
HETATM    8  C   UNL     1     -11.062  10.161  67.758  1.00  0.00    -0.293 C  
HETATM    9  C   UNL     1     -11.109   9.731  70.219  1.00  0.00    -0.292 C  
ENDROOT
BRANCH   6  10
HETATM   10  C   UNL     1      -8.911  10.228  69.112  1.00  0.00    -0.187 A  
HETATM   11  C   UNL     1      -7.917   9.777  69.995  1.00  0.00    -0.196 A  
HETATM   12  C   UNL     1      -6.742  10.508  70.200  1.00  0.00    -0.149 A  
HETATM   13  C   UNL     1      -6.519  11.696  69.514  1.00  0.00    -0.122 A  
HETATM   14  C   UNL     1      -7.464  12.144  68.602  1.00  0.00    -0.105 A  
HETATM   15  C   UNL     1      -8.641  11.417  68.401  1.00  0.00    -0.156 A  
ENDBRANCH   6  10
TORSDOF 1
ENDMDL
MODEL      123
REMARK 921   NORMALIZED FREE ENERGY PREDICTED BY IDOCK:   -3.32 KCAL/MOL
REMARK 922        TOTAL FREE ENERGY PREDICTED BY IDOCK:   -3.82 KCAL/MOL
REMARK 923 INTER-LIGAND FREE ENERGY PREDICTED BY IDOCK:   -3.46 KCAL/MOL
REMARK 924 INTRA-LIGAND FREE ENERGY PREDICTED BY IDOCK:   -0.36 KCAL/MOL
REMARK 927      BINDING AFFINITY PREDICTED BY RF-SCORE:    0.00 PKD
ROOT
HETATM    1  C   UNL     1      -7.124   5.694  68.235  1.00  0.00    -0.074 C  
HETATM    2  N   UNL     1      -8.499   5.927  68.602  1.00  0.00    -0.111 N  
HETATM    3  C   UNL     1      -9.561   5.330  68.003  1.00  0.00    -0.132 C  
HETATM    4  C   UNL     1     -10.826   5.910  68.559  1.00  0.00    -0.323 C  
HETATM    5  O   UNL     1      -9.527   4.461  67.145  1.00  0.00    -0.147 OA 
HETATM    6  C   UNL     1     -10.384   6.751  69.781  1.00  0.00    -0.226 C  
HETATM    7  O   UNL     1      -8.065   7.020  70.575  1.00  0.00    -0.111 OA 
HETATM    8  C   UNL     1     -10.894   6.047  71.056  1.00  0.00    -0.345 C  
HETATM    9  C   UNL     1      -8.855   6.612  69.727  1.00  0.00    -0.144 C  
ENDROOT
BRANCH   6  10
HETATM   10  C   UNL     1     -10.763   8.242  69.779  1.00  0.00    -0.221 A  
HETATM   11  C   UNL     1     -10.480   9.122  68.722  1.00  0.00    -0.236 A  
HETATM   12  C   UNL     1     -10.739  10.493  68.830  1.00  0.00    -0.253 A  
HETATM   13  C   UNL     1     -11.305  11.016  69.986  1.00  0.00    -0.358 A  
HETATM   14  C   UNL     1     -11.635  10.165  71.031  1.00  0.00    -0.462 A  
HETATM   15  C   UNL     1     -11.371   8.796  70.926  1.00  0.00    -0.322 A  
ENDBRANCH   6  10
TORSDOF 1
ENDMDL
MODEL      124
REMARK 921   NORMALIZED FREE ENERGY PREDICTED BY IDOCK:   -3.31 KCAL/MOL
REMARK 922        TOTAL FREE ENERGY PREDICTED BY IDOCK:   -3.80 KCAL/MOL
REMARK 923 INTER-LIGAND FREE ENERGY PREDICTED BY IDOCK:   -3.46 KCAL/MOL
REMARK 924 INTRA-LIGAND FREE ENERGY PREDICTED BY IDOCK:   -0.34 KCAL/MOL
REMARK 927      BINDING AFFINITY PREDICTED BY RF-SCORE:    0.00 PKD
ROOT
HETATM    1  C   UNL     1      -9.936   9.792  65.781  1.00  0.00    -0.279 C  
HETATM    2  N   UNL     1      -9.401   9.240  67.001  1.00  0.00    -0.140 N  
HETATM    3  C   UNL     1      -8.371   8.358  67.054  1.00  0.00    -0.114 C  
HETATM    4  C   UNL     1      -8.179   7.913  68.472  1.00  0.00    -0.127 C  
HETATM    5  O   UNL     1      -7.691   7.967  66.117  1.00  0.00    -0.087 OA 
HETATM    6  C   UNL     1      -9.064   8.861  69.317  1.00  0.00    -0.145 C  
HETATM    7  O   UNL     1     -10.458  10.692  68.433  1.00  0.00    -0.170 OA 
HETATM    8  C   UNL     1      -8.135   9.772  70.145  1.00  0.00    -0.202 C  
HETATM    9  C   UNL     1      -9.743   9.713  68.234  1.00  0.00    -0.146 C  
ENDROOT
BRANCH   6  10
HETATM   10  C   UNL     1     -10.139   8.209  70.204  1.00  0.00    -0.194 A  
HETATM   11  C   UNL     1     -10.874   7.070  69.839  1.00  0.00    -0.280 A  
HETATM   12  C   UNL     1     -11.924   6.597  70.634  1.00  0.00    -0.404 A  
HETATM   13  C   UNL     1     -12.253   7.236  71.823  1.00  0.00    -0.368 A  
HETATM   14  C   UNL     1     -11.516   8.339  72.232  1.00  0.00    -0.452 A  
HETATM   15  C   UNL     1     -10.471   8.815  71.436  1.00  0.00    -0.354 A  
ENDBRANCH   6  10
TORSDOF 1
ENDMDL
MODEL      125
REMARK 921   NORMALIZED FREE ENERGY PREDICTED BY IDOCK:   -3.25 KCAL/MOL
REMARK 922        TOTAL FREE ENERGY PREDICTED BY IDOCK:   -3.74 KCAL/MOL
REMARK 923 INTER-LIGAND FREE ENERGY PREDICTED BY IDOCK:   -3.39 KCAL/MOL
REMARK 924 INTRA-LIGAND FREE ENERGY PREDICTED BY IDOCK:   -0.35 KCAL/MOL
REMARK 927      BINDING AFFINITY PREDICTED BY RF-SCORE:    0.00 PKD
ROOT
HETATM    1  C   UNL     1      -7.333   6.122  72.829  1.00  0.00    -0.089 C  
HETATM    2  N   UNL     1      -8.629   5.898  72.239  1.00  0.00    -0.125 N  
HETATM    3  C   UNL     1      -9.609   5.151  72.807  1.00  0.00    -0.145 C  
HETATM    4  C   UNL     1     -10.758   5.040  71.851  1.00  0.00    -0.181 C  
HETATM    5  O   UNL     1      -9.589   4.635  73.915  1.00  0.00    -0.122 OA 
HETATM    6  C   UNL     1     -10.449   6.057  70.726  1.00  0.00    -0.298 C  
HETATM    7  O   UNL     1      -8.463   7.515  70.615  1.00  0.00    -0.128 OA 
HETATM    8  C   UNL     1     -11.470   7.209  70.830  1.00  0.00    -0.342 C  
HETATM    9  C   UNL     1      -9.071   6.589  71.148  1.00  0.00    -0.152 C  
ENDROOT
BRANCH   6  10
HETATM   10  C   UNL     1     -10.369   5.511  69.290  1.00  0.00    -0.335 A  
HETATM   11  C   UNL     1      -9.686   4.337  68.934  1.00  0.00    -0.195 A  
HETATM   12  C   UNL     1      -9.545   3.958  67.594  1.00  0.00    -0.205 A  
HETATM   13  C   UNL     1     -10.100   4.728  66.579  1.00  0.00    -0.286 A  
HETATM   14  C   UNL     1     -10.818   5.870  66.904  1.00  0.00    -0.376 A  
HETATM   15  C   UNL     1     -10.954   6.253  68.241  1.00  0.00    -0.408 A  
ENDBRANCH   6  10
TORSDOF 1
ENDMDL
MODEL      126
REMARK 921   NORMALIZED FREE ENERGY PREDICTED BY IDOCK:   -3.23 KCAL/MOL
REMARK 922        TOTAL FREE ENERGY PREDICTED BY IDOCK:   -3.72 KCAL/MOL
REMARK 923 INTER-LIGAND FREE ENERGY PREDICTED BY IDOCK:   -3.55 KCAL/MOL
REMARK 924 INTRA-LIGAND FREE ENERGY PREDICTED BY IDOCK:   -0.17 KCAL/MOL
REMARK 927      BINDING AFFINITY PREDICTED BY RF-SCORE:    0.00 PKD
ROOT
HETATM    1  C   UNL     1      -9.786   8.038  72.452  1.00  0.00    -0.247 C  
HETATM    2  N   UNL     1      -9.684   8.382  71.055  1.00  0.00    -0.166 N  
HETATM    3  C   UNL     1      -8.523   8.393  70.354  1.00  0.00    -0.130 C  
HETATM    4  C   UNL     1      -8.787   8.920  68.976  1.00  0.00    -0.136 C  
HETATM    5  O   UNL     1      -7.422   8.039  70.751  1.00  0.00    -0.068 OA 
HETATM    6  C   UNL     1     -10.329   8.972  68.851  1.00  0.00    -0.232 C  
HETATM    7  O   UNL     1     -11.934   8.303  70.599  1.00  0.00    -0.182 OA 
HETATM    8  C   UNL     1     -10.763   7.895  67.835  1.00  0.00    -0.147 C  
HETATM    9  C   UNL     1     -10.777   8.528  70.252  1.00  0.00    -0.230 C  
ENDROOT
BRANCH   6  10
HETATM   10  C   UNL     1     -10.959  10.336  68.520  1.00  0.00    -0.294 A  
HETATM   11  C   UNL     1     -11.241  10.775  67.216  1.00  0.00    -0.272 A  
HETATM   12  C   UNL     1     -11.700  12.074  66.971  1.00  0.00    -0.341 A  
HETATM   13  C   UNL     1     -11.908  12.960  68.021  1.00  0.00    -0.390 A  
HETATM   14  C   UNL     1     -11.679  12.540  69.324  1.00  0.00    -0.379 A  
HETATM   15  C   UNL     1     -11.216  11.245  69.569  1.00  0.00    -0.337 A  
ENDBRANCH   6  10
TORSDOF 1
ENDMDL
MODEL      127
REMARK 921   NORMALIZED FREE ENERGY PREDICTED BY IDOCK:   -3.22 KCAL/MOL
REMARK 922        TOTAL FREE ENERGY PREDICTED BY IDOCK:   -3.72 KCAL/MOL
REMARK 923 INTER-LIGAND FREE ENERGY PREDICTED BY IDOCK:   -3.63 KCAL/MOL
REMARK 924 INTRA-LIGAND FREE ENERGY PREDICTED BY IDOCK:   -0.09 KCAL/MOL
REMARK 927      BINDING AFFINITY PREDICTED BY RF-SCORE:    0.00 PKD
ROOT
HETATM    1  C   UNL     1      -6.061  12.535  67.952  1.00  0.00    -0.101 C  
HETATM    2  N   UNL     1      -7.233  11.787  67.570  1.00  0.00    -0.113 N  
HETATM    3  C   UNL     1      -7.240  10.454  67.317  1.00  0.00    -0.089 C  
HETATM    4  C   UNL     1      -8.600  10.054  66.828  1.00  0.00    -0.129 C  
HETATM    5  O   UNL     1      -6.307   9.676  67.453  1.00  0.00    -0.066 OA 
HETATM    6  C   UNL     1      -9.499  11.288  67.081  1.00  0.00    -0.183 C  
HETATM    7  O   UNL     1      -8.766  13.418  68.085  1.00  0.00    -0.168 OA 
HETATM    8  C   UNL     1     -10.495  10.932  68.204  1.00  0.00    -0.211 C  
HETATM    9  C   UNL     1      -8.492  12.310  67.629  1.00  0.00    -0.166 C  
ENDROOT
BRANCH   6  10
HETATM   10  C   UNL     1     -10.225  11.887  65.863  1.00  0.00    -0.270 A  
HETATM   11  C   UNL     1     -10.934  13.099  65.890  1.00  0.00    -0.288 A  
HETATM   12  C   UNL     1     -11.676  13.529  64.784  1.00  0.00    -0.397 A  
HETATM   13  C   UNL     1     -11.711  12.773  63.619  1.00  0.00    -0.587 A  
HETATM   14  C   UNL     1     -10.985  11.594  63.548  1.00  0.00    -0.485 A  
HETATM   15  C   UNL     1     -10.248  11.159  64.654  1.00  0.00    -0.376 A  
ENDBRANCH   6  10
TORSDOF 1
ENDMDL
MODEL      128
REMARK 921   NORMALIZED FREE ENERGY PREDICTED BY IDOCK:   -3.20 KCAL/MOL
REMARK 922        TOTAL FREE ENERGY PREDICTED BY IDOCK:   -3.69 KCAL/MOL
REMARK 923 INTER-LIGAND FREE ENERGY PREDICTED BY IDOCK:   -3.33 KCAL/MOL
REMARK 924 INTRA-LIGAND FREE ENERGY PREDICTED BY IDOCK:   -0.36 KCAL/MOL
REMARK 927      BINDING AFFINITY PREDICTED BY RF-SCORE:    0.00 PKD
ROOT
HETATM    1  C   UNL     1     -12.029  10.358  71.055  1.00  0.00    -0.382 C  
HETATM    2  N   UNL     1     -11.714   8.972  70.810  1.00  0.00    -0.270 N  
HETATM    3  C   UNL     1     -12.380   7.928  71.365  1.00  0.00    -0.312 C  
HETATM    4  C   UNL     1     -11.695   6.651  70.984  1.00  0.00    -0.415 C  
HETATM    5  O   UNL     1     -13.378   7.984  72.069  1.00  0.00    -0.305 OA 
HETATM    6  C   UNL     1     -10.675   7.050  69.890  1.00  0.00    -0.265 C  
HETATM    7  O   UNL     1     -10.324   9.330  69.017  1.00  0.00    -0.203 OA 
HETATM    8  C   UNL     1     -11.153   6.453  68.550  1.00  0.00    -0.385 C  
HETATM    9  C   UNL     1     -10.849   8.576  69.833  1.00  0.00    -0.205 C  
ENDROOT
BRANCH   6  10
HETATM   10  C   UNL     1      -9.197   6.713  70.154  1.00  0.00    -0.155 A  
HETATM   11  C   UNL     1      -8.361   6.070  69.227  1.00  0.00    -0.115 A  
HETATM   12  C   UNL     1      -7.062   5.679  69.571  1.00  0.00    -0.064 A  
HETATM   13  C   UNL     1      -6.558   5.940  70.839  1.00  0.00    -0.045 A  
HETATM   14  C   UNL     1      -7.345   6.614  71.761  1.00  0.00    -0.086 A  
HETATM   15  C   UNL     1      -8.645   6.999  71.421  1.00  0.00    -0.121 A  
ENDBRANCH   6  10
TORSDOF 1
ENDMDL
MODEL      129
REMARK 921   NORMALIZED FREE ENERGY PREDICTED BY IDOCK:   -3.17 KCAL/MOL
REMARK 922        TOTAL FREE ENERGY PREDICTED BY IDOCK:   -3.66 KCAL/MOL
REMARK 923 INTER-LIGAND FREE ENERGY PREDICTED BY IDOCK:   -3.31 KCAL/MOL
REMARK 924 INTRA-LIGAND FREE ENERGY PREDICTED BY IDOCK:   -0.35 KCAL/MOL
REMARK 927      BINDING AFFINITY PREDICTED BY RF-SCORE:    0.00 PKD
ROOT
HETATM    1  C   UNL     1     -13.829   6.808  71.823  1.00  0.00    -0.041 C  
HETATM    2  N   UNL     1     -12.637   7.620  71.822  1.00  0.00    -0.324 N  
HETATM    3  C   UNL     1     -12.631   8.970  71.959  1.00  0.00    -0.394 C  
HETATM    4  C   UNL     1     -11.231   9.474  71.781  1.00  0.00    -0.263 C  
HETATM    5  O   UNL     1     -13.593   9.689  72.188  1.00  0.00    -0.426 OA 
HETATM    6  C   UNL     1     -10.340   8.209  71.788  1.00  0.00    -0.293 C  
HETATM    7  O   UNL     1     -11.141   5.891  72.047  1.00  0.00    -0.254 OA 
HETATM    8  C   UNL     1      -9.503   8.220  73.083  1.00  0.00    -0.263 C  
HETATM    9  C   UNL     1     -11.383   7.086  71.891  1.00  0.00    -0.257 C  
ENDROOT
BRANCH   6  10
HETATM   10  C   UNL     1      -9.452   7.971  70.554  1.00  0.00    -0.166 A  
HETATM   11  C   UNL     1      -9.917   8.024  69.230  1.00  0.00    -0.191 A  
HETATM   12  C   UNL     1      -9.090   7.677  68.156  1.00  0.00    -0.132 A  
HETATM   13  C   UNL     1      -7.774   7.289  68.374  1.00  0.00    -0.120 A  
HETATM   14  C   UNL     1      -7.274   7.269  69.668  1.00  0.00    -0.079 A  
HETATM   15  C   UNL     1      -8.100   7.610  70.742  1.00  0.00    -0.103 A  
ENDBRANCH   6  10
TORSDOF 1
ENDMDL
MODEL      130
REMARK 921   NORMALIZED FREE ENERGY PREDICTED BY IDOCK:   -3.15 KCAL/MOL
REMARK 922        TOTAL FREE ENERGY PREDICTED BY IDOCK:   -3.64 KCAL/MOL
REMARK 923 INTER-LIGAND FREE ENERGY PREDICTED BY IDOCK:   -3.30 KCAL/MOL
REMARK 924 INTRA-LIGAND FREE ENERGY PREDICTED BY IDOCK:   -0.34 KCAL/MOL
REMARK 927      BINDING AFFINITY PREDICTED BY RF-SCORE:    0.00 PKD
ROOT
HETATM    1  C   UNL     1      -6.574   4.571  73.287  1.00  0.00    -0.052 C  
HETATM    2  N   UNL     1      -7.910   4.670  72.754  1.00  0.00    -0.087 N  
HETATM    3  C   UNL     1      -8.436   3.810  71.846  1.00  0.00    -0.090 C  
HETATM    4  C   UNL     1      -9.791   4.300  71.434  1.00  0.00    -0.260 C  
HETATM    5  O   UNL     1      -7.916   2.793  71.411  1.00  0.00    -0.050 OA 
HETATM    6  C   UNL     1     -10.130   5.437  72.428  1.00  0.00    -0.225 C  
HETATM    7  O   UNL     1      -8.687   6.209  74.272  1.00  0.00    -0.121 OA 
HETATM    8  C   UNL     1     -11.280   4.953  73.335  1.00  0.00    -0.415 C  
HETATM    9  C   UNL     1      -8.847   5.518  73.269  1.00  0.00    -0.121 C  
ENDROOT
BRANCH   6  10
HETATM   10  C   UNL     1     -10.438   6.821  71.830  1.00  0.00    -0.228 A  
HETATM   11  C   UNL     1      -9.794   7.349  70.699  1.00  0.00    -0.179 A  
HETATM   12  C   UNL     1     -10.029   8.662  70.277  1.00  0.00    -0.204 A  
HETATM   13  C   UNL     1     -10.927   9.473  70.959  1.00  0.00    -0.424 A  
HETATM   14  C   UNL     1     -11.612   8.965  72.053  1.00  0.00    -0.435 A  
HETATM   15  C   UNL     1     -11.373   7.656  72.480  1.00  0.00    -0.409 A  
ENDBRANCH   6  10
TORSDOF 1
ENDMDL
MODEL      131
REMARK 921   NORMALIZED FREE ENERGY PREDICTED BY IDOCK:   -3.14 KCAL/MOL
REMARK 922        TOTAL FREE ENERGY PREDICTED BY IDOCK:   -3.63 KCAL/MOL
REMARK 923 INTER-LIGAND FREE ENERGY PREDICTED BY IDOCK:   -3.28 KCAL/MOL
REMARK 924 INTRA-LIGAND FREE ENERGY PREDICTED BY IDOCK:   -0.35 KCAL/MOL
REMARK 927      BINDING AFFINITY PREDICTED BY RF-SCORE:    0.00 PKD
ROOT
HETATM    1  C   UNL     1      -7.064   4.652  67.410  1.00  0.00    -0.065 C  
HETATM    2  N   UNL     1      -8.416   5.154  67.406  1.00  0.00    -0.106 N  
HETATM    3  C   UNL     1      -9.444   4.574  66.738  1.00  0.00    -0.174 C  
HETATM    4  C   UNL     1     -10.661   5.441  66.861  1.00  0.00    -0.320 C  
HETATM    5  O   UNL     1      -9.417   3.518  66.122  1.00  0.00    -0.175 OA 
HETATM    6  C   UNL     1     -10.298   6.497  67.932  1.00  0.00    -0.229 C  
HETATM    7  O   UNL     1      -8.150   6.644  69.134  1.00  0.00    -0.113 OA 
HETATM    8  C   UNL     1     -11.149   6.217  69.188  1.00  0.00    -0.457 C  
HETATM    9  C   UNL     1      -8.836   6.144  68.246  1.00  0.00    -0.112 C  
ENDROOT
BRANCH   6  10
HETATM   10  C   UNL     1     -10.390   7.976  67.517  1.00  0.00    -0.330 A  
HETATM   11  C   UNL     1     -10.005   8.463  66.257  1.00  0.00    -0.216 A  
HETATM   12  C   UNL     1      -9.995   9.835  65.981  1.00  0.00    -0.342 A  
HETATM   13  C   UNL     1     -10.389  10.753  66.947  1.00  0.00    -0.290 A  
HETATM   14  C   UNL     1     -10.817  10.298  68.186  1.00  0.00    -0.312 A  
HETATM   15  C   UNL     1     -10.821   8.929  68.465  1.00  0.00    -0.038 A  
ENDBRANCH   6  10
TORSDOF 1
ENDMDL
MODEL      132
REMARK 921   NORMALIZED FREE ENERGY PREDICTED BY IDOCK:   -3.11 KCAL/MOL
REMARK 922        TOTAL FREE ENERGY PREDICTED BY IDOCK:   -3.60 KCAL/MOL
REMARK 923 INTER-LIGAND FREE ENERGY PREDICTED BY IDOCK:   -3.47 KCAL/MOL
REMARK 924 INTRA-LIGAND FREE ENERGY PREDICTED BY IDOCK:   -0.13 KCAL/MOL
REMARK 927      BINDING AFFINITY PREDICTED BY RF-SCORE:    0.00 PKD
ROOT
HETATM    1  C   UNL     1     -10.807   6.704  72.861  1.00  0.00    -0.262 C  
HETATM    2  N   UNL     1     -10.358   6.757  71.492  1.00  0.00    -0.207 N  
HETATM    3  C   UNL     1      -9.110   6.418  71.083  1.00  0.00    -0.150 C  
HETATM    4  C   UNL     1      -8.973   6.720  69.622  1.00  0.00    -0.143 C  
HETATM    5  O   UNL     1      -8.216   5.943  71.769  1.00  0.00    -0.117 OA 
HETATM    6  C   UNL     1     -10.409   7.037  69.138  1.00  0.00    -0.209 C  
HETATM    7  O   UNL     1     -12.434   7.019  70.544  1.00  0.00    -0.241 OA 
HETATM    8  C   UNL     1     -10.865   5.892  68.211  1.00  0.00    -0.325 C  
HETATM    9  C   UNL     1     -11.211   6.954  70.446  1.00  0.00    -0.312 C  
ENDROOT
BRANCH   6  10
HETATM   10  C   UNL     1     -10.640   8.410  68.482  1.00  0.00    -0.149 A  
HETATM   11  C   UNL     1     -10.481   8.661  67.110  1.00  0.00    -0.360 A  
HETATM   12  C   UNL     1     -10.585   9.957  66.592  1.00  0.00    -0.186 A  
HETATM   13  C   UNL     1     -10.870  11.030  67.427  1.00  0.00    -0.327 A  
HETATM   14  C   UNL     1     -11.076  10.806  68.780  1.00  0.00    -0.312 A  
HETATM   15  C   UNL     1     -10.967   9.514  69.299  1.00  0.00    -0.167 A  
ENDBRANCH   6  10
TORSDOF 1
ENDMDL
MODEL      133
REMARK 921   NORMALIZED FREE ENERGY PREDICTED BY IDOCK:   -3.08 KCAL/MOL
REMARK 922        TOTAL FREE ENERGY PREDICTED BY IDOCK:   -3.56 KCAL/MOL
REMARK 923 INTER-LIGAND FREE ENERGY PREDICTED BY IDOCK:   -3.23 KCAL/MOL
REMARK 924 INTRA-LIGAND FREE ENERGY PREDICTED BY IDOCK:   -0.33 KCAL/MOL
REMARK 927      BINDING AFFINITY PREDICTED BY RF-SCORE:    0.00 PKD
ROOT
HETATM    1  C   UNL     1      -8.595   7.555  68.809  1.00  0.00    -0.129 C  
HETATM    2  N   UNL     1      -9.441   8.640  68.378  1.00  0.00    -0.137 N  
HETATM    3  C   UNL     1     -10.277   8.579  67.311  1.00  0.00    -0.276 C  
HETATM    4  C   UNL     1     -10.894   9.928  67.094  1.00  0.00    -0.227 C  
HETATM    5  O   UNL     1     -10.511   7.601  66.615  1.00  0.00    -0.281 OA 
HETATM    6  C   UNL     1     -10.522  10.750  68.352  1.00  0.00    -0.207 C  
HETATM    7  O   UNL     1      -9.196   9.931  70.262  1.00  0.00    -0.215 OA 
HETATM    8  C   UNL     1     -11.812  10.993  69.163  1.00  0.00    -0.407 C  
HETATM    9  C   UNL     1      -9.637   9.763  69.128  1.00  0.00    -0.188 C  
ENDROOT
BRANCH   6  10
HETATM   10  C   UNL     1      -9.751  12.062  68.127  1.00  0.00    -0.199 A  
HETATM   11  C   UNL     1      -8.422  12.125  67.678  1.00  0.00    -0.163 A  
HETATM   12  C   UNL     1      -7.734  13.342  67.612  1.00  0.00    -0.171 A  
HETATM   13  C   UNL     1      -8.362  14.528  67.972  1.00  0.00    -0.153 A  
HETATM   14  C   UNL     1      -9.688  14.503  68.378  1.00  0.00    -0.224 A  
HETATM   15  C   UNL     1     -10.374  13.287  68.450  1.00  0.00    -0.254 A  
ENDBRANCH   6  10
TORSDOF 1
ENDMDL
MODEL      134
REMARK 921   NORMALIZED FREE ENERGY PREDICTED BY IDOCK:   -3.07 KCAL/MOL
REMARK 922        TOTAL FREE ENERGY PREDICTED BY IDOCK:   -3.56 KCAL/MOL
REMARK 923 INTER-LIGAND FREE ENERGY PREDICTED BY IDOCK:   -3.21 KCAL/MOL
REMARK 924 INTRA-LIGAND FREE ENERGY PREDICTED BY IDOCK:   -0.35 KCAL/MOL
REMARK 927      BINDING AFFINITY PREDICTED BY RF-SCORE:    0.00 PKD
ROOT
HETATM    1  C   UNL     1     -11.422   9.692  71.039  1.00  0.00    -0.371 C  
HETATM    2  N   UNL     1     -11.152   8.450  70.357  1.00  0.00    -0.244 N  
HETATM    3  C   UNL     1     -11.678   7.251  70.716  1.00  0.00    -0.299 C  
HETATM    4  C   UNL     1     -11.075   6.177  69.863  1.00  0.00    -0.481 C  
HETATM    5  O   UNL     1     -12.507   7.045  71.589  1.00  0.00    -0.341 OA 
HETATM    6  C   UNL     1     -10.309   6.928  68.746  1.00  0.00    -0.200 C  
HETATM    7  O   UNL     1     -10.169   9.377  68.499  1.00  0.00    -0.185 OA 
HETATM    8  C   UNL     1     -11.049   6.688  67.415  1.00  0.00    -0.398 C  
HETATM    9  C   UNL     1     -10.506   8.395  69.157  1.00  0.00    -0.206 C  
ENDROOT
BRANCH   6  10
HETATM   10  C   UNL     1      -8.805   6.632  68.608  1.00  0.00    -0.122 A  
HETATM   11  C   UNL     1      -7.943   6.424  69.697  1.00  0.00    -0.116 A  
HETATM   12  C   UNL     1      -6.563   6.282  69.512  1.00  0.00    -0.048 A  
HETATM   13  C   UNL     1      -6.012   6.323  68.237  1.00  0.00    -0.016 A  
HETATM   14  C   UNL     1      -6.845   6.483  67.139  1.00  0.00    -0.066 A  
HETATM   15  C   UNL     1      -8.222   6.631  67.322  1.00  0.00    -0.121 A  
ENDBRANCH   6  10
TORSDOF 1
ENDMDL
MODEL      135
REMARK 921   NORMALIZED FREE ENERGY PREDICTED BY IDOCK:   -3.00 KCAL/MOL
REMARK 922        TOTAL FREE ENERGY PREDICTED BY IDOCK:   -3.48 KCAL/MOL
REMARK 923 INTER-LIGAND FREE ENERGY PREDICTED BY IDOCK:   -3.14 KCAL/MOL
REMARK 924 INTRA-LIGAND FREE ENERGY PREDICTED BY IDOCK:   -0.35 KCAL/MOL
REMARK 927      BINDING AFFINITY PREDICTED BY RF-SCORE:    0.00 PKD
ROOT
HETATM    1  C   UNL     1     -12.732   7.011  71.357  1.00  0.00    -0.374 C  
HETATM    2  N   UNL     1     -11.467   6.337  71.192  1.00  0.00    -0.314 N  
HETATM    3  C   UNL     1     -10.778   5.748  72.201  1.00  0.00    -0.231 C  
HETATM    4  C   UNL     1      -9.458   5.267  71.678  1.00  0.00    -0.187 C  
HETATM    5  O   UNL     1     -11.143   5.615  73.360  1.00  0.00    -0.269 OA 
HETATM    6  C   UNL     1      -9.557   5.406  70.140  1.00  0.00    -0.235 C  
HETATM    7  O   UNL     1     -11.515   6.245  68.898  1.00  0.00    -0.331 OA 
HETATM    8  C   UNL     1      -9.597   3.988  69.534  1.00  0.00    -0.265 C  
HETATM    9  C   UNL     1     -10.942   6.048  69.967  1.00  0.00    -0.380 C  
ENDROOT
BRANCH   6  10
HETATM   10  C   UNL     1      -8.498   6.279  69.446  1.00  0.00    -0.125 A  
HETATM   11  C   UNL     1      -8.001   7.480  69.976  1.00  0.00    -0.112 A  
HETATM   12  C   UNL     1      -7.130   8.293  69.240  1.00  0.00    -0.060 A  
HETATM   13  C   UNL     1      -6.717   7.916  67.968  1.00  0.00    -0.067 A  
HETATM   14  C   UNL     1      -7.157   6.713  67.436  1.00  0.00    -0.080 A  
HETATM   15  C   UNL     1      -8.032   5.904  68.167  1.00  0.00    -0.109 A  
ENDBRANCH   6  10
TORSDOF 1
ENDMDL
MODEL      136
REMARK 921   NORMALIZED FREE ENERGY PREDICTED BY IDOCK:   -3.00 KCAL/MOL
REMARK 922        TOTAL FREE ENERGY PREDICTED BY IDOCK:   -3.48 KCAL/MOL
REMARK 923 INTER-LIGAND FREE ENERGY PREDICTED BY IDOCK:   -3.14 KCAL/MOL
REMARK 924 INTRA-LIGAND FREE ENERGY PREDICTED BY IDOCK:   -0.34 KCAL/MOL
REMARK 927      BINDING AFFINITY PREDICTED BY RF-SCORE:    0.00 PKD
ROOT
HETATM    1  C   UNL     1      -9.801  14.314  67.656  1.00  0.00    -0.224 C  
HETATM    2  N   UNL     1     -10.099  12.947  67.307  1.00  0.00    -0.229 N  
HETATM    3  C   UNL     1     -11.305  12.518  66.857  1.00  0.00    -0.326 C  
HETATM    4  C   UNL     1     -11.276  11.026  66.722  1.00  0.00    -0.163 C  
HETATM    5  O   UNL     1     -12.279  13.209  66.597  1.00  0.00    -0.366 OA 
HETATM    6  C   UNL     1      -9.788  10.633  66.893  1.00  0.00    -0.228 C  
HETATM    7  O   UNL     1      -7.927  12.199  67.295  1.00  0.00    -0.160 OA 
HETATM    8  C   UNL     1      -9.266  10.132  65.531  1.00  0.00    -0.237 C  
HETATM    9  C   UNL     1      -9.134  11.989  67.197  1.00  0.00    -0.186 C  
ENDROOT
BRANCH   6  10
HETATM   10  C   UNL     1      -9.452   9.639  68.018  1.00  0.00    -0.146 A  
HETATM   11  C   UNL     1      -9.593   9.923  69.385  1.00  0.00    -0.229 A  
HETATM   12  C   UNL     1      -9.154   9.023  70.363  1.00  0.00    -0.242 A  
HETATM   13  C   UNL     1      -8.584   7.809  70.001  1.00  0.00    -0.140 A  
HETATM   14  C   UNL     1      -8.471   7.482  68.658  1.00  0.00    -0.129 A  
HETATM   15  C   UNL     1      -8.903   8.382  67.681  1.00  0.00    -0.138 A  
ENDBRANCH   6  10
TORSDOF 1
ENDMDL
MODEL      137
REMARK 921   NORMALIZED FREE ENERGY PREDICTED BY IDOCK:   -2.98 KCAL/MOL
REMARK 922        TOTAL FREE ENERGY PREDICTED BY IDOCK:   -3.46 KCAL/MOL
REMARK 923 INTER-LIGAND FREE ENERGY PREDICTED BY IDOCK:   -3.11 KCAL/MOL
REMARK 924 INTRA-LIGAND FREE ENERGY PREDICTED BY IDOCK:   -0.35 KCAL/MOL
REMARK 927      BINDING AFFINITY PREDICTED BY RF-SCORE:    0.00 PKD
ROOT
HETATM    1  C   UNL     1     -10.699   7.530  66.984  1.00  0.00    -0.297 C  
HETATM    2  N   UNL     1      -9.809   7.502  68.118  1.00  0.00    -0.154 N  
HETATM    3  C   UNL     1      -8.487   7.204  68.046  1.00  0.00    -0.122 C  
HETATM    4  C   UNL     1      -7.921   7.150  69.433  1.00  0.00    -0.125 C  
HETATM    5  O   UNL     1      -7.834   7.003  67.033  1.00  0.00    -0.105 OA 
HETATM    6  C   UNL     1      -9.028   7.729  70.346  1.00  0.00    -0.147 C  
HETATM    7  O   UNL     1     -11.228   8.547  69.592  1.00  0.00    -0.086 OA 
HETATM    8  C   UNL     1      -8.542   9.090  70.883  1.00  0.00    -0.263 C  
HETATM    9  C   UNL     1     -10.168   7.978  69.346  1.00  0.00    -0.210 C  
ENDROOT
BRANCH   6  10
HETATM   10  C   UNL     1      -9.536   6.829  71.486  1.00  0.00    -0.165 A  
HETATM   11  C   UNL     1      -9.965   5.504  71.310  1.00  0.00    -0.249 A  
HETATM   12  C   UNL     1     -10.532   4.778  72.363  1.00  0.00    -0.258 A  
HETATM   13  C   UNL     1     -10.665   5.348  73.623  1.00  0.00    -0.337 A  
HETATM   14  C   UNL     1     -10.210   6.641  73.839  1.00  0.00    -0.379 A  
HETATM   15  C   UNL     1      -9.649   7.369  72.786  1.00  0.00    -0.212 A  
ENDBRANCH   6  10
TORSDOF 1
ENDMDL
MODEL      138
REMARK 921   NORMALIZED FREE ENERGY PREDICTED BY IDOCK:   -2.97 KCAL/MOL
REMARK 922        TOTAL FREE ENERGY PREDICTED BY IDOCK:   -3.45 KCAL/MOL
REMARK 923 INTER-LIGAND FREE ENERGY PREDICTED BY IDOCK:   -3.08 KCAL/MOL
REMARK 924 INTRA-LIGAND FREE ENERGY PREDICTED BY IDOCK:   -0.36 KCAL/MOL
REMARK 927      BINDING AFFINITY PREDICTED BY RF-SCORE:    0.00 PKD
ROOT
HETATM    1  C   UNL     1     -10.439   7.031  70.206  1.00  0.00    -0.208 C  
HETATM    2  N   UNL     1     -10.403   7.989  69.129  1.00  0.00    -0.218 N  
HETATM    3  C   UNL     1     -10.616   7.681  67.825  1.00  0.00    -0.196 C  
HETATM    4  C   UNL     1     -10.373   8.900  66.987  1.00  0.00    -0.340 C  
HETATM    5  O   UNL     1     -10.950   6.596  67.372  1.00  0.00    -0.321 OA 
HETATM    6  C   UNL     1     -10.248  10.066  67.997  1.00  0.00    -0.216 C  
HETATM    7  O   UNL     1     -10.429   9.870  70.448  1.00  0.00    -0.274 OA 
HETATM    8  C   UNL     1     -11.483  10.976  67.832  1.00  0.00    -0.358 C  
HETATM    9  C   UNL     1     -10.358   9.335  69.343  1.00  0.00    -0.215 C  
ENDROOT
BRANCH   6  10
HETATM   10  C   UNL     1      -8.945  10.884  67.963  1.00  0.00    -0.145 A  
HETATM   11  C   UNL     1      -8.898  12.287  67.996  1.00  0.00    -0.182 A  
HETATM   12  C   UNL     1      -7.691  12.977  67.838  1.00  0.00    -0.145 A  
HETATM   13  C   UNL     1      -6.499  12.285  67.663  1.00  0.00    -0.120 A  
HETATM   14  C   UNL     1      -6.508  10.897  67.670  1.00  0.00    -0.056 A  
HETATM   15  C   UNL     1      -7.714  10.208  67.822  1.00  0.00    -0.090 A  
ENDBRANCH   6  10
TORSDOF 1
ENDMDL
MODEL      139
REMARK 921   NORMALIZED FREE ENERGY PREDICTED BY IDOCK:   -2.96 KCAL/MOL
REMARK 922        TOTAL FREE ENERGY PREDICTED BY IDOCK:   -3.44 KCAL/MOL
REMARK 923 INTER-LIGAND FREE ENERGY PREDICTED BY IDOCK:   -3.09 KCAL/MOL
REMARK 924 INTRA-LIGAND FREE ENERGY PREDICTED BY IDOCK:   -0.35 KCAL/MOL
REMARK 927      BINDING AFFINITY PREDICTED BY RF-SCORE:    0.00 PKD
ROOT
HETATM    1  C   UNL     1     -10.719  10.570  68.015  1.00  0.00    -0.245 C  
HETATM    2  N   UNL     1     -10.836   9.665  69.132  1.00  0.00    -0.214 N  
HETATM    3  C   UNL     1     -11.433   9.978  70.310  1.00  0.00    -0.300 C  
HETATM    4  C   UNL     1     -11.250   8.842  71.269  1.00  0.00    -0.352 C  
HETATM    5  O   UNL     1     -12.029  11.011  70.580  1.00  0.00    -0.326 OA 
HETATM    6  C   UNL     1     -10.691   7.677  70.416  1.00  0.00    -0.241 C  
HETATM    7  O   UNL     1     -10.235   7.762  67.994  1.00  0.00    -0.186 OA 
HETATM    8  C   UNL     1     -11.781   6.589  70.321  1.00  0.00    -0.430 C  
HETATM    9  C   UNL     1     -10.541   8.337  69.037  1.00  0.00    -0.150 C  
ENDROOT
BRANCH   6  10
HETATM   10  C   UNL     1      -9.342   7.078  70.847  1.00  0.00    -0.157 A  
HETATM   11  C   UNL     1      -8.249   7.840  71.290  1.00  0.00    -0.105 A  
HETATM   12  C   UNL     1      -7.008   7.248  71.551  1.00  0.00    -0.059 A  
HETATM   13  C   UNL     1      -6.832   5.879  71.396  1.00  0.00    -0.063 A  
HETATM   14  C   UNL     1      -7.906   5.093  71.002  1.00  0.00    -0.097 A  
HETATM   15  C   UNL     1      -9.144   5.684  70.736  1.00  0.00    -0.164 A  
ENDBRANCH   6  10
TORSDOF 1
ENDMDL
MODEL      140
REMARK 921   NORMALIZED FREE ENERGY PREDICTED BY IDOCK:   -2.95 KCAL/MOL
REMARK 922        TOTAL FREE ENERGY PREDICTED BY IDOCK:   -3.43 KCAL/MOL
REMARK 923 INTER-LIGAND FREE ENERGY PREDICTED BY IDOCK:   -3.10 KCAL/MOL
REMARK 924 INTRA-LIGAND FREE ENERGY PREDICTED BY IDOCK:   -0.32 KCAL/MOL
REMARK 927      BINDING AFFINITY PREDICTED BY RF-SCORE:    0.00 PKD
ROOT
HETATM    1  C   UNL     1     -10.281   8.798  66.591  1.00  0.00    -0.270 C  
HETATM    2  N   UNL     1     -10.332   8.418  67.981  1.00  0.00    -0.218 N  
HETATM    3  C   UNL     1     -10.143   9.275  69.015  1.00  0.00    -0.199 C  
HETATM    4  C   UNL     1     -10.142   8.501  70.299  1.00  0.00    -0.199 C  
HETATM    5  O   UNL     1      -9.992  10.486  68.947  1.00  0.00    -0.185 OA 
HETATM    6  C   UNL     1     -10.633   7.083  69.918  1.00  0.00    -0.249 C  
HETATM    7  O   UNL     1     -11.265   6.344  67.652  1.00  0.00    -0.337 OA 
HETATM    8  C   UNL     1     -12.032   6.880  70.534  1.00  0.00    -0.358 C  
HETATM    9  C   UNL     1     -10.783   7.198  68.393  1.00  0.00    -0.147 C  
ENDROOT
BRANCH   6  10
HETATM   10  C   UNL     1      -9.700   5.906  70.253  1.00  0.00    -0.212 A  
HETATM   11  C   UNL     1      -8.491   5.648  69.588  1.00  0.00    -0.110 A  
HETATM   12  C   UNL     1      -7.748   4.493  69.855  1.00  0.00    -0.057 A  
HETATM   13  C   UNL     1      -8.182   3.578  70.806  1.00  0.00    -0.081 A  
HETATM   14  C   UNL     1      -9.350   3.828  71.511  1.00  0.00    -0.203 A  
HETATM   15  C   UNL     1     -10.096   4.978  71.241  1.00  0.00    -0.276 A  
ENDBRANCH   6  10
TORSDOF 1
ENDMDL
MODEL      141
REMARK 921   NORMALIZED FREE ENERGY PREDICTED BY IDOCK:   -2.95 KCAL/MOL
REMARK 922        TOTAL FREE ENERGY PREDICTED BY IDOCK:   -3.42 KCAL/MOL
REMARK 923 INTER-LIGAND FREE ENERGY PREDICTED BY IDOCK:   -3.25 KCAL/MOL
REMARK 924 INTRA-LIGAND FREE ENERGY PREDICTED BY IDOCK:   -0.17 KCAL/MOL
REMARK 927      BINDING AFFINITY PREDICTED BY RF-SCORE:    0.00 PKD
ROOT
HETATM    1  C   UNL     1     -12.014   9.169  72.068  1.00  0.00    -0.350 C  
HETATM    2  N   UNL     1     -11.294   9.568  70.884  1.00  0.00    -0.312 N  
HETATM    3  C   UNL     1     -11.544  10.701  70.182  1.00  0.00    -0.330 C  
HETATM    4  C   UNL     1     -10.690  10.715  68.951  1.00  0.00    -0.254 C  
HETATM    5  O   UNL     1     -12.334  11.587  70.476  1.00  0.00    -0.350 OA 
HETATM    6  C   UNL     1      -9.682   9.556  69.144  1.00  0.00    -0.178 C  
HETATM    7  O   UNL     1      -9.576   8.058  71.100  1.00  0.00    -0.156 OA 
HETATM    8  C   UNL     1      -8.283  10.169  69.353  1.00  0.00    -0.171 C  
HETATM    9  C   UNL     1     -10.151   8.946  70.474  1.00  0.00    -0.205 C  
ENDROOT
BRANCH   6  10
HETATM   10  C   UNL     1      -9.656   8.463  68.061  1.00  0.00    -0.168 A  
HETATM   11  C   UNL     1      -8.801   8.483  66.947  1.00  0.00    -0.153 A  
HETATM   12  C   UNL     1      -8.909   7.526  65.932  1.00  0.00    -0.157 A  
HETATM   13  C   UNL     1      -9.857   6.513  66.014  1.00  0.00     0.179 A  
HETATM   14  C   UNL     1     -10.686   6.442  67.124  1.00  0.00    -0.433 A  
HETATM   15  C   UNL     1     -10.583   7.401  68.135  1.00  0.00    -0.216 A  
ENDBRANCH   6  10
TORSDOF 1
ENDMDL
MODEL      142
REMARK 921   NORMALIZED FREE ENERGY PREDICTED BY IDOCK:   -2.95 KCAL/MOL
REMARK 922        TOTAL FREE ENERGY PREDICTED BY IDOCK:   -3.42 KCAL/MOL
REMARK 923 INTER-LIGAND FREE ENERGY PREDICTED BY IDOCK:   -3.09 KCAL/MOL
REMARK 924 INTRA-LIGAND FREE ENERGY PREDICTED BY IDOCK:   -0.34 KCAL/MOL
REMARK 927      BINDING AFFINITY PREDICTED BY RF-SCORE:    0.00 PKD
ROOT
HETATM    1  C   UNL     1      -7.313   7.538  65.519  1.00  0.00    -0.071 C  
HETATM    2  N   UNL     1      -8.493   7.769  66.314  1.00  0.00    -0.133 N  
HETATM    3  C   UNL     1      -9.451   8.682  66.013  1.00  0.00    -0.208 C  
HETATM    4  C   UNL     1     -10.452   8.728  67.128  1.00  0.00    -0.354 C  
HETATM    5  O   UNL     1      -9.516   9.374  65.007  1.00  0.00    -0.247 OA 
HETATM    6  C   UNL     1     -10.115   7.513  68.025  1.00  0.00    -0.221 C  
HETATM    7  O   UNL     1      -8.298   5.894  67.627  1.00  0.00    -0.105 OA 
HETATM    8  C   UNL     1     -11.258   6.486  67.890  1.00  0.00    -0.257 C  
HETATM    9  C   UNL     1      -8.865   6.945  67.336  1.00  0.00    -0.118 C  
ENDROOT
BRANCH   6  10
HETATM   10  C   UNL     1      -9.798   7.802  69.503  1.00  0.00    -0.179 A  
HETATM   11  C   UNL     1     -10.587   7.359  70.576  1.00  0.00    -0.234 A  
HETATM   12  C   UNL     1     -10.316   7.757  71.890  1.00  0.00    -0.256 A  
HETATM   13  C   UNL     1      -9.238   8.589  72.168  1.00  0.00    -0.336 A  
HETATM   14  C   UNL     1      -8.414   9.007  71.133  1.00  0.00    -0.234 A  
HETATM   15  C   UNL     1      -8.688   8.615  69.820  1.00  0.00    -0.132 A  
ENDBRANCH   6  10
TORSDOF 1
ENDMDL
MODEL      143
REMARK 921   NORMALIZED FREE ENERGY PREDICTED BY IDOCK:   -2.87 KCAL/MOL
REMARK 922        TOTAL FREE ENERGY PREDICTED BY IDOCK:   -3.34 KCAL/MOL
REMARK 923 INTER-LIGAND FREE ENERGY PREDICTED BY IDOCK:   -3.01 KCAL/MOL
REMARK 924 INTRA-LIGAND FREE ENERGY PREDICTED BY IDOCK:   -0.34 KCAL/MOL
REMARK 927      BINDING AFFINITY PREDICTED BY RF-SCORE:    0.00 PKD
ROOT
HETATM    1  C   UNL     1     -10.960   5.106  72.540  1.00  0.00    -0.215 C  
HETATM    2  N   UNL     1     -10.291   6.284  72.044  1.00  0.00    -0.200 N  
HETATM    3  C   UNL     1     -10.456   7.529  72.557  1.00  0.00    -0.249 C  
HETATM    4  C   UNL     1      -9.705   8.511  71.710  1.00  0.00    -0.337 C  
HETATM    5  O   UNL     1     -11.106   7.836  73.546  1.00  0.00    -0.279 OA 
HETATM    6  C   UNL     1      -8.834   7.648  70.765  1.00  0.00    -0.144 C  
HETATM    7  O   UNL     1      -8.759   5.184  70.733  1.00  0.00    -0.124 OA 
HETATM    8  C   UNL     1      -7.358   7.834  71.172  1.00  0.00    -0.066 C  
HETATM    9  C   UNL     1      -9.268   6.224  71.144  1.00  0.00    -0.153 C  
ENDROOT
BRANCH   6  10
HETATM   10  C   UNL     1      -9.025   7.857  69.253  1.00  0.00    -0.145 A  
HETATM   11  C   UNL     1      -8.037   7.586  68.292  1.00  0.00    -0.124 A  
HETATM   12  C   UNL     1      -8.226   7.912  66.944  1.00  0.00    -0.116 A  
HETATM   13  C   UNL     1      -9.413   8.496  66.519  1.00  0.00    -0.282 A  
HETATM   14  C   UNL     1     -10.424   8.735  67.438  1.00  0.00    -0.349 A  
HETATM   15  C   UNL     1     -10.234   8.416  68.785  1.00  0.00    -0.223 A  
ENDBRANCH   6  10
TORSDOF 1
ENDMDL
MODEL      144
REMARK 921   NORMALIZED FREE ENERGY PREDICTED BY IDOCK:   -2.84 KCAL/MOL
REMARK 922        TOTAL FREE ENERGY PREDICTED BY IDOCK:   -3.31 KCAL/MOL
REMARK 923 INTER-LIGAND FREE ENERGY PREDICTED BY IDOCK:   -2.98 KCAL/MOL
REMARK 924 INTRA-LIGAND FREE ENERGY PREDICTED BY IDOCK:   -0.33 KCAL/MOL
REMARK 927      BINDING AFFINITY PREDICTED BY RF-SCORE:    0.00 PKD
ROOT
HETATM    1  C   UNL     1     -11.623   5.617  72.677  1.00  0.00    -0.251 C  
HETATM    2  N   UNL     1     -11.094   6.427  71.608  1.00  0.00    -0.256 N  
HETATM    3  C   UNL     1     -11.654   7.587  71.180  1.00  0.00    -0.282 C  
HETATM    4  C   UNL     1     -10.905   8.078  69.978  1.00  0.00    -0.235 C  
HETATM    5  O   UNL     1     -12.613   8.164  71.670  1.00  0.00    -0.304 OA 
HETATM    6  C   UNL     1      -9.638   7.192  69.900  1.00  0.00    -0.163 C  
HETATM    7  O   UNL     1      -9.053   5.383  71.469  1.00  0.00    -0.140 OA 
HETATM    8  C   UNL     1      -8.417   8.074  70.233  1.00  0.00    -0.127 C  
HETATM    9  C   UNL     1      -9.862   6.213  71.062  1.00  0.00    -0.182 C  
ENDROOT
BRANCH   6  10
HETATM   10  C   UNL     1      -9.416   6.401  68.599  1.00  0.00    -0.122 A  
HETATM   11  C   UNL     1     -10.454   5.898  67.799  1.00  0.00    -0.300 A  
HETATM   12  C   UNL     1     -10.188   5.081  66.694  1.00  0.00    -0.299 A  
HETATM   13  C   UNL     1      -8.881   4.763  66.349  1.00  0.00    -0.113 A  
HETATM   14  C   UNL     1      -7.832   5.281  67.095  1.00  0.00    -0.100 A  
HETATM   15  C   UNL     1      -8.097   6.093  68.202  1.00  0.00    -0.111 A  
ENDBRANCH   6  10
TORSDOF 1
ENDMDL
MODEL      145
REMARK 921   NORMALIZED FREE ENERGY PREDICTED BY IDOCK:   -2.81 KCAL/MOL
REMARK 922        TOTAL FREE ENERGY PREDICTED BY IDOCK:   -3.28 KCAL/MOL
REMARK 923 INTER-LIGAND FREE ENERGY PREDICTED BY IDOCK:   -3.36 KCAL/MOL
REMARK 924 INTRA-LIGAND FREE ENERGY PREDICTED BY IDOCK:    0.07 KCAL/MOL
REMARK 927      BINDING AFFINITY PREDICTED BY RF-SCORE:    0.00 PKD
ROOT
HETATM    1  C   UNL     1      -9.673  14.432  68.399  1.00  0.00    -0.226 C  
HETATM    2  N   UNL     1      -9.371  13.100  67.938  1.00  0.00    -0.207 N  
HETATM    3  C   UNL     1      -8.285  12.385  68.324  1.00  0.00    -0.170 C  
HETATM    4  C   UNL     1      -8.237  11.105  67.546  1.00  0.00    -0.119 C  
HETATM    5  O   UNL     1      -7.457  12.704  69.165  1.00  0.00     0.029 OA 
HETATM    6  C   UNL     1      -9.605  11.019  66.825  1.00  0.00    -0.216 C  
HETATM    7  O   UNL     1     -11.419  12.680  66.986  1.00  0.00    -0.306 OA 
HETATM    8  C   UNL     1     -10.407   9.864  67.459  1.00  0.00    -0.289 C  
HETATM    9  C   UNL     1     -10.262  12.348  67.229  1.00  0.00    -0.215 C  
ENDROOT
BRANCH   6  10
HETATM   10  C   UNL     1      -9.581  10.904  65.291  1.00  0.00    -0.276 A  
HETATM   11  C   UNL     1     -10.299  11.748  64.430  1.00  0.00    -0.353 A  
HETATM   12  C   UNL     1     -10.336  11.517  63.050  1.00  0.00    -0.293 A  
HETATM   13  C   UNL     1      -9.640  10.450  62.494  1.00  0.00    -0.228 A  
HETATM   14  C   UNL     1      -8.886   9.625  63.315  1.00  0.00    -0.254 A  
HETATM   15  C   UNL     1      -8.854   9.852  64.694  1.00  0.00    -0.234 A  
ENDBRANCH   6  10
TORSDOF 1
ENDMDL
MODEL      146
REMARK 921   NORMALIZED FREE ENERGY PREDICTED BY IDOCK:   -2.81 KCAL/MOL
REMARK 922        TOTAL FREE ENERGY PREDICTED BY IDOCK:   -3.28 KCAL/MOL
REMARK 923 INTER-LIGAND FREE ENERGY PREDICTED BY IDOCK:   -2.93 KCAL/MOL
REMARK 924 INTRA-LIGAND FREE ENERGY PREDICTED BY IDOCK:   -0.35 KCAL/MOL
REMARK 927      BINDING AFFINITY PREDICTED BY RF-SCORE:    0.00 PKD
ROOT
HETATM    1  C   UNL     1      -8.177   8.400  70.564  1.00  0.00    -0.113 C  
HETATM    2  N   UNL     1      -9.201   8.621  69.574  1.00  0.00    -0.149 N  
HETATM    3  C   UNL     1     -10.391   7.969  69.546  1.00  0.00    -0.221 C  
HETATM    4  C   UNL     1     -11.138   8.365  68.309  1.00  0.00     0.327 C  
HETATM    5  O   UNL     1     -10.814   7.179  70.377  1.00  0.00    -0.232 OA 
HETATM    6  C   UNL     1     -10.350   9.562  67.725  1.00  0.00    -0.291 C  
HETATM    7  O   UNL     1      -8.308  10.547  68.695  1.00  0.00    -0.117 OA 
HETATM    8  C   UNL     1     -11.214  10.829  67.888  1.00  0.00    -0.386 C  
HETATM    9  C   UNL     1      -9.158   9.659  68.689  1.00  0.00    -0.132 C  
ENDROOT
BRANCH   6  10
HETATM   10  C   UNL     1      -9.832   9.423  66.283  1.00  0.00    -0.351 A  
HETATM   11  C   UNL     1      -8.905   8.453  65.872  1.00  0.00    -0.212 A  
HETATM   12  C   UNL     1      -8.379   8.454  64.575  1.00  0.00    -0.125 A  
HETATM   13  C   UNL     1      -8.781   9.411  63.651  1.00  0.00    -0.222 A  
HETATM   14  C   UNL     1      -9.729  10.355  64.015  1.00  0.00    -0.373 A  
HETATM   15  C   UNL     1     -10.251  10.358  65.311  1.00  0.00    -0.332 A  
ENDBRANCH   6  10
TORSDOF 1
ENDMDL
MODEL      147
REMARK 921   NORMALIZED FREE ENERGY PREDICTED BY IDOCK:   -2.75 KCAL/MOL
REMARK 922        TOTAL FREE ENERGY PREDICTED BY IDOCK:   -3.21 KCAL/MOL
REMARK 923 INTER-LIGAND FREE ENERGY PREDICTED BY IDOCK:   -2.85 KCAL/MOL
REMARK 924 INTRA-LIGAND FREE ENERGY PREDICTED BY IDOCK:   -0.36 KCAL/MOL
REMARK 927      BINDING AFFINITY PREDICTED BY RF-SCORE:    0.00 PKD
ROOT
HETATM    1  C   UNL     1      -7.855   7.410  70.973  1.00  0.00    -0.092 C  
HETATM    2  N   UNL     1      -8.943   6.932  70.155  1.00  0.00    -0.148 N  
HETATM    3  C   UNL     1     -10.170   6.604  70.631  1.00  0.00    -0.189 C  
HETATM    4  C   UNL     1     -10.991   6.030  69.517  1.00  0.00    -0.467 C  
HETATM    5  O   UNL     1     -10.573   6.738  71.778  1.00  0.00    -0.211 OA 
HETATM    6  C   UNL     1     -10.178   6.310  68.229  1.00  0.00    -0.198 C  
HETATM    7  O   UNL     1      -8.003   7.467  68.128  1.00  0.00    -0.119 OA 
HETATM    8  C   UNL     1     -10.942   7.363  67.401  1.00  0.00    -0.214 C  
HETATM    9  C   UNL     1      -8.906   6.962  68.792  1.00  0.00    -0.132 C  
ENDROOT
BRANCH   6  10
HETATM   10  C   UNL     1      -9.793   5.096  67.367  1.00  0.00    -0.193 A  
HETATM   11  C   UNL     1      -9.991   5.024  65.979  1.00  0.00    -0.220 A  
HETATM   12  C   UNL     1      -9.734   3.846  65.268  1.00  0.00    -0.187 A  
HETATM   13  C   UNL     1      -9.254   2.718  65.921  1.00  0.00    -0.083 A  
HETATM   14  C   UNL     1      -9.006   2.772  67.285  1.00  0.00    -0.183 A  
HETATM   15  C   UNL     1      -9.268   3.946  67.997  1.00  0.00    -0.212 A  
ENDBRANCH   6  10
TORSDOF 1
ENDMDL
MODEL      148
REMARK 921   NORMALIZED FREE ENERGY PREDICTED BY IDOCK:   -2.72 KCAL/MOL
REMARK 922        TOTAL FREE ENERGY PREDICTED BY IDOCK:   -3.18 KCAL/MOL
REMARK 923 INTER-LIGAND FREE ENERGY PREDICTED BY IDOCK:   -2.82 KCAL/MOL
REMARK 924 INTRA-LIGAND FREE ENERGY PREDICTED BY IDOCK:   -0.36 KCAL/MOL
REMARK 927      BINDING AFFINITY PREDICTED BY RF-SCORE:    0.00 PKD
ROOT
HETATM    1  C   UNL     1     -11.868   8.227  71.199  1.00  0.00    -0.275 C  
HETATM    2  N   UNL     1     -10.577   8.084  70.572  1.00  0.00    -0.216 N  
HETATM    3  C   UNL     1      -9.408   8.487  71.129  1.00  0.00    -0.196 C  
HETATM    4  C   UNL     1      -8.300   8.293  70.138  1.00  0.00    -0.124 C  
HETATM    5  O   UNL     1      -9.248   8.941  72.253  1.00  0.00    -0.376 OA 
HETATM    6  C   UNL     1      -8.922   7.457  68.994  1.00  0.00    -0.131 C  
HETATM    7  O   UNL     1     -11.252   6.654  68.905  1.00  0.00    -0.260 OA 
HETATM    8  C   UNL     1      -8.285   6.053  69.026  1.00  0.00    -0.108 C  
HETATM    9  C   UNL     1     -10.386   7.338  69.446  1.00  0.00    -0.208 C  
ENDROOT
BRANCH   6  10
HETATM   10  C   UNL     1      -8.871   8.060  67.579  1.00  0.00    -0.129 A  
HETATM   11  C   UNL     1      -8.372   7.383  66.455  1.00  0.00    -0.127 A  
HETATM   12  C   UNL     1      -8.237   8.027  65.220  1.00  0.00    -0.148 A  
HETATM   13  C   UNL     1      -8.616   9.356  65.071  1.00  0.00    -0.193 A  
HETATM   14  C   UNL     1      -9.153  10.038  66.153  1.00  0.00    -0.188 A  
HETATM   15  C   UNL     1      -9.283   9.397  67.388  1.00  0.00    -0.145 A  
ENDBRANCH   6  10
TORSDOF 1
ENDMDL
MODEL      149
REMARK 921   NORMALIZED FREE ENERGY PREDICTED BY IDOCK:   -2.72 KCAL/MOL
REMARK 922        TOTAL FREE ENERGY PREDICTED BY IDOCK:   -3.18 KCAL/MOL
REMARK 923 INTER-LIGAND FREE ENERGY PREDICTED BY IDOCK:   -2.84 KCAL/MOL
REMARK 924 INTRA-LIGAND FREE ENERGY PREDICTED BY IDOCK:   -0.34 KCAL/MOL
REMARK 927      BINDING AFFINITY PREDICTED BY RF-SCORE:    0.00 PKD
ROOT
HETATM    1  C   UNL     1      -8.934  10.844  64.584  1.00  0.00    -0.132 C  
HETATM    2  N   UNL     1      -9.540  10.240  65.745  1.00  0.00    -0.207 N  
HETATM    3  C   UNL     1     -10.626  10.740  66.387  1.00  0.00    -0.203 C  
HETATM    4  C   UNL     1     -10.890   9.922  67.614  1.00  0.00    -0.318 C  
HETATM    5  O   UNL     1     -11.302  11.701  66.048  1.00  0.00    -0.294 OA 
HETATM    6  C   UNL     1      -9.971   8.683  67.480  1.00  0.00    -0.256 C  
HETATM    7  O   UNL     1      -8.435   8.232  65.605  1.00  0.00    -0.142 OA 
HETATM    8  C   UNL     1     -10.865   7.450  67.237  1.00  0.00    -0.326 C  
HETATM    9  C   UNL     1      -9.206   8.993  66.185  1.00  0.00    -0.216 C  
ENDROOT
BRANCH   6  10
HETATM   10  C   UNL     1      -8.968   8.429  68.619  1.00  0.00    -0.140 A  
HETATM   11  C   UNL     1      -8.468   7.161  68.956  1.00  0.00    -0.129 A  
HETATM   12  C   UNL     1      -7.655   6.976  70.080  1.00  0.00    -0.099 A  
HETATM   13  C   UNL     1      -7.303   8.055  70.882  1.00  0.00    -0.058 A  
HETATM   14  C   UNL     1      -7.746   9.327  70.549  1.00  0.00    -0.160 A  
HETATM   15  C   UNL     1      -8.563   9.511  69.430  1.00  0.00    -0.159 A  
ENDBRANCH   6  10
TORSDOF 1
ENDMDL
MODEL      150
REMARK 921   NORMALIZED FREE ENERGY PREDICTED BY IDOCK:   -2.67 KCAL/MOL
REMARK 922        TOTAL FREE ENERGY PREDICTED BY IDOCK:   -3.13 KCAL/MOL
REMARK 923 INTER-LIGAND FREE ENERGY PREDICTED BY IDOCK:   -3.34 KCAL/MOL
REMARK 924 INTRA-LIGAND FREE ENERGY PREDICTED BY IDOCK:    0.20 KCAL/MOL
REMARK 927      BINDING AFFINITY PREDICTED BY RF-SCORE:    0.00 PKD
ROOT
HETATM    1  C   UNL     1     -10.781  18.330  67.976  1.00  0.00    -0.266 C  
HETATM    2  N   UNL     1      -9.707  17.558  67.402  1.00  0.00    -0.268 N  
HETATM    3  C   UNL     1      -9.804  16.856  66.245  1.00  0.00    -0.302 C  
HETATM    4  C   UNL     1      -8.538  16.081  66.034  1.00  0.00    -0.192 C  
HETATM    5  O   UNL     1     -10.754  16.833  65.477  1.00  0.00    -0.423 OA 
HETATM    6  C   UNL     1      -7.548  16.628  67.092  1.00  0.00    -0.218 C  
HETATM    7  O   UNL     1      -8.036  18.402  68.733  1.00  0.00    -0.307 OA 
HETATM    8  C   UNL     1      -6.444  17.412  66.353  1.00  0.00    -0.283 C  
HETATM    9  C   UNL     1      -8.424  17.628  67.861  1.00  0.00    -0.233 C  
ENDROOT
BRANCH   6  10
HETATM   10  C   UNL     1      -6.945  15.612  68.077  1.00  0.00    -0.141 A  
HETATM   11  C   UNL     1      -6.773  14.248  67.792  1.00  0.00    -0.190 A  
HETATM   12  C   UNL     1      -6.335  13.351  68.772  1.00  0.00    -0.094 A  
HETATM   13  C   UNL     1      -6.036  13.795  70.054  1.00  0.00    -0.142 A  
HETATM   14  C   UNL     1      -6.154  15.145  70.353  1.00  0.00    -0.095 A  
HETATM   15  C   UNL     1      -6.598  16.041  69.377  1.00  0.00    -0.182 A  
ENDBRANCH   6  10
TORSDOF 1
ENDMDL
MODEL      151
REMARK 921   NORMALIZED FREE ENERGY PREDICTED BY IDOCK:   -2.66 KCAL/MOL
REMARK 922        TOTAL FREE ENERGY PREDICTED BY IDOCK:   -3.12 KCAL/MOL
REMARK 923 INTER-LIGAND FREE ENERGY PREDICTED BY IDOCK:   -3.19 KCAL/MOL
REMARK 924 INTRA-LIGAND FREE ENERGY PREDICTED BY IDOCK:    0.07 KCAL/MOL
REMARK 927      BINDING AFFINITY PREDICTED BY RF-SCORE:    0.00 PKD
ROOT
HETATM    1  C   UNL     1      -8.175   5.579  66.728  1.00  0.00    -0.105 C  
HETATM    2  N   UNL     1      -8.767   6.829  67.135  1.00  0.00    -0.119 N  
HETATM    3  C   UNL     1      -9.787   6.939  68.023  1.00  0.00    -0.139 C  
HETATM    4  C   UNL     1     -10.219   8.372  68.099  1.00  0.00    -0.253 C  
HETATM    5  O   UNL     1     -10.297   6.036  68.670  1.00  0.00    -0.172 OA 
HETATM    6  C   UNL     1      -9.132   9.164  67.333  1.00  0.00    -0.142 C  
HETATM    7  O   UNL     1      -7.141   8.191  66.253  1.00  0.00    -0.071 OA 
HETATM    8  C   UNL     1      -8.345  10.007  68.357  1.00  0.00    -0.111 C  
HETATM    9  C   UNL     1      -8.218   8.039  66.823  1.00  0.00    -0.111 C  
ENDROOT
BRANCH   6  10
HETATM   10  C   UNL     1      -9.598  10.023  66.145  1.00  0.00    -0.265 A  
HETATM   11  C   UNL     1     -10.382  11.180  66.273  1.00  0.00    -0.299 A  
HETATM   12  C   UNL     1     -10.878  11.850  65.148  1.00  0.00    -0.350 A  
HETATM   13  C   UNL     1     -10.586  11.393  63.869  1.00  0.00    -0.452 A  
HETATM   14  C   UNL     1      -9.776  10.277  63.710  1.00  0.00    -0.298 A  
HETATM   15  C   UNL     1      -9.286   9.605  64.833  1.00  0.00    -0.306 A  
ENDBRANCH   6  10
TORSDOF 1
ENDMDL
MODEL      152
REMARK 921   NORMALIZED FREE ENERGY PREDICTED BY IDOCK:   -2.63 KCAL/MOL
REMARK 922        TOTAL FREE ENERGY PREDICTED BY IDOCK:   -3.08 KCAL/MOL
REMARK 923 INTER-LIGAND FREE ENERGY PREDICTED BY IDOCK:   -3.16 KCAL/MOL
REMARK 924 INTRA-LIGAND FREE ENERGY PREDICTED BY IDOCK:    0.07 KCAL/MOL
REMARK 927      BINDING AFFINITY PREDICTED BY RF-SCORE:    0.00 PKD
ROOT
HETATM    1  C   UNL     1      -9.341  11.666  68.278  1.00  0.00    -0.191 C  
HETATM    2  N   UNL     1      -9.557  10.241  68.245  1.00  0.00    -0.140 N  
HETATM    3  C   UNL     1     -10.179   9.585  67.233  1.00  0.00    -0.234 C  
HETATM    4  C   UNL     1     -10.332   8.142  67.605  1.00  0.00    -0.313 C  
HETATM    5  O   UNL     1     -10.566  10.064  66.177  1.00  0.00    -0.129 OA 
HETATM    6  C   UNL     1      -9.467   7.957  68.875  1.00  0.00    -0.150 C  
HETATM    7  O   UNL     1      -8.146   9.720  69.982  1.00  0.00    -0.161 OA 
HETATM    8  C   UNL     1      -8.255   7.077  68.505  1.00  0.00    -0.124 C  
HETATM    9  C   UNL     1      -8.970   9.387  69.133  1.00  0.00    -0.147 C  
ENDROOT
BRANCH   6  10
HETATM   10  C   UNL     1     -10.176   7.426  70.134  1.00  0.00    -0.207 A  
HETATM   11  C   UNL     1     -10.674   6.120  70.262  1.00  0.00    -0.355 A  
HETATM   12  C   UNL     1     -11.419   5.734  71.383  1.00  0.00    -0.095 A  
HETATM   13  C   UNL     1     -11.666   6.635  72.412  1.00  0.00    -0.260 A  
HETATM   14  C   UNL     1     -11.148   7.920  72.333  1.00  0.00    -0.392 A  
HETATM   15  C   UNL     1     -10.410   8.308  71.211  1.00  0.00    -0.256 A  
ENDBRANCH   6  10
TORSDOF 1
ENDMDL
MODEL      153
REMARK 921   NORMALIZED FREE ENERGY PREDICTED BY IDOCK:   -2.59 KCAL/MOL
REMARK 922        TOTAL FREE ENERGY PREDICTED BY IDOCK:   -3.04 KCAL/MOL
REMARK 923 INTER-LIGAND FREE ENERGY PREDICTED BY IDOCK:   -2.87 KCAL/MOL
REMARK 924 INTRA-LIGAND FREE ENERGY PREDICTED BY IDOCK:   -0.18 KCAL/MOL
REMARK 927      BINDING AFFINITY PREDICTED BY RF-SCORE:    0.00 PKD
ROOT
HETATM    1  C   UNL     1      -6.068   6.446  74.153  1.00  0.00    -0.065 C  
HETATM    2  N   UNL     1      -7.351   6.339  73.503  1.00  0.00    -0.087 N  
HETATM    3  C   UNL     1      -7.965   5.164  73.213  1.00  0.00    -0.107 C  
HETATM    4  C   UNL     1      -9.211   5.443  72.429  1.00  0.00    -0.152 C  
HETATM    5  O   UNL     1      -7.589   4.043  73.523  1.00  0.00    -0.073 OA 
HETATM    6  C   UNL     1      -9.412   6.975  72.519  1.00  0.00    -0.161 C  
HETATM    7  O   UNL     1      -7.944   8.547  73.725  1.00  0.00    -0.374 OA 
HETATM    8  C   UNL     1     -10.658   7.244  73.388  1.00  0.00    -0.435 C  
HETATM    9  C   UNL     1      -8.167   7.414  73.305  1.00  0.00    -0.116 C  
ENDROOT
BRANCH   6  10
HETATM   10  C   UNL     1      -9.480   7.752  71.193  1.00  0.00    -0.169 A  
HETATM   11  C   UNL     1      -9.690   9.137  71.104  1.00  0.00    -0.360 A  
HETATM   12  C   UNL     1      -9.866   9.767  69.867  1.00  0.00    -0.279 A  
HETATM   13  C   UNL     1      -9.816   9.034  68.687  1.00  0.00    -0.177 A  
HETATM   14  C   UNL     1      -9.566   7.671  68.741  1.00  0.00    -0.153 A  
HETATM   15  C   UNL     1      -9.397   7.040  69.977  1.00  0.00    -0.158 A  
ENDBRANCH   6  10
TORSDOF 1
ENDMDL
MODEL      154
REMARK 921   NORMALIZED FREE ENERGY PREDICTED BY IDOCK:   -2.59 KCAL/MOL
REMARK 922        TOTAL FREE ENERGY PREDICTED BY IDOCK:   -3.04 KCAL/MOL
REMARK 923 INTER-LIGAND FREE ENERGY PREDICTED BY IDOCK:   -2.70 KCAL/MOL
REMARK 924 INTRA-LIGAND FREE ENERGY PREDICTED BY IDOCK:   -0.34 KCAL/MOL
REMARK 927      BINDING AFFINITY PREDICTED BY RF-SCORE:    0.00 PKD
ROOT
HETATM    1  C   UNL     1      -5.711   9.272  71.849  1.00  0.00    -0.063 C  
HETATM    2  N   UNL     1      -7.017   8.683  72.016  1.00  0.00    -0.088 N  
HETATM    3  C   UNL     1      -7.445   8.085  73.156  1.00  0.00    -0.133 C  
HETATM    4  C   UNL     1      -8.795   7.481  72.916  1.00  0.00    -0.190 C  
HETATM    5  O   UNL     1      -6.850   8.027  74.223  1.00  0.00    -0.113 OA 
HETATM    6  C   UNL     1      -9.248   8.035  71.544  1.00  0.00    -0.188 C  
HETATM    7  O   UNL     1      -7.957   9.583  70.123  1.00  0.00    -0.124 OA 
HETATM    8  C   UNL     1     -10.424   9.004  71.783  1.00  0.00    -0.418 C  
HETATM    9  C   UNL     1      -8.023   8.855  71.111  1.00  0.00    -0.144 C  
ENDROOT
BRANCH   6  10
HETATM   10  C   UNL     1      -9.588   7.006  70.451  1.00  0.00    -0.169 A  
HETATM   11  C   UNL     1      -8.646   6.150  69.859  1.00  0.00    -0.132 A  
HETATM   12  C   UNL     1      -8.991   5.323  68.784  1.00  0.00    -0.125 A  
HETATM   13  C   UNL     1     -10.289   5.314  68.288  1.00  0.00    -0.181 A  
HETATM   14  C   UNL     1     -11.252   6.117  68.882  1.00  0.00    -0.338 A  
HETATM   15  C   UNL     1     -10.907   6.948  69.951  1.00  0.00    -0.294 A  
ENDBRANCH   6  10
TORSDOF 1
ENDMDL
MODEL      155
REMARK 921   NORMALIZED FREE ENERGY PREDICTED BY IDOCK:   -2.55 KCAL/MOL
REMARK 922        TOTAL FREE ENERGY PREDICTED BY IDOCK:   -3.01 KCAL/MOL
REMARK 923 INTER-LIGAND FREE ENERGY PREDICTED BY IDOCK:   -2.78 KCAL/MOL
REMARK 924 INTRA-LIGAND FREE ENERGY PREDICTED BY IDOCK:   -0.22 KCAL/MOL
REMARK 927      BINDING AFFINITY PREDICTED BY RF-SCORE:    0.00 PKD
ROOT
HETATM    1  C   UNL     1      -9.138   9.773  69.071  1.00  0.00    -0.157 C  
HETATM    2  N   UNL     1      -8.802   8.437  69.497  1.00  0.00    -0.144 N  
HETATM    3  C   UNL     1      -8.457   7.431  68.655  1.00  0.00    -0.129 C  
HETATM    4  C   UNL     1      -8.303   6.164  69.441  1.00  0.00    -0.116 C  
HETATM    5  O   UNL     1      -8.294   7.509  67.446  1.00  0.00    -0.111 OA 
HETATM    6  C   UNL     1      -8.335   6.603  70.925  1.00  0.00    -0.125 C  
HETATM    7  O   UNL     1      -8.586   8.919  71.733  1.00  0.00    -0.318 OA 
HETATM    8  C   UNL     1      -6.926   6.394  71.516  1.00  0.00    -0.076 C  
HETATM    9  C   UNL     1      -8.595   8.112  70.806  1.00  0.00    -0.134 C  
ENDROOT
BRANCH   6  10
HETATM   10  C   UNL     1      -9.414   5.967  71.820  1.00  0.00    -0.165 A  
HETATM   11  C   UNL     1      -9.183   4.877  72.673  1.00  0.00    -0.145 A  
HETATM   12  C   UNL     1     -10.232   4.264  73.369  1.00  0.00    -0.219 A  
HETATM   13  C   UNL     1     -11.533   4.738  73.246  1.00  0.00    -0.361 A  
HETATM   14  C   UNL     1     -11.784   5.842  72.445  1.00  0.00    -0.307 A  
HETATM   15  C   UNL     1     -10.739   6.450  71.745  1.00  0.00    -0.273 A  
ENDBRANCH   6  10
TORSDOF 1
ENDMDL
MODEL      156
REMARK 921   NORMALIZED FREE ENERGY PREDICTED BY IDOCK:   -2.51 KCAL/MOL
REMARK 922        TOTAL FREE ENERGY PREDICTED BY IDOCK:   -2.96 KCAL/MOL
REMARK 923 INTER-LIGAND FREE ENERGY PREDICTED BY IDOCK:   -2.63 KCAL/MOL
REMARK 924 INTRA-LIGAND FREE ENERGY PREDICTED BY IDOCK:   -0.33 KCAL/MOL
REMARK 927      BINDING AFFINITY PREDICTED BY RF-SCORE:    0.00 PKD
ROOT
HETATM    1  C   UNL     1      -7.917   7.103  64.181  1.00  0.00    -0.085 C  
HETATM    2  N   UNL     1      -8.248   6.031  65.087  1.00  0.00    -0.139 N  
HETATM    3  C   UNL     1      -8.833   4.866  64.711  1.00  0.00    -0.147 C  
HETATM    4  C   UNL     1      -9.139   4.054  65.933  1.00  0.00    -0.143 C  
HETATM    5  O   UNL     1      -9.086   4.506  63.571  1.00  0.00    -0.145 OA 
HETATM    6  C   UNL     1      -8.406   4.774  67.091  1.00  0.00    -0.106 C  
HETATM    7  O   UNL     1      -7.042   6.817  66.877  1.00  0.00    -0.071 OA 
HETATM    8  C   UNL     1      -7.245   3.872  67.557  1.00  0.00    -0.067 C  
HETATM    9  C   UNL     1      -7.815   6.001  66.380  1.00  0.00    -0.104 C  
ENDROOT
BRANCH   6  10
HETATM   10  C   UNL     1      -9.264   5.237  68.282  1.00  0.00    -0.132 A  
HETATM   11  C   UNL     1      -9.163   4.704  69.577  1.00  0.00    -0.182 A  
HETATM   12  C   UNL     1     -10.054   5.078  70.588  1.00  0.00    -0.313 A  
HETATM   13  C   UNL     1     -11.055   6.009  70.339  1.00  0.00    -0.399 A  
HETATM   14  C   UNL     1     -11.152   6.587  69.081  1.00  0.00    -0.387 A  
HETATM   15  C   UNL     1     -10.266   6.209  68.068  1.00  0.00    -0.210 A  
ENDBRANCH   6  10
TORSDOF 1
ENDMDL
MODEL      157
REMARK 921   NORMALIZED FREE ENERGY PREDICTED BY IDOCK:   -2.46 KCAL/MOL
REMARK 922        TOTAL FREE ENERGY PREDICTED BY IDOCK:   -2.91 KCAL/MOL
REMARK 923 INTER-LIGAND FREE ENERGY PREDICTED BY IDOCK:   -2.68 KCAL/MOL
REMARK 924 INTRA-LIGAND FREE ENERGY PREDICTED BY IDOCK:   -0.23 KCAL/MOL
REMARK 927      BINDING AFFINITY PREDICTED BY RF-SCORE:    0.00 PKD
ROOT
HETATM    1  C   UNL     1      -7.884  10.649  63.604  1.00  0.00     0.100 C  
HETATM    2  N   UNL     1      -8.801  11.203  64.569  1.00  0.00     0.003 N  
HETATM    3  C   UNL     1     -10.133  11.353  64.359  1.00  0.00    -0.291 C  
HETATM    4  C   UNL     1     -10.735  12.076  65.526  1.00  0.00    -0.318 C  
HETATM    5  O   UNL     1     -10.770  10.976  63.386  1.00  0.00    -0.318 OA 
HETATM    6  C   UNL     1      -9.624  12.102  66.603  1.00  0.00    -0.226 C  
HETATM    7  O   UNL     1      -7.370  11.130  66.364  1.00  0.00    -0.143 OA 
HETATM    8  C   UNL     1     -10.059  11.180  67.761  1.00  0.00    -0.200 C  
HETATM    9  C   UNL     1      -8.450  11.438  65.866  1.00  0.00    -0.002 C  
ENDROOT
BRANCH   6  10
HETATM   10  C   UNL     1      -9.186  13.481  67.125  1.00  0.00    -0.236 A  
HETATM   11  C   UNL     1      -9.433  14.689  66.453  1.00  0.00    -0.325 A  
HETATM   12  C   UNL     1      -8.903  15.899  66.915  1.00  0.00    -0.264 A  
HETATM   13  C   UNL     1      -8.131  15.936  68.070  1.00  0.00    -0.144 A  
HETATM   14  C   UNL     1      -7.907  14.766  68.780  1.00  0.00    -0.146 A  
HETATM   15  C   UNL     1      -8.431  13.556  68.315  1.00  0.00    -0.168 A  
ENDBRANCH   6  10
TORSDOF 1
ENDMDL
MODEL      158
REMARK 921   NORMALIZED FREE ENERGY PREDICTED BY IDOCK:   -2.46 KCAL/MOL
REMARK 922        TOTAL FREE ENERGY PREDICTED BY IDOCK:   -2.91 KCAL/MOL
REMARK 923 INTER-LIGAND FREE ENERGY PREDICTED BY IDOCK:   -2.56 KCAL/MOL
REMARK 924 INTRA-LIGAND FREE ENERGY PREDICTED BY IDOCK:   -0.35 KCAL/MOL
REMARK 927      BINDING AFFINITY PREDICTED BY RF-SCORE:    0.00 PKD
ROOT
HETATM    1  C   UNL     1      -5.519   5.831  73.260  1.00  0.00    -0.024 C  
HETATM    2  N   UNL     1      -6.827   5.273  73.020  1.00  0.00    -0.075 N  
HETATM    3  C   UNL     1      -7.093   3.944  72.973  1.00  0.00    -0.058 C  
HETATM    4  C   UNL     1      -8.525   3.744  72.578  1.00  0.00    -0.092 C  
HETATM    5  O   UNL     1      -6.316   3.030  73.207  1.00  0.00    -0.015 OA 
HETATM    6  C   UNL     1      -9.167   5.150  72.658  1.00  0.00    -0.146 C  
HETATM    7  O   UNL     1      -8.004   7.224  73.312  1.00  0.00    -0.100 OA 
HETATM    8  C   UNL     1     -10.156   5.158  73.842  1.00  0.00    -0.228 C  
HETATM    9  C   UNL     1      -7.962   6.030  73.024  1.00  0.00    -0.109 C  
ENDROOT
BRANCH   6  10
HETATM   10  C   UNL     1      -9.827   5.693  71.378  1.00  0.00    -0.221 A  
HETATM   11  C   UNL     1     -10.901   6.597  71.371  1.00  0.00    -0.282 A  
HETATM   12  C   UNL     1     -11.538   6.958  70.178  1.00  0.00    -0.340 A  
HETATM   13  C   UNL     1     -11.107   6.442  68.962  1.00  0.00    -0.424 A  
HETATM   14  C   UNL     1     -10.020   5.580  68.934  1.00  0.00    -0.236 A  
HETATM   15  C   UNL     1      -9.386   5.215  70.125  1.00  0.00    -0.208 A  
ENDBRANCH   6  10
TORSDOF 1
ENDMDL
MODEL      159
REMARK 921   NORMALIZED FREE ENERGY PREDICTED BY IDOCK:   -2.45 KCAL/MOL
REMARK 922        TOTAL FREE ENERGY PREDICTED BY IDOCK:   -2.90 KCAL/MOL
REMARK 923 INTER-LIGAND FREE ENERGY PREDICTED BY IDOCK:   -2.56 KCAL/MOL
REMARK 924 INTRA-LIGAND FREE ENERGY PREDICTED BY IDOCK:   -0.34 KCAL/MOL
REMARK 927      BINDING AFFINITY PREDICTED BY RF-SCORE:    0.00 PKD
ROOT
HETATM    1  C   UNL     1      -8.014   9.660  65.380  1.00  0.00    -0.120 C  
HETATM    2  N   UNL     1      -8.994   9.140  66.301  1.00  0.00    -0.149 N  
HETATM    3  C   UNL     1      -9.965   9.886  66.885  1.00  0.00    -0.212 C  
HETATM    4  C   UNL     1     -10.708   9.037  67.872  1.00  0.00    -0.200 C  
HETATM    5  O   UNL     1     -10.219  11.062  66.668  1.00  0.00    -0.218 OA 
HETATM    6  C   UNL     1     -10.227   7.590  67.605  1.00  0.00    -0.275 C  
HETATM    7  O   UNL     1      -8.584   6.917  65.894  1.00  0.00    -0.143 OA 
HETATM    8  C   UNL     1     -11.403   6.799  66.998  1.00  0.00     0.013 C  
HETATM    9  C   UNL     1      -9.167   7.803  66.513  1.00  0.00    -0.184 C  
ENDROOT
BRANCH   6  10
HETATM   10  C   UNL     1      -9.598   6.833  68.788  1.00  0.00    -0.132 A  
HETATM   11  C   UNL     1      -8.376   7.184  69.384  1.00  0.00    -0.133 A  
HETATM   12  C   UNL     1      -7.796   6.383  70.375  1.00  0.00    -0.107 A  
HETATM   13  C   UNL     1      -8.429   5.225  70.809  1.00  0.00    -0.123 A  
HETATM   14  C   UNL     1      -9.659   4.877  70.269  1.00  0.00    -0.265 A  
HETATM   15  C   UNL     1     -10.236   5.672  69.275  1.00  0.00    -0.309 A  
ENDBRANCH   6  10
TORSDOF 1
ENDMDL
MODEL      160
REMARK 921   NORMALIZED FREE ENERGY PREDICTED BY IDOCK:   -2.44 KCAL/MOL
REMARK 922        TOTAL FREE ENERGY PREDICTED BY IDOCK:   -2.88 KCAL/MOL
REMARK 923 INTER-LIGAND FREE ENERGY PREDICTED BY IDOCK:   -2.60 KCAL/MOL
REMARK 924 INTRA-LIGAND FREE ENERGY PREDICTED BY IDOCK:   -0.28 KCAL/MOL
REMARK 927      BINDING AFFINITY PREDICTED BY RF-SCORE:    0.00 PKD
ROOT
HETATM    1  C   UNL     1     -10.465   9.715  70.354  1.00  0.00    -0.293 C  
HETATM    2  N   UNL     1      -9.602   8.588  70.101  1.00  0.00    -0.167 N  
HETATM    3  C   UNL     1      -8.273   8.567  70.373  1.00  0.00    -0.114 C  
HETATM    4  C   UNL     1      -7.688   7.285  69.861  1.00  0.00    -0.103 C  
HETATM    5  O   UNL     1      -7.626   9.436  70.939  1.00  0.00    -0.216 OA 
HETATM    6  C   UNL     1      -8.906   6.407  69.483  1.00  0.00    -0.136 C  
HETATM    7  O   UNL     1     -11.272   7.059  69.712  1.00  0.00    -0.262 OA 
HETATM    8  C   UNL     1      -8.980   5.236  70.483  1.00  0.00    -0.162 C  
HETATM    9  C   UNL     1     -10.081   7.357  69.757  1.00  0.00    -0.193 C  
ENDROOT
BRANCH   6  10
HETATM   10  C   UNL     1      -8.982   5.905  68.031  1.00  0.00    -0.118 A  
HETATM   11  C   UNL     1      -8.354   6.540  66.947  1.00  0.00    -0.113 A  
HETATM   12  C   UNL     1      -8.562   6.106  65.632  1.00  0.00    -0.148 A  
HETATM   13  C   UNL     1      -9.383   5.016  65.369  1.00  0.00    -0.123 A  
HETATM   14  C   UNL     1      -9.981   4.342  66.424  1.00  0.00    -0.252 A  
HETATM   15  C   UNL     1      -9.779   4.778  67.736  1.00  0.00    -0.202 A  
ENDBRANCH   6  10
TORSDOF 1
ENDMDL
MODEL      161
REMARK 921   NORMALIZED FREE ENERGY PREDICTED BY IDOCK:   -2.42 KCAL/MOL
REMARK 922        TOTAL FREE ENERGY PREDICTED BY IDOCK:   -2.87 KCAL/MOL
REMARK 923 INTER-LIGAND FREE ENERGY PREDICTED BY IDOCK:   -2.60 KCAL/MOL
REMARK 924 INTRA-LIGAND FREE ENERGY PREDICTED BY IDOCK:   -0.27 KCAL/MOL
REMARK 927      BINDING AFFINITY PREDICTED BY RF-SCORE:    0.00 PKD
ROOT
HETATM    1  C   UNL     1      -9.502   3.677  67.459  1.00  0.00    -0.191 C  
HETATM    2  N   UNL     1      -8.933   4.977  67.717  1.00  0.00    -0.110 N  
HETATM    3  C   UNL     1      -8.506   5.396  68.934  1.00  0.00    -0.099 C  
HETATM    4  C   UNL     1      -8.098   6.836  68.842  1.00  0.00    -0.120 C  
HETATM    5  O   UNL     1      -8.452   4.736  69.961  1.00  0.00    -0.074 OA 
HETATM    6  C   UNL     1      -8.080   7.155  67.327  1.00  0.00    -0.115 C  
HETATM    7  O   UNL     1      -8.618   5.567  65.519  1.00  0.00    -0.142 OA 
HETATM    8  C   UNL     1      -6.613   7.370  66.901  1.00  0.00    -0.057 C  
HETATM    9  C   UNL     1      -8.576   5.835  66.718  1.00  0.00    -0.112 C  
ENDROOT
BRANCH   6  10
HETATM   10  C   UNL     1      -8.975   8.310  66.844  1.00  0.00    -0.169 A  
HETATM   11  C   UNL     1      -8.873   8.904  65.576  1.00  0.00    -0.238 A  
HETATM   12  C   UNL     1      -9.630  10.032  65.240  1.00  0.00    -0.355 A  
HETATM   13  C   UNL     1     -10.523  10.581  66.153  1.00  0.00    -0.237 A  
HETATM   14  C   UNL     1     -10.678   9.988  67.398  1.00  0.00    -0.336 A  
HETATM   15  C   UNL     1      -9.917   8.866  67.736  1.00  0.00    -0.241 A  
ENDBRANCH   6  10
TORSDOF 1
ENDMDL
MODEL      162
REMARK 921   NORMALIZED FREE ENERGY PREDICTED BY IDOCK:   -2.41 KCAL/MOL
REMARK 922        TOTAL FREE ENERGY PREDICTED BY IDOCK:   -2.86 KCAL/MOL
REMARK 923 INTER-LIGAND FREE ENERGY PREDICTED BY IDOCK:   -2.95 KCAL/MOL
REMARK 924 INTRA-LIGAND FREE ENERGY PREDICTED BY IDOCK:    0.09 KCAL/MOL
REMARK 927      BINDING AFFINITY PREDICTED BY RF-SCORE:    0.00 PKD
ROOT
HETATM    1  C   UNL     1     -12.413   7.100  71.171  1.00  0.00    -0.359 C  
HETATM    2  N   UNL     1     -11.055   7.537  71.383  1.00  0.00    -0.236 N  
HETATM    3  C   UNL     1     -10.536   7.856  72.595  1.00  0.00    -0.320 C  
HETATM    4  C   UNL     1      -9.146   8.386  72.409  1.00  0.00    -0.326 C  
HETATM    5  O   UNL     1     -11.085   7.745  73.682  1.00  0.00    -0.197 OA 
HETATM    6  C   UNL     1      -8.793   8.086  70.932  1.00  0.00    -0.147 C  
HETATM    7  O   UNL     1     -10.266   6.966  69.303  1.00  0.00    -0.175 OA 
HETATM    8  C   UNL     1      -7.700   6.998  70.913  1.00  0.00    -0.095 C  
HETATM    9  C   UNL     1     -10.101   7.472  70.410  1.00  0.00    -0.196 C  
ENDROOT
BRANCH   6  10
HETATM   10  C   UNL     1      -8.402   9.284  70.049  1.00  0.00    -0.176 A  
HETATM   11  C   UNL     1      -7.234  10.043  70.227  1.00  0.00    -0.155 A  
HETATM   12  C   UNL     1      -6.995  11.195  69.471  1.00  0.00    -0.111 A  
HETATM   13  C   UNL     1      -7.904  11.607  68.504  1.00  0.00    -0.140 A  
HETATM   14  C   UNL     1      -9.045  10.853  68.275  1.00  0.00    -0.158 A  
HETATM   15  C   UNL     1      -9.288   9.705  69.034  1.00  0.00    -0.159 A  
ENDBRANCH   6  10
TORSDOF 1
ENDMDL
MODEL      163
REMARK 921   NORMALIZED FREE ENERGY PREDICTED BY IDOCK:   -2.41 KCAL/MOL
REMARK 922        TOTAL FREE ENERGY PREDICTED BY IDOCK:   -2.85 KCAL/MOL
REMARK 923 INTER-LIGAND FREE ENERGY PREDICTED BY IDOCK:   -2.49 KCAL/MOL
REMARK 924 INTRA-LIGAND FREE ENERGY PREDICTED BY IDOCK:   -0.36 KCAL/MOL
REMARK 927      BINDING AFFINITY PREDICTED BY RF-SCORE:    0.00 PKD
ROOT
HETATM    1  C   UNL     1      -8.291   6.648  70.785  1.00  0.00    -0.129 C  
HETATM    2  N   UNL     1      -9.010   6.685  69.536  1.00  0.00    -0.138 N  
HETATM    3  C   UNL     1     -10.328   6.390  69.404  1.00  0.00    -0.209 C  
HETATM    4  C   UNL     1     -10.692   6.410  67.951  1.00  0.00    -0.372 C  
HETATM    5  O   UNL     1     -11.118   6.140  70.303  1.00  0.00    -0.317 OA 
HETATM    6  C   UNL     1      -9.467   7.030  67.235  1.00  0.00    -0.165 C  
HETATM    7  O   UNL     1      -7.399   7.798  68.336  1.00  0.00    -0.090 OA 
HETATM    8  C   UNL     1      -9.876   8.421  66.706  1.00  0.00    -0.329 C  
HETATM    9  C   UNL     1      -8.482   7.222  68.399  1.00  0.00    -0.125 C  
ENDROOT
BRANCH   6  10
HETATM   10  C   UNL     1      -8.800   6.189  66.133  1.00  0.00    -0.158 A  
HETATM   11  C   UNL     1      -8.366   6.709  64.903  1.00  0.00    -0.037 A  
HETATM   12  C   UNL     1      -7.880   5.872  63.892  1.00  0.00    -0.119 A  
HETATM   13  C   UNL     1      -7.795   4.500  64.091  1.00  0.00    -0.086 A  
HETATM   14  C   UNL     1      -8.175   3.962  65.312  1.00  0.00    -0.101 A  
HETATM   15  C   UNL     1      -8.667   4.796  66.320  1.00  0.00    -0.114 A  
ENDBRANCH   6  10
TORSDOF 1
ENDMDL
MODEL      164
REMARK 921   NORMALIZED FREE ENERGY PREDICTED BY IDOCK:   -2.32 KCAL/MOL
REMARK 922        TOTAL FREE ENERGY PREDICTED BY IDOCK:   -2.76 KCAL/MOL
REMARK 923 INTER-LIGAND FREE ENERGY PREDICTED BY IDOCK:   -2.40 KCAL/MOL
REMARK 924 INTRA-LIGAND FREE ENERGY PREDICTED BY IDOCK:   -0.36 KCAL/MOL
REMARK 927      BINDING AFFINITY PREDICTED BY RF-SCORE:    0.00 PKD
ROOT
HETATM    1  C   UNL     1     -10.757   7.927  69.992  1.00  0.00    -0.244 C  
HETATM    2  N   UNL     1     -10.325   6.813  69.183  1.00  0.00    -0.184 N  
HETATM    3  C   UNL     1     -10.262   5.531  69.621  1.00  0.00    -0.266 C  
HETATM    4  C   UNL     1      -9.651   4.678  68.551  1.00  0.00    -0.220 C  
HETATM    5  O   UNL     1     -10.630   5.106  70.706  1.00  0.00    -0.222 OA 
HETATM    6  C   UNL     1      -9.604   5.578  67.292  1.00  0.00    -0.132 C  
HETATM    7  O   UNL     1     -10.394   7.910  67.166  1.00  0.00    -0.268 OA 
HETATM    8  C   UNL     1     -10.618   5.024  66.270  1.00  0.00    -0.332 C  
HETATM    9  C   UNL     1     -10.138   6.912  67.835  1.00  0.00    -0.162 C  
ENDROOT
BRANCH   6  10
HETATM   10  C   UNL     1      -8.227   5.803  66.644  1.00  0.00    -0.106 A  
HETATM   11  C   UNL     1      -7.929   5.495  65.307  1.00  0.00    -0.112 A  
HETATM   12  C   UNL     1      -6.626   5.607  64.809  1.00  0.00    -0.042 A  
HETATM   13  C   UNL     1      -5.593   6.050  65.627  1.00  0.00    -0.020 A  
HETATM   14  C   UNL     1      -5.866   6.404  66.940  1.00  0.00    -0.020 A  
HETATM   15  C   UNL     1      -7.166   6.286  67.440  1.00  0.00    -0.075 A  
ENDBRANCH   6  10
TORSDOF 1
ENDMDL
MODEL      165
REMARK 921   NORMALIZED FREE ENERGY PREDICTED BY IDOCK:   -2.31 KCAL/MOL
REMARK 922        TOTAL FREE ENERGY PREDICTED BY IDOCK:   -2.75 KCAL/MOL
REMARK 923 INTER-LIGAND FREE ENERGY PREDICTED BY IDOCK:   -2.41 KCAL/MOL
REMARK 924 INTRA-LIGAND FREE ENERGY PREDICTED BY IDOCK:   -0.34 KCAL/MOL
REMARK 927      BINDING AFFINITY PREDICTED BY RF-SCORE:    0.00 PKD
ROOT
HETATM    1  C   UNL     1     -10.503   9.248  70.702  1.00  0.00    -0.262 C  
HETATM    2  N   UNL     1     -10.327   7.848  71.000  1.00  0.00    -0.201 N  
HETATM    3  C   UNL     1     -11.322   7.024  71.415  1.00  0.00    -0.265 C  
HETATM    4  C   UNL     1     -10.741   5.683  71.748  1.00  0.00    -0.305 C  
HETATM    5  O   UNL     1     -12.509   7.299  71.517  1.00  0.00    -0.336 OA 
HETATM    6  C   UNL     1      -9.289   5.727  71.213  1.00  0.00    -0.166 C  
HETATM    7  O   UNL     1      -8.239   7.640  70.066  1.00  0.00    -0.121 OA 
HETATM    8  C   UNL     1      -9.193   4.765  70.011  1.00  0.00    -0.178 C  
HETATM    9  C   UNL     1      -9.185   7.169  70.693  1.00  0.00    -0.158 C  
ENDROOT
BRANCH   6  10
HETATM   10  C   UNL     1      -8.162   5.466  72.227  1.00  0.00    -0.115 A  
HETATM   11  C   UNL     1      -8.204   5.871  73.571  1.00  0.00    -0.111 A  
HETATM   12  C   UNL     1      -7.097   5.714  74.412  1.00  0.00    -0.085 A  
HETATM   13  C   UNL     1      -5.928   5.130  73.940  1.00  0.00    -0.042 A  
HETATM   14  C   UNL     1      -5.872   4.679  72.629  1.00  0.00    -0.012 A  
HETATM   15  C   UNL     1      -6.975   4.841  71.786  1.00  0.00    -0.052 A  
ENDBRANCH   6  10
TORSDOF 1
ENDMDL
MODEL      166
REMARK 921   NORMALIZED FREE ENERGY PREDICTED BY IDOCK:   -2.28 KCAL/MOL
REMARK 922        TOTAL FREE ENERGY PREDICTED BY IDOCK:   -2.72 KCAL/MOL
REMARK 923 INTER-LIGAND FREE ENERGY PREDICTED BY IDOCK:   -2.36 KCAL/MOL
REMARK 924 INTRA-LIGAND FREE ENERGY PREDICTED BY IDOCK:   -0.36 KCAL/MOL
REMARK 927      BINDING AFFINITY PREDICTED BY RF-SCORE:    0.00 PKD
ROOT
HETATM    1  C   UNL     1      -6.261   3.641  67.640  1.00  0.00    -0.036 C  
HETATM    2  N   UNL     1      -7.574   4.074  68.050  1.00  0.00    -0.067 N  
HETATM    3  C   UNL     1      -8.711   3.360  67.851  1.00  0.00    -0.109 C  
HETATM    4  C   UNL     1      -9.887   4.179  68.290  1.00  0.00    -0.083 C  
HETATM    5  O   UNL     1      -8.799   2.233  67.388  1.00  0.00    -0.112 OA 
HETATM    6  C   UNL     1      -9.280   5.389  69.042  1.00  0.00    -0.149 C  
HETATM    7  O   UNL     1      -6.875   5.798  69.397  1.00  0.00    -0.057 OA 
HETATM    8  C   UNL     1      -9.626   5.245  70.538  1.00  0.00    -0.236 C  
HETATM    9  C   UNL     1      -7.773   5.150  68.865  1.00  0.00    -0.081 C  
ENDROOT
BRANCH   6  10
HETATM   10  C   UNL     1      -9.641   6.790  68.520  1.00  0.00    -0.130 A  
HETATM   11  C   UNL     1      -9.949   7.881  69.348  1.00  0.00    -0.189 A  
HETATM   12  C   UNL     1     -10.390   9.097  68.813  1.00  0.00    -0.235 A  
HETATM   13  C   UNL     1     -10.514   9.261  67.438  1.00  0.00    -0.340 A  
HETATM   14  C   UNL     1     -10.174   8.214  66.593  1.00  0.00    -0.329 A  
HETATM   15  C   UNL     1      -9.740   6.998  67.127  1.00  0.00    -0.206 A  
ENDBRANCH   6  10
TORSDOF 1
ENDMDL
MODEL      167
REMARK 921   NORMALIZED FREE ENERGY PREDICTED BY IDOCK:   -2.21 KCAL/MOL
REMARK 922        TOTAL FREE ENERGY PREDICTED BY IDOCK:   -2.64 KCAL/MOL
REMARK 923 INTER-LIGAND FREE ENERGY PREDICTED BY IDOCK:   -2.30 KCAL/MOL
REMARK 924 INTRA-LIGAND FREE ENERGY PREDICTED BY IDOCK:   -0.34 KCAL/MOL
REMARK 927      BINDING AFFINITY PREDICTED BY RF-SCORE:    0.00 PKD
ROOT
HETATM    1  C   UNL     1      -7.602   8.166  72.707  1.00  0.00    -0.128 C  
HETATM    2  N   UNL     1      -7.438   8.126  71.275  1.00  0.00    -0.068 N  
HETATM    3  C   UNL     1      -7.090   9.196  70.516  1.00  0.00    -0.088 C  
HETATM    4  C   UNL     1      -7.141   8.808  69.070  1.00  0.00    -0.065 C  
HETATM    5  O   UNL     1      -6.781  10.310  70.915  1.00  0.00    -0.340 OA 
HETATM    6  C   UNL     1      -7.305   7.269  69.069  1.00  0.00    -0.091 C  
HETATM    7  O   UNL     1      -7.439   5.838  71.072  1.00  0.00    -0.085 OA 
HETATM    8  C   UNL     1      -5.997   6.649  68.534  1.00  0.00    -0.022 C  
HETATM    9  C   UNL     1      -7.413   6.959  70.570  1.00  0.00    -0.086 C  
ENDROOT
BRANCH   6  10
HETATM   10  C   UNL     1      -8.531   6.696  68.338  1.00  0.00    -0.125 A  
HETATM   11  C   UNL     1      -8.574   5.418  67.759  1.00  0.00    -0.104 A  
HETATM   12  C   UNL     1      -9.674   5.000  67.001  1.00  0.00    -0.180 A  
HETATM   13  C   UNL     1     -10.767   5.839  66.820  1.00  0.00    -0.369 A  
HETATM   14  C   UNL     1     -10.772   7.092  67.417  1.00  0.00    -0.383 A  
HETATM   15  C   UNL     1      -9.671   7.512  68.169  1.00  0.00    -0.167 A  
ENDBRANCH   6  10
TORSDOF 1
ENDMDL
MODEL      168
REMARK 921   NORMALIZED FREE ENERGY PREDICTED BY IDOCK:   -1.93 KCAL/MOL
REMARK 922        TOTAL FREE ENERGY PREDICTED BY IDOCK:   -2.35 KCAL/MOL
REMARK 923 INTER-LIGAND FREE ENERGY PREDICTED BY IDOCK:   -2.00 KCAL/MOL
REMARK 924 INTRA-LIGAND FREE ENERGY PREDICTED BY IDOCK:   -0.35 KCAL/MOL
REMARK 927      BINDING AFFINITY PREDICTED BY RF-SCORE:    0.00 PKD
ROOT
HETATM    1  C   UNL     1     -11.160  17.013  70.002  1.00  0.00     0.427 C  
HETATM    2  N   UNL     1     -10.173  16.594  69.038  1.00  0.00    -0.283 N  
HETATM    3  C   UNL     1      -9.472  15.434  69.118  1.00  0.00    -0.242 C  
HETATM    4  C   UNL     1      -8.455  15.401  68.018  1.00  0.00    -0.146 C  
HETATM    5  O   UNL     1      -9.619  14.542  69.940  1.00  0.00     0.349 OA 
HETATM    6  C   UNL     1      -8.821  16.584  67.091  1.00  0.00    -0.213 C  
HETATM    7  O   UNL     1     -10.702  18.142  67.426  1.00  0.00    -0.403 OA 
HETATM    8  C   UNL     1      -9.346  16.005  65.761  1.00  0.00    -0.250 C  
HETATM    9  C   UNL     1      -9.998  17.225  67.842  1.00  0.00    -0.297 C  
ENDROOT
BRANCH   6  10
HETATM   10  C   UNL     1      -7.732  17.644  66.845  1.00  0.00    -0.245 A  
HETATM   11  C   UNL     1      -7.179  18.449  67.853  1.00  0.00    -0.235 A  
HETATM   12  C   UNL     1      -6.282  19.480  67.548  1.00  0.00    -0.211 A  
HETATM   13  C   UNL     1      -5.900  19.718  66.234  1.00  0.00    -0.174 A  
HETATM   14  C   UNL     1      -6.396  18.910  65.222  1.00  0.00    -0.314 A  
HETATM   15  C   UNL     1      -7.296  17.885  65.524  1.00  0.00     0.242 A  
ENDBRANCH   6  10
TORSDOF 1
ENDMDL
MODEL      169
REMARK 921   NORMALIZED FREE ENERGY PREDICTED BY IDOCK:   -1.87 KCAL/MOL
REMARK 922        TOTAL FREE ENERGY PREDICTED BY IDOCK:   -2.28 KCAL/MOL
REMARK 923 INTER-LIGAND FREE ENERGY PREDICTED BY IDOCK:   -2.24 KCAL/MOL
REMARK 924 INTRA-LIGAND FREE ENERGY PREDICTED BY IDOCK:   -0.04 KCAL/MOL
REMARK 927      BINDING AFFINITY PREDICTED BY RF-SCORE:    0.00 PKD
ROOT
HETATM    1  C   UNL     1      -9.501  11.962  64.091  1.00  0.00     0.072 C  
HETATM    2  N   UNL     1      -9.372  11.003  65.159  1.00  0.00    -0.216 N  
HETATM    3  C   UNL     1      -9.214   9.668  64.973  1.00  0.00    -0.250 C  
HETATM    4  C   UNL     1      -9.244   8.980  66.304  1.00  0.00    -0.258 C  
HETATM    5  O   UNL     1      -9.071   9.088  63.906  1.00  0.00    -0.003 OA 
HETATM    6  C   UNL     1      -9.167  10.118  67.350  1.00  0.00    -0.156 C  
HETATM    7  O   UNL     1      -9.025  12.527  66.842  1.00  0.00    -0.204 OA 
HETATM    8  C   UNL     1      -7.795  10.035  68.049  1.00  0.00    -0.089 C  
HETATM    9  C   UNL     1      -9.186  11.370  66.460  1.00  0.00    -0.189 C  
ENDROOT
BRANCH   6  10
HETATM   10  C   UNL     1     -10.310  10.203  68.376  1.00  0.00    -0.210 A  
HETATM   11  C   UNL     1     -10.396   9.399  69.524  1.00  0.00    -0.223 A  
HETATM   12  C   UNL     1     -11.522   9.437  70.355  1.00  0.00    -0.272 A  
HETATM   13  C   UNL     1     -12.580  10.292  70.072  1.00  0.00    -0.059 A  
HETATM   14  C   UNL     1     -12.504  11.130  68.969  1.00  0.00     0.191 A  
HETATM   15  C   UNL     1     -11.383  11.089  68.136  1.00  0.00    -0.374 A  
ENDBRANCH   6  10
TORSDOF 1
ENDMDL
MODEL      170
REMARK 921   NORMALIZED FREE ENERGY PREDICTED BY IDOCK:   -1.84 KCAL/MOL
REMARK 922        TOTAL FREE ENERGY PREDICTED BY IDOCK:   -2.25 KCAL/MOL
REMARK 923 INTER-LIGAND FREE ENERGY PREDICTED BY IDOCK:   -2.07 KCAL/MOL
REMARK 924 INTRA-LIGAND FREE ENERGY PREDICTED BY IDOCK:   -0.18 KCAL/MOL
REMARK 927      BINDING AFFINITY PREDICTED BY RF-SCORE:    0.00 PKD
ROOT
HETATM    1  C   UNL     1      -5.993   4.178  71.631  1.00  0.00    -0.013 C  
HETATM    2  N   UNL     1      -6.966   4.588  70.649  1.00  0.00    -0.036 N  
HETATM    3  C   UNL     1      -6.934   4.223  69.343  1.00  0.00    -0.046 C  
HETATM    4  C   UNL     1      -8.025   4.939  68.607  1.00  0.00    -0.084 C  
HETATM    5  O   UNL     1      -6.154   3.442  68.818  1.00  0.00    -0.026 OA 
HETATM    6  C   UNL     1      -8.901   5.584  69.708  1.00  0.00    -0.129 C  
HETATM    7  O   UNL     1      -8.510   5.413  72.136  1.00  0.00    -0.124 OA 
HETATM    8  C   UNL     1     -10.260   4.854  69.727  1.00  0.00    -0.284 C  
HETATM    9  C   UNL     1      -8.131   5.214  70.985  1.00  0.00    -0.103 C  
ENDROOT
BRANCH   6  10
HETATM   10  C   UNL     1      -9.089   7.110  69.648  1.00  0.00    -0.140 A  
HETATM   11  C   UNL     1      -8.272   8.029  70.325  1.00  0.00    -0.123 A  
HETATM   12  C   UNL     1      -8.568   9.397  70.332  1.00  0.00    -0.266 A  
HETATM   13  C   UNL     1      -9.674   9.883  69.647  1.00  0.00    -0.252 A  
HETATM   14  C   UNL     1     -10.475   9.005  68.932  1.00  0.00    -0.231 A  
HETATM   15  C   UNL     1     -10.184   7.638  68.930  1.00  0.00    -0.217 A  
ENDBRANCH   6  10
TORSDOF 1
ENDMDL
MODEL      171
REMARK 921   NORMALIZED FREE ENERGY PREDICTED BY IDOCK:   -1.80 KCAL/MOL
REMARK 922        TOTAL FREE ENERGY PREDICTED BY IDOCK:   -2.21 KCAL/MOL
REMARK 923 INTER-LIGAND FREE ENERGY PREDICTED BY IDOCK:   -1.90 KCAL/MOL
REMARK 924 INTRA-LIGAND FREE ENERGY PREDICTED BY IDOCK:   -0.31 KCAL/MOL
REMARK 927      BINDING AFFINITY PREDICTED BY RF-SCORE:    0.00 PKD
ROOT
HETATM    1  C   UNL     1      -8.007   9.166  67.985  1.00  0.00    -0.101 C  
HETATM    2  N   UNL     1      -8.084   8.206  69.059  1.00  0.00    -0.114 N  
HETATM    3  C   UNL     1      -7.276   8.212  70.149  1.00  0.00    -0.056 C  
HETATM    4  C   UNL     1      -7.563   6.998  70.979  1.00  0.00    -0.086 C  
HETATM    5  O   UNL     1      -6.437   9.054  70.436  1.00  0.00    -0.039 OA 
HETATM    6  C   UNL     1      -8.855   6.393  70.378  1.00  0.00    -0.151 C  
HETATM    7  O   UNL     1     -10.111   7.305  68.462  1.00  0.00    -0.161 OA 
HETATM    8  C   UNL     1      -9.993   6.583  71.402  1.00  0.00    -0.202 C  
HETATM    9  C   UNL     1      -9.116   7.322  69.183  1.00  0.00    -0.137 C  
ENDROOT
BRANCH   6  10
HETATM   10  C   UNL     1      -8.784   4.937  69.888  1.00  0.00    -0.117 A  
HETATM   11  C   UNL     1      -8.147   4.537  68.703  1.00  0.00    -0.081 A  
HETATM   12  C   UNL     1      -8.223   3.216  68.248  1.00  0.00    -0.085 A  
HETATM   13  C   UNL     1      -8.917   2.257  68.975  1.00  0.00    -0.166 A  
HETATM   14  C   UNL     1      -9.519   2.612  70.173  1.00  0.00    -0.161 A  
HETATM   15  C   UNL     1      -9.449   3.933  70.625  1.00  0.00    -0.244 A  
ENDBRANCH   6  10
TORSDOF 1
ENDMDL
MODEL      172
REMARK 921   NORMALIZED FREE ENERGY PREDICTED BY IDOCK:   -1.73 KCAL/MOL
REMARK 922        TOTAL FREE ENERGY PREDICTED BY IDOCK:   -2.14 KCAL/MOL
REMARK 923 INTER-LIGAND FREE ENERGY PREDICTED BY IDOCK:   -1.78 KCAL/MOL
REMARK 924 INTRA-LIGAND FREE ENERGY PREDICTED BY IDOCK:   -0.36 KCAL/MOL
REMARK 927      BINDING AFFINITY PREDICTED BY RF-SCORE:    0.00 PKD
ROOT
HETATM    1  C   UNL     1      -6.897   6.832  69.805  1.00  0.00    -0.054 C  
HETATM    2  N   UNL     1      -7.841   6.805  68.715  1.00  0.00    -0.110 N  
HETATM    3  C   UNL     1      -9.147   7.155  68.827  1.00  0.00    -0.134 C  
HETATM    4  C   UNL     1      -9.841   6.879  67.527  1.00  0.00    -0.173 C  
HETATM    5  O   UNL     1      -9.701   7.620  69.812  1.00  0.00    -0.170 OA 
HETATM    6  C   UNL     1      -8.707   6.566  66.521  1.00  0.00    -0.135 C  
HETATM    7  O   UNL     1      -6.295   6.553  67.034  1.00  0.00    -0.038 OA 
HETATM    8  C   UNL     1      -8.634   7.726  65.507  1.00  0.00    -0.126 C  
HETATM    9  C   UNL     1      -7.461   6.624  67.417  1.00  0.00    -0.096 C  
ENDROOT
BRANCH   6  10
HETATM   10  C   UNL     1      -8.761   5.205  65.806  1.00  0.00    -0.139 A  
HETATM   11  C   UNL     1      -8.714   5.048  64.412  1.00  0.00    -0.119 A  
HETATM   12  C   UNL     1      -8.892   3.794  63.816  1.00  0.00    -0.100 A  
HETATM   13  C   UNL     1      -9.100   2.664  64.597  1.00  0.00    -0.129 A  
HETATM   14  C   UNL     1      -9.107   2.781  65.979  1.00  0.00    -0.122 A  
HETATM   15  C   UNL     1      -8.935   4.033  66.575  1.00  0.00    -0.131 A  
ENDBRANCH   6  10
TORSDOF 1
ENDMDL
MODEL      173
REMARK 921   NORMALIZED FREE ENERGY PREDICTED BY IDOCK:   -1.55 KCAL/MOL
REMARK 922        TOTAL FREE ENERGY PREDICTED BY IDOCK:   -1.95 KCAL/MOL
REMARK 923 INTER-LIGAND FREE ENERGY PREDICTED BY IDOCK:   -1.84 KCAL/MOL
REMARK 924 INTRA-LIGAND FREE ENERGY PREDICTED BY IDOCK:   -0.11 KCAL/MOL
REMARK 927      BINDING AFFINITY PREDICTED BY RF-SCORE:    0.00 PKD
ROOT
HETATM    1  C   UNL     1     -10.290   7.620  70.464  1.00  0.00    -0.211 C  
HETATM    2  N   UNL     1      -9.608   8.360  69.431  1.00  0.00    -0.169 N  
HETATM    3  C   UNL     1     -10.049   9.535  68.915  1.00  0.00    -0.188 C  
HETATM    4  C   UNL     1      -9.155   9.939  67.782  1.00  0.00    -0.138 C  
HETATM    5  O   UNL     1     -11.016  10.183  69.287  1.00  0.00    -0.222 OA 
HETATM    6  C   UNL     1      -7.944   8.979  67.860  1.00  0.00    -0.102 C  
HETATM    7  O   UNL     1      -7.632   7.194  69.533  1.00  0.00    -0.096 OA 
HETATM    8  C   UNL     1      -6.711   9.799  68.290  1.00  0.00    -0.060 C  
HETATM    9  C   UNL     1      -8.343   8.055  69.021  1.00  0.00    -0.129 C  
ENDROOT
BRANCH   6  10
HETATM   10  C   UNL     1      -7.640   8.131  66.613  1.00  0.00    -0.093 A  
HETATM   11  C   UNL     1      -6.653   7.134  66.562  1.00  0.00    -0.052 A  
HETATM   12  C   UNL     1      -6.340   6.483  65.363  1.00  0.00    -0.038 A  
HETATM   13  C   UNL     1      -7.019   6.794  64.192  1.00  0.00    -0.052 A  
HETATM   14  C   UNL     1      -8.030   7.743  64.221  1.00  0.00    -0.120 A  
HETATM   15  C   UNL     1      -8.339   8.399  65.415  1.00  0.00    -0.166 A  
ENDBRANCH   6  10
TORSDOF 1
ENDMDL
MODEL      174
REMARK 921   NORMALIZED FREE ENERGY PREDICTED BY IDOCK:   -1.26 KCAL/MOL
REMARK 922        TOTAL FREE ENERGY PREDICTED BY IDOCK:   -1.64 KCAL/MOL
REMARK 923 INTER-LIGAND FREE ENERGY PREDICTED BY IDOCK:   -1.30 KCAL/MOL
REMARK 924 INTRA-LIGAND FREE ENERGY PREDICTED BY IDOCK:   -0.34 KCAL/MOL
REMARK 927      BINDING AFFINITY PREDICTED BY RF-SCORE:    0.00 PKD
ROOT
HETATM    1  C   UNL     1      -8.411  13.992  69.064  1.00  0.00     0.148 C  
HETATM    2  N   UNL     1      -8.482  12.637  68.575  1.00  0.00    -0.104 N  
HETATM    3  C   UNL     1      -9.617  12.044  68.126  1.00  0.00    -0.200 C  
HETATM    4  C   UNL     1      -9.332  10.604  67.824  1.00  0.00    -0.154 C  
HETATM    5  O   UNL     1     -10.711  12.569  67.982  1.00  0.00    -0.209 OA 
HETATM    6  C   UNL     1      -7.791  10.473  67.894  1.00  0.00    -0.105 C  
HETATM    7  O   UNL     1      -6.216  12.302  68.398  1.00  0.00    -0.050 OA 
HETATM    8  C   UNL     1      -7.268  10.219  66.465  1.00  0.00    -0.109 C  
HETATM    9  C   UNL     1      -7.370  11.887  68.323  1.00  0.00    -0.093 C  
ENDROOT
BRANCH   6  10
HETATM   10  C   UNL     1      -7.220   9.446  68.887  1.00  0.00    -0.072 A  
HETATM   11  C   UNL     1      -6.476   8.317  68.507  1.00  0.00    -0.054 A  
HETATM   12  C   UNL     1      -6.089   7.353  69.446  1.00  0.00    -0.031 A  
HETATM   13  C   UNL     1      -6.417   7.503  70.788  1.00  0.00    -0.039 A  
HETATM   14  C   UNL     1      -7.114   8.630  71.199  1.00  0.00    -0.081 A  
HETATM   15  C   UNL     1      -7.505   9.590  70.262  1.00  0.00    -0.148 A  
ENDBRANCH   6  10
TORSDOF 1
ENDMDL
MODEL      175
REMARK 921   NORMALIZED FREE ENERGY PREDICTED BY IDOCK:   -0.65 KCAL/MOL
REMARK 922        TOTAL FREE ENERGY PREDICTED BY IDOCK:   -0.99 KCAL/MOL
REMARK 923 INTER-LIGAND FREE ENERGY PREDICTED BY IDOCK:   -1.15 KCAL/MOL
REMARK 924 INTRA-LIGAND FREE ENERGY PREDICTED BY IDOCK:    0.15 KCAL/MOL
REMARK 927      BINDING AFFINITY PREDICTED BY RF-SCORE:    0.00 PKD
ROOT
HETATM    1  C   UNL     1      -8.997  11.508  68.591  1.00  0.00    -0.112 C  
HETATM    2  N   UNL     1      -8.360  10.363  67.988  1.00  0.00    -0.117 N  
HETATM    3  C   UNL     1      -8.796   9.754  66.857  1.00  0.00    -0.138 C  
HETATM    4  C   UNL     1      -7.966   8.531  66.608  1.00  0.00    -0.100 C  
HETATM    5  O   UNL     1      -9.716  10.114  66.137  1.00  0.00    -0.192 OA 
HETATM    6  C   UNL     1      -6.783   8.636  67.600  1.00  0.00    -0.066 C  
HETATM    7  O   UNL     1      -6.419  10.466  69.212  1.00  0.00    -0.045 OA 
HETATM    8  C   UNL     1      -5.499   8.900  66.787  1.00  0.00    -0.040 C  
HETATM    9  C   UNL     1      -7.135   9.911  68.382  1.00  0.00    -0.072 C  
ENDROOT
BRANCH   6  10
HETATM   10  C   UNL     1      -6.589   7.469  68.584  1.00  0.00    -0.053 A  
HETATM   11  C   UNL     1      -7.131   6.187  68.399  1.00  0.00    -0.082 A  
HETATM   12  C   UNL     1      -7.024   5.203  69.388  1.00  0.00    -0.055 A  
HETATM   13  C   UNL     1      -6.355   5.467  70.577  1.00  0.00    -0.027 A  
HETATM   14  C   UNL     1      -5.770   6.710  70.770  1.00  0.00    -0.023 A  
HETATM   15  C   UNL     1      -5.882   7.696  69.785  1.00  0.00    -0.023 A  
ENDBRANCH   6  10
TORSDOF 1
ENDMDL
MODEL      176
REMARK 921   NORMALIZED FREE ENERGY PREDICTED BY IDOCK:    0.06 KCAL/MOL
REMARK 922        TOTAL FREE ENERGY PREDICTED BY IDOCK:   -0.24 KCAL/MOL
REMARK 923 INTER-LIGAND FREE ENERGY PREDICTED BY IDOCK:   -0.22 KCAL/MOL
REMARK 924 INTRA-LIGAND FREE ENERGY PREDICTED BY IDOCK:   -0.02 KCAL/MOL
REMARK 927      BINDING AFFINITY PREDICTED BY RF-SCORE:    0.00 PKD
ROOT
HETATM    1  C   UNL     1      -7.590  12.304  68.937  1.00  0.00     0.021 C  
HETATM    2  N   UNL     1      -8.593  13.162  68.358  1.00  0.00    -0.157 N  
HETATM    3  C   UNL     1      -9.452  13.927  69.077  1.00  0.00     0.164 C  
HETATM    4  C   UNL     1     -10.427  14.579  68.144  1.00  0.00    -0.239 C  
HETATM    5  O   UNL     1      -9.461  14.080  70.290  1.00  0.00     1.729 OA 
HETATM    6  C   UNL     1      -9.866  14.318  66.725  1.00  0.00    -0.274 C  
HETATM    7  O   UNL     1      -7.797  13.083  66.205  1.00  0.00     1.085 OA 
HETATM    8  C   UNL     1      -9.383  15.663  66.146  1.00  0.00    -0.382 C  
HETATM    9  C   UNL     1      -8.637  13.446  67.024  1.00  0.00    -0.158 C  
ENDROOT
BRANCH   6  10
HETATM   10  C   UNL     1     -10.785  13.583  65.733  1.00  0.00    -0.278 A  
HETATM   11  C   UNL     1     -12.097  13.180  66.030  1.00  0.00    -0.495 A  
HETATM   12  C   UNL     1     -12.840  12.407  65.130  1.00  0.00     0.152 A  
HETATM   13  C   UNL     1     -12.301  12.036  63.905  1.00  0.00    -0.553 A  
HETATM   14  C   UNL     1     -11.023  12.457  63.566  1.00  0.00    -0.506 A  
HETATM   15  C   UNL     1     -10.278  13.224  64.466  1.00  0.00    -0.332 A  
ENDBRANCH   6  10
TORSDOF 1
ENDMDL
MODEL      177
REMARK 921   NORMALIZED FREE ENERGY PREDICTED BY IDOCK:    1.93 KCAL/MOL
REMARK 922        TOTAL FREE ENERGY PREDICTED BY IDOCK:    1.74 KCAL/MOL
REMARK 923 INTER-LIGAND FREE ENERGY PREDICTED BY IDOCK:    1.91 KCAL/MOL
REMARK 924 INTRA-LIGAND FREE ENERGY PREDICTED BY IDOCK:   -0.16 KCAL/MOL
REMARK 927      BINDING AFFINITY PREDICTED BY RF-SCORE:    0.00 PKD
ROOT
HETATM    1  C   UNL     1     -13.572  13.965  65.853  1.00  0.00     1.716 C  
HETATM    2  N   UNL     1     -12.225  13.565  65.526  1.00  0.00    -0.422 N  
HETATM    3  C   UNL     1     -11.903  12.725  64.511  1.00  0.00    -0.379 C  
HETATM    4  C   UNL     1     -10.432  12.442  64.557  1.00  0.00    -0.352 C  
HETATM    5  O   UNL     1     -12.663  12.255  63.677  1.00  0.00    -0.713 OA 
HETATM    6  C   UNL     1      -9.858  13.449  65.583  1.00  0.00    -0.180 C  
HETATM    7  O   UNL     1     -11.162  15.131  66.827  1.00  0.00    -0.331 OA 
HETATM    8  C   UNL     1      -8.993  14.472  64.817  1.00  0.00     3.366 C  
HETATM    9  C   UNL     1     -11.127  14.158  66.078  1.00  0.00    -0.314 C  
ENDROOT
BRANCH   6  10
HETATM   10  C   UNL     1      -9.095  12.865  66.785  1.00  0.00    -0.211 A  
HETATM   11  C   UNL     1      -9.089  11.503  67.124  1.00  0.00    -0.167 A  
HETATM   12  C   UNL     1      -8.479  11.050  68.300  1.00  0.00    -0.138 A  
HETATM   13  C   UNL     1      -7.842  11.942  69.154  1.00  0.00     0.206 A  
HETATM   14  C   UNL     1      -7.794  13.289  68.823  1.00  0.00     0.008 A  
HETATM   15  C   UNL     1      -8.408  13.743  67.652  1.00  0.00    -0.183 A  
ENDBRANCH   6  10
TORSDOF 1
ENDMDL
MODEL      178
REMARK 921   NORMALIZED FREE ENERGY PREDICTED BY IDOCK:    9.99 KCAL/MOL
REMARK 922        TOTAL FREE ENERGY PREDICTED BY IDOCK:   10.27 KCAL/MOL
REMARK 923 INTER-LIGAND FREE ENERGY PREDICTED BY IDOCK:   10.31 KCAL/MOL
REMARK 924 INTRA-LIGAND FREE ENERGY PREDICTED BY IDOCK:   -0.04 KCAL/MOL
REMARK 927      BINDING AFFINITY PREDICTED BY RF-SCORE:    0.00 PKD
ROOT
HETATM    1  C   UNL     1      -6.728  13.482  69.084  1.00  0.00    -0.103 C  
HETATM    2  N   UNL     1      -7.791  13.325  68.123  1.00  0.00    -0.134 N  
HETATM    3  C   UNL     1      -8.060  14.208  67.129  1.00  0.00    -0.115 C  
HETATM    4  C   UNL     1      -9.306  13.779  66.415  1.00  0.00    -0.215 C  
HETATM    5  O   UNL     1      -7.414  15.204  66.837  1.00  0.00    -0.123 OA 
HETATM    6  C   UNL     1      -9.605  12.355  66.943  1.00  0.00    -0.219 C  
HETATM    7  O   UNL     1      -8.258  11.127  68.604  1.00  0.00    -0.141 OA 
HETATM    8  C   UNL     1      -9.362  11.357  65.792  1.00  0.00    -0.247 C  
HETATM    9  C   UNL     1      -8.500  12.166  67.993  1.00  0.00    -0.170 C  
ENDROOT
BRANCH   6  10
HETATM   10  C   UNL     1     -10.978  12.125  67.598  1.00  0.00    -0.289 A  
HETATM   11  C   UNL     1     -11.301  10.997  68.369  1.00  0.00    -0.363 A  
HETATM   12  C   UNL     1     -12.604  10.784  68.835  1.00  0.00     0.754 A  
HETATM   13  C   UNL     1     -13.610  11.703  68.562  1.00  0.00     6.792 A  
HETATM   14  C   UNL     1     -13.311  12.849  67.841  1.00  0.00     5.251 A  
HETATM   15  C   UNL     1     -12.012  13.059  67.369  1.00  0.00    -0.372 A  
ENDBRANCH   6  10
TORSDOF 1
ENDMDL
MODEL      179
REMARK 921   NORMALIZED FREE ENERGY PREDICTED BY IDOCK:   12.67 KCAL/MOL
REMARK 922        TOTAL FREE ENERGY PREDICTED BY IDOCK:   13.10 KCAL/MOL
REMARK 923 INTER-LIGAND FREE ENERGY PREDICTED BY IDOCK:   12.88 KCAL/MOL
REMARK 924 INTRA-LIGAND FREE ENERGY PREDICTED BY IDOCK:    0.23 KCAL/MOL
REMARK 927      BINDING AFFINITY PREDICTED BY RF-SCORE:    0.00 PKD
ROOT
HETATM    1  C   UNL     1      -5.249  14.886  70.902  1.00  0.00    -0.133 C  
HETATM    2  N   UNL     1      -6.580  15.368  70.628  1.00  0.00     0.250 N  
HETATM    3  C   UNL     1      -7.708  14.848  71.172  1.00  0.00     2.452 C  
HETATM    4  C   UNL     1      -8.901  15.516  70.559  1.00  0.00     1.456 C  
HETATM    5  O   UNL     1      -7.777  13.974  72.024  1.00  0.00     4.054 OA 
HETATM    6  C   UNL     1      -8.330  16.713  69.761  1.00  0.00     0.854 C  
HETATM    7  O   UNL     1      -5.945  17.318  69.593  1.00  0.00    -0.222 OA 
HETATM    8  C   UNL     1      -8.761  18.012  70.472  1.00  0.00     4.192 C  
HETATM    9  C   UNL     1      -6.816  16.531  69.954  1.00  0.00     0.199 C  
ENDROOT
BRANCH   6  10
HETATM   10  C   UNL     1      -8.651  16.768  68.257  1.00  0.00    -0.226 A  
HETATM   11  C   UNL     1      -9.848  16.301  67.692  1.00  0.00    -0.238 A  
HETATM   12  C   UNL     1     -10.031  16.265  66.305  1.00  0.00    -0.335 A  
HETATM   13  C   UNL     1      -9.033  16.714  65.449  1.00  0.00     0.977 A  
HETATM   14  C   UNL     1      -7.856  17.223  65.980  1.00  0.00    -0.210 A  
HETATM   15  C   UNL     1      -7.670  17.253  67.364  1.00  0.00    -0.194 A  
ENDBRANCH   6  10
TORSDOF 1
ENDMDL
MODEL      180
REMARK 921   NORMALIZED FREE ENERGY PREDICTED BY IDOCK:   30.03 KCAL/MOL
REMARK 922        TOTAL FREE ENERGY PREDICTED BY IDOCK:   31.48 KCAL/MOL
REMARK 923 INTER-LIGAND FREE ENERGY PREDICTED BY IDOCK:   31.24 KCAL/MOL
REMARK 924 INTRA-LIGAND FREE ENERGY PREDICTED BY IDOCK:    0.24 KCAL/MOL
REMARK 927      BINDING AFFINITY PREDICTED BY RF-SCORE:    0.00 PKD
ROOT
HETATM    1  C   UNL     1     -13.165  14.682  68.053  1.00  0.00     3.373 C  
HETATM    2  N   UNL     1     -12.006  15.283  68.664  1.00  0.00    -0.288 N  
HETATM    3  C   UNL     1     -10.807  15.433  68.047  1.00  0.00    -0.292 C  
HETATM    4  C   UNL     1      -9.814  15.977  69.029  1.00  0.00    -0.239 C  
HETATM    5  O   UNL     1     -10.544  15.174  66.882  1.00  0.00    -0.285 OA 
HETATM    6  C   UNL     1     -10.652  16.396  70.262  1.00  0.00    -0.035 C  
HETATM    7  O   UNL     1     -13.099  16.180  70.475  1.00  0.00    -0.058 OA 
HETATM    8  C   UNL     1     -10.632  17.935  70.353  1.00  0.00     1.566 C  
HETATM    9  C   UNL     1     -12.064  15.950  69.853  1.00  0.00    -0.227 C  
ENDROOT
BRANCH   6  10
HETATM   10  C   UNL     1     -10.282  15.753  71.610  1.00  0.00     1.879 A  
HETATM   11  C   UNL     1      -8.966  15.472  72.011  1.00  0.00     6.460 A  
HETATM   12  C   UNL     1      -8.701  14.775  73.195  1.00  0.00     9.130 A  
HETATM   13  C   UNL     1      -9.741  14.360  74.018  1.00  0.00     8.829 A  
HETATM   14  C   UNL     1     -11.049  14.663  73.670  1.00  0.00     1.745 A  
HETATM   15  C   UNL     1     -11.315  15.354  72.485  1.00  0.00    -0.317 A  
ENDBRANCH   6  10
TORSDOF 1
ENDMDL
