MODEL        1
REMARK 921   NORMALIZED FREE ENERGY PREDICTED BY IDOCK:   -4.78 KCAL/MOL
REMARK 922        TOTAL FREE ENERGY PREDICTED BY IDOCK:   -6.13 KCAL/MOL
REMARK 923 INTER-LIGAND FREE ENERGY PREDICTED BY IDOCK:   -5.90 KCAL/MOL
REMARK 924 INTRA-LIGAND FREE ENERGY PREDICTED BY IDOCK:   -0.24 KCAL/MOL
REMARK 927      BINDING AFFINITY PREDICTED BY RF-SCORE:    0.00 PKD
ROOT
HETATM    1  C   UNL     1     -14.324   8.431  71.818  1.00  0.00    -0.472 C  
HETATM    2  N   UNL     1     -13.749   9.423  70.919  1.00  0.00    -0.551 NA 
HETATM    3  H   UNL     1     -14.459  10.092  70.621  1.00  0.00     0.000 HD 
ENDROOT
BRANCH   2   4
HETATM    4  C   UNL     1     -12.576  10.125  71.476  1.00  0.00    -0.434 C  
HETATM    5  C   UNL     1     -11.413   9.161  71.740  1.00  0.00    -0.452 C  
BRANCH   4   6
HETATM    6  C   UNL     1     -12.076  11.241  70.513  1.00  0.00    -0.481 C  
BRANCH   6   7
HETATM    7  C   UNL     1     -12.465  12.653  70.894  1.00  0.00    -0.368 A  
HETATM    8  C   UNL     1     -13.372  12.785  71.971  1.00  0.00    -0.565 A  
HETATM    9  C   UNL     1     -13.851  14.027  72.380  1.00  0.00    -0.653 A  
HETATM   10  C   UNL     1     -13.441  15.172  71.711  1.00  0.00    -0.529 A  
HETATM   11  C   UNL     1     -12.557  15.062  70.636  1.00  0.00    -0.429 A  
HETATM   12  C   UNL     1     -12.059  13.815  70.222  1.00  0.00    -0.355 A  
BRANCH  12  13
HETATM   13  O   UNL     1     -11.322  13.882  69.071  1.00  0.00    -0.253 OA 
HETATM   14  C   UNL     1     -12.031  13.827  67.845  1.00  0.00    -0.356 C  
ENDBRANCH  12  13
ENDBRANCH   6   7
ENDBRANCH   4   6
ENDBRANCH   2   4
TORSDOF 4
ENDMDL
MODEL        2
REMARK 921   NORMALIZED FREE ENERGY PREDICTED BY IDOCK:   -4.76 KCAL/MOL
REMARK 922        TOTAL FREE ENERGY PREDICTED BY IDOCK:   -6.11 KCAL/MOL
REMARK 923 INTER-LIGAND FREE ENERGY PREDICTED BY IDOCK:   -5.61 KCAL/MOL
REMARK 924 INTRA-LIGAND FREE ENERGY PREDICTED BY IDOCK:   -0.50 KCAL/MOL
REMARK 927      BINDING AFFINITY PREDICTED BY RF-SCORE:    0.00 PKD
ROOT
HETATM    1  C   UNL     1     -12.151  14.964  64.406  1.00  0.00    -0.401 C  
HETATM    2  N   UNL     1     -13.011  14.009  65.094  1.00  0.00    -0.771 NA 
HETATM    3  H   UNL     1     -13.960  14.047  64.722  1.00  0.00     0.000 HD 
ENDROOT
BRANCH   2   4
HETATM    4  C   UNL     1     -12.500  12.624  65.074  1.00  0.00    -0.487 C  
HETATM    5  C   UNL     1     -12.178  12.160  63.648  1.00  0.00    -0.663 C  
BRANCH   4   6
HETATM    6  C   UNL     1     -11.212  12.485  65.935  1.00  0.00    -0.356 C  
BRANCH   6   7
HETATM    7  C   UNL     1     -11.427  12.473  67.434  1.00  0.00    -0.404 A  
HETATM    8  C   UNL     1     -11.469  11.201  68.051  1.00  0.00    -0.366 A  
HETATM    9  C   UNL     1     -11.719  11.054  69.414  1.00  0.00    -0.394 A  
HETATM   10  C   UNL     1     -11.944  12.181  70.193  1.00  0.00    -0.394 A  
HETATM   11  C   UNL     1     -11.922  13.445  69.599  1.00  0.00    -0.386 A  
HETATM   12  C   UNL     1     -11.660  13.605  68.228  1.00  0.00    -0.339 A  
BRANCH  12  13
HETATM   13  O   UNL     1     -11.817  14.893  67.795  1.00  0.00    -0.345 OA 
HETATM   14  C   UNL     1     -10.668  15.723  67.802  1.00  0.00    -0.307 C  
ENDBRANCH  12  13
ENDBRANCH   6   7
ENDBRANCH   4   6
ENDBRANCH   2   4
TORSDOF 4
ENDMDL
MODEL        3
REMARK 921   NORMALIZED FREE ENERGY PREDICTED BY IDOCK:   -4.70 KCAL/MOL
REMARK 922        TOTAL FREE ENERGY PREDICTED BY IDOCK:   -6.04 KCAL/MOL
REMARK 923 INTER-LIGAND FREE ENERGY PREDICTED BY IDOCK:   -5.77 KCAL/MOL
REMARK 924 INTRA-LIGAND FREE ENERGY PREDICTED BY IDOCK:   -0.27 KCAL/MOL
REMARK 927      BINDING AFFINITY PREDICTED BY RF-SCORE:    0.00 PKD
ROOT
HETATM    1  C   UNL     1     -14.026  15.539  72.341  1.00  0.00    -0.560 C  
HETATM    2  N   UNL     1     -13.932  15.466  70.888  1.00  0.00    -0.857 NA 
HETATM    3  H   UNL     1     -14.416  16.254  70.458  1.00  0.00     0.000 HD 
ENDROOT
BRANCH   2   4
HETATM    4  C   UNL     1     -12.548  15.369  70.384  1.00  0.00    -0.389 C  
HETATM    5  C   UNL     1     -11.537  15.919  71.397  1.00  0.00    -0.529 C  
BRANCH   4   6
HETATM    6  C   UNL     1     -12.167  13.894  70.064  1.00  0.00    -0.408 C  
BRANCH   6   7
HETATM    7  C   UNL     1     -11.881  13.595  68.608  1.00  0.00    -0.409 A  
HETATM    8  C   UNL     1     -11.716  14.714  67.759  1.00  0.00    -0.386 A  
HETATM    9  C   UNL     1     -11.508  14.572  66.389  1.00  0.00    -0.362 A  
HETATM   10  C   UNL     1     -11.469  13.301  65.832  1.00  0.00    -0.359 A  
HETATM   11  C   UNL     1     -11.645  12.184  66.651  1.00  0.00    -0.416 A  
HETATM   12  C   UNL     1     -11.844  12.316  68.035  1.00  0.00    -0.305 A  
BRANCH  12  13
HETATM   13  O   UNL     1     -12.138  11.131  68.655  1.00  0.00    -0.556 OA 
HETATM   14  C   UNL     1     -11.044  10.341  69.090  1.00  0.00    -0.235 C  
ENDBRANCH  12  13
ENDBRANCH   6   7
ENDBRANCH   4   6
ENDBRANCH   2   4
TORSDOF 4
ENDMDL
MODEL        4
REMARK 921   NORMALIZED FREE ENERGY PREDICTED BY IDOCK:   -4.60 KCAL/MOL
REMARK 922        TOTAL FREE ENERGY PREDICTED BY IDOCK:   -5.91 KCAL/MOL
REMARK 923 INTER-LIGAND FREE ENERGY PREDICTED BY IDOCK:   -5.65 KCAL/MOL
REMARK 924 INTRA-LIGAND FREE ENERGY PREDICTED BY IDOCK:   -0.27 KCAL/MOL
REMARK 927      BINDING AFFINITY PREDICTED BY RF-SCORE:    0.00 PKD
ROOT
HETATM    1  C   UNL     1     -12.358  14.184  65.543  1.00  0.00    -0.458 C  
HETATM    2  N   UNL     1     -11.362  14.056  66.599  1.00  0.00    -0.324 NA 
HETATM    3  H   UNL     1     -11.052  14.976  66.913  1.00  0.00     0.000 HD 
ENDROOT
BRANCH   2   4
HETATM    4  C   UNL     1     -11.808  13.238  67.744  1.00  0.00    -0.353 C  
HETATM    5  C   UNL     1     -11.434  11.762  67.564  1.00  0.00    -0.373 C  
BRANCH   4   6
HETATM    6  C   UNL     1     -11.180  13.743  69.076  1.00  0.00    -0.313 C  
BRANCH   6   7
HETATM    7  C   UNL     1     -12.148  13.923  70.226  1.00  0.00    -0.423 A  
HETATM    8  C   UNL     1     -12.499  15.254  70.547  1.00  0.00    -0.454 A  
HETATM    9  C   UNL     1     -13.335  15.555  71.620  1.00  0.00    -0.585 A  
HETATM   10  C   UNL     1     -13.833  14.526  72.407  1.00  0.00    -0.587 A  
HETATM   11  C   UNL     1     -13.486  13.205  72.116  1.00  0.00    -0.653 A  
HETATM   12  C   UNL     1     -12.653  12.890  71.029  1.00  0.00    -0.287 A  
BRANCH  12  13
HETATM   13  O   UNL     1     -12.306  11.568  70.980  1.00  0.00    -0.371 OA 
HETATM   14  C   UNL     1     -13.088  10.665  71.743  1.00  0.00    -0.466 C  
ENDBRANCH  12  13
ENDBRANCH   6   7
ENDBRANCH   4   6
ENDBRANCH   2   4
TORSDOF 4
ENDMDL
MODEL        5
REMARK 921   NORMALIZED FREE ENERGY PREDICTED BY IDOCK:   -4.59 KCAL/MOL
REMARK 922        TOTAL FREE ENERGY PREDICTED BY IDOCK:   -5.89 KCAL/MOL
REMARK 923 INTER-LIGAND FREE ENERGY PREDICTED BY IDOCK:   -5.64 KCAL/MOL
REMARK 924 INTRA-LIGAND FREE ENERGY PREDICTED BY IDOCK:   -0.25 KCAL/MOL
REMARK 927      BINDING AFFINITY PREDICTED BY RF-SCORE:    0.00 PKD
ROOT
HETATM    1  C   UNL     1     -11.655   6.254  72.111  1.00  0.00    -0.319 C  
HETATM    2  N   UNL     1     -12.180   7.509  72.633  1.00  0.00    -0.550 NA 
HETATM    3  H   UNL     1     -11.422   8.097  72.982  1.00  0.00     0.000 HD 
ENDROOT
BRANCH   2   4
HETATM    4  C   UNL     1     -13.013   8.255  71.670  1.00  0.00    -0.337 C  
HETATM    5  C   UNL     1     -14.373   7.580  71.456  1.00  0.00    -0.603 C  
BRANCH   4   6
HETATM    6  C   UNL     1     -13.263   9.714  72.151  1.00  0.00    -0.535 C  
BRANCH   6   7
HETATM    7  C   UNL     1     -12.751  10.801  71.229  1.00  0.00    -0.546 A  
HETATM    8  C   UNL     1     -11.861  10.391  70.210  1.00  0.00    -0.399 A  
HETATM    9  C   UNL     1     -11.276  11.304  69.335  1.00  0.00    -0.345 A  
HETATM   10  C   UNL     1     -11.561  12.656  69.466  1.00  0.00    -0.348 A  
HETATM   11  C   UNL     1     -12.426  13.082  70.476  1.00  0.00    -0.306 A  
HETATM   12  C   UNL     1     -13.030  12.169  71.357  1.00  0.00    -0.257 A  
BRANCH  12  13
HETATM   13  O   UNL     1     -13.731  12.773  72.365  1.00  0.00    -0.546 OA 
HETATM   14  C   UNL     1     -14.146  14.112  72.152  1.00  0.00    -0.549 C  
ENDBRANCH  12  13
ENDBRANCH   6   7
ENDBRANCH   4   6
ENDBRANCH   2   4
TORSDOF 4
ENDMDL
MODEL        6
REMARK 921   NORMALIZED FREE ENERGY PREDICTED BY IDOCK:   -4.56 KCAL/MOL
REMARK 922        TOTAL FREE ENERGY PREDICTED BY IDOCK:   -5.86 KCAL/MOL
REMARK 923 INTER-LIGAND FREE ENERGY PREDICTED BY IDOCK:   -5.53 KCAL/MOL
REMARK 924 INTRA-LIGAND FREE ENERGY PREDICTED BY IDOCK:   -0.33 KCAL/MOL
REMARK 927      BINDING AFFINITY PREDICTED BY RF-SCORE:    0.00 PKD
ROOT
HETATM    1  C   UNL     1     -11.532  15.771  64.341  1.00  0.00    -0.263 C  
HETATM    2  N   UNL     1     -12.395  14.663  63.950  1.00  0.00    -1.060 NA 
HETATM    3  H   UNL     1     -12.212  14.390  62.984  1.00  0.00     0.000 HD 
ENDROOT
BRANCH   2   4
HETATM    4  C   UNL     1     -12.308  13.494  64.846  1.00  0.00    -0.407 C  
HETATM    5  C   UNL     1     -12.088  12.195  64.062  1.00  0.00    -0.540 C  
BRANCH   4   6
HETATM    6  C   UNL     1     -11.145  13.651  65.868  1.00  0.00    -0.289 C  
BRANCH   6   7
HETATM    7  C   UNL     1     -11.537  13.538  67.326  1.00  0.00    -0.398 A  
HETATM    8  C   UNL     1     -11.621  14.751  68.048  1.00  0.00    -0.367 A  
HETATM    9  C   UNL     1     -11.915  14.777  69.409  1.00  0.00    -0.339 A  
HETATM   10  C   UNL     1     -12.124  13.583  70.085  1.00  0.00    -0.425 A  
HETATM   11  C   UNL     1     -12.031  12.374  69.393  1.00  0.00    -0.319 A  
HETATM   12  C   UNL     1     -11.746  12.337  68.018  1.00  0.00    -0.356 A  
BRANCH  12  13
HETATM   13  O   UNL     1     -11.555  11.070  67.539  1.00  0.00    -0.529 OA 
HETATM   14  C   UNL     1     -10.790  10.184  68.340  1.00  0.00    -0.242 C  
ENDBRANCH  12  13
ENDBRANCH   6   7
ENDBRANCH   4   6
ENDBRANCH   2   4
TORSDOF 4
ENDMDL
MODEL        7
REMARK 921   NORMALIZED FREE ENERGY PREDICTED BY IDOCK:   -4.55 KCAL/MOL
REMARK 922        TOTAL FREE ENERGY PREDICTED BY IDOCK:   -5.85 KCAL/MOL
REMARK 923 INTER-LIGAND FREE ENERGY PREDICTED BY IDOCK:   -5.61 KCAL/MOL
REMARK 924 INTRA-LIGAND FREE ENERGY PREDICTED BY IDOCK:   -0.24 KCAL/MOL
REMARK 927      BINDING AFFINITY PREDICTED BY RF-SCORE:    0.00 PKD
ROOT
HETATM    1  C   UNL     1     -12.456  16.080  73.969  1.00  0.00    -0.621 C  
HETATM    2  N   UNL     1     -12.147  16.108  72.545  1.00  0.00    -0.525 NA 
HETATM    3  H   UNL     1     -11.140  16.062  72.395  1.00  0.00     0.000 HD 
ENDROOT
BRANCH   2   4
HETATM    4  C   UNL     1     -12.837  15.063  71.763  1.00  0.00    -0.338 C  
HETATM    5  C   UNL     1     -14.360  15.162  71.907  1.00  0.00    -0.693 C  
BRANCH   4   6
HETATM    6  C   UNL     1     -12.481  15.162  70.251  1.00  0.00    -0.388 C  
BRANCH   6   7
HETATM    7  C   UNL     1     -12.222  13.842  69.555  1.00  0.00    -0.356 A  
HETATM    8  C   UNL     1     -12.146  12.700  70.385  1.00  0.00    -0.381 A  
HETATM    9  C   UNL     1     -11.854  11.438  69.872  1.00  0.00    -0.435 A  
HETATM   10  C   UNL     1     -11.620  11.291  68.512  1.00  0.00    -0.384 A  
HETATM   11  C   UNL     1     -11.676  12.409  67.678  1.00  0.00    -0.412 A  
HETATM   12  C   UNL     1     -11.980  13.684  68.183  1.00  0.00    -0.355 A  
BRANCH  12  13
HETATM   13  O   UNL     1     -11.852  14.679  67.252  1.00  0.00    -0.392 OA 
HETATM   14  C   UNL     1     -11.182  14.354  66.046  1.00  0.00    -0.333 C  
ENDBRANCH  12  13
ENDBRANCH   6   7
ENDBRANCH   4   6
ENDBRANCH   2   4
TORSDOF 4
ENDMDL
MODEL        8
REMARK 921   NORMALIZED FREE ENERGY PREDICTED BY IDOCK:   -4.52 KCAL/MOL
REMARK 922        TOTAL FREE ENERGY PREDICTED BY IDOCK:   -5.81 KCAL/MOL
REMARK 923 INTER-LIGAND FREE ENERGY PREDICTED BY IDOCK:   -5.38 KCAL/MOL
REMARK 924 INTRA-LIGAND FREE ENERGY PREDICTED BY IDOCK:   -0.43 KCAL/MOL
REMARK 927      BINDING AFFINITY PREDICTED BY RF-SCORE:    0.00 PKD
ROOT
HETATM    1  C   UNL     1     -12.576  13.884  65.680  1.00  0.00    -0.517 C  
HETATM    2  N   UNL     1     -11.926  13.941  66.984  1.00  0.00    -0.414 NA 
HETATM    3  H   UNL     1     -12.304  14.708  67.539  1.00  0.00     0.000 HD 
ENDROOT
BRANCH   2   4
HETATM    4  C   UNL     1     -11.988  12.674  67.738  1.00  0.00    -0.243 C  
HETATM    5  C   UNL     1     -11.286  11.535  66.988  1.00  0.00    -0.365 C  
BRANCH   4   6
HETATM    6  C   UNL     1     -11.325  12.818  69.139  1.00  0.00    -0.337 C  
BRANCH   6   7
HETATM    7  C   UNL     1     -12.183  13.470  70.202  1.00  0.00    -0.400 A  
HETATM    8  C   UNL     1     -12.750  12.605  71.167  1.00  0.00    -0.347 A  
HETATM    9  C   UNL     1     -13.605  13.074  72.161  1.00  0.00    -0.618 A  
HETATM   10  C   UNL     1     -13.922  14.424  72.209  1.00  0.00    -0.610 A  
HETATM   11  C   UNL     1     -13.384  15.292  71.256  1.00  0.00    -0.586 A  
HETATM   12  C   UNL     1     -12.512  14.832  70.256  1.00  0.00    -0.340 A  
BRANCH  12  13
HETATM   13  O   UNL     1     -12.197  15.789  69.330  1.00  0.00    -0.313 OA 
HETATM   14  C   UNL     1     -10.968  16.475  69.501  1.00  0.00    -0.289 C  
ENDBRANCH  12  13
ENDBRANCH   6   7
ENDBRANCH   4   6
ENDBRANCH   2   4
TORSDOF 4
ENDMDL
MODEL        9
REMARK 921   NORMALIZED FREE ENERGY PREDICTED BY IDOCK:   -4.48 KCAL/MOL
REMARK 922        TOTAL FREE ENERGY PREDICTED BY IDOCK:   -5.77 KCAL/MOL
REMARK 923 INTER-LIGAND FREE ENERGY PREDICTED BY IDOCK:   -5.53 KCAL/MOL
REMARK 924 INTRA-LIGAND FREE ENERGY PREDICTED BY IDOCK:   -0.24 KCAL/MOL
REMARK 927      BINDING AFFINITY PREDICTED BY RF-SCORE:    0.00 PKD
ROOT
HETATM    1  C   UNL     1     -14.362  15.271  72.157  1.00  0.00    -0.555 C  
HETATM    2  N   UNL     1     -13.978  15.374  70.754  1.00  0.00    -0.859 NA 
HETATM    3  H   UNL     1     -14.483  16.134  70.299  1.00  0.00     0.000 HD 
ENDROOT
BRANCH   2   4
HETATM    4  C   UNL     1     -12.524  15.517  70.542  1.00  0.00    -0.427 C  
HETATM    5  C   UNL     1     -11.738  15.288  71.838  1.00  0.00    -0.509 C  
BRANCH   4   6
HETATM    6  C   UNL     1     -12.008  14.511  69.473  1.00  0.00    -0.363 C  
BRANCH   6   7
HETATM    7  C   UNL     1     -11.341  15.130  68.263  1.00  0.00    -0.338 A  
HETATM    8  C   UNL     1     -10.634  16.334  68.484  1.00  0.00    -0.294 A  
HETATM    9  C   UNL     1     -10.027  17.031  67.442  1.00  0.00    -0.278 A  
HETATM   10  C   UNL     1     -10.122  16.542  66.146  1.00  0.00    -0.365 A  
HETATM   11  C   UNL     1     -10.828  15.362  65.905  1.00  0.00    -0.328 A  
HETATM   12  C   UNL     1     -11.435  14.646  66.950  1.00  0.00    -0.363 A  
BRANCH  12  13
HETATM   13  O   UNL     1     -12.199  13.598  66.515  1.00  0.00    -0.419 OA 
HETATM   14  C   UNL     1     -12.748  13.695  65.211  1.00  0.00    -0.430 C  
ENDBRANCH  12  13
ENDBRANCH   6   7
ENDBRANCH   4   6
ENDBRANCH   2   4
TORSDOF 4
ENDMDL
MODEL       10
REMARK 921   NORMALIZED FREE ENERGY PREDICTED BY IDOCK:   -4.48 KCAL/MOL
REMARK 922        TOTAL FREE ENERGY PREDICTED BY IDOCK:   -5.76 KCAL/MOL
REMARK 923 INTER-LIGAND FREE ENERGY PREDICTED BY IDOCK:   -5.76 KCAL/MOL
REMARK 924 INTRA-LIGAND FREE ENERGY PREDICTED BY IDOCK:   -0.00 KCAL/MOL
REMARK 927      BINDING AFFINITY PREDICTED BY RF-SCORE:    0.00 PKD
ROOT
HETATM    1  C   UNL     1     -12.233  12.727  63.492  1.00  0.00    -0.525 C  
HETATM    2  N   UNL     1     -12.276  14.184  63.453  1.00  0.00    -1.099 NA 
HETATM    3  H   UNL     1     -13.135  14.505  63.008  1.00  0.00     0.000 HD 
ENDROOT
BRANCH   2   4
HETATM    4  C   UNL     1     -12.104  14.822  64.773  1.00  0.00    -0.381 C  
HETATM    5  C   UNL     1     -12.602  13.917  65.907  1.00  0.00    -0.498 C  
BRANCH   4   6
HETATM    6  C   UNL     1     -10.611  15.167  65.043  1.00  0.00    -0.439 C  
BRANCH   6   7
HETATM    7  C   UNL     1     -10.342  15.954  66.308  1.00  0.00    -0.324 A  
HETATM    8  C   UNL     1     -10.114  15.197  67.481  1.00  0.00    -0.232 A  
HETATM    9  C   UNL     1      -9.912  15.804  68.719  1.00  0.00    -0.214 A  
HETATM   10  C   UNL     1      -9.945  17.188  68.815  1.00  0.00    -0.315 A  
HETATM   11  C   UNL     1     -10.183  17.953  67.671  1.00  0.00    -0.369 A  
HETATM   12  C   UNL     1     -10.377  17.352  66.416  1.00  0.00    -0.317 A  
BRANCH  12  13
HETATM   13  O   UNL     1     -10.736  18.241  65.440  1.00  0.00    -0.610 OA 
HETATM   14  C   UNL     1     -10.651  19.620  65.759  1.00  0.00    -0.438 C  
ENDBRANCH  12  13
ENDBRANCH   6   7
ENDBRANCH   4   6
ENDBRANCH   2   4
TORSDOF 4
ENDMDL
MODEL       11
REMARK 921   NORMALIZED FREE ENERGY PREDICTED BY IDOCK:   -4.48 KCAL/MOL
REMARK 922        TOTAL FREE ENERGY PREDICTED BY IDOCK:   -5.76 KCAL/MOL
REMARK 923 INTER-LIGAND FREE ENERGY PREDICTED BY IDOCK:   -5.50 KCAL/MOL
REMARK 924 INTRA-LIGAND FREE ENERGY PREDICTED BY IDOCK:   -0.26 KCAL/MOL
REMARK 927      BINDING AFFINITY PREDICTED BY RF-SCORE:    0.00 PKD
ROOT
HETATM    1  C   UNL     1     -12.602  12.075  63.484  1.00  0.00    -0.507 C  
HETATM    2  N   UNL     1     -12.810  12.709  64.780  1.00  0.00    -0.830 NA 
HETATM    3  H   UNL     1     -13.675  12.376  65.207  1.00  0.00     0.000 HD 
ENDROOT
BRANCH   2   4
HETATM    4  C   UNL     1     -11.676  12.548  65.711  1.00  0.00    -0.426 C  
HETATM    5  C   UNL     1     -10.330  12.733  65.001  1.00  0.00    -0.323 C  
BRANCH   4   6
HETATM    6  C   UNL     1     -11.757  13.574  66.880  1.00  0.00    -0.424 C  
BRANCH   6   7
HETATM    7  C   UNL     1     -11.892  12.976  68.264  1.00  0.00    -0.381 A  
HETATM    8  C   UNL     1     -11.836  11.565  68.346  1.00  0.00    -0.353 A  
HETATM    9  C   UNL     1     -12.006  10.892  69.553  1.00  0.00    -0.401 A  
HETATM   10  C   UNL     1     -12.246  11.617  70.712  1.00  0.00    -0.443 A  
HETATM   11  C   UNL     1     -12.319  13.011  70.650  1.00  0.00    -0.391 A  
HETATM   12  C   UNL     1     -12.138  13.700  69.439  1.00  0.00    -0.314 A  
BRANCH  12  13
HETATM   13  O   UNL     1     -12.383  15.042  69.540  1.00  0.00    -0.252 OA 
HETATM   14  C   UNL     1     -12.540  15.576  70.844  1.00  0.00    -0.456 C  
ENDBRANCH  12  13
ENDBRANCH   6   7
ENDBRANCH   4   6
ENDBRANCH   2   4
TORSDOF 4
ENDMDL
MODEL       12
REMARK 921   NORMALIZED FREE ENERGY PREDICTED BY IDOCK:   -4.47 KCAL/MOL
REMARK 922        TOTAL FREE ENERGY PREDICTED BY IDOCK:   -5.75 KCAL/MOL
REMARK 923 INTER-LIGAND FREE ENERGY PREDICTED BY IDOCK:   -5.48 KCAL/MOL
REMARK 924 INTRA-LIGAND FREE ENERGY PREDICTED BY IDOCK:   -0.26 KCAL/MOL
REMARK 927      BINDING AFFINITY PREDICTED BY RF-SCORE:    0.00 PKD
ROOT
HETATM    1  C   UNL     1      -9.780  15.260  67.520  1.00  0.00    -0.204 C  
HETATM    2  N   UNL     1     -11.196  15.206  67.180  1.00  0.00    -0.336 NA 
HETATM    3  H   UNL     1     -11.323  15.234  66.168  1.00  0.00     0.000 HD 
ENDROOT
BRANCH   2   4
HETATM    4  C   UNL     1     -11.906  14.049  67.761  1.00  0.00    -0.384 C  
HETATM    5  C   UNL     1     -11.820  12.818  66.851  1.00  0.00    -0.440 C  
BRANCH   4   6
HETATM    6  C   UNL     1     -11.322  13.669  69.152  1.00  0.00    -0.335 C  
BRANCH   6   7
HETATM    7  C   UNL     1     -12.250  13.883  70.329  1.00  0.00    -0.428 A  
HETATM    8  C   UNL     1     -12.560  15.225  70.647  1.00  0.00    -0.471 A  
HETATM    9  C   UNL     1     -13.355  15.555  71.742  1.00  0.00    -0.577 A  
HETATM   10  C   UNL     1     -13.853  14.545  72.555  1.00  0.00    -0.555 A  
HETATM   11  C   UNL     1     -13.546  13.214  72.266  1.00  0.00    -0.677 A  
HETATM   12  C   UNL     1     -12.754  12.870  71.158  1.00  0.00    -0.276 A  
BRANCH  12  13
HETATM   13  O   UNL     1     -12.440  11.539  71.111  1.00  0.00    -0.376 OA 
HETATM   14  C   UNL     1     -13.222  10.661  71.903  1.00  0.00    -0.423 C  
ENDBRANCH  12  13
ENDBRANCH   6   7
ENDBRANCH   4   6
ENDBRANCH   2   4
TORSDOF 4
ENDMDL
MODEL       13
REMARK 921   NORMALIZED FREE ENERGY PREDICTED BY IDOCK:   -4.42 KCAL/MOL
REMARK 922        TOTAL FREE ENERGY PREDICTED BY IDOCK:   -5.68 KCAL/MOL
REMARK 923 INTER-LIGAND FREE ENERGY PREDICTED BY IDOCK:   -5.15 KCAL/MOL
REMARK 924 INTRA-LIGAND FREE ENERGY PREDICTED BY IDOCK:   -0.53 KCAL/MOL
REMARK 927      BINDING AFFINITY PREDICTED BY RF-SCORE:    0.00 PKD
ROOT
HETATM    1  C   UNL     1     -10.253  15.200  67.194  1.00  0.00    -0.247 C  
HETATM    2  N   UNL     1     -11.652  14.818  67.044  1.00  0.00    -0.361 NA 
HETATM    3  H   UNL     1     -12.008  15.112  66.134  1.00  0.00     0.000 HD 
ENDROOT
BRANCH   2   4
HETATM    4  C   UNL     1     -11.904  13.379  67.260  1.00  0.00    -0.376 C  
HETATM    5  C   UNL     1     -11.560  12.552  66.016  1.00  0.00    -0.456 C  
BRANCH   4   6
HETATM    6  C   UNL     1     -11.071  12.834  68.456  1.00  0.00    -0.300 C  
BRANCH   6   7
HETATM    7  C   UNL     1     -11.814  12.719  69.770  1.00  0.00    -0.380 A  
HETATM    8  C   UNL     1     -12.091  11.408  70.221  1.00  0.00    -0.459 A  
HETATM    9  C   UNL     1     -12.818  11.171  71.385  1.00  0.00    -0.544 A  
HETATM   10  C   UNL     1     -13.296  12.245  72.124  1.00  0.00    -0.473 A  
HETATM   11  C   UNL     1     -13.045  13.547  71.687  1.00  0.00    -0.459 A  
HETATM   12  C   UNL     1     -12.303  13.798  70.521  1.00  0.00    -0.359 A  
BRANCH  12  13
HETATM   13  O   UNL     1     -12.278  15.120  70.170  1.00  0.00    -0.318 OA 
HETATM   14  C   UNL     1     -11.515  15.992  70.988  1.00  0.00    -0.417 C  
ENDBRANCH  12  13
ENDBRANCH   6   7
ENDBRANCH   4   6
ENDBRANCH   2   4
TORSDOF 4
ENDMDL
MODEL       14
REMARK 921   NORMALIZED FREE ENERGY PREDICTED BY IDOCK:   -4.41 KCAL/MOL
REMARK 922        TOTAL FREE ENERGY PREDICTED BY IDOCK:   -5.68 KCAL/MOL
REMARK 923 INTER-LIGAND FREE ENERGY PREDICTED BY IDOCK:   -5.44 KCAL/MOL
REMARK 924 INTRA-LIGAND FREE ENERGY PREDICTED BY IDOCK:   -0.24 KCAL/MOL
REMARK 927      BINDING AFFINITY PREDICTED BY RF-SCORE:    0.00 PKD
ROOT
HETATM    1  C   UNL     1     -12.271  12.664  63.546  1.00  0.00    -0.547 C  
HETATM    2  N   UNL     1     -12.938  12.597  64.840  1.00  0.00    -0.850 NA 
HETATM    3  H   UNL     1     -13.481  11.737  64.920  1.00  0.00     0.000 HD 
ENDROOT
BRANCH   2   4
HETATM    4  C   UNL     1     -12.025  12.744  65.991  1.00  0.00    -0.432 C  
HETATM    5  C   UNL     1     -10.648  12.136  65.701  1.00  0.00    -0.297 C  
BRANCH   4   6
HETATM    6  C   UNL     1     -11.829  14.242  66.367  1.00  0.00    -0.427 C  
BRANCH   6   7
HETATM    7  C   UNL     1     -11.697  14.530  67.848  1.00  0.00    -0.381 A  
HETATM    8  C   UNL     1     -12.137  13.513  68.726  1.00  0.00    -0.305 A  
HETATM    9  C   UNL     1     -12.121  13.680  70.109  1.00  0.00    -0.431 A  
HETATM   10  C   UNL     1     -11.672  14.877  70.648  1.00  0.00    -0.357 A  
HETATM   11  C   UNL     1     -11.247  15.899  69.797  1.00  0.00    -0.339 A  
HETATM   12  C   UNL     1     -11.248  15.737  68.401  1.00  0.00    -0.362 A  
BRANCH  12  13
HETATM   13  O   UNL     1     -10.935  16.884  67.724  1.00  0.00    -0.315 OA 
HETATM   14  C   UNL     1     -10.258  17.898  68.447  1.00  0.00    -0.394 C  
ENDBRANCH  12  13
ENDBRANCH   6   7
ENDBRANCH   4   6
ENDBRANCH   2   4
TORSDOF 4
ENDMDL
MODEL       15
REMARK 921   NORMALIZED FREE ENERGY PREDICTED BY IDOCK:   -4.40 KCAL/MOL
REMARK 922        TOTAL FREE ENERGY PREDICTED BY IDOCK:   -5.67 KCAL/MOL
REMARK 923 INTER-LIGAND FREE ENERGY PREDICTED BY IDOCK:   -5.34 KCAL/MOL
REMARK 924 INTRA-LIGAND FREE ENERGY PREDICTED BY IDOCK:   -0.32 KCAL/MOL
REMARK 927      BINDING AFFINITY PREDICTED BY RF-SCORE:    0.00 PKD
ROOT
HETATM    1  C   UNL     1     -11.062  16.291  70.035  1.00  0.00    -0.348 C  
HETATM    2  N   UNL     1     -11.931  16.309  71.204  1.00  0.00    -0.607 NA 
HETATM    3  H   UNL     1     -12.865  16.632  70.952  1.00  0.00     0.000 HD 
ENDROOT
BRANCH   2   4
HETATM    4  C   UNL     1     -12.003  15.017  71.915  1.00  0.00    -0.382 C  
HETATM    5  C   UNL     1     -12.268  15.210  73.413  1.00  0.00    -0.565 C  
BRANCH   4   6
HETATM    6  C   UNL     1     -13.129  14.115  71.332  1.00  0.00    -0.428 C  
BRANCH   6   7
HETATM    7  C   UNL     1     -12.752  12.666  71.107  1.00  0.00    -0.347 A  
HETATM    8  C   UNL     1     -13.222  11.739  72.066  1.00  0.00    -0.460 A  
HETATM    9  C   UNL     1     -12.894  10.387  72.004  1.00  0.00    -0.447 A  
HETATM   10  C   UNL     1     -12.077   9.929  70.979  1.00  0.00    -0.450 A  
HETATM   11  C   UNL     1     -11.591  10.830  70.030  1.00  0.00    -0.417 A  
HETATM   12  C   UNL     1     -11.924  12.194  70.078  1.00  0.00    -0.315 A  
BRANCH  12  13
HETATM   13  O   UNL     1     -11.249  12.948  69.157  1.00  0.00    -0.256 OA 
HETATM   14  C   UNL     1     -11.962  13.348  67.999  1.00  0.00    -0.322 C  
ENDBRANCH  12  13
ENDBRANCH   6   7
ENDBRANCH   4   6
ENDBRANCH   2   4
TORSDOF 4
ENDMDL
MODEL       16
REMARK 921   NORMALIZED FREE ENERGY PREDICTED BY IDOCK:   -4.40 KCAL/MOL
REMARK 922        TOTAL FREE ENERGY PREDICTED BY IDOCK:   -5.67 KCAL/MOL
REMARK 923 INTER-LIGAND FREE ENERGY PREDICTED BY IDOCK:   -5.41 KCAL/MOL
REMARK 924 INTRA-LIGAND FREE ENERGY PREDICTED BY IDOCK:   -0.26 KCAL/MOL
REMARK 927      BINDING AFFINITY PREDICTED BY RF-SCORE:    0.00 PKD
ROOT
HETATM    1  C   UNL     1     -13.251   9.116  72.074  1.00  0.00    -0.441 C  
HETATM    2  N   UNL     1     -13.284   9.911  70.852  1.00  0.00    -0.570 NA 
HETATM    3  H   UNL     1     -14.022  10.613  70.901  1.00  0.00     0.000 HD 
ENDROOT
BRANCH   2   4
HETATM    4  C   UNL     1     -11.991  10.538  70.513  1.00  0.00    -0.342 C  
HETATM    5  C   UNL     1     -10.810   9.636  70.885  1.00  0.00    -0.409 C  
BRANCH   4   6
HETATM    6  C   UNL     1     -11.902  10.859  68.993  1.00  0.00    -0.370 C  
BRANCH   6   7
HETATM    7  C   UNL     1     -11.814  12.329  68.641  1.00  0.00    -0.354 A  
HETATM    8  C   UNL     1     -11.756  13.232  69.727  1.00  0.00    -0.354 A  
HETATM    9  C   UNL     1     -11.732  14.611  69.535  1.00  0.00    -0.366 A  
HETATM   10  C   UNL     1     -11.776  15.123  68.246  1.00  0.00    -0.336 A  
HETATM   11  C   UNL     1     -11.849  14.248  67.160  1.00  0.00    -0.454 A  
HETATM   12  C   UNL     1     -11.862  12.855  67.342  1.00  0.00    -0.360 A  
BRANCH  12  13
HETATM   13  O   UNL     1     -12.078  12.160  66.183  1.00  0.00    -0.621 OA 
HETATM   14  C   UNL     1     -12.128  12.909  64.980  1.00  0.00    -0.435 C  
ENDBRANCH  12  13
ENDBRANCH   6   7
ENDBRANCH   4   6
ENDBRANCH   2   4
TORSDOF 4
ENDMDL
MODEL       17
REMARK 921   NORMALIZED FREE ENERGY PREDICTED BY IDOCK:   -4.38 KCAL/MOL
REMARK 922        TOTAL FREE ENERGY PREDICTED BY IDOCK:   -5.64 KCAL/MOL
REMARK 923 INTER-LIGAND FREE ENERGY PREDICTED BY IDOCK:   -5.39 KCAL/MOL
REMARK 924 INTRA-LIGAND FREE ENERGY PREDICTED BY IDOCK:   -0.25 KCAL/MOL
REMARK 927      BINDING AFFINITY PREDICTED BY RF-SCORE:    0.00 PKD
ROOT
HETATM    1  C   UNL     1      -9.870  11.616  63.037  1.00  0.00    -0.305 C  
HETATM    2  N   UNL     1     -10.083  12.852  63.779  1.00  0.00    -0.729 NA 
HETATM    3  H   UNL     1      -9.916  13.662  63.182  1.00  0.00     0.000 HD 
ENDROOT
BRANCH   2   4
HETATM    4  C   UNL     1     -11.411  12.944  64.418  1.00  0.00    -0.357 C  
HETATM    5  C   UNL     1     -12.516  12.395  63.508  1.00  0.00    -0.605 C  
BRANCH   4   6
HETATM    6  C   UNL     1     -11.447  12.155  65.760  1.00  0.00    -0.414 C  
BRANCH   6   7
HETATM    7  C   UNL     1     -11.547  13.001  67.011  1.00  0.00    -0.413 A  
HETATM    8  C   UNL     1     -11.201  14.365  66.875  1.00  0.00    -0.340 A  
HETATM    9  C   UNL     1     -11.197  15.234  67.964  1.00  0.00    -0.330 A  
HETATM   10  C   UNL     1     -11.531  14.754  69.222  1.00  0.00    -0.322 A  
HETATM   11  C   UNL     1     -11.861  13.406  69.380  1.00  0.00    -0.390 A  
HETATM   12  C   UNL     1     -11.880  12.524  68.287  1.00  0.00    -0.309 A  
BRANCH  12  13
HETATM   13  O   UNL     1     -12.086  11.221  68.648  1.00  0.00    -0.543 OA 
HETATM   14  C   UNL     1     -11.666  10.834  69.946  1.00  0.00    -0.333 C  
ENDBRANCH  12  13
ENDBRANCH   6   7
ENDBRANCH   4   6
ENDBRANCH   2   4
TORSDOF 4
ENDMDL
MODEL       18
REMARK 921   NORMALIZED FREE ENERGY PREDICTED BY IDOCK:   -4.36 KCAL/MOL
REMARK 922        TOTAL FREE ENERGY PREDICTED BY IDOCK:   -5.62 KCAL/MOL
REMARK 923 INTER-LIGAND FREE ENERGY PREDICTED BY IDOCK:   -5.36 KCAL/MOL
REMARK 924 INTRA-LIGAND FREE ENERGY PREDICTED BY IDOCK:   -0.26 KCAL/MOL
REMARK 927      BINDING AFFINITY PREDICTED BY RF-SCORE:    0.00 PKD
ROOT
HETATM    1  C   UNL     1     -11.694  15.830  69.561  1.00  0.00    -0.360 C  
HETATM    2  N   UNL     1     -12.272  14.917  68.583  1.00  0.00    -0.591 NA 
HETATM    3  H   UNL     1     -12.901  15.417  67.954  1.00  0.00     0.000 HD 
ENDROOT
BRANCH   2   4
HETATM    4  C   UNL     1     -11.270  14.152  67.815  1.00  0.00    -0.287 C  
HETATM    5  C   UNL     1      -9.938  14.051  68.568  1.00  0.00    -0.230 C  
BRANCH   4   6
HETATM    6  C   UNL     1     -11.771  12.710  67.513  1.00  0.00    -0.429 C  
BRANCH   6   7
HETATM    7  C   UNL     1     -11.557  12.230  66.093  1.00  0.00    -0.450 A  
HETATM    8  C   UNL     1     -10.657  11.153  65.925  1.00  0.00    -0.294 A  
HETATM    9  C   UNL     1     -10.331  10.658  64.664  1.00  0.00    -0.353 A  
HETATM   10  C   UNL     1     -10.894  11.238  63.536  1.00  0.00    -0.373 A  
HETATM   11  C   UNL     1     -11.774  12.313  63.680  1.00  0.00    -0.591 A  
HETATM   12  C   UNL     1     -12.118  12.812  64.947  1.00  0.00    -0.438 A  
BRANCH  12  13
HETATM   13  O   UNL     1     -12.877  13.950  64.892  1.00  0.00    -0.687 OA 
HETATM   14  C   UNL     1     -12.271  15.105  64.336  1.00  0.00    -0.275 C  
ENDBRANCH  12  13
ENDBRANCH   6   7
ENDBRANCH   4   6
ENDBRANCH   2   4
TORSDOF 4
ENDMDL
MODEL       19
REMARK 921   NORMALIZED FREE ENERGY PREDICTED BY IDOCK:   -4.36 KCAL/MOL
REMARK 922        TOTAL FREE ENERGY PREDICTED BY IDOCK:   -5.61 KCAL/MOL
REMARK 923 INTER-LIGAND FREE ENERGY PREDICTED BY IDOCK:   -5.33 KCAL/MOL
REMARK 924 INTRA-LIGAND FREE ENERGY PREDICTED BY IDOCK:   -0.28 KCAL/MOL
REMARK 927      BINDING AFFINITY PREDICTED BY RF-SCORE:    0.00 PKD
ROOT
HETATM    1  C   UNL     1     -12.084  12.601  63.331  1.00  0.00    -0.525 C  
HETATM    2  N   UNL     1     -12.293  14.043  63.276  1.00  0.00    -1.145 NA 
HETATM    3  H   UNL     1     -13.154  14.261  62.775  1.00  0.00     0.000 HD 
ENDROOT
BRANCH   2   4
HETATM    4  C   UNL     1     -12.281  14.698  64.599  1.00  0.00    -0.434 C  
HETATM    5  C   UNL     1     -12.897  13.803  65.680  1.00  0.00    -0.456 C  
BRANCH   4   6
HETATM    6  C   UNL     1     -10.832  15.063  65.035  1.00  0.00    -0.439 C  
BRANCH   6   7
HETATM    7  C   UNL     1     -10.710  16.250  65.967  1.00  0.00    -0.217 A  
HETATM    8  C   UNL     1     -10.667  17.524  65.357  1.00  0.00    -0.008 A  
HETATM    9  C   UNL     1     -10.498  18.689  66.102  1.00  0.00    -0.473 A  
HETATM   10  C   UNL     1     -10.358  18.605  67.480  1.00  0.00    -0.453 A  
HETATM   11  C   UNL     1     -10.383  17.354  68.100  1.00  0.00    -0.366 A  
HETATM   12  C   UNL     1     -10.564  16.174  67.360  1.00  0.00    -0.311 A  
BRANCH  12  13
HETATM   13  O   UNL     1     -10.421  15.038  68.109  1.00  0.00    -0.239 OA 
HETATM   14  C   UNL     1     -10.768  15.121  69.481  1.00  0.00    -0.266 C  
ENDBRANCH  12  13
ENDBRANCH   6   7
ENDBRANCH   4   6
ENDBRANCH   2   4
TORSDOF 4
ENDMDL
MODEL       20
REMARK 921   NORMALIZED FREE ENERGY PREDICTED BY IDOCK:   -4.35 KCAL/MOL
REMARK 922        TOTAL FREE ENERGY PREDICTED BY IDOCK:   -5.60 KCAL/MOL
REMARK 923 INTER-LIGAND FREE ENERGY PREDICTED BY IDOCK:   -5.34 KCAL/MOL
REMARK 924 INTRA-LIGAND FREE ENERGY PREDICTED BY IDOCK:   -0.26 KCAL/MOL
REMARK 927      BINDING AFFINITY PREDICTED BY RF-SCORE:    0.00 PKD
ROOT
HETATM    1  C   UNL     1      -8.879  14.703  68.160  1.00  0.00    -0.173 C  
HETATM    2  N   UNL     1      -9.317  14.826  69.545  1.00  0.00    -0.425 NA 
HETATM    3  H   UNL     1      -8.556  15.167  70.133  1.00  0.00     0.000 HD 
ENDROOT
BRANCH   2   4
HETATM    4  C   UNL     1     -10.522  15.662  69.718  1.00  0.00    -0.308 C  
HETATM    5  C   UNL     1     -10.448  16.941  68.876  1.00  0.00    -0.346 C  
BRANCH   4   6
HETATM    6  C   UNL     1     -11.809  14.885  69.315  1.00  0.00    -0.350 C  
BRANCH   6   7
HETATM    7  C   UNL     1     -12.310  13.881  70.331  1.00  0.00    -0.433 A  
HETATM    8  C   UNL     1     -12.052  12.520  70.048  1.00  0.00    -0.337 A  
HETATM    9  C   UNL     1     -12.512  11.498  70.874  1.00  0.00    -0.464 A  
HETATM   10  C   UNL     1     -13.253  11.814  72.005  1.00  0.00    -0.460 A  
HETATM   11  C   UNL     1     -13.530  13.152  72.295  1.00  0.00    -0.665 A  
HETATM   12  C   UNL     1     -13.062  14.191  71.474  1.00  0.00    -0.353 A  
BRANCH  12  13
HETATM   13  O   UNL     1     -13.545  15.421  71.829  1.00  0.00    -0.433 OA 
HETATM   14  C   UNL     1     -13.181  15.915  73.107  1.00  0.00    -0.592 C  
ENDBRANCH  12  13
ENDBRANCH   6   7
ENDBRANCH   4   6
ENDBRANCH   2   4
TORSDOF 4
ENDMDL
MODEL       21
REMARK 921   NORMALIZED FREE ENERGY PREDICTED BY IDOCK:   -4.32 KCAL/MOL
REMARK 922        TOTAL FREE ENERGY PREDICTED BY IDOCK:   -5.57 KCAL/MOL
REMARK 923 INTER-LIGAND FREE ENERGY PREDICTED BY IDOCK:   -5.00 KCAL/MOL
REMARK 924 INTRA-LIGAND FREE ENERGY PREDICTED BY IDOCK:   -0.57 KCAL/MOL
REMARK 927      BINDING AFFINITY PREDICTED BY RF-SCORE:    0.00 PKD
ROOT
HETATM    1  C   UNL     1      -9.341  14.213  67.559  1.00  0.00    -0.204 C  
HETATM    2  N   UNL     1      -9.256  14.379  69.005  1.00  0.00    -0.387 NA 
HETATM    3  H   UNL     1      -8.282  14.439  69.302  1.00  0.00     0.000 HD 
ENDROOT
BRANCH   2   4
HETATM    4  C   UNL     1     -10.029  15.525  69.521  1.00  0.00    -0.280 C  
HETATM    5  C   UNL     1      -9.553  16.849  68.910  1.00  0.00    -0.251 C  
BRANCH   4   6
HETATM    6  C   UNL     1     -11.547  15.365  69.217  1.00  0.00    -0.354 C  
BRANCH   6   7
HETATM    7  C   UNL     1     -12.352  14.646  70.279  1.00  0.00    -0.406 A  
HETATM    8  C   UNL     1     -13.177  15.454  71.094  1.00  0.00    -0.583 A  
HETATM    9  C   UNL     1     -13.922  14.919  72.143  1.00  0.00    -0.598 A  
HETATM   10  C   UNL     1     -13.850  13.559  72.409  1.00  0.00    -0.687 A  
HETATM   11  C   UNL     1     -13.029  12.746  71.624  1.00  0.00    -0.402 A  
HETATM   12  C   UNL     1     -12.283  13.273  70.557  1.00  0.00    -0.340 A  
BRANCH  12  13
HETATM   13  O   UNL     1     -11.431  12.363  69.991  1.00  0.00    -0.182 OA 
HETATM   14  C   UNL     1     -11.885  11.687  68.831  1.00  0.00    -0.329 C  
ENDBRANCH  12  13
ENDBRANCH   6   7
ENDBRANCH   4   6
ENDBRANCH   2   4
TORSDOF 4
ENDMDL
MODEL       22
REMARK 921   NORMALIZED FREE ENERGY PREDICTED BY IDOCK:   -4.31 KCAL/MOL
REMARK 922        TOTAL FREE ENERGY PREDICTED BY IDOCK:   -5.55 KCAL/MOL
REMARK 923 INTER-LIGAND FREE ENERGY PREDICTED BY IDOCK:   -5.13 KCAL/MOL
REMARK 924 INTRA-LIGAND FREE ENERGY PREDICTED BY IDOCK:   -0.42 KCAL/MOL
REMARK 927      BINDING AFFINITY PREDICTED BY RF-SCORE:    0.00 PKD
ROOT
HETATM    1  C   UNL     1     -11.362  12.500  63.651  1.00  0.00    -0.485 C  
HETATM    2  N   UNL     1     -10.339  13.446  64.075  1.00  0.00    -0.706 NA 
HETATM    3  H   UNL     1     -10.062  14.048  63.299  1.00  0.00     0.000 HD 
ENDROOT
BRANCH   2   4
HETATM    4  C   UNL     1     -10.723  14.256  65.248  1.00  0.00    -0.366 C  
HETATM    5  C   UNL     1     -10.871  15.739  64.888  1.00  0.00    -0.433 C  
BRANCH   4   6
HETATM    6  C   UNL     1     -12.069  13.765  65.856  1.00  0.00    -0.464 C  
BRANCH   6   7
HETATM    7  C   UNL     1     -12.026  13.396  67.324  1.00  0.00    -0.393 A  
HETATM    8  C   UNL     1     -12.114  14.468  68.242  1.00  0.00    -0.234 A  
HETATM    9  C   UNL     1     -12.027  14.265  69.617  1.00  0.00    -0.387 A  
HETATM   10  C   UNL     1     -11.840  12.980  70.109  1.00  0.00    -0.324 A  
HETATM   11  C   UNL     1     -11.737  11.911  69.217  1.00  0.00    -0.389 A  
HETATM   12  C   UNL     1     -11.834  12.102  67.829  1.00  0.00    -0.257 A  
BRANCH  12  13
HETATM   13  O   UNL     1     -11.569  10.971  67.107  1.00  0.00    -0.469 OA 
HETATM   14  C   UNL     1     -10.207  10.614  66.940  1.00  0.00    -0.223 C  
ENDBRANCH  12  13
ENDBRANCH   6   7
ENDBRANCH   4   6
ENDBRANCH   2   4
TORSDOF 4
ENDMDL
MODEL       23
REMARK 921   NORMALIZED FREE ENERGY PREDICTED BY IDOCK:   -4.29 KCAL/MOL
REMARK 922        TOTAL FREE ENERGY PREDICTED BY IDOCK:   -5.53 KCAL/MOL
REMARK 923 INTER-LIGAND FREE ENERGY PREDICTED BY IDOCK:   -5.29 KCAL/MOL
REMARK 924 INTRA-LIGAND FREE ENERGY PREDICTED BY IDOCK:   -0.24 KCAL/MOL
REMARK 927      BINDING AFFINITY PREDICTED BY RF-SCORE:    0.00 PKD
ROOT
HETATM    1  C   UNL     1     -12.119  14.010  64.321  1.00  0.00    -0.445 C  
HETATM    2  N   UNL     1     -11.032  14.971  64.461  1.00  0.00    -0.647 NA 
HETATM    3  H   UNL     1     -11.137  15.731  63.789  1.00  0.00     0.000 HD 
ENDROOT
BRANCH   2   4
HETATM    4  C   UNL     1     -10.879  15.504  65.829  1.00  0.00    -0.331 C  
HETATM    5  C   UNL     1     -11.138  14.427  66.889  1.00  0.00    -0.325 C  
BRANCH   4   6
HETATM    6  C   UNL     1      -9.450  16.077  66.055  1.00  0.00    -0.384 C  
BRANCH   6   7
HETATM    7  C   UNL     1      -9.389  17.528  66.485  1.00  0.00    -0.281 A  
HETATM    8  C   UNL     1     -10.530  18.033  67.149  1.00  0.00    -0.377 A  
HETATM    9  C   UNL     1     -10.621  19.366  67.543  1.00  0.00    -0.591 A  
HETATM   10  C   UNL     1      -9.570  20.231  67.273  1.00  0.00    -0.581 A  
HETATM   11  C   UNL     1      -8.440  19.755  66.605  1.00  0.00    -0.371 A  
HETATM   12  C   UNL     1      -8.334  18.410  66.213  1.00  0.00    -0.207 A  
BRANCH  12  13
HETATM   13  O   UNL     1      -7.227  18.155  65.451  1.00  0.00    -0.529 OA 
HETATM   14  C   UNL     1      -6.069  17.690  66.125  1.00  0.00    -0.223 C  
ENDBRANCH  12  13
ENDBRANCH   6   7
ENDBRANCH   4   6
ENDBRANCH   2   4
TORSDOF 4
ENDMDL
MODEL       24
REMARK 921   NORMALIZED FREE ENERGY PREDICTED BY IDOCK:   -4.24 KCAL/MOL
REMARK 922        TOTAL FREE ENERGY PREDICTED BY IDOCK:   -5.47 KCAL/MOL
REMARK 923 INTER-LIGAND FREE ENERGY PREDICTED BY IDOCK:   -5.30 KCAL/MOL
REMARK 924 INTRA-LIGAND FREE ENERGY PREDICTED BY IDOCK:   -0.17 KCAL/MOL
REMARK 927      BINDING AFFINITY PREDICTED BY RF-SCORE:    0.00 PKD
ROOT
HETATM    1  C   UNL     1     -11.998  15.632  64.454  1.00  0.00    -0.136 C  
HETATM    2  N   UNL     1     -12.388  14.513  63.606  1.00  0.00    -1.104 NA 
HETATM    3  H   UNL     1     -11.887  14.544  62.718  1.00  0.00     0.000 HD 
ENDROOT
BRANCH   2   4
HETATM    4  C   UNL     1     -12.227  13.193  64.248  1.00  0.00    -0.396 C  
HETATM    5  C   UNL     1     -12.366  12.051  63.234  1.00  0.00    -0.553 C  
BRANCH   4   6
HETATM    6  C   UNL     1     -10.838  13.067  64.938  1.00  0.00    -0.343 C  
BRANCH   6   7
HETATM    7  C   UNL     1     -10.585  11.762  65.662  1.00  0.00    -0.314 A  
HETATM    8  C   UNL     1      -9.775  10.818  64.990  1.00  0.00    -0.323 A  
HETATM    9  C   UNL     1      -9.517   9.559  65.525  1.00  0.00    -0.334 A  
HETATM   10  C   UNL     1     -10.074   9.208  66.747  1.00  0.00    -0.341 A  
HETATM   11  C   UNL     1     -10.889  10.120  67.420  1.00  0.00    -0.323 A  
HETATM   12  C   UNL     1     -11.147  11.397  66.894  1.00  0.00    -0.295 A  
BRANCH  12  13
HETATM   13  O   UNL     1     -12.074  12.101  67.614  1.00  0.00    -0.522 OA 
HETATM   14  C   UNL     1     -11.586  12.999  68.596  1.00  0.00    -0.318 C  
ENDBRANCH  12  13
ENDBRANCH   6   7
ENDBRANCH   4   6
ENDBRANCH   2   4
TORSDOF 4
ENDMDL
MODEL       25
REMARK 921   NORMALIZED FREE ENERGY PREDICTED BY IDOCK:   -4.21 KCAL/MOL
REMARK 922        TOTAL FREE ENERGY PREDICTED BY IDOCK:   -5.43 KCAL/MOL
REMARK 923 INTER-LIGAND FREE ENERGY PREDICTED BY IDOCK:   -5.18 KCAL/MOL
REMARK 924 INTRA-LIGAND FREE ENERGY PREDICTED BY IDOCK:   -0.25 KCAL/MOL
REMARK 927      BINDING AFFINITY PREDICTED BY RF-SCORE:    0.00 PKD
ROOT
HETATM    1  C   UNL     1     -14.223   8.561  71.767  1.00  0.00    -0.446 C  
HETATM    2  N   UNL     1     -13.837   9.567  70.786  1.00  0.00    -0.482 NA 
HETATM    3  H   UNL     1     -14.561  10.280  70.698  1.00  0.00     0.000 HD 
ENDROOT
BRANCH   2   4
HETATM    4  C   UNL     1     -12.525  10.189  71.053  1.00  0.00    -0.375 C  
HETATM    5  C   UNL     1     -11.614   9.261  71.866  1.00  0.00    -0.405 C  
BRANCH   4   6
HETATM    6  C   UNL     1     -11.793  10.554  69.729  1.00  0.00    -0.329 C  
BRANCH   6   7
HETATM    7  C   UNL     1     -11.823  12.020  69.350  1.00  0.00    -0.384 A  
HETATM    8  C   UNL     1     -11.949  12.940  70.416  1.00  0.00    -0.329 A  
HETATM    9  C   UNL     1     -12.047  14.312  70.194  1.00  0.00    -0.403 A  
HETATM   10  C   UNL     1     -12.031  14.796  68.894  1.00  0.00    -0.298 A  
HETATM   11  C   UNL     1     -11.922  13.902  67.826  1.00  0.00    -0.390 A  
HETATM   12  C   UNL     1     -11.811  12.518  68.039  1.00  0.00    -0.325 A  
BRANCH  12  13
HETATM   13  O   UNL     1     -11.856  11.788  66.883  1.00  0.00    -0.591 OA 
HETATM   14  C   UNL     1     -11.675  12.492  65.666  1.00  0.00    -0.423 C  
ENDBRANCH  12  13
ENDBRANCH   6   7
ENDBRANCH   4   6
ENDBRANCH   2   4
TORSDOF 4
ENDMDL
MODEL       26
REMARK 921   NORMALIZED FREE ENERGY PREDICTED BY IDOCK:   -4.21 KCAL/MOL
REMARK 922        TOTAL FREE ENERGY PREDICTED BY IDOCK:   -5.43 KCAL/MOL
REMARK 923 INTER-LIGAND FREE ENERGY PREDICTED BY IDOCK:   -4.95 KCAL/MOL
REMARK 924 INTRA-LIGAND FREE ENERGY PREDICTED BY IDOCK:   -0.47 KCAL/MOL
REMARK 927      BINDING AFFINITY PREDICTED BY RF-SCORE:    0.00 PKD
ROOT
HETATM    1  C   UNL     1     -11.395  14.849  69.277  1.00  0.00    -0.296 C  
HETATM    2  N   UNL     1     -12.242  14.497  68.144  1.00  0.00    -0.593 NA 
HETATM    3  H   UNL     1     -13.062  15.104  68.107  1.00  0.00     0.000 HD 
ENDROOT
BRANCH   2   4
HETATM    4  C   UNL     1     -11.536  14.500  66.847  1.00  0.00    -0.385 C  
HETATM    5  C   UNL     1     -10.016  14.432  67.031  1.00  0.00    -0.257 C  
BRANCH   4   6
HETATM    6  C   UNL     1     -11.976  13.296  65.964  1.00  0.00    -0.473 C  
BRANCH   6   7
HETATM    7  C   UNL     1     -11.284  11.982  66.261  1.00  0.00    -0.394 A  
HETATM    8  C   UNL     1     -10.533  11.416  65.205  1.00  0.00    -0.351 A  
HETATM    9  C   UNL     1      -9.899  10.183  65.333  1.00  0.00    -0.375 A  
HETATM   10  C   UNL     1     -10.009   9.479  66.524  1.00  0.00    -0.329 A  
HETATM   11  C   UNL     1     -10.758  10.014  67.574  1.00  0.00    -0.339 A  
HETATM   12  C   UNL     1     -11.393  11.262  67.459  1.00  0.00    -0.288 A  
BRANCH  12  13
HETATM   13  O   UNL     1     -12.194  11.562  68.527  1.00  0.00    -0.524 OA 
HETATM   14  C   UNL     1     -11.844  10.994  69.778  1.00  0.00    -0.347 C  
ENDBRANCH  12  13
ENDBRANCH   6   7
ENDBRANCH   4   6
ENDBRANCH   2   4
TORSDOF 4
ENDMDL
MODEL       27
REMARK 921   NORMALIZED FREE ENERGY PREDICTED BY IDOCK:   -4.21 KCAL/MOL
REMARK 922        TOTAL FREE ENERGY PREDICTED BY IDOCK:   -5.43 KCAL/MOL
REMARK 923 INTER-LIGAND FREE ENERGY PREDICTED BY IDOCK:   -5.15 KCAL/MOL
REMARK 924 INTRA-LIGAND FREE ENERGY PREDICTED BY IDOCK:   -0.28 KCAL/MOL
REMARK 927      BINDING AFFINITY PREDICTED BY RF-SCORE:    0.00 PKD
ROOT
HETATM    1  C   UNL     1     -14.142  14.890  71.888  1.00  0.00    -0.519 C  
HETATM    2  N   UNL     1     -13.784  15.268  70.527  1.00  0.00    -0.702 NA 
HETATM    3  H   UNL     1     -14.453  15.941  70.153  1.00  0.00     0.000 HD 
ENDROOT
BRANCH   2   4
HETATM    4  C   UNL     1     -12.405  15.777  70.392  1.00  0.00    -0.333 C  
HETATM    5  C   UNL     1     -11.778  16.082  71.757  1.00  0.00    -0.593 C  
BRANCH   4   6
HETATM    6  C   UNL     1     -11.495  14.752  69.654  1.00  0.00    -0.327 C  
BRANCH   6   7
HETATM    7  C   UNL     1     -11.519  14.828  68.142  1.00  0.00    -0.343 A  
HETATM    8  C   UNL     1     -12.265  13.828  67.476  1.00  0.00    -0.262 A  
HETATM    9  C   UNL     1     -12.317  13.755  66.086  1.00  0.00    -0.496 A  
HETATM   10  C   UNL     1     -11.614  14.679  65.326  1.00  0.00    -0.354 A  
HETATM   11  C   UNL     1     -10.860  15.666  65.965  1.00  0.00    -0.276 A  
HETATM   12  C   UNL     1     -10.809  15.755  67.366  1.00  0.00    -0.306 A  
BRANCH  12  13
HETATM   13  O   UNL     1      -9.915  16.688  67.815  1.00  0.00    -0.251 OA 
HETATM   14  C   UNL     1     -10.407  17.997  68.050  1.00  0.00    -0.387 C  
ENDBRANCH  12  13
ENDBRANCH   6   7
ENDBRANCH   4   6
ENDBRANCH   2   4
TORSDOF 4
ENDMDL
MODEL       28
REMARK 921   NORMALIZED FREE ENERGY PREDICTED BY IDOCK:   -4.20 KCAL/MOL
REMARK 922        TOTAL FREE ENERGY PREDICTED BY IDOCK:   -5.42 KCAL/MOL
REMARK 923 INTER-LIGAND FREE ENERGY PREDICTED BY IDOCK:   -5.04 KCAL/MOL
REMARK 924 INTRA-LIGAND FREE ENERGY PREDICTED BY IDOCK:   -0.38 KCAL/MOL
REMARK 927      BINDING AFFINITY PREDICTED BY RF-SCORE:    0.00 PKD
ROOT
HETATM    1  C   UNL     1     -10.007  19.575  68.778  1.00  0.00    -0.463 C  
HETATM    2  N   UNL     1     -10.572  18.272  68.452  1.00  0.00    -0.340 NA 
HETATM    3  H   UNL     1     -11.438  18.117  68.967  1.00  0.00     0.000 HD 
ENDROOT
BRANCH   2   4
HETATM    4  C   UNL     1     -10.781  18.057  67.006  1.00  0.00    -0.238 C  
HETATM    5  C   UNL     1     -10.373  19.287  66.187  1.00  0.00    -0.578 C  
BRANCH   4   6
HETATM    6  C   UNL     1      -9.966  16.835  66.493  1.00  0.00    -0.308 C  
BRANCH   6   7
HETATM    7  C   UNL     1     -10.765  15.573  66.249  1.00  0.00    -0.307 A  
HETATM    8  C   UNL     1     -10.907  15.171  64.901  1.00  0.00    -0.437 A  
HETATM    9  C   UNL     1     -11.668  14.061  64.542  1.00  0.00    -0.428 A  
HETATM   10  C   UNL     1     -12.316  13.328  65.528  1.00  0.00    -0.533 A  
HETATM   11  C   UNL     1     -12.200  13.718  66.864  1.00  0.00    -0.408 A  
HETATM   12  C   UNL     1     -11.426  14.829  67.238  1.00  0.00    -0.366 A  
BRANCH  12  13
HETATM   13  O   UNL     1     -11.541  15.146  68.564  1.00  0.00    -0.311 OA 
HETATM   14  C   UNL     1     -12.078  14.154  69.422  1.00  0.00    -0.328 C  
ENDBRANCH  12  13
ENDBRANCH   6   7
ENDBRANCH   4   6
ENDBRANCH   2   4
TORSDOF 4
ENDMDL
MODEL       29
REMARK 921   NORMALIZED FREE ENERGY PREDICTED BY IDOCK:   -4.19 KCAL/MOL
REMARK 922        TOTAL FREE ENERGY PREDICTED BY IDOCK:   -5.41 KCAL/MOL
REMARK 923 INTER-LIGAND FREE ENERGY PREDICTED BY IDOCK:   -4.96 KCAL/MOL
REMARK 924 INTRA-LIGAND FREE ENERGY PREDICTED BY IDOCK:   -0.44 KCAL/MOL
REMARK 927      BINDING AFFINITY PREDICTED BY RF-SCORE:    0.00 PKD
ROOT
HETATM    1  C   UNL     1     -12.984  13.123  71.364  1.00  0.00    -0.298 C  
HETATM    2  N   UNL     1     -11.782  13.376  70.578  1.00  0.00    -0.532 NA 
HETATM    3  H   UNL     1     -11.593  12.595  69.950  1.00  0.00     0.000 HD 
ENDROOT
BRANCH   2   4
HETATM    4  C   UNL     1     -11.816  14.648  69.829  1.00  0.00    -0.316 C  
HETATM    5  C   UNL     1     -11.610  15.854  70.752  1.00  0.00    -0.441 C  
BRANCH   4   6
HETATM    6  C   UNL     1     -10.717  14.683  68.727  1.00  0.00    -0.252 C  
BRANCH   6   7
HETATM    7  C   UNL     1     -11.181  14.323  67.332  1.00  0.00    -0.330 A  
HETATM    8  C   UNL     1     -11.075  15.339  66.354  1.00  0.00    -0.273 A  
HETATM    9  C   UNL     1     -11.522  15.151  65.048  1.00  0.00    -0.339 A  
HETATM   10  C   UNL     1     -12.096  13.940  64.690  1.00  0.00    -0.458 A  
HETATM   11  C   UNL     1     -12.223  12.929  65.645  1.00  0.00    -0.519 A  
HETATM   12  C   UNL     1     -11.766  13.104  66.962  1.00  0.00    -0.377 A  
BRANCH  12  13
HETATM   13  O   UNL     1     -12.099  12.068  67.792  1.00  0.00    -0.537 OA 
HETATM   14  C   UNL     1     -11.293  10.904  67.728  1.00  0.00    -0.292 C  
ENDBRANCH  12  13
ENDBRANCH   6   7
ENDBRANCH   4   6
ENDBRANCH   2   4
TORSDOF 4
ENDMDL
MODEL       30
REMARK 921   NORMALIZED FREE ENERGY PREDICTED BY IDOCK:   -4.18 KCAL/MOL
REMARK 922        TOTAL FREE ENERGY PREDICTED BY IDOCK:   -5.40 KCAL/MOL
REMARK 923 INTER-LIGAND FREE ENERGY PREDICTED BY IDOCK:   -5.07 KCAL/MOL
REMARK 924 INTRA-LIGAND FREE ENERGY PREDICTED BY IDOCK:   -0.32 KCAL/MOL
REMARK 927      BINDING AFFINITY PREDICTED BY RF-SCORE:    0.00 PKD
ROOT
HETATM    1  C   UNL     1     -10.895   9.854  69.224  1.00  0.00    -0.227 C  
HETATM    2  N   UNL     1     -11.802  10.677  68.434  1.00  0.00    -0.769 NA 
HETATM    3  H   UNL     1     -12.549  11.051  69.019  1.00  0.00     0.000 HD 
ENDROOT
BRANCH   2   4
HETATM    4  C   UNL     1     -11.131  11.762  67.692  1.00  0.00    -0.252 C  
HETATM    5  C   UNL     1     -10.318  11.221  66.511  1.00  0.00    -0.284 C  
BRANCH   4   6
HETATM    6  C   UNL     1     -12.161  12.793  67.146  1.00  0.00    -0.236 C  
BRANCH   6   7
HETATM    7  C   UNL     1     -11.568  14.036  66.516  1.00  0.00    -0.389 A  
HETATM    8  C   UNL     1     -10.844  14.891  67.378  1.00  0.00    -0.304 A  
HETATM    9  C   UNL     1     -10.301  16.094  66.933  1.00  0.00    -0.297 A  
HETATM   10  C   UNL     1     -10.478  16.476  65.611  1.00  0.00    -0.341 A  
HETATM   11  C   UNL     1     -11.202  15.652  64.747  1.00  0.00    -0.391 A  
HETATM   12  C   UNL     1     -11.745  14.432  65.183  1.00  0.00    -0.372 A  
BRANCH  12  13
HETATM   13  O   UNL     1     -12.539  13.828  64.246  1.00  0.00    -0.654 OA 
HETATM   14  C   UNL     1     -11.947  12.810  63.456  1.00  0.00    -0.555 C  
ENDBRANCH  12  13
ENDBRANCH   6   7
ENDBRANCH   4   6
ENDBRANCH   2   4
TORSDOF 4
ENDMDL
MODEL       31
REMARK 921   NORMALIZED FREE ENERGY PREDICTED BY IDOCK:   -4.18 KCAL/MOL
REMARK 922        TOTAL FREE ENERGY PREDICTED BY IDOCK:   -5.40 KCAL/MOL
REMARK 923 INTER-LIGAND FREE ENERGY PREDICTED BY IDOCK:   -5.07 KCAL/MOL
REMARK 924 INTRA-LIGAND FREE ENERGY PREDICTED BY IDOCK:   -0.32 KCAL/MOL
REMARK 927      BINDING AFFINITY PREDICTED BY RF-SCORE:    0.00 PKD
ROOT
HETATM    1  C   UNL     1     -12.003  11.001  69.997  1.00  0.00    -0.351 C  
HETATM    2  N   UNL     1     -11.756  12.386  70.379  1.00  0.00    -0.540 NA 
HETATM    3  H   UNL     1     -10.809  12.494  70.743  1.00  0.00     0.000 HD 
ENDROOT
BRANCH   2   4
HETATM    4  C   UNL     1     -12.011  13.358  69.298  1.00  0.00    -0.317 C  
HETATM    5  C   UNL     1     -12.104  14.791  69.836  1.00  0.00    -0.381 C  
BRANCH   4   6
HETATM    6  C   UNL     1     -10.888  13.313  68.222  1.00  0.00    -0.276 C  
BRANCH   6   7
HETATM    7  C   UNL     1     -11.335  13.582  66.801  1.00  0.00    -0.351 A  
HETATM    8  C   UNL     1     -11.835  12.472  66.080  1.00  0.00    -0.459 A  
HETATM    9  C   UNL     1     -12.223  12.577  64.747  1.00  0.00    -0.532 A  
HETATM   10  C   UNL     1     -12.112  13.798  64.096  1.00  0.00    -0.478 A  
HETATM   11  C   UNL     1     -11.607  14.902  64.786  1.00  0.00    -0.410 A  
HETATM   12  C   UNL     1     -11.223  14.810  66.134  1.00  0.00    -0.337 A  
BRANCH  12  13
HETATM   13  O   UNL     1     -10.622  15.947  66.604  1.00  0.00    -0.314 OA 
HETATM   14  C   UNL     1      -9.367  16.294  66.044  1.00  0.00    -0.326 C  
ENDBRANCH  12  13
ENDBRANCH   6   7
ENDBRANCH   4   6
ENDBRANCH   2   4
TORSDOF 4
ENDMDL
MODEL       32
REMARK 921   NORMALIZED FREE ENERGY PREDICTED BY IDOCK:   -4.17 KCAL/MOL
REMARK 922        TOTAL FREE ENERGY PREDICTED BY IDOCK:   -5.38 KCAL/MOL
REMARK 923 INTER-LIGAND FREE ENERGY PREDICTED BY IDOCK:   -4.89 KCAL/MOL
REMARK 924 INTRA-LIGAND FREE ENERGY PREDICTED BY IDOCK:   -0.49 KCAL/MOL
REMARK 927      BINDING AFFINITY PREDICTED BY RF-SCORE:    0.00 PKD
ROOT
HETATM    1  C   UNL     1     -11.721  14.843  67.511  1.00  0.00    -0.308 C  
HETATM    2  N   UNL     1     -12.594  14.028  66.676  1.00  0.00    -0.502 NA 
HETATM    3  H   UNL     1     -13.573  14.199  66.906  1.00  0.00     0.000 HD 
ENDROOT
BRANCH   2   4
HETATM    4  C   UNL     1     -12.364  14.197  65.228  1.00  0.00    -0.460 C  
HETATM    5  C   UNL     1     -10.969  14.763  64.939  1.00  0.00    -0.425 C  
BRANCH   4   6
HETATM    6  C   UNL     1     -12.508  12.844  64.472  1.00  0.00    -0.468 C  
BRANCH   6   7
HETATM    7  C   UNL     1     -11.315  11.916  64.562  1.00  0.00    -0.382 A  
HETATM    8  C   UNL     1     -10.615  11.677  63.357  1.00  0.00    -0.472 A  
HETATM    9  C   UNL     1      -9.536  10.798  63.297  1.00  0.00    -0.384 A  
HETATM   10  C   UNL     1      -9.137  10.126  64.445  1.00  0.00    -0.284 A  
HETATM   11  C   UNL     1      -9.825  10.338  65.641  1.00  0.00    -0.332 A  
HETATM   12  C   UNL     1     -10.907  11.231  65.715  1.00  0.00    -0.194 A  
BRANCH  12  13
HETATM   13  O   UNL     1     -11.547  11.206  66.924  1.00  0.00    -0.428 OA 
HETATM   14  C   UNL     1     -10.802  10.751  68.042  1.00  0.00    -0.255 C  
ENDBRANCH  12  13
ENDBRANCH   6   7
ENDBRANCH   4   6
ENDBRANCH   2   4
TORSDOF 4
ENDMDL
MODEL       33
REMARK 921   NORMALIZED FREE ENERGY PREDICTED BY IDOCK:   -4.14 KCAL/MOL
REMARK 922        TOTAL FREE ENERGY PREDICTED BY IDOCK:   -5.34 KCAL/MOL
REMARK 923 INTER-LIGAND FREE ENERGY PREDICTED BY IDOCK:   -5.08 KCAL/MOL
REMARK 924 INTRA-LIGAND FREE ENERGY PREDICTED BY IDOCK:   -0.26 KCAL/MOL
REMARK 927      BINDING AFFINITY PREDICTED BY RF-SCORE:    0.00 PKD
ROOT
HETATM    1  C   UNL     1      -7.633  17.577  67.153  1.00  0.00    -0.200 C  
HETATM    2  N   UNL     1      -8.479  17.391  65.980  1.00  0.00    -0.539 NA 
HETATM    3  H   UNL     1      -8.228  16.534  65.489  1.00  0.00     0.000 HD 
ENDROOT
BRANCH   2   4
HETATM    4  C   UNL     1      -9.925  17.415  66.278  1.00  0.00    -0.297 C  
HETATM    5  C   UNL     1     -10.517  18.817  66.097  1.00  0.00    -0.499 C  
BRANCH   4   6
HETATM    6  C   UNL     1     -10.707  16.432  65.359  1.00  0.00    -0.310 C  
BRANCH   6   7
HETATM    7  C   UNL     1     -11.113  15.122  66.000  1.00  0.00    -0.312 A  
HETATM    8  C   UNL     1     -10.601  14.873  67.295  1.00  0.00    -0.272 A  
HETATM    9  C   UNL     1     -10.854  13.679  67.967  1.00  0.00    -0.261 A  
HETATM   10  C   UNL     1     -11.621  12.698  67.353  1.00  0.00    -0.421 A  
HETATM   11  C   UNL     1     -12.123  12.920  66.069  1.00  0.00    -0.484 A  
HETATM   12  C   UNL     1     -11.883  14.124  65.387  1.00  0.00    -0.362 A  
BRANCH  12  13
HETATM   13  O   UNL     1     -12.329  14.110  64.093  1.00  0.00    -0.628 OA 
HETATM   14  C   UNL     1     -12.177  12.900  63.369  1.00  0.00    -0.490 C  
ENDBRANCH  12  13
ENDBRANCH   6   7
ENDBRANCH   4   6
ENDBRANCH   2   4
TORSDOF 4
ENDMDL
MODEL       34
REMARK 921   NORMALIZED FREE ENERGY PREDICTED BY IDOCK:   -4.12 KCAL/MOL
REMARK 922        TOTAL FREE ENERGY PREDICTED BY IDOCK:   -5.32 KCAL/MOL
REMARK 923 INTER-LIGAND FREE ENERGY PREDICTED BY IDOCK:   -5.03 KCAL/MOL
REMARK 924 INTRA-LIGAND FREE ENERGY PREDICTED BY IDOCK:   -0.30 KCAL/MOL
REMARK 927      BINDING AFFINITY PREDICTED BY RF-SCORE:    0.00 PKD
ROOT
HETATM    1  C   UNL     1     -11.479  15.731  64.466  1.00  0.00    -0.289 C  
HETATM    2  N   UNL     1     -12.386  14.762  63.865  1.00  0.00    -1.070 NA 
HETATM    3  H   UNL     1     -12.273  14.746  62.851  1.00  0.00     0.000 HD 
ENDROOT
BRANCH   2   4
HETATM    4  C   UNL     1     -12.262  13.401  64.423  1.00  0.00    -0.389 C  
HETATM    5  C   UNL     1     -12.496  12.328  63.353  1.00  0.00    -0.592 C  
BRANCH   4   6
HETATM    6  C   UNL     1     -10.854  13.173  65.045  1.00  0.00    -0.331 C  
BRANCH   6   7
HETATM    7  C   UNL     1     -10.673  11.866  65.787  1.00  0.00    -0.327 A  
HETATM    8  C   UNL     1     -11.291  11.775  67.056  1.00  0.00    -0.387 A  
HETATM    9  C   UNL     1     -11.150  10.648  67.862  1.00  0.00    -0.371 A  
HETATM   10  C   UNL     1     -10.376   9.584  67.420  1.00  0.00    -0.319 A  
HETATM   11  C   UNL     1      -9.746   9.660  66.176  1.00  0.00    -0.317 A  
HETATM   12  C   UNL     1      -9.891  10.787  65.351  1.00  0.00    -0.262 A  
BRANCH  12  13
HETATM   13  O   UNL     1      -9.094  10.749  64.239  1.00  0.00    -0.199 OA 
HETATM   14  C   UNL     1      -8.991   9.509  63.559  1.00  0.00    -0.173 C  
ENDBRANCH  12  13
ENDBRANCH   6   7
ENDBRANCH   4   6
ENDBRANCH   2   4
TORSDOF 4
ENDMDL
MODEL       35
REMARK 921   NORMALIZED FREE ENERGY PREDICTED BY IDOCK:   -4.10 KCAL/MOL
REMARK 922        TOTAL FREE ENERGY PREDICTED BY IDOCK:   -5.30 KCAL/MOL
REMARK 923 INTER-LIGAND FREE ENERGY PREDICTED BY IDOCK:   -5.30 KCAL/MOL
REMARK 924 INTRA-LIGAND FREE ENERGY PREDICTED BY IDOCK:    0.00 KCAL/MOL
REMARK 927      BINDING AFFINITY PREDICTED BY RF-SCORE:    0.00 PKD
ROOT
HETATM    1  C   UNL     1     -10.938   8.920  70.792  1.00  0.00    -0.253 C  
HETATM    2  N   UNL     1     -11.281  10.321  71.005  1.00  0.00    -0.316 NA 
HETATM    3  H   UNL     1     -10.774  10.917  70.351  1.00  0.00     0.000 HD 
ENDROOT
BRANCH   2   4
HETATM    4  C   UNL     1     -12.730  10.597  70.945  1.00  0.00    -0.404 C  
HETATM    5  C   UNL     1     -13.555   9.385  71.394  1.00  0.00    -0.362 C  
BRANCH   4   6
HETATM    6  C   UNL     1     -13.111  11.808  71.844  1.00  0.00    -0.482 C  
BRANCH   6   7
HETATM    7  C   UNL     1     -12.706  13.167  71.314  1.00  0.00    -0.396 A  
HETATM    8  C   UNL     1     -12.174  13.196  70.004  1.00  0.00    -0.323 A  
HETATM    9  C   UNL     1     -11.711  14.375  69.425  1.00  0.00    -0.362 A  
HETATM   10  C   UNL     1     -11.759  15.557  70.150  1.00  0.00    -0.367 A  
HETATM   11  C   UNL     1     -12.267  15.547  71.451  1.00  0.00    -0.453 A  
HETATM   12  C   UNL     1     -12.747  14.366  72.040  1.00  0.00    -0.328 A  
BRANCH  12  13
HETATM   13  O   UNL     1     -13.073  14.514  73.361  1.00  0.00    -0.587 OA 
HETATM   14  C   UNL     1     -12.340  15.473  74.104  1.00  0.00    -0.669 C  
ENDBRANCH  12  13
ENDBRANCH   6   7
ENDBRANCH   4   6
ENDBRANCH   2   4
TORSDOF 4
ENDMDL
MODEL       36
REMARK 921   NORMALIZED FREE ENERGY PREDICTED BY IDOCK:   -4.10 KCAL/MOL
REMARK 922        TOTAL FREE ENERGY PREDICTED BY IDOCK:   -5.30 KCAL/MOL
REMARK 923 INTER-LIGAND FREE ENERGY PREDICTED BY IDOCK:   -5.05 KCAL/MOL
REMARK 924 INTRA-LIGAND FREE ENERGY PREDICTED BY IDOCK:   -0.25 KCAL/MOL
REMARK 927      BINDING AFFINITY PREDICTED BY RF-SCORE:    0.00 PKD
ROOT
HETATM    1  C   UNL     1      -9.951  11.083  63.451  1.00  0.00    -0.380 C  
HETATM    2  N   UNL     1      -9.864  12.294  64.258  1.00  0.00    -0.524 NA 
HETATM    3  H   UNL     1      -9.098  12.885  63.936  1.00  0.00     0.000 HD 
ENDROOT
BRANCH   2   4
HETATM    4  C   UNL     1     -11.123  13.062  64.321  1.00  0.00    -0.385 C  
HETATM    5  C   UNL     1     -12.193  12.470  63.396  1.00  0.00    -0.613 C  
BRANCH   4   6
HETATM    6  C   UNL     1     -11.692  13.095  65.769  1.00  0.00    -0.415 C  
BRANCH   6   7
HETATM    7  C   UNL     1     -11.451  14.378  66.535  1.00  0.00    -0.369 A  
HETATM    8  C   UNL     1     -10.841  15.432  65.818  1.00  0.00    -0.349 A  
HETATM    9  C   UNL     1     -10.514  16.641  66.426  1.00  0.00    -0.266 A  
HETATM   10  C   UNL     1     -10.782  16.822  67.775  1.00  0.00    -0.321 A  
HETATM   11  C   UNL     1     -11.371  15.788  68.505  1.00  0.00    -0.374 A  
HETATM   12  C   UNL     1     -11.715  14.568  67.899  1.00  0.00    -0.351 A  
BRANCH  12  13
HETATM   13  O   UNL     1     -12.149  13.625  68.791  1.00  0.00    -0.355 OA 
HETATM   14  C   UNL     1     -12.291  14.029  70.142  1.00  0.00    -0.345 C  
ENDBRANCH  12  13
ENDBRANCH   6   7
ENDBRANCH   4   6
ENDBRANCH   2   4
TORSDOF 4
ENDMDL
MODEL       37
REMARK 921   NORMALIZED FREE ENERGY PREDICTED BY IDOCK:   -4.10 KCAL/MOL
REMARK 922        TOTAL FREE ENERGY PREDICTED BY IDOCK:   -5.29 KCAL/MOL
REMARK 923 INTER-LIGAND FREE ENERGY PREDICTED BY IDOCK:   -4.76 KCAL/MOL
REMARK 924 INTRA-LIGAND FREE ENERGY PREDICTED BY IDOCK:   -0.53 KCAL/MOL
REMARK 927      BINDING AFFINITY PREDICTED BY RF-SCORE:    0.00 PKD
ROOT
HETATM    1  C   UNL     1      -8.808   9.279  66.439  1.00  0.00    -0.146 C  
HETATM    2  N   UNL     1      -9.768   9.327  65.344  1.00  0.00    -0.456 NA 
HETATM    3  H   UNL     1     -10.723   9.316  65.703  1.00  0.00     0.000 HD 
ENDROOT
BRANCH   2   4
HETATM    4  C   UNL     1      -9.572  10.467  64.427  1.00  0.00    -0.316 C  
HETATM    5  C   UNL     1      -9.046  10.009  63.061  1.00  0.00    -0.298 C  
BRANCH   4   6
HETATM    6  C   UNL     1     -10.900  11.246  64.203  1.00  0.00    -0.407 C  
BRANCH   6   7
HETATM    7  C   UNL     1     -11.149  12.397  65.154  1.00  0.00    -0.348 A  
HETATM    8  C   UNL     1     -10.899  13.694  64.648  1.00  0.00    -0.416 A  
HETATM    9  C   UNL     1     -11.034  14.830  65.441  1.00  0.00    -0.365 A  
HETATM   10  C   UNL     1     -11.416  14.696  66.769  1.00  0.00    -0.371 A  
HETATM   11  C   UNL     1     -11.653  13.423  67.291  1.00  0.00    -0.400 A  
HETATM   12  C   UNL     1     -11.531  12.271  66.497  1.00  0.00    -0.381 A  
BRANCH  12  13
HETATM   13  O   UNL     1     -11.662  11.108  67.207  1.00  0.00    -0.540 OA 
HETATM   14  C   UNL     1     -11.684  11.212  68.620  1.00  0.00    -0.320 C  
ENDBRANCH  12  13
ENDBRANCH   6   7
ENDBRANCH   4   6
ENDBRANCH   2   4
TORSDOF 4
ENDMDL
MODEL       38
REMARK 921   NORMALIZED FREE ENERGY PREDICTED BY IDOCK:   -4.10 KCAL/MOL
REMARK 922        TOTAL FREE ENERGY PREDICTED BY IDOCK:   -5.29 KCAL/MOL
REMARK 923 INTER-LIGAND FREE ENERGY PREDICTED BY IDOCK:   -5.04 KCAL/MOL
REMARK 924 INTRA-LIGAND FREE ENERGY PREDICTED BY IDOCK:   -0.25 KCAL/MOL
REMARK 927      BINDING AFFINITY PREDICTED BY RF-SCORE:    0.00 PKD
ROOT
HETATM    1  C   UNL     1     -10.387  12.158  63.689  1.00  0.00    -0.452 C  
HETATM    2  N   UNL     1     -10.060  12.643  65.024  1.00  0.00    -0.413 NA 
HETATM    3  H   UNL     1      -9.371  13.394  64.975  1.00  0.00     0.000 HD 
ENDROOT
BRANCH   2   4
HETATM    4  C   UNL     1     -11.236  13.068  65.809  1.00  0.00    -0.289 C  
HETATM    5  C   UNL     1     -12.543  12.831  65.044  1.00  0.00    -0.538 C  
BRANCH   4   6
HETATM    6  C   UNL     1     -11.317  12.304  67.163  1.00  0.00    -0.398 C  
BRANCH   6   7
HETATM    7  C   UNL     1     -11.672  13.149  68.368  1.00  0.00    -0.386 A  
HETATM    8  C   UNL     1     -11.645  14.550  68.182  1.00  0.00    -0.359 A  
HETATM    9  C   UNL     1     -11.894  15.435  69.228  1.00  0.00    -0.365 A  
HETATM   10  C   UNL     1     -12.169  14.936  70.494  1.00  0.00    -0.388 A  
HETATM   11  C   UNL     1     -12.186  13.556  70.702  1.00  0.00    -0.434 A  
HETATM   12  C   UNL     1     -11.947  12.654  69.651  1.00  0.00    -0.286 A  
BRANCH  12  13
HETATM   13  O   UNL     1     -11.863  11.352  70.065  1.00  0.00    -0.305 OA 
HETATM   14  C   UNL     1     -12.732  10.948  71.109  1.00  0.00    -0.429 C  
ENDBRANCH  12  13
ENDBRANCH   6   7
ENDBRANCH   4   6
ENDBRANCH   2   4
TORSDOF 4
ENDMDL
MODEL       39
REMARK 921   NORMALIZED FREE ENERGY PREDICTED BY IDOCK:   -4.10 KCAL/MOL
REMARK 922        TOTAL FREE ENERGY PREDICTED BY IDOCK:   -5.29 KCAL/MOL
REMARK 923 INTER-LIGAND FREE ENERGY PREDICTED BY IDOCK:   -4.99 KCAL/MOL
REMARK 924 INTRA-LIGAND FREE ENERGY PREDICTED BY IDOCK:   -0.30 KCAL/MOL
REMARK 927      BINDING AFFINITY PREDICTED BY RF-SCORE:    0.00 PKD
ROOT
HETATM    1  C   UNL     1     -11.406  15.761  70.353  1.00  0.00    -0.374 C  
HETATM    2  N   UNL     1     -12.292  15.450  69.238  1.00  0.00    -0.606 NA 
HETATM    3  H   UNL     1     -12.828  16.274  68.965  1.00  0.00     0.000 HD 
ENDROOT
BRANCH   2   4
HETATM    4  C   UNL     1     -11.601  14.869  68.070  1.00  0.00    -0.341 C  
HETATM    5  C   UNL     1     -10.078  14.973  68.205  1.00  0.00    -0.222 C  
BRANCH   4   6
HETATM    6  C   UNL     1     -11.974  13.370  67.883  1.00  0.00    -0.360 C  
BRANCH   6   7
HETATM    7  C   UNL     1     -11.667  12.787  66.519  1.00  0.00    -0.463 A  
HETATM    8  C   UNL     1     -12.424  13.292  65.437  1.00  0.00    -0.543 A  
HETATM    9  C   UNL     1     -12.276  12.796  64.144  1.00  0.00    -0.506 A  
HETATM   10  C   UNL     1     -11.371  11.772  63.903  1.00  0.00    -0.494 A  
HETATM   11  C   UNL     1     -10.625  11.250  64.962  1.00  0.00    -0.353 A  
HETATM   12  C   UNL     1     -10.757  11.750  66.268  1.00  0.00    -0.270 A  
BRANCH  12  13
HETATM   13  O   UNL     1     -10.058  11.029  67.196  1.00  0.00    -0.184 OA 
HETATM   14  C   UNL     1     -10.641   9.819  67.651  1.00  0.00    -0.276 C  
ENDBRANCH  12  13
ENDBRANCH   6   7
ENDBRANCH   4   6
ENDBRANCH   2   4
TORSDOF 4
ENDMDL
MODEL       40
REMARK 921   NORMALIZED FREE ENERGY PREDICTED BY IDOCK:   -4.06 KCAL/MOL
REMARK 922        TOTAL FREE ENERGY PREDICTED BY IDOCK:   -5.25 KCAL/MOL
REMARK 923 INTER-LIGAND FREE ENERGY PREDICTED BY IDOCK:   -4.88 KCAL/MOL
REMARK 924 INTRA-LIGAND FREE ENERGY PREDICTED BY IDOCK:   -0.37 KCAL/MOL
REMARK 927      BINDING AFFINITY PREDICTED BY RF-SCORE:    0.00 PKD
ROOT
HETATM    1  C   UNL     1     -10.727   6.173  67.970  1.00  0.00    -0.295 C  
HETATM    2  N   UNL     1     -11.656   6.570  69.021  1.00  0.00    -0.594 NA 
HETATM    3  H   UNL     1     -12.583   6.182  68.846  1.00  0.00     0.000 HD 
ENDROOT
BRANCH   2   4
HETATM    4  C   UNL     1     -11.199   6.229  70.383  1.00  0.00    -0.373 C  
HETATM    5  C   UNL     1     -10.197   5.069  70.368  1.00  0.00    -0.324 C  
BRANCH   4   6
HETATM    6  C   UNL     1     -10.523   7.449  71.073  1.00  0.00    -0.223 C  
BRANCH   6   7
HETATM    7  C   UNL     1     -11.412   8.658  71.276  1.00  0.00    -0.341 A  
HETATM    8  C   UNL     1     -12.514   8.488  72.145  1.00  0.00    -0.437 A  
HETATM    9  C   UNL     1     -13.438   9.506  72.368  1.00  0.00    -0.475 A  
HETATM   10  C   UNL     1     -13.285  10.722  71.716  1.00  0.00    -0.523 A  
HETATM   11  C   UNL     1     -12.212  10.905  70.842  1.00  0.00    -0.485 A  
HETATM   12  C   UNL     1     -11.268   9.889  70.619  1.00  0.00    -0.344 A  
BRANCH  12  13
HETATM   13  O   UNL     1     -10.371  10.192  69.631  1.00  0.00    -0.219 OA 
HETATM   14  C   UNL     1     -10.841  10.143  68.294  1.00  0.00    -0.252 C  
ENDBRANCH  12  13
ENDBRANCH   6   7
ENDBRANCH   4   6
ENDBRANCH   2   4
TORSDOF 4
ENDMDL
MODEL       41
REMARK 921   NORMALIZED FREE ENERGY PREDICTED BY IDOCK:   -4.06 KCAL/MOL
REMARK 922        TOTAL FREE ENERGY PREDICTED BY IDOCK:   -5.25 KCAL/MOL
REMARK 923 INTER-LIGAND FREE ENERGY PREDICTED BY IDOCK:   -5.05 KCAL/MOL
REMARK 924 INTRA-LIGAND FREE ENERGY PREDICTED BY IDOCK:   -0.20 KCAL/MOL
REMARK 927      BINDING AFFINITY PREDICTED BY RF-SCORE:    0.00 PKD
ROOT
HETATM    1  C   UNL     1     -11.143  10.893  67.375  1.00  0.00    -0.307 C  
HETATM    2  N   UNL     1     -11.957  10.668  68.562  1.00  0.00    -0.794 NA 
HETATM    3  H   UNL     1     -11.910   9.691  68.850  1.00  0.00     0.000 HD 
ENDROOT
BRANCH   2   4
HETATM    4  C   UNL     1     -11.624  11.558  69.692  1.00  0.00    -0.333 C  
HETATM    5  C   UNL     1     -11.895  13.029  69.353  1.00  0.00    -0.380 C  
BRANCH   4   6
HETATM    6  C   UNL     1     -12.446  11.190  70.962  1.00  0.00    -0.506 C  
BRANCH   6   7
HETATM    7  C   UNL     1     -12.557   9.710  71.260  1.00  0.00    -0.443 A  
HETATM    8  C   UNL     1     -13.867   9.188  71.363  1.00  0.00    -0.288 A  
HETATM    9  C   UNL     1     -14.102   7.855  71.691  1.00  0.00    -0.528 A  
HETATM   10  C   UNL     1     -13.028   7.011  71.936  1.00  0.00    -0.283 A  
HETATM   11  C   UNL     1     -11.727   7.512  71.854  1.00  0.00    -0.320 A  
HETATM   12  C   UNL     1     -11.478   8.851  71.512  1.00  0.00    -0.321 A  
BRANCH  12  13
HETATM   13  O   UNL     1     -10.159   9.200  71.618  1.00  0.00    -0.327 OA 
HETATM   14  C   UNL     1      -9.271   8.223  72.135  1.00  0.00    -0.222 C  
ENDBRANCH  12  13
ENDBRANCH   6   7
ENDBRANCH   4   6
ENDBRANCH   2   4
TORSDOF 4
ENDMDL
MODEL       42
REMARK 921   NORMALIZED FREE ENERGY PREDICTED BY IDOCK:   -4.06 KCAL/MOL
REMARK 922        TOTAL FREE ENERGY PREDICTED BY IDOCK:   -5.25 KCAL/MOL
REMARK 923 INTER-LIGAND FREE ENERGY PREDICTED BY IDOCK:   -5.00 KCAL/MOL
REMARK 924 INTRA-LIGAND FREE ENERGY PREDICTED BY IDOCK:   -0.25 KCAL/MOL
REMARK 927      BINDING AFFINITY PREDICTED BY RF-SCORE:    0.00 PKD
ROOT
HETATM    1  C   UNL     1     -11.025   6.602  67.137  1.00  0.00    -0.408 C  
HETATM    2  N   UNL     1     -10.291   7.716  66.550  1.00  0.00    -0.504 NA 
HETATM    3  H   UNL     1     -10.506   7.803  65.557  1.00  0.00     0.000 HD 
ENDROOT
BRANCH   2   4
HETATM    4  C   UNL     1     -10.504   9.003  67.242  1.00  0.00    -0.273 C  
HETATM    5  C   UNL     1     -10.096   8.925  68.718  1.00  0.00    -0.215 C  
BRANCH   4   6
HETATM    6  C   UNL     1      -9.690  10.146  66.570  1.00  0.00    -0.252 C  
BRANCH   6   7
HETATM    7  C   UNL     1     -10.450  10.985  65.565  1.00  0.00    -0.302 A  
HETATM    8  C   UNL     1     -10.007  10.911  64.224  1.00  0.00    -0.392 A  
HETATM    9  C   UNL     1     -10.586  11.678  63.216  1.00  0.00    -0.420 A  
HETATM   10  C   UNL     1     -11.621  12.549  63.529  1.00  0.00    -0.584 A  
HETATM   11  C   UNL     1     -12.063  12.647  64.850  1.00  0.00    -0.494 A  
HETATM   12  C   UNL     1     -11.494  11.869  65.872  1.00  0.00    -0.278 A  
BRANCH  12  13
HETATM   13  O   UNL     1     -11.951  12.197  67.119  1.00  0.00    -0.580 OA 
HETATM   14  C   UNL     1     -11.398  13.352  67.728  1.00  0.00    -0.294 C  
ENDBRANCH  12  13
ENDBRANCH   6   7
ENDBRANCH   4   6
ENDBRANCH   2   4
TORSDOF 4
ENDMDL
MODEL       43
REMARK 921   NORMALIZED FREE ENERGY PREDICTED BY IDOCK:   -4.05 KCAL/MOL
REMARK 922        TOTAL FREE ENERGY PREDICTED BY IDOCK:   -5.24 KCAL/MOL
REMARK 923 INTER-LIGAND FREE ENERGY PREDICTED BY IDOCK:   -5.06 KCAL/MOL
REMARK 924 INTRA-LIGAND FREE ENERGY PREDICTED BY IDOCK:   -0.17 KCAL/MOL
REMARK 927      BINDING AFFINITY PREDICTED BY RF-SCORE:    0.00 PKD
ROOT
HETATM    1  C   UNL     1      -9.631  10.424  63.256  1.00  0.00    -0.308 C  
HETATM    2  N   UNL     1     -10.739  11.278  62.847  1.00  0.00    -0.792 NA 
HETATM    3  H   UNL     1     -11.547  10.715  62.583  1.00  0.00     0.000 HD 
ENDROOT
BRANCH   2   4
HETATM    4  C   UNL     1     -11.117  12.289  63.855  1.00  0.00    -0.412 C  
HETATM    5  C   UNL     1     -12.632  12.311  64.092  1.00  0.00    -0.493 C  
BRANCH   4   6
HETATM    6  C   UNL     1     -10.413  12.018  65.217  1.00  0.00    -0.323 C  
BRANCH   6   7
HETATM    7  C   UNL     1     -10.846  12.908  66.362  1.00  0.00    -0.293 A  
HETATM    8  C   UNL     1     -11.412  12.258  67.483  1.00  0.00    -0.414 A  
HETATM    9  C   UNL     1     -11.901  12.970  68.575  1.00  0.00    -0.360 A  
HETATM   10  C   UNL     1     -11.845  14.357  68.569  1.00  0.00    -0.369 A  
HETATM   11  C   UNL     1     -11.303  15.018  67.465  1.00  0.00    -0.340 A  
HETATM   12  C   UNL     1     -10.796  14.310  66.363  1.00  0.00    -0.307 A  
BRANCH  12  13
HETATM   13  O   UNL     1     -10.437  15.118  65.319  1.00  0.00    -0.353 OA 
HETATM   14  C   UNL     1     -10.445  16.517  65.552  1.00  0.00    -0.301 C  
ENDBRANCH  12  13
ENDBRANCH   6   7
ENDBRANCH   4   6
ENDBRANCH   2   4
TORSDOF 4
ENDMDL
MODEL       44
REMARK 921   NORMALIZED FREE ENERGY PREDICTED BY IDOCK:   -4.04 KCAL/MOL
REMARK 922        TOTAL FREE ENERGY PREDICTED BY IDOCK:   -5.22 KCAL/MOL
REMARK 923 INTER-LIGAND FREE ENERGY PREDICTED BY IDOCK:   -4.89 KCAL/MOL
REMARK 924 INTRA-LIGAND FREE ENERGY PREDICTED BY IDOCK:   -0.33 KCAL/MOL
REMARK 927      BINDING AFFINITY PREDICTED BY RF-SCORE:    0.00 PKD
ROOT
HETATM    1  C   UNL     1     -10.877   5.962  68.979  1.00  0.00    -0.313 C  
HETATM    2  N   UNL     1     -11.845   6.548  69.899  1.00  0.00    -0.615 NA 
HETATM    3  H   UNL     1     -12.753   6.094  69.801  1.00  0.00     0.000 HD 
ENDROOT
BRANCH   2   4
HETATM    4  C   UNL     1     -11.409   6.540  71.309  1.00  0.00    -0.303 C  
HETATM    5  C   UNL     1     -10.518   5.331  71.619  1.00  0.00    -0.280 C  
BRANCH   4   6
HETATM    6  C   UNL     1     -10.618   7.833  71.663  1.00  0.00    -0.252 C  
BRANCH   6   7
HETATM    7  C   UNL     1     -11.172   9.116  71.080  1.00  0.00    -0.395 A  
HETATM    8  C   UNL     1     -10.358   9.775  70.130  1.00  0.00    -0.335 A  
HETATM    9  C   UNL     1     -10.729  10.993  69.564  1.00  0.00    -0.231 A  
HETATM   10  C   UNL     1     -11.923  11.588  69.945  1.00  0.00    -0.426 A  
HETATM   11  C   UNL     1     -12.734  10.960  70.893  1.00  0.00    -0.464 A  
HETATM   12  C   UNL     1     -12.375   9.726  71.461  1.00  0.00    -0.405 A  
BRANCH  12  13
HETATM   13  O   UNL     1     -13.212   9.331  72.469  1.00  0.00    -0.437 OA 
HETATM   14  C   UNL     1     -14.347   8.564  72.104  1.00  0.00    -0.436 C  
ENDBRANCH  12  13
ENDBRANCH   6   7
ENDBRANCH   4   6
ENDBRANCH   2   4
TORSDOF 4
ENDMDL
MODEL       45
REMARK 921   NORMALIZED FREE ENERGY PREDICTED BY IDOCK:   -4.01 KCAL/MOL
REMARK 922        TOTAL FREE ENERGY PREDICTED BY IDOCK:   -5.19 KCAL/MOL
REMARK 923 INTER-LIGAND FREE ENERGY PREDICTED BY IDOCK:   -4.68 KCAL/MOL
REMARK 924 INTRA-LIGAND FREE ENERGY PREDICTED BY IDOCK:   -0.51 KCAL/MOL
REMARK 927      BINDING AFFINITY PREDICTED BY RF-SCORE:    0.00 PKD
ROOT
HETATM    1  C   UNL     1      -8.962  15.909  66.202  1.00  0.00    -0.341 C  
HETATM    2  N   UNL     1     -10.346  15.998  66.649  1.00  0.00    -0.293 NA 
HETATM    3  H   UNL     1     -10.925  15.313  66.164  1.00  0.00     0.000 HD 
ENDROOT
BRANCH   2   4
HETATM    4  C   UNL     1     -10.510  15.874  68.111  1.00  0.00    -0.270 C  
HETATM    5  C   UNL     1     -10.393  17.234  68.810  1.00  0.00    -0.358 C  
BRANCH   4   6
HETATM    6  C   UNL     1     -11.892  15.256  68.473  1.00  0.00    -0.305 C  
BRANCH   6   7
HETATM    7  C   UNL     1     -11.903  13.755  68.671  1.00  0.00    -0.409 A  
HETATM    8  C   UNL     1     -12.103  13.299  69.994  1.00  0.00    -0.385 A  
HETATM    9  C   UNL     1     -12.076  11.944  70.316  1.00  0.00    -0.409 A  
HETATM   10  C   UNL     1     -11.837  11.009  69.318  1.00  0.00    -0.411 A  
HETATM   11  C   UNL     1     -11.622  11.441  68.007  1.00  0.00    -0.357 A  
HETATM   12  C   UNL     1     -11.658  12.804  67.670  1.00  0.00    -0.358 A  
BRANCH  12  13
HETATM   13  O   UNL     1     -11.287  13.051  66.377  1.00  0.00    -0.295 OA 
HETATM   14  C   UNL     1     -12.317  13.081  65.403  1.00  0.00    -0.486 C  
ENDBRANCH  12  13
ENDBRANCH   6   7
ENDBRANCH   4   6
ENDBRANCH   2   4
TORSDOF 4
ENDMDL
MODEL       46
REMARK 921   NORMALIZED FREE ENERGY PREDICTED BY IDOCK:   -3.97 KCAL/MOL
REMARK 922        TOTAL FREE ENERGY PREDICTED BY IDOCK:   -5.14 KCAL/MOL
REMARK 923 INTER-LIGAND FREE ENERGY PREDICTED BY IDOCK:   -4.88 KCAL/MOL
REMARK 924 INTRA-LIGAND FREE ENERGY PREDICTED BY IDOCK:   -0.25 KCAL/MOL
REMARK 927      BINDING AFFINITY PREDICTED BY RF-SCORE:    0.00 PKD
ROOT
HETATM    1  C   UNL     1     -10.257   9.249  70.809  1.00  0.00    -0.286 C  
HETATM    2  N   UNL     1     -10.234  10.459  69.997  1.00  0.00    -0.440 NA 
HETATM    3  H   UNL     1      -9.686  10.311  69.149  1.00  0.00     0.000 HD 
ENDROOT
BRANCH   2   4
HETATM    4  C   UNL     1     -11.575  10.980  69.665  1.00  0.00    -0.318 C  
HETATM    5  C   UNL     1     -12.585  10.693  70.782  1.00  0.00    -0.479 C  
BRANCH   4   6
HETATM    6  C   UNL     1     -11.538  12.517  69.422  1.00  0.00    -0.368 C  
BRANCH   6   7
HETATM    7  C   UNL     1     -11.728  12.954  67.985  1.00  0.00    -0.401 A  
HETATM    8  C   UNL     1     -11.634  11.941  67.003  1.00  0.00    -0.365 A  
HETATM    9  C   UNL     1     -11.731  12.225  65.643  1.00  0.00    -0.440 A  
HETATM   10  C   UNL     1     -11.917  13.537  65.230  1.00  0.00    -0.397 A  
HETATM   11  C   UNL     1     -11.998  14.554  66.184  1.00  0.00    -0.323 A  
HETATM   12  C   UNL     1     -11.911  14.277  67.558  1.00  0.00    -0.376 A  
BRANCH  12  13
HETATM   13  O   UNL     1     -11.868  15.403  68.334  1.00  0.00    -0.347 OA 
HETATM   14  C   UNL     1     -10.903  16.386  67.996  1.00  0.00    -0.342 C  
ENDBRANCH  12  13
ENDBRANCH   6   7
ENDBRANCH   4   6
ENDBRANCH   2   4
TORSDOF 4
ENDMDL
MODEL       47
REMARK 921   NORMALIZED FREE ENERGY PREDICTED BY IDOCK:   -3.96 KCAL/MOL
REMARK 922        TOTAL FREE ENERGY PREDICTED BY IDOCK:   -5.13 KCAL/MOL
REMARK 923 INTER-LIGAND FREE ENERGY PREDICTED BY IDOCK:   -4.79 KCAL/MOL
REMARK 924 INTRA-LIGAND FREE ENERGY PREDICTED BY IDOCK:   -0.34 KCAL/MOL
REMARK 927      BINDING AFFINITY PREDICTED BY RF-SCORE:    0.00 PKD
ROOT
HETATM    1  C   UNL     1     -11.152   5.981  69.622  1.00  0.00    -0.404 C  
HETATM    2  N   UNL     1     -12.147   6.840  70.251  1.00  0.00    -0.617 NA 
HETATM    3  H   UNL     1     -13.078   6.639  69.885  1.00  0.00     0.000 HD 
ENDROOT
BRANCH   2   4
HETATM    4  C   UNL     1     -12.145   6.774  71.726  1.00  0.00    -0.350 C  
HETATM    5  C   UNL     1     -11.495   5.482  72.234  1.00  0.00    -0.221 C  
BRANCH   4   6
HETATM    6  C   UNL     1     -11.380   7.981  72.343  1.00  0.00    -0.443 C  
BRANCH   6   7
HETATM    7  C   UNL     1     -11.644   9.323  71.692  1.00  0.00    -0.463 A  
HETATM    8  C   UNL     1     -12.758  10.046  72.177  1.00  0.00    -0.354 A  
HETATM    9  C   UNL     1     -13.141  11.264  71.621  1.00  0.00    -0.513 A  
HETATM   10  C   UNL     1     -12.420  11.787  70.557  1.00  0.00    -0.317 A  
HETATM   11  C   UNL     1     -11.325  11.081  70.054  1.00  0.00    -0.358 A  
HETATM   12  C   UNL     1     -10.924   9.856  70.614  1.00  0.00    -0.337 A  
BRANCH  12  13
HETATM   13  O   UNL     1      -9.926   9.240  69.909  1.00  0.00    -0.183 OA 
HETATM   14  C   UNL     1      -8.591   9.540  70.282  1.00  0.00    -0.226 C  
ENDBRANCH  12  13
ENDBRANCH   6   7
ENDBRANCH   4   6
ENDBRANCH   2   4
TORSDOF 4
ENDMDL
MODEL       48
REMARK 921   NORMALIZED FREE ENERGY PREDICTED BY IDOCK:   -3.92 KCAL/MOL
REMARK 922        TOTAL FREE ENERGY PREDICTED BY IDOCK:   -5.07 KCAL/MOL
REMARK 923 INTER-LIGAND FREE ENERGY PREDICTED BY IDOCK:   -4.74 KCAL/MOL
REMARK 924 INTRA-LIGAND FREE ENERGY PREDICTED BY IDOCK:   -0.33 KCAL/MOL
REMARK 927      BINDING AFFINITY PREDICTED BY RF-SCORE:    0.00 PKD
ROOT
HETATM    1  C   UNL     1     -11.752  15.510  68.710  1.00  0.00    -0.357 C  
HETATM    2  N   UNL     1     -11.939  14.705  67.509  1.00  0.00    -0.534 NA 
HETATM    3  H   UNL     1     -11.165  14.846  66.860  1.00  0.00     0.000 HD 
ENDROOT
BRANCH   2   4
HETATM    4  C   UNL     1     -12.136  13.267  67.779  1.00  0.00    -0.237 C  
HETATM    5  C   UNL     1     -11.822  12.412  66.546  1.00  0.00    -0.407 C  
BRANCH   4   6
HETATM    6  C   UNL     1     -11.234  12.784  68.951  1.00  0.00    -0.332 C  
BRANCH   6   7
HETATM    7  C   UNL     1     -11.910  11.888  69.968  1.00  0.00    -0.407 A  
HETATM    8  C   UNL     1     -12.572  12.538  71.035  1.00  0.00    -0.350 A  
HETATM    9  C   UNL     1     -13.181  11.825  72.064  1.00  0.00    -0.460 A  
HETATM   10  C   UNL     1     -13.134  10.438  72.056  1.00  0.00    -0.521 A  
HETATM   11  C   UNL     1     -12.473   9.777  71.018  1.00  0.00    -0.414 A  
HETATM   12  C   UNL     1     -11.865  10.486  69.969  1.00  0.00    -0.308 A  
BRANCH  12  13
HETATM   13  O   UNL     1     -11.146   9.688  69.122  1.00  0.00    -0.192 OA 
HETATM   14  C   UNL     1     -10.571   8.514  69.671  1.00  0.00    -0.220 C  
ENDBRANCH  12  13
ENDBRANCH   6   7
ENDBRANCH   4   6
ENDBRANCH   2   4
TORSDOF 4
ENDMDL
MODEL       49
REMARK 921   NORMALIZED FREE ENERGY PREDICTED BY IDOCK:   -3.91 KCAL/MOL
REMARK 922        TOTAL FREE ENERGY PREDICTED BY IDOCK:   -5.06 KCAL/MOL
REMARK 923 INTER-LIGAND FREE ENERGY PREDICTED BY IDOCK:   -4.57 KCAL/MOL
REMARK 924 INTRA-LIGAND FREE ENERGY PREDICTED BY IDOCK:   -0.49 KCAL/MOL
REMARK 927      BINDING AFFINITY PREDICTED BY RF-SCORE:    0.00 PKD
ROOT
HETATM    1  C   UNL     1      -9.142  13.723  67.449  1.00  0.00    -0.221 C  
HETATM    2  N   UNL     1      -8.710  14.539  66.321  1.00  0.00    -0.429 NA 
HETATM    3  H   UNL     1      -8.214  13.969  65.635  1.00  0.00     0.000 HD 
ENDROOT
BRANCH   2   4
HETATM    4  C   UNL     1      -9.803  15.293  65.677  1.00  0.00    -0.348 C  
HETATM    5  C   UNL     1     -10.820  14.358  65.012  1.00  0.00    -0.420 C  
BRANCH   4   6
HETATM    6  C   UNL     1     -10.559  16.183  66.707  1.00  0.00    -0.277 C  
BRANCH   6   7
HETATM    7  C   UNL     1      -9.998  17.576  66.900  1.00  0.00    -0.313 A  
HETATM    8  C   UNL     1     -10.608  18.607  66.148  1.00  0.00    -0.409 A  
HETATM    9  C   UNL     1     -10.146  19.920  66.193  1.00  0.00    -0.611 A  
HETATM   10  C   UNL     1      -9.052  20.233  66.988  1.00  0.00    -0.481 A  
HETATM   11  C   UNL     1      -8.427  19.226  67.727  1.00  0.00    -0.340 A  
HETATM   12  C   UNL     1      -8.891  17.901  67.697  1.00  0.00    -0.250 A  
BRANCH  12  13
HETATM   13  O   UNL     1      -8.077  17.028  68.365  1.00  0.00    -0.224 OA 
HETATM   14  C   UNL     1      -6.902  17.560  68.955  1.00  0.00    -0.246 C  
ENDBRANCH  12  13
ENDBRANCH   6   7
ENDBRANCH   4   6
ENDBRANCH   2   4
TORSDOF 4
ENDMDL
MODEL       50
REMARK 921   NORMALIZED FREE ENERGY PREDICTED BY IDOCK:   -3.90 KCAL/MOL
REMARK 922        TOTAL FREE ENERGY PREDICTED BY IDOCK:   -5.05 KCAL/MOL
REMARK 923 INTER-LIGAND FREE ENERGY PREDICTED BY IDOCK:   -4.79 KCAL/MOL
REMARK 924 INTRA-LIGAND FREE ENERGY PREDICTED BY IDOCK:   -0.26 KCAL/MOL
REMARK 927      BINDING AFFINITY PREDICTED BY RF-SCORE:    0.00 PKD
ROOT
HETATM    1  C   UNL     1     -11.843  13.917  68.450  1.00  0.00    -0.374 C  
HETATM    2  N   UNL     1     -12.172  14.636  67.226  1.00  0.00    -0.531 NA 
HETATM    3  H   UNL     1     -11.943  15.626  67.319  1.00  0.00     0.000 HD 
ENDROOT
BRANCH   2   4
HETATM    4  C   UNL     1     -11.545  14.071  66.015  1.00  0.00    -0.357 C  
HETATM    5  C   UNL     1     -12.570  13.353  65.129  1.00  0.00    -0.495 C  
BRANCH   4   6
HETATM    6  C   UNL     1     -10.856  15.179  65.166  1.00  0.00    -0.437 C  
BRANCH   6   7
HETATM    7  C   UNL     1      -9.815  16.004  65.891  1.00  0.00    -0.380 A  
HETATM    8  C   UNL     1      -8.819  15.282  66.589  1.00  0.00    -0.328 A  
HETATM    9  C   UNL     1      -7.839  15.925  67.343  1.00  0.00    -0.195 A  
HETATM   10  C   UNL     1      -7.839  17.310  67.425  1.00  0.00    -0.198 A  
HETATM   11  C   UNL     1      -8.823  18.040  66.754  1.00  0.00    -0.274 A  
HETATM   12  C   UNL     1      -9.808  17.403  65.983  1.00  0.00    -0.183 A  
BRANCH  12  13
HETATM   13  O   UNL     1     -10.768  18.260  65.517  1.00  0.00    -0.596 OA 
HETATM   14  C   UNL     1     -10.602  19.637  65.809  1.00  0.00    -0.438 C  
ENDBRANCH  12  13
ENDBRANCH   6   7
ENDBRANCH   4   6
ENDBRANCH   2   4
TORSDOF 4
ENDMDL
MODEL       51
REMARK 921   NORMALIZED FREE ENERGY PREDICTED BY IDOCK:   -3.90 KCAL/MOL
REMARK 922        TOTAL FREE ENERGY PREDICTED BY IDOCK:   -5.05 KCAL/MOL
REMARK 923 INTER-LIGAND FREE ENERGY PREDICTED BY IDOCK:   -4.71 KCAL/MOL
REMARK 924 INTRA-LIGAND FREE ENERGY PREDICTED BY IDOCK:   -0.33 KCAL/MOL
REMARK 927      BINDING AFFINITY PREDICTED BY RF-SCORE:    0.00 PKD
ROOT
HETATM    1  C   UNL     1     -10.741   7.382  73.099  1.00  0.00    -0.387 C  
HETATM    2  N   UNL     1     -12.122   7.261  72.647  1.00  0.00    -0.520 NA 
HETATM    3  H   UNL     1     -12.750   7.146  73.442  1.00  0.00     0.000 HD 
ENDROOT
BRANCH   2   4
HETATM    4  C   UNL     1     -12.568   8.377  71.790  1.00  0.00    -0.342 C  
HETATM    5  C   UNL     1     -13.790   9.090  72.381  1.00  0.00    -0.540 C  
BRANCH   4   6
HETATM    6  C   UNL     1     -11.436   9.427  71.595  1.00  0.00    -0.463 C  
BRANCH   6   7
HETATM    7  C   UNL     1     -11.242   9.921  70.177  1.00  0.00    -0.347 A  
HETATM    8  C   UNL     1     -11.775  11.197  69.879  1.00  0.00    -0.433 A  
HETATM    9  C   UNL     1     -11.713  11.737  68.597  1.00  0.00    -0.389 A  
HETATM   10  C   UNL     1     -11.121  11.007  67.576  1.00  0.00    -0.366 A  
HETATM   11  C   UNL     1     -10.602   9.739  67.847  1.00  0.00    -0.310 A  
HETATM   12  C   UNL     1     -10.650   9.190  69.138  1.00  0.00    -0.208 A  
BRANCH  12  13
HETATM   13  O   UNL     1     -10.225   7.890  69.189  1.00  0.00    -0.206 OA 
HETATM   14  C   UNL     1     -10.543   7.061  68.083  1.00  0.00    -0.204 C  
ENDBRANCH  12  13
ENDBRANCH   6   7
ENDBRANCH   4   6
ENDBRANCH   2   4
TORSDOF 4
ENDMDL
MODEL       52
REMARK 921   NORMALIZED FREE ENERGY PREDICTED BY IDOCK:   -3.88 KCAL/MOL
REMARK 922        TOTAL FREE ENERGY PREDICTED BY IDOCK:   -5.03 KCAL/MOL
REMARK 923 INTER-LIGAND FREE ENERGY PREDICTED BY IDOCK:   -4.63 KCAL/MOL
REMARK 924 INTRA-LIGAND FREE ENERGY PREDICTED BY IDOCK:   -0.40 KCAL/MOL
REMARK 927      BINDING AFFINITY PREDICTED BY RF-SCORE:    0.00 PKD
ROOT
HETATM    1  C   UNL     1      -9.341   7.190  66.990  1.00  0.00    -0.151 C  
HETATM    2  N   UNL     1      -9.977   8.348  66.376  1.00  0.00    -0.402 NA 
HETATM    3  H   UNL     1     -10.717   8.055  65.738  1.00  0.00     0.000 HD 
ENDROOT
BRANCH   2   4
HETATM    4  C   UNL     1     -10.492   9.332  67.350  1.00  0.00    -0.273 C  
HETATM    5  C   UNL     1     -10.040   9.004  68.778  1.00  0.00    -0.214 C  
BRANCH   4   6
HETATM    6  C   UNL     1     -10.012  10.772  67.004  1.00  0.00    -0.236 C  
BRANCH   6   7
HETATM    7  C   UNL     1     -10.712  11.429  65.834  1.00  0.00    -0.311 A  
HETATM    8  C   UNL     1     -11.765  12.317  66.152  1.00  0.00    -0.440 A  
HETATM    9  C   UNL     1     -12.524  12.940  65.164  1.00  0.00    -0.561 A  
HETATM   10  C   UNL     1     -12.253  12.679  63.828  1.00  0.00    -0.600 A  
HETATM   11  C   UNL     1     -11.226  11.794  63.493  1.00  0.00    -0.494 A  
HETATM   12  C   UNL     1     -10.447  11.169  64.481  1.00  0.00    -0.350 A  
BRANCH  12  13
HETATM   13  O   UNL     1      -9.587  10.231  63.979  1.00  0.00    -0.289 OA 
HETATM   14  C   UNL     1      -9.325  10.273  62.586  1.00  0.00    -0.309 C  
ENDBRANCH  12  13
ENDBRANCH   6   7
ENDBRANCH   4   6
ENDBRANCH   2   4
TORSDOF 4
ENDMDL
MODEL       53
REMARK 921   NORMALIZED FREE ENERGY PREDICTED BY IDOCK:   -3.86 KCAL/MOL
REMARK 922        TOTAL FREE ENERGY PREDICTED BY IDOCK:   -5.00 KCAL/MOL
REMARK 923 INTER-LIGAND FREE ENERGY PREDICTED BY IDOCK:   -4.72 KCAL/MOL
REMARK 924 INTRA-LIGAND FREE ENERGY PREDICTED BY IDOCK:   -0.28 KCAL/MOL
REMARK 927      BINDING AFFINITY PREDICTED BY RF-SCORE:    0.00 PKD
ROOT
HETATM    1  C   UNL     1     -12.904  16.028  73.653  1.00  0.00    -0.595 C  
HETATM    2  N   UNL     1     -11.888  15.651  72.679  1.00  0.00    -0.453 NA 
HETATM    3  H   UNL     1     -11.005  15.440  73.145  1.00  0.00     0.000 HD 
ENDROOT
BRANCH   2   4
HETATM    4  C   UNL     1     -12.289  14.537  71.798  1.00  0.00    -0.334 C  
HETATM    5  C   UNL     1     -13.447  13.730  72.398  1.00  0.00    -0.672 C  
BRANCH   4   6
HETATM    6  C   UNL     1     -12.729  15.055  70.398  1.00  0.00    -0.371 C  
BRANCH   6   7
HETATM    7  C   UNL     1     -11.756  14.789  69.269  1.00  0.00    -0.347 A  
HETATM    8  C   UNL     1     -11.896  13.552  68.599  1.00  0.00    -0.404 A  
HETATM    9  C   UNL     1     -11.026  13.165  67.582  1.00  0.00    -0.282 A  
HETATM   10  C   UNL     1      -9.984  14.006  67.217  1.00  0.00    -0.242 A  
HETATM   11  C   UNL     1      -9.821  15.226  67.876  1.00  0.00    -0.216 A  
HETATM   12  C   UNL     1     -10.699  15.631  68.895  1.00  0.00    -0.238 A  
BRANCH  12  13
HETATM   13  O   UNL     1     -10.305  16.782  69.522  1.00  0.00    -0.280 OA 
HETATM   14  C   UNL     1     -10.289  17.969  68.746  1.00  0.00    -0.284 C  
ENDBRANCH  12  13
ENDBRANCH   6   7
ENDBRANCH   4   6
ENDBRANCH   2   4
TORSDOF 4
ENDMDL
MODEL       54
REMARK 921   NORMALIZED FREE ENERGY PREDICTED BY IDOCK:   -3.86 KCAL/MOL
REMARK 922        TOTAL FREE ENERGY PREDICTED BY IDOCK:   -5.00 KCAL/MOL
REMARK 923 INTER-LIGAND FREE ENERGY PREDICTED BY IDOCK:   -4.93 KCAL/MOL
REMARK 924 INTRA-LIGAND FREE ENERGY PREDICTED BY IDOCK:   -0.07 KCAL/MOL
REMARK 927      BINDING AFFINITY PREDICTED BY RF-SCORE:    0.00 PKD
ROOT
HETATM    1  C   UNL     1     -11.208  16.459  70.110  1.00  0.00    -0.250 C  
HETATM    2  N   UNL     1     -11.897  16.337  71.389  1.00  0.00    -0.644 NA 
HETATM    3  H   UNL     1     -12.777  16.852  71.373  1.00  0.00     0.000 HD 
ENDROOT
BRANCH   2   4
HETATM    4  C   UNL     1     -12.121  14.941  71.815  1.00  0.00    -0.360 C  
HETATM    5  C   UNL     1     -12.818  14.871  73.178  1.00  0.00    -0.619 C  
BRANCH   4   6
HETATM    6  C   UNL     1     -12.990  14.168  70.781  1.00  0.00    -0.337 C  
BRANCH   6   7
HETATM    7  C   UNL     1     -12.262  13.112  69.976  1.00  0.00    -0.323 A  
HETATM    8  C   UNL     1     -11.867  13.482  68.670  1.00  0.00    -0.404 A  
HETATM    9  C   UNL     1     -11.242  12.582  67.810  1.00  0.00    -0.318 A  
HETATM   10  C   UNL     1     -11.006  11.282  68.235  1.00  0.00    -0.275 A  
HETATM   11  C   UNL     1     -11.402  10.893  69.516  1.00  0.00    -0.351 A  
HETATM   12  C   UNL     1     -12.023  11.796  70.396  1.00  0.00    -0.332 A  
BRANCH  12  13
HETATM   13  O   UNL     1     -12.467  11.208  71.548  1.00  0.00    -0.323 OA 
HETATM   14  C   UNL     1     -13.248  10.032  71.416  1.00  0.00    -0.395 C  
ENDBRANCH  12  13
ENDBRANCH   6   7
ENDBRANCH   4   6
ENDBRANCH   2   4
TORSDOF 4
ENDMDL
MODEL       55
REMARK 921   NORMALIZED FREE ENERGY PREDICTED BY IDOCK:   -3.85 KCAL/MOL
REMARK 922        TOTAL FREE ENERGY PREDICTED BY IDOCK:   -4.99 KCAL/MOL
REMARK 923 INTER-LIGAND FREE ENERGY PREDICTED BY IDOCK:   -4.53 KCAL/MOL
REMARK 924 INTRA-LIGAND FREE ENERGY PREDICTED BY IDOCK:   -0.45 KCAL/MOL
REMARK 927      BINDING AFFINITY PREDICTED BY RF-SCORE:    0.00 PKD
ROOT
HETATM    1  C   UNL     1     -12.905   8.232  71.878  1.00  0.00    -0.344 C  
HETATM    2  N   UNL     1     -12.369   8.899  70.699  1.00  0.00    -0.486 NA 
HETATM    3  H   UNL     1     -12.630   8.395  69.851  1.00  0.00     0.000 HD 
ENDROOT
BRANCH   2   4
HETATM    4  C   UNL     1     -12.748  10.322  70.594  1.00  0.00    -0.300 C  
HETATM    5  C   UNL     1     -13.282  10.864  71.924  1.00  0.00    -0.508 C  
BRANCH   4   6
HETATM    6  C   UNL     1     -11.536  11.198  70.161  1.00  0.00    -0.410 C  
BRANCH   6   7
HETATM    7  C   UNL     1     -11.303  11.296  68.668  1.00  0.00    -0.336 A  
HETATM    8  C   UNL     1     -11.802  12.455  68.030  1.00  0.00    -0.376 A  
HETATM    9  C   UNL     1     -11.702  12.635  66.652  1.00  0.00    -0.464 A  
HETATM   10  C   UNL     1     -11.106  11.651  65.876  1.00  0.00    -0.320 A  
HETATM   11  C   UNL     1     -10.620  10.492  66.485  1.00  0.00    -0.240 A  
HETATM   12  C   UNL     1     -10.706  10.305  67.875  1.00  0.00    -0.264 A  
BRANCH  12  13
HETATM   13  O   UNL     1     -10.311   9.059  68.278  1.00  0.00    -0.198 OA 
HETATM   14  C   UNL     1     -10.452   8.002  67.344  1.00  0.00    -0.287 C  
ENDBRANCH  12  13
ENDBRANCH   6   7
ENDBRANCH   4   6
ENDBRANCH   2   4
TORSDOF 4
ENDMDL
MODEL       56
REMARK 921   NORMALIZED FREE ENERGY PREDICTED BY IDOCK:   -3.83 KCAL/MOL
REMARK 922        TOTAL FREE ENERGY PREDICTED BY IDOCK:   -4.96 KCAL/MOL
REMARK 923 INTER-LIGAND FREE ENERGY PREDICTED BY IDOCK:   -4.65 KCAL/MOL
REMARK 924 INTRA-LIGAND FREE ENERGY PREDICTED BY IDOCK:   -0.31 KCAL/MOL
REMARK 927      BINDING AFFINITY PREDICTED BY RF-SCORE:    0.00 PKD
ROOT
HETATM    1  C   UNL     1     -10.737   7.373  73.094  1.00  0.00    -0.387 C  
HETATM    2  N   UNL     1     -12.112   7.229  72.631  1.00  0.00    -0.520 NA 
HETATM    3  H   UNL     1     -12.750   7.140  73.422  1.00  0.00     0.000 HD 
ENDROOT
BRANCH   2   4
HETATM    4  C   UNL     1     -12.553   8.309  71.726  1.00  0.00    -0.333 C  
HETATM    5  C   UNL     1     -13.775   9.049  72.283  1.00  0.00    -0.550 C  
BRANCH   4   6
HETATM    6  C   UNL     1     -11.418   9.348  71.493  1.00  0.00    -0.467 C  
BRANCH   6   7
HETATM    7  C   UNL     1     -11.201   9.765  70.054  1.00  0.00    -0.297 A  
HETATM    8  C   UNL     1     -10.416   8.897  69.260  1.00  0.00    -0.234 A  
HETATM    9  C   UNL     1     -10.097   9.198  67.939  1.00  0.00    -0.246 A  
HETATM   10  C   UNL     1     -10.549  10.385  67.379  1.00  0.00    -0.321 A  
HETATM   11  C   UNL     1     -11.314  11.262  68.151  1.00  0.00    -0.372 A  
HETATM   12  C   UNL     1     -11.651  10.964  69.481  1.00  0.00    -0.313 A  
BRANCH  12  13
HETATM   13  O   UNL     1     -12.280  11.995  70.124  1.00  0.00    -0.287 OA 
HETATM   14  C   UNL     1     -11.857  13.310  69.805  1.00  0.00    -0.325 C  
ENDBRANCH  12  13
ENDBRANCH   6   7
ENDBRANCH   4   6
ENDBRANCH   2   4
TORSDOF 4
ENDMDL
MODEL       57
REMARK 921   NORMALIZED FREE ENERGY PREDICTED BY IDOCK:   -3.83 KCAL/MOL
REMARK 922        TOTAL FREE ENERGY PREDICTED BY IDOCK:   -4.96 KCAL/MOL
REMARK 923 INTER-LIGAND FREE ENERGY PREDICTED BY IDOCK:   -4.67 KCAL/MOL
REMARK 924 INTRA-LIGAND FREE ENERGY PREDICTED BY IDOCK:   -0.28 KCAL/MOL
REMARK 927      BINDING AFFINITY PREDICTED BY RF-SCORE:    0.00 PKD
ROOT
HETATM    1  C   UNL     1     -14.145  14.724  71.772  1.00  0.00    -0.509 C  
HETATM    2  N   UNL     1     -13.555  15.227  70.538  1.00  0.00    -0.734 NA 
HETATM    3  H   UNL     1     -13.389  16.231  70.602  1.00  0.00     0.000 HD 
ENDROOT
BRANCH   2   4
HETATM    4  C   UNL     1     -12.322  14.522  70.135  1.00  0.00    -0.342 C  
HETATM    5  C   UNL     1     -12.336  13.056  70.585  1.00  0.00    -0.391 C  
BRANCH   4   6
HETATM    6  C   UNL     1     -12.130  14.558  68.591  1.00  0.00    -0.253 C  
BRANCH   6   7
HETATM    7  C   UNL     1     -10.916  13.819  68.068  1.00  0.00    -0.268 A  
HETATM    8  C   UNL     1      -9.657  14.303  68.491  1.00  0.00    -0.220 A  
HETATM    9  C   UNL     1      -8.465  13.747  68.033  1.00  0.00    -0.176 A  
HETATM   10  C   UNL     1      -8.505  12.695  67.129  1.00  0.00    -0.186 A  
HETATM   11  C   UNL     1      -9.738  12.212  66.688  1.00  0.00    -0.228 A  
HETATM   12  C   UNL     1     -10.947  12.758  67.151  1.00  0.00    -0.263 A  
BRANCH  12  13
HETATM   13  O   UNL     1     -12.047  12.260  66.509  1.00  0.00    -0.616 OA 
HETATM   14  C   UNL     1     -12.379  12.833  65.255  1.00  0.00    -0.488 C  
ENDBRANCH  12  13
ENDBRANCH   6   7
ENDBRANCH   4   6
ENDBRANCH   2   4
TORSDOF 4
ENDMDL
MODEL       58
REMARK 921   NORMALIZED FREE ENERGY PREDICTED BY IDOCK:   -3.82 KCAL/MOL
REMARK 922        TOTAL FREE ENERGY PREDICTED BY IDOCK:   -4.96 KCAL/MOL
REMARK 923 INTER-LIGAND FREE ENERGY PREDICTED BY IDOCK:   -4.48 KCAL/MOL
REMARK 924 INTRA-LIGAND FREE ENERGY PREDICTED BY IDOCK:   -0.47 KCAL/MOL
REMARK 927      BINDING AFFINITY PREDICTED BY RF-SCORE:    0.00 PKD
ROOT
HETATM    1  C   UNL     1     -12.597  10.821  70.984  1.00  0.00    -0.420 C  
HETATM    2  N   UNL     1     -13.329   9.595  70.691  1.00  0.00    -0.586 NA 
HETATM    3  H   UNL     1     -12.905   9.103  69.904  1.00  0.00     0.000 HD 
ENDROOT
BRANCH   2   4
HETATM    4  C   UNL     1     -13.471   8.693  71.851  1.00  0.00    -0.397 C  
HETATM    5  C   UNL     1     -14.202   7.399  71.475  1.00  0.00    -0.571 C  
BRANCH   4   6
HETATM    6  C   UNL     1     -12.083   8.315  72.445  1.00  0.00    -0.430 C  
BRANCH   6   7
HETATM    7  C   UNL     1     -11.413   7.110  71.821  1.00  0.00    -0.301 A  
HETATM    8  C   UNL     1     -11.146   6.023  72.685  1.00  0.00    -0.314 A  
HETATM    9  C   UNL     1     -10.481   4.881  72.245  1.00  0.00    -0.267 A  
HETATM   10  C   UNL     1     -10.057   4.802  70.926  1.00  0.00    -0.275 A  
HETATM   11  C   UNL     1     -10.299   5.871  70.060  1.00  0.00    -0.309 A  
HETATM   12  C   UNL     1     -10.978   7.023  70.490  1.00  0.00    -0.265 A  
BRANCH  12  13
HETATM   13  O   UNL     1     -11.000   8.019  69.553  1.00  0.00    -0.179 OA 
HETATM   14  C   UNL     1      -9.749   8.473  69.062  1.00  0.00    -0.170 C  
ENDBRANCH  12  13
ENDBRANCH   6   7
ENDBRANCH   4   6
ENDBRANCH   2   4
TORSDOF 4
ENDMDL
MODEL       59
REMARK 921   NORMALIZED FREE ENERGY PREDICTED BY IDOCK:   -3.82 KCAL/MOL
REMARK 922        TOTAL FREE ENERGY PREDICTED BY IDOCK:   -4.95 KCAL/MOL
REMARK 923 INTER-LIGAND FREE ENERGY PREDICTED BY IDOCK:   -4.67 KCAL/MOL
REMARK 924 INTRA-LIGAND FREE ENERGY PREDICTED BY IDOCK:   -0.28 KCAL/MOL
REMARK 927      BINDING AFFINITY PREDICTED BY RF-SCORE:    0.00 PKD
ROOT
HETATM    1  C   UNL     1     -10.460   7.549  67.085  1.00  0.00    -0.336 C  
HETATM    2  N   UNL     1     -11.143   8.599  67.831  1.00  0.00    -0.408 NA 
HETATM    3  H   UNL     1     -11.403   8.267  68.760  1.00  0.00     0.000 HD 
ENDROOT
BRANCH   2   4
HETATM    4  C   UNL     1     -10.380   9.859  67.925  1.00  0.00    -0.212 C  
HETATM    5  C   UNL     1     -11.113  11.017  67.238  1.00  0.00    -0.359 C  
BRANCH   4   6
HETATM    6  C   UNL     1     -10.123  10.254  69.408  1.00  0.00    -0.255 C  
BRANCH   6   7
HETATM    7  C   UNL     1     -11.266   9.980  70.363  1.00  0.00    -0.393 A  
HETATM    8  C   UNL     1     -12.056  11.093  70.731  1.00  0.00    -0.458 A  
HETATM    9  C   UNL     1     -13.099  10.982  71.647  1.00  0.00    -0.543 A  
HETATM   10  C   UNL     1     -13.372   9.751  72.227  1.00  0.00    -0.472 A  
HETATM   11  C   UNL     1     -12.594   8.642  71.887  1.00  0.00    -0.411 A  
HETATM   12  C   UNL     1     -11.546   8.740  70.956  1.00  0.00    -0.288 A  
BRANCH  12  13
HETATM   13  O   UNL     1     -10.805   7.595  70.853  1.00  0.00    -0.233 OA 
HETATM   14  C   UNL     1     -11.347   6.419  71.433  1.00  0.00    -0.301 C  
ENDBRANCH  12  13
ENDBRANCH   6   7
ENDBRANCH   4   6
ENDBRANCH   2   4
TORSDOF 4
ENDMDL
MODEL       60
REMARK 921   NORMALIZED FREE ENERGY PREDICTED BY IDOCK:   -3.82 KCAL/MOL
REMARK 922        TOTAL FREE ENERGY PREDICTED BY IDOCK:   -4.95 KCAL/MOL
REMARK 923 INTER-LIGAND FREE ENERGY PREDICTED BY IDOCK:   -4.73 KCAL/MOL
REMARK 924 INTRA-LIGAND FREE ENERGY PREDICTED BY IDOCK:   -0.22 KCAL/MOL
REMARK 927      BINDING AFFINITY PREDICTED BY RF-SCORE:    0.00 PKD
ROOT
HETATM    1  C   UNL     1     -13.380  15.264  71.093  1.00  0.00    -0.498 C  
HETATM    2  N   UNL     1     -12.894  16.061  69.973  1.00  0.00    -0.585 NA 
HETATM    3  H   UNL     1     -12.921  17.054  70.202  1.00  0.00     0.000 HD 
ENDROOT
BRANCH   2   4
HETATM    4  C   UNL     1     -11.550  15.672  69.503  1.00  0.00    -0.357 C  
HETATM    5  C   UNL     1     -11.412  14.150  69.380  1.00  0.00    -0.337 C  
BRANCH   4   6
HETATM    6  C   UNL     1     -11.233  16.304  68.116  1.00  0.00    -0.298 C  
BRANCH   6   7
HETATM    7  C   UNL     1     -10.276  17.477  68.138  1.00  0.00    -0.359 A  
HETATM    8  C   UNL     1     -10.748  18.682  67.567  1.00  0.00    -0.447 A  
HETATM    9  C   UNL     1      -9.944  19.815  67.474  1.00  0.00    -0.540 A  
HETATM   10  C   UNL     1      -8.639  19.767  67.943  1.00  0.00    -0.360 A  
HETATM   11  C   UNL     1      -8.149  18.582  68.497  1.00  0.00    -0.354 A  
HETATM   12  C   UNL     1      -8.955  17.437  68.606  1.00  0.00    -0.255 A  
BRANCH  12  13
HETATM   13  O   UNL     1      -8.272  16.334  69.040  1.00  0.00    -0.228 OA 
HETATM   14  C   UNL     1      -7.171  15.905  68.256  1.00  0.00    -0.116 C  
ENDBRANCH  12  13
ENDBRANCH   6   7
ENDBRANCH   4   6
ENDBRANCH   2   4
TORSDOF 4
ENDMDL
MODEL       61
REMARK 921   NORMALIZED FREE ENERGY PREDICTED BY IDOCK:   -3.81 KCAL/MOL
REMARK 922        TOTAL FREE ENERGY PREDICTED BY IDOCK:   -4.94 KCAL/MOL
REMARK 923 INTER-LIGAND FREE ENERGY PREDICTED BY IDOCK:   -4.47 KCAL/MOL
REMARK 924 INTRA-LIGAND FREE ENERGY PREDICTED BY IDOCK:   -0.47 KCAL/MOL
REMARK 927      BINDING AFFINITY PREDICTED BY RF-SCORE:    0.00 PKD
ROOT
HETATM    1  C   UNL     1      -8.383  13.369  67.993  1.00  0.00    -0.165 C  
HETATM    2  N   UNL     1      -9.489  12.715  68.681  1.00  0.00    -0.404 NA 
HETATM    3  H   UNL     1     -10.321  13.304  68.663  1.00  0.00     0.000 HD 
ENDROOT
BRANCH   2   4
HETATM    4  C   UNL     1      -9.796  11.365  68.169  1.00  0.00    -0.191 C  
HETATM    5  C   UNL     1      -9.625  10.296  69.254  1.00  0.00    -0.239 C  
BRANCH   4   6
HETATM    6  C   UNL     1     -11.254  11.285  67.629  1.00  0.00    -0.357 C  
BRANCH   6   7
HETATM    7  C   UNL     1     -11.577  12.219  66.483  1.00  0.00    -0.440 A  
HETATM    8  C   UNL     1     -11.333  11.723  65.181  1.00  0.00    -0.281 A  
HETATM    9  C   UNL     1     -11.535  12.505  64.047  1.00  0.00    -0.476 A  
HETATM   10  C   UNL     1     -11.978  13.813  64.188  1.00  0.00    -0.473 A  
HETATM   11  C   UNL     1     -12.211  14.326  65.466  1.00  0.00    -0.408 A  
HETATM   12  C   UNL     1     -12.022  13.542  66.616  1.00  0.00    -0.404 A  
BRANCH  12  13
HETATM   13  O   UNL     1     -12.160  14.248  67.780  1.00  0.00    -0.363 OA 
HETATM   14  C   UNL     1     -11.504  15.502  67.859  1.00  0.00    -0.272 C  
ENDBRANCH  12  13
ENDBRANCH   6   7
ENDBRANCH   4   6
ENDBRANCH   2   4
TORSDOF 4
ENDMDL
MODEL       62
REMARK 921   NORMALIZED FREE ENERGY PREDICTED BY IDOCK:   -3.81 KCAL/MOL
REMARK 922        TOTAL FREE ENERGY PREDICTED BY IDOCK:   -4.94 KCAL/MOL
REMARK 923 INTER-LIGAND FREE ENERGY PREDICTED BY IDOCK:   -4.57 KCAL/MOL
REMARK 924 INTRA-LIGAND FREE ENERGY PREDICTED BY IDOCK:   -0.36 KCAL/MOL
REMARK 927      BINDING AFFINITY PREDICTED BY RF-SCORE:    0.00 PKD
ROOT
HETATM    1  C   UNL     1      -9.162   7.756  73.474  1.00  0.00    -0.290 C  
HETATM    2  N   UNL     1     -10.527   7.269  73.629  1.00  0.00    -0.370 NA 
HETATM    3  H   UNL     1     -11.176   8.048  73.739  1.00  0.00     0.000 HD 
ENDROOT
BRANCH   2   4
HETATM    4  C   UNL     1     -10.969   6.376  72.539  1.00  0.00    -0.251 C  
HETATM    5  C   UNL     1     -11.302   4.972  73.059  1.00  0.00    -0.374 C  
BRANCH   4   6
HETATM    6  C   UNL     1     -12.228   6.942  71.821  1.00  0.00    -0.396 C  
BRANCH   6   7
HETATM    7  C   UNL     1     -12.165   8.411  71.457  1.00  0.00    -0.340 A  
HETATM    8  C   UNL     1     -13.051   9.267  72.150  1.00  0.00    -0.520 A  
HETATM    9  C   UNL     1     -13.131  10.628  71.865  1.00  0.00    -0.563 A  
HETATM   10  C   UNL     1     -12.329  11.165  70.868  1.00  0.00    -0.500 A  
HETATM   11  C   UNL     1     -11.458  10.333  70.161  1.00  0.00    -0.383 A  
HETATM   12  C   UNL     1     -11.362   8.962  70.448  1.00  0.00    -0.202 A  
BRANCH  12  13
HETATM   13  O   UNL     1     -10.567   8.280  69.568  1.00  0.00    -0.227 OA 
HETATM   14  C   UNL     1      -9.164   8.430  69.712  1.00  0.00    -0.157 C  
ENDBRANCH  12  13
ENDBRANCH   6   7
ENDBRANCH   4   6
ENDBRANCH   2   4
TORSDOF 4
ENDMDL
MODEL       63
REMARK 921   NORMALIZED FREE ENERGY PREDICTED BY IDOCK:   -3.81 KCAL/MOL
REMARK 922        TOTAL FREE ENERGY PREDICTED BY IDOCK:   -4.93 KCAL/MOL
REMARK 923 INTER-LIGAND FREE ENERGY PREDICTED BY IDOCK:   -4.49 KCAL/MOL
REMARK 924 INTRA-LIGAND FREE ENERGY PREDICTED BY IDOCK:   -0.44 KCAL/MOL
REMARK 927      BINDING AFFINITY PREDICTED BY RF-SCORE:    0.00 PKD
ROOT
HETATM    1  C   UNL     1     -10.407  11.371  63.097  1.00  0.00    -0.303 C  
HETATM    2  N   UNL     1      -9.761  12.488  63.774  1.00  0.00    -0.677 NA 
HETATM    3  H   UNL     1      -9.242  13.060  63.108  1.00  0.00     0.000 HD 
ENDROOT
BRANCH   2   4
HETATM    4  C   UNL     1     -10.688  13.324  64.563  1.00  0.00    -0.411 C  
HETATM    5  C   UNL     1     -12.097  12.721  64.603  1.00  0.00    -0.483 C  
BRANCH   4   6
HETATM    6  C   UNL     1     -10.188  13.495  66.027  1.00  0.00    -0.308 C  
BRANCH   6   7
HETATM    7  C   UNL     1     -10.682  12.456  67.010  1.00  0.00    -0.268 A  
HETATM    8  C   UNL     1     -11.520  12.924  68.048  1.00  0.00    -0.361 A  
HETATM    9  C   UNL     1     -11.992  12.077  69.049  1.00  0.00    -0.321 A  
HETATM   10  C   UNL     1     -11.627  10.738  69.040  1.00  0.00    -0.370 A  
HETATM   11  C   UNL     1     -10.789  10.260  68.031  1.00  0.00    -0.325 A  
HETATM   12  C   UNL     1     -10.316  11.102  67.012  1.00  0.00    -0.224 A  
BRANCH  12  13
HETATM   13  O   UNL     1      -9.397  10.500  66.195  1.00  0.00    -0.166 OA 
HETATM   14  C   UNL     1      -9.558   9.112  65.954  1.00  0.00    -0.273 C  
ENDBRANCH  12  13
ENDBRANCH   6   7
ENDBRANCH   4   6
ENDBRANCH   2   4
TORSDOF 4
ENDMDL
MODEL       64
REMARK 921   NORMALIZED FREE ENERGY PREDICTED BY IDOCK:   -3.80 KCAL/MOL
REMARK 922        TOTAL FREE ENERGY PREDICTED BY IDOCK:   -4.93 KCAL/MOL
REMARK 923 INTER-LIGAND FREE ENERGY PREDICTED BY IDOCK:   -5.04 KCAL/MOL
REMARK 924 INTRA-LIGAND FREE ENERGY PREDICTED BY IDOCK:    0.11 KCAL/MOL
REMARK 927      BINDING AFFINITY PREDICTED BY RF-SCORE:    0.00 PKD
ROOT
HETATM    1  C   UNL     1      -8.783  11.087  68.474  1.00  0.00    -0.159 C  
HETATM    2  N   UNL     1      -9.713  12.035  69.074  1.00  0.00    -0.404 NA 
HETATM    3  H   UNL     1      -9.423  12.994  68.879  1.00  0.00     0.000 HD 
ENDROOT
BRANCH   2   4
HETATM    4  C   UNL     1     -11.119  11.826  68.675  1.00  0.00    -0.238 C  
HETATM    5  C   UNL     1     -11.272  10.603  67.764  1.00  0.00    -0.383 C  
BRANCH   4   6
HETATM    6  C   UNL     1     -12.034  11.627  69.919  1.00  0.00    -0.414 C  
BRANCH   6   7
HETATM    7  C   UNL     1     -12.474  12.898  70.614  1.00  0.00    -0.333 A  
HETATM    8  C   UNL     1     -13.145  12.737  71.848  1.00  0.00    -0.474 A  
HETATM    9  C   UNL     1     -13.651  13.824  72.557  1.00  0.00    -0.680 A  
HETATM   10  C   UNL     1     -13.505  15.104  72.040  1.00  0.00    -0.520 A  
HETATM   11  C   UNL     1     -12.858  15.283  70.816  1.00  0.00    -0.494 A  
HETATM   12  C   UNL     1     -12.334  14.194  70.099  1.00  0.00    -0.351 A  
BRANCH  12  13
HETATM   13  O   UNL     1     -11.863  14.539  68.861  1.00  0.00    -0.310 OA 
HETATM   14  C   UNL     1     -10.964  15.633  68.792  1.00  0.00    -0.281 C  
ENDBRANCH  12  13
ENDBRANCH   6   7
ENDBRANCH   4   6
ENDBRANCH   2   4
TORSDOF 4
ENDMDL
MODEL       65
REMARK 921   NORMALIZED FREE ENERGY PREDICTED BY IDOCK:   -3.80 KCAL/MOL
REMARK 922        TOTAL FREE ENERGY PREDICTED BY IDOCK:   -4.92 KCAL/MOL
REMARK 923 INTER-LIGAND FREE ENERGY PREDICTED BY IDOCK:   -4.59 KCAL/MOL
REMARK 924 INTRA-LIGAND FREE ENERGY PREDICTED BY IDOCK:   -0.33 KCAL/MOL
REMARK 927      BINDING AFFINITY PREDICTED BY RF-SCORE:    0.00 PKD
ROOT
HETATM    1  C   UNL     1      -9.605  11.206  68.319  1.00  0.00    -0.185 C  
HETATM    2  N   UNL     1     -10.099  12.427  68.941  1.00  0.00    -0.428 NA 
HETATM    3  H   UNL     1      -9.723  13.249  68.468  1.00  0.00     0.000 HD 
ENDROOT
BRANCH   2   4
HETATM    4  C   UNL     1     -11.572  12.503  69.021  1.00  0.00    -0.314 C  
HETATM    5  C   UNL     1     -12.095  11.950  70.351  1.00  0.00    -0.421 C  
BRANCH   4   6
HETATM    6  C   UNL     1     -12.070  13.970  68.871  1.00  0.00    -0.351 C  
BRANCH   6   7
HETATM    7  C   UNL     1     -11.480  14.744  67.711  1.00  0.00    -0.363 A  
HETATM    8  C   UNL     1     -10.804  15.942  68.036  1.00  0.00    -0.317 A  
HETATM    9  C   UNL     1     -10.268  16.773  67.054  1.00  0.00    -0.292 A  
HETATM   10  C   UNL     1     -10.406  16.427  65.717  1.00  0.00    -0.388 A  
HETATM   11  C   UNL     1     -11.084  15.255  65.375  1.00  0.00    -0.351 A  
HETATM   12  C   UNL     1     -11.618  14.405  66.357  1.00  0.00    -0.375 A  
BRANCH  12  13
HETATM   13  O   UNL     1     -12.366  13.383  65.839  1.00  0.00    -0.434 OA 
HETATM   14  C   UNL     1     -11.666  12.249  65.355  1.00  0.00    -0.370 C  
ENDBRANCH  12  13
ENDBRANCH   6   7
ENDBRANCH   4   6
ENDBRANCH   2   4
TORSDOF 4
ENDMDL
MODEL       66
REMARK 921   NORMALIZED FREE ENERGY PREDICTED BY IDOCK:   -3.79 KCAL/MOL
REMARK 922        TOTAL FREE ENERGY PREDICTED BY IDOCK:   -4.91 KCAL/MOL
REMARK 923 INTER-LIGAND FREE ENERGY PREDICTED BY IDOCK:   -4.67 KCAL/MOL
REMARK 924 INTRA-LIGAND FREE ENERGY PREDICTED BY IDOCK:   -0.24 KCAL/MOL
REMARK 927      BINDING AFFINITY PREDICTED BY RF-SCORE:    0.00 PKD
ROOT
HETATM    1  C   UNL     1      -9.182   9.808  69.236  1.00  0.00    -0.192 C  
HETATM    2  N   UNL     1      -8.905  11.239  69.214  1.00  0.00    -0.371 NA 
HETATM    3  H   UNL     1      -7.937  11.412  68.945  1.00  0.00     0.000 HD 
ENDROOT
BRANCH   2   4
HETATM    4  C   UNL     1      -9.828  12.013  68.362  1.00  0.00    -0.204 C  
HETATM    5  C   UNL     1      -9.487  11.861  66.875  1.00  0.00    -0.205 C  
BRANCH   4   6
HETATM    6  C   UNL     1     -11.303  11.563  68.573  1.00  0.00    -0.337 C  
BRANCH   6   7
HETATM    7  C   UNL     1     -11.982  12.111  69.810  1.00  0.00    -0.372 A  
HETATM    8  C   UNL     1     -12.502  11.157  70.715  1.00  0.00    -0.479 A  
HETATM    9  C   UNL     1     -13.199  11.534  71.860  1.00  0.00    -0.479 A  
HETATM   10  C   UNL     1     -13.402  12.882  72.124  1.00  0.00    -0.615 A  
HETATM   11  C   UNL     1     -12.909  13.840  71.235  1.00  0.00    -0.434 A  
HETATM   12  C   UNL     1     -12.195  13.470  70.083  1.00  0.00    -0.330 A  
BRANCH  12  13
HETATM   13  O   UNL     1     -11.912  14.526  69.260  1.00  0.00    -0.310 OA 
HETATM   14  C   UNL     1     -11.797  15.804  69.863  1.00  0.00    -0.344 C  
ENDBRANCH  12  13
ENDBRANCH   6   7
ENDBRANCH   4   6
ENDBRANCH   2   4
TORSDOF 4
ENDMDL
MODEL       67
REMARK 921   NORMALIZED FREE ENERGY PREDICTED BY IDOCK:   -3.79 KCAL/MOL
REMARK 922        TOTAL FREE ENERGY PREDICTED BY IDOCK:   -4.91 KCAL/MOL
REMARK 923 INTER-LIGAND FREE ENERGY PREDICTED BY IDOCK:   -4.52 KCAL/MOL
REMARK 924 INTRA-LIGAND FREE ENERGY PREDICTED BY IDOCK:   -0.39 KCAL/MOL
REMARK 927      BINDING AFFINITY PREDICTED BY RF-SCORE:    0.00 PKD
ROOT
HETATM    1  C   UNL     1     -10.008   7.188  71.540  1.00  0.00    -0.182 C  
HETATM    2  N   UNL     1     -10.483   8.541  71.802  1.00  0.00    -0.272 NA 
HETATM    3  H   UNL     1     -10.216   8.840  72.741  1.00  0.00     0.000 HD 
ENDROOT
BRANCH   2   4
HETATM    4  C   UNL     1     -10.046   9.532  70.799  1.00  0.00    -0.282 C  
HETATM    5  C   UNL     1      -9.004   8.944  69.840  1.00  0.00    -0.160 C  
BRANCH   4   6
HETATM    6  C   UNL     1     -11.249  10.048  69.956  1.00  0.00    -0.345 C  
BRANCH   6   7
HETATM    7  C   UNL     1     -12.038  11.184  70.572  1.00  0.00    -0.474 A  
HETATM    8  C   UNL     1     -11.807  12.471  70.035  1.00  0.00    -0.363 A  
HETATM    9  C   UNL     1     -12.427  13.605  70.555  1.00  0.00    -0.394 A  
HETATM   10  C   UNL     1     -13.290  13.478  71.635  1.00  0.00    -0.420 A  
HETATM   11  C   UNL     1     -13.520  12.217  72.188  1.00  0.00    -0.431 A  
HETATM   12  C   UNL     1     -12.908  11.066  71.665  1.00  0.00    -0.435 A  
BRANCH  12  13
HETATM   13  O   UNL     1     -13.135   9.944  72.416  1.00  0.00    -0.372 OA 
HETATM   14  C   UNL     1     -14.015   8.972  71.877  1.00  0.00    -0.387 C  
ENDBRANCH  12  13
ENDBRANCH   6   7
ENDBRANCH   4   6
ENDBRANCH   2   4
TORSDOF 4
ENDMDL
MODEL       68
REMARK 921   NORMALIZED FREE ENERGY PREDICTED BY IDOCK:   -3.78 KCAL/MOL
REMARK 922        TOTAL FREE ENERGY PREDICTED BY IDOCK:   -4.90 KCAL/MOL
REMARK 923 INTER-LIGAND FREE ENERGY PREDICTED BY IDOCK:   -4.76 KCAL/MOL
REMARK 924 INTRA-LIGAND FREE ENERGY PREDICTED BY IDOCK:   -0.14 KCAL/MOL
REMARK 927      BINDING AFFINITY PREDICTED BY RF-SCORE:    0.00 PKD
ROOT
HETATM    1  C   UNL     1     -10.789  12.258  63.675  1.00  0.00    -0.469 C  
HETATM    2  N   UNL     1      -9.971  13.180  64.454  1.00  0.00    -0.627 NA 
HETATM    3  H   UNL     1     -10.067  14.131  64.098  1.00  0.00     0.000 HD 
ENDROOT
BRANCH   2   4
HETATM    4  C   UNL     1     -10.240  13.137  65.905  1.00  0.00    -0.291 C  
HETATM    5  C   UNL     1      -8.942  13.130  66.720  1.00  0.00    -0.183 C  
BRANCH   4   6
HETATM    6  C   UNL     1     -11.094  14.358  66.356  1.00  0.00    -0.326 C  
BRANCH   6   7
HETATM    7  C   UNL     1     -11.441  14.402  67.829  1.00  0.00    -0.360 A  
HETATM    8  C   UNL     1     -11.880  13.188  68.406  1.00  0.00    -0.386 A  
HETATM    9  C   UNL     1     -12.285  13.111  69.736  1.00  0.00    -0.266 A  
HETATM   10  C   UNL     1     -12.269  14.255  70.522  1.00  0.00    -0.427 A  
HETATM   11  C   UNL     1     -11.854  15.466  69.967  1.00  0.00    -0.368 A  
HETATM   12  C   UNL     1     -11.433  15.553  68.629  1.00  0.00    -0.359 A  
BRANCH  12  13
HETATM   13  O   UNL     1     -11.197  16.836  68.218  1.00  0.00    -0.333 OA 
HETATM   14  C   UNL     1     -10.097  17.512  68.804  1.00  0.00    -0.363 C  
ENDBRANCH  12  13
ENDBRANCH   6   7
ENDBRANCH   4   6
ENDBRANCH   2   4
TORSDOF 4
ENDMDL
MODEL       69
REMARK 921   NORMALIZED FREE ENERGY PREDICTED BY IDOCK:   -3.77 KCAL/MOL
REMARK 922        TOTAL FREE ENERGY PREDICTED BY IDOCK:   -4.88 KCAL/MOL
REMARK 923 INTER-LIGAND FREE ENERGY PREDICTED BY IDOCK:   -4.64 KCAL/MOL
REMARK 924 INTRA-LIGAND FREE ENERGY PREDICTED BY IDOCK:   -0.25 KCAL/MOL
REMARK 927      BINDING AFFINITY PREDICTED BY RF-SCORE:    0.00 PKD
ROOT
HETATM    1  C   UNL     1      -9.121   8.599  70.495  1.00  0.00    -0.165 C  
HETATM    2  N   UNL     1      -9.952   9.653  71.066  1.00  0.00    -0.300 NA 
HETATM    3  H   UNL     1      -9.566  10.571  70.847  1.00  0.00     0.000 HD 
ENDROOT
BRANCH   2   4
HETATM    4  C   UNL     1     -11.371   9.576  70.666  1.00  0.00    -0.301 C  
HETATM    5  C   UNL     1     -12.122   8.497  71.454  1.00  0.00    -0.345 C  
BRANCH   4   6
HETATM    6  C   UNL     1     -12.094  10.936  70.889  1.00  0.00    -0.455 C  
BRANCH   6   7
HETATM    7  C   UNL     1     -12.018  11.912  69.735  1.00  0.00    -0.377 A  
HETATM    8  C   UNL     1     -11.740  11.359  68.463  1.00  0.00    -0.386 A  
HETATM    9  C   UNL     1     -11.587  12.157  67.332  1.00  0.00    -0.410 A  
HETATM   10  C   UNL     1     -11.699  13.536  67.449  1.00  0.00    -0.419 A  
HETATM   11  C   UNL     1     -11.958  14.103  68.698  1.00  0.00    -0.373 A  
HETATM   12  C   UNL     1     -12.126  13.306  69.843  1.00  0.00    -0.308 A  
BRANCH  12  13
HETATM   13  O   UNL     1     -12.231  14.033  70.997  1.00  0.00    -0.335 OA 
HETATM   14  C   UNL     1     -12.965  15.245  70.934  1.00  0.00    -0.462 C  
ENDBRANCH  12  13
ENDBRANCH   6   7
ENDBRANCH   4   6
ENDBRANCH   2   4
TORSDOF 4
ENDMDL
MODEL       70
REMARK 921   NORMALIZED FREE ENERGY PREDICTED BY IDOCK:   -3.76 KCAL/MOL
REMARK 922        TOTAL FREE ENERGY PREDICTED BY IDOCK:   -4.88 KCAL/MOL
REMARK 923 INTER-LIGAND FREE ENERGY PREDICTED BY IDOCK:   -4.57 KCAL/MOL
REMARK 924 INTRA-LIGAND FREE ENERGY PREDICTED BY IDOCK:   -0.31 KCAL/MOL
REMARK 927      BINDING AFFINITY PREDICTED BY RF-SCORE:    0.00 PKD
ROOT
HETATM    1  C   UNL     1      -9.815   9.417  70.194  1.00  0.00    -0.232 C  
HETATM    2  N   UNL     1      -9.901  10.730  69.567  1.00  0.00    -0.433 NA 
HETATM    3  H   UNL     1      -9.130  10.866  68.913  1.00  0.00     0.000 HD 
ENDROOT
BRANCH   2   4
HETATM    4  C   UNL     1     -11.194  10.992  68.906  1.00  0.00    -0.265 C  
HETATM    5  C   UNL     1     -12.339  11.087  69.922  1.00  0.00    -0.356 C  
BRANCH   4   6
HETATM    6  C   UNL     1     -11.153  12.318  68.092  1.00  0.00    -0.285 C  
BRANCH   6   7
HETATM    7  C   UNL     1     -11.164  12.160  66.587  1.00  0.00    -0.375 A  
HETATM    8  C   UNL     1     -12.110  12.939  65.881  1.00  0.00    -0.503 A  
HETATM    9  C   UNL     1     -12.259  12.840  64.500  1.00  0.00    -0.500 A  
HETATM   10  C   UNL     1     -11.467  11.948  63.789  1.00  0.00    -0.542 A  
HETATM   11  C   UNL     1     -10.537  11.160  64.470  1.00  0.00    -0.397 A  
HETATM   12  C   UNL     1     -10.371  11.259  65.861  1.00  0.00    -0.253 A  
BRANCH  12  13
HETATM   13  O   UNL     1      -9.522  10.317  66.373  1.00  0.00    -0.164 OA 
HETATM   14  C   UNL     1      -9.748   8.969  65.997  1.00  0.00    -0.269 C  
ENDBRANCH  12  13
ENDBRANCH   6   7
ENDBRANCH   4   6
ENDBRANCH   2   4
TORSDOF 4
ENDMDL
MODEL       71
REMARK 921   NORMALIZED FREE ENERGY PREDICTED BY IDOCK:   -3.75 KCAL/MOL
REMARK 922        TOTAL FREE ENERGY PREDICTED BY IDOCK:   -4.86 KCAL/MOL
REMARK 923 INTER-LIGAND FREE ENERGY PREDICTED BY IDOCK:   -4.59 KCAL/MOL
REMARK 924 INTRA-LIGAND FREE ENERGY PREDICTED BY IDOCK:   -0.27 KCAL/MOL
REMARK 927      BINDING AFFINITY PREDICTED BY RF-SCORE:    0.00 PKD
ROOT
HETATM    1  C   UNL     1      -8.502  10.219  69.263  1.00  0.00    -0.166 C  
HETATM    2  N   UNL     1      -9.775  10.873  69.543  1.00  0.00    -0.431 NA 
HETATM    3  H   UNL     1     -10.088  11.409  68.734  1.00  0.00     0.000 HD 
ENDROOT
BRANCH   2   4
HETATM    4  C   UNL     1     -10.834   9.949  69.995  1.00  0.00    -0.294 C  
HETATM    5  C   UNL     1     -10.616   9.506  71.447  1.00  0.00    -0.307 C  
BRANCH   4   6
HETATM    6  C   UNL     1     -12.240  10.608  69.891  1.00  0.00    -0.346 C  
BRANCH   6   7
HETATM    7  C   UNL     1     -12.390  11.938  70.599  1.00  0.00    -0.405 A  
HETATM    8  C   UNL     1     -13.147  11.930  71.793  1.00  0.00    -0.465 A  
HETATM    9  C   UNL     1     -13.407  13.099  72.505  1.00  0.00    -0.525 A  
HETATM   10  C   UNL     1     -12.922  14.310  72.032  1.00  0.00    -0.437 A  
HETATM   11  C   UNL     1     -12.184  14.340  70.847  1.00  0.00    -0.425 A  
HETATM   12  C   UNL     1     -11.907  13.167  70.127  1.00  0.00    -0.257 A  
BRANCH  12  13
HETATM   13  O   UNL     1     -11.298  13.401  68.924  1.00  0.00    -0.254 OA 
HETATM   14  C   UNL     1     -12.101  13.941  67.887  1.00  0.00    -0.283 C  
ENDBRANCH  12  13
ENDBRANCH   6   7
ENDBRANCH   4   6
ENDBRANCH   2   4
TORSDOF 4
ENDMDL
MODEL       72
REMARK 921   NORMALIZED FREE ENERGY PREDICTED BY IDOCK:   -3.74 KCAL/MOL
REMARK 922        TOTAL FREE ENERGY PREDICTED BY IDOCK:   -4.85 KCAL/MOL
REMARK 923 INTER-LIGAND FREE ENERGY PREDICTED BY IDOCK:   -4.36 KCAL/MOL
REMARK 924 INTRA-LIGAND FREE ENERGY PREDICTED BY IDOCK:   -0.50 KCAL/MOL
REMARK 927      BINDING AFFINITY PREDICTED BY RF-SCORE:    0.00 PKD
ROOT
HETATM    1  C   UNL     1      -9.647  16.144  66.170  1.00  0.00    -0.327 C  
HETATM    2  N   UNL     1     -11.003  15.826  66.599  1.00  0.00    -0.241 NA 
HETATM    3  H   UNL     1     -11.525  15.385  65.841  1.00  0.00     0.000 HD 
ENDROOT
BRANCH   2   4
HETATM    4  C   UNL     1     -11.065  15.000  67.821  1.00  0.00    -0.310 C  
HETATM    5  C   UNL     1     -11.455  15.834  69.047  1.00  0.00    -0.394 C  
BRANCH   4   6
HETATM    6  C   UNL     1     -12.095  13.843  67.669  1.00  0.00    -0.342 C  
BRANCH   6   7
HETATM    7  C   UNL     1     -11.512  12.494  67.306  1.00  0.00    -0.416 A  
HETATM    8  C   UNL     1     -11.536  11.508  68.319  1.00  0.00    -0.368 A  
HETATM    9  C   UNL     1     -10.977  10.246  68.128  1.00  0.00    -0.328 A  
HETATM   10  C   UNL     1     -10.370   9.943  66.918  1.00  0.00    -0.300 A  
HETATM   11  C   UNL     1     -10.323  10.909  65.910  1.00  0.00    -0.310 A  
HETATM   12  C   UNL     1     -10.893  12.180  66.087  1.00  0.00    -0.282 A  
BRANCH  12  13
HETATM   13  O   UNL     1     -10.630  13.039  65.055  1.00  0.00    -0.295 OA 
HETATM   14  C   UNL     1     -11.470  12.957  63.915  1.00  0.00    -0.446 C  
ENDBRANCH  12  13
ENDBRANCH   6   7
ENDBRANCH   4   6
ENDBRANCH   2   4
TORSDOF 4
ENDMDL
MODEL       73
REMARK 921   NORMALIZED FREE ENERGY PREDICTED BY IDOCK:   -3.73 KCAL/MOL
REMARK 922        TOTAL FREE ENERGY PREDICTED BY IDOCK:   -4.83 KCAL/MOL
REMARK 923 INTER-LIGAND FREE ENERGY PREDICTED BY IDOCK:   -4.34 KCAL/MOL
REMARK 924 INTRA-LIGAND FREE ENERGY PREDICTED BY IDOCK:   -0.49 KCAL/MOL
REMARK 927      BINDING AFFINITY PREDICTED BY RF-SCORE:    0.00 PKD
ROOT
HETATM    1  C   UNL     1      -7.140  17.038  66.400  1.00  0.00    -0.250 C  
HETATM    2  N   UNL     1      -8.545  17.263  66.716  1.00  0.00    -0.236 NA 
HETATM    3  H   UNL     1      -9.111  16.467  66.421  1.00  0.00     0.000 HD 
ENDROOT
BRANCH   2   4
HETATM    4  C   UNL     1      -8.795  17.578  68.137  1.00  0.00    -0.263 C  
HETATM    5  C   UNL     1      -8.151  18.909  68.542  1.00  0.00    -0.383 C  
BRANCH   4   6
HETATM    6  C   UNL     1     -10.319  17.661  68.437  1.00  0.00    -0.375 C  
BRANCH   6   7
HETATM    7  C   UNL     1     -10.980  16.355  68.826  1.00  0.00    -0.344 A  
HETATM    8  C   UNL     1     -11.225  16.163  70.205  1.00  0.00    -0.389 A  
HETATM    9  C   UNL     1     -11.773  14.980  70.696  1.00  0.00    -0.357 A  
HETATM   10  C   UNL     1     -12.082  13.953  69.815  1.00  0.00    -0.404 A  
HETATM   11  C   UNL     1     -11.835  14.118  68.450  1.00  0.00    -0.388 A  
HETATM   12  C   UNL     1     -11.292  15.311  67.944  1.00  0.00    -0.334 A  
BRANCH  12  13
HETATM   13  O   UNL     1     -10.987  15.243  66.612  1.00  0.00    -0.313 OA 
HETATM   14  C   UNL     1     -10.195  14.147  66.184  1.00  0.00    -0.304 C  
ENDBRANCH  12  13
ENDBRANCH   6   7
ENDBRANCH   4   6
ENDBRANCH   2   4
TORSDOF 4
ENDMDL
MODEL       74
REMARK 921   NORMALIZED FREE ENERGY PREDICTED BY IDOCK:   -3.72 KCAL/MOL
REMARK 922        TOTAL FREE ENERGY PREDICTED BY IDOCK:   -4.82 KCAL/MOL
REMARK 923 INTER-LIGAND FREE ENERGY PREDICTED BY IDOCK:   -4.56 KCAL/MOL
REMARK 924 INTRA-LIGAND FREE ENERGY PREDICTED BY IDOCK:   -0.26 KCAL/MOL
REMARK 927      BINDING AFFINITY PREDICTED BY RF-SCORE:    0.00 PKD
ROOT
HETATM    1  C   UNL     1      -7.964  12.874  68.112  1.00  0.00    -0.153 C  
HETATM    2  N   UNL     1      -9.314  12.496  68.509  1.00  0.00    -0.375 NA 
HETATM    3  H   UNL     1      -9.990  13.190  68.189  1.00  0.00     0.000 HD 
ENDROOT
BRANCH   2   4
HETATM    4  C   UNL     1      -9.710  11.144  68.068  1.00  0.00    -0.176 C  
HETATM    5  C   UNL     1      -9.620  10.127  69.211  1.00  0.00    -0.239 C  
BRANCH   4   6
HETATM    6  C   UNL     1     -11.166  11.134  67.518  1.00  0.00    -0.369 C  
BRANCH   6   7
HETATM    7  C   UNL     1     -11.399  11.963  66.273  1.00  0.00    -0.394 A  
HETATM    8  C   UNL     1     -12.234  13.094  66.420  1.00  0.00    -0.396 A  
HETATM    9  C   UNL     1     -12.572  13.903  65.338  1.00  0.00    -0.538 A  
HETATM   10  C   UNL     1     -12.087  13.593  64.075  1.00  0.00    -0.474 A  
HETATM   11  C   UNL     1     -11.272  12.472  63.906  1.00  0.00    -0.496 A  
HETATM   12  C   UNL     1     -10.917  11.655  64.992  1.00  0.00    -0.273 A  
BRANCH  12  13
HETATM   13  O   UNL     1     -10.235  10.529  64.621  1.00  0.00    -0.345 OA 
HETATM   14  C   UNL     1      -9.642  10.526  63.333  1.00  0.00    -0.331 C  
ENDBRANCH  12  13
ENDBRANCH   6   7
ENDBRANCH   4   6
ENDBRANCH   2   4
TORSDOF 4
ENDMDL
MODEL       75
REMARK 921   NORMALIZED FREE ENERGY PREDICTED BY IDOCK:   -3.71 KCAL/MOL
REMARK 922        TOTAL FREE ENERGY PREDICTED BY IDOCK:   -4.82 KCAL/MOL
REMARK 923 INTER-LIGAND FREE ENERGY PREDICTED BY IDOCK:   -4.54 KCAL/MOL
REMARK 924 INTRA-LIGAND FREE ENERGY PREDICTED BY IDOCK:   -0.28 KCAL/MOL
REMARK 927      BINDING AFFINITY PREDICTED BY RF-SCORE:    0.00 PKD
ROOT
HETATM    1  C   UNL     1     -11.915  12.691  63.395  1.00  0.00    -0.528 C  
HETATM    2  N   UNL     1     -11.140  11.516  63.019  1.00  0.00    -0.805 NA 
HETATM    3  H   UNL     1     -10.491  11.741  62.264  1.00  0.00     0.000 HD 
ENDROOT
BRANCH   2   4
HETATM    4  C   UNL     1     -10.426  10.885  64.146  1.00  0.00    -0.327 C  
HETATM    5  C   UNL     1      -9.238  10.044  63.664  1.00  0.00    -0.314 C  
BRANCH   4   6
HETATM    6  C   UNL     1      -9.895  11.953  65.146  1.00  0.00    -0.243 C  
BRANCH   6   7
HETATM    7  C   UNL     1     -10.320  11.766  66.587  1.00  0.00    -0.251 A  
HETATM    8  C   UNL     1     -10.504  10.432  67.018  1.00  0.00    -0.309 A  
HETATM    9  C   UNL     1     -10.950  10.130  68.303  1.00  0.00    -0.299 A  
HETATM   10  C   UNL     1     -11.233  11.161  69.188  1.00  0.00    -0.328 A  
HETATM   11  C   UNL     1     -11.072  12.486  68.777  1.00  0.00    -0.314 A  
HETATM   12  C   UNL     1     -10.612  12.801  67.487  1.00  0.00    -0.229 A  
BRANCH  12  13
HETATM   13  O   UNL     1     -10.650  14.141  67.212  1.00  0.00    -0.273 OA 
HETATM   14  C   UNL     1     -11.881  14.672  66.750  1.00  0.00    -0.317 C  
ENDBRANCH  12  13
ENDBRANCH   6   7
ENDBRANCH   4   6
ENDBRANCH   2   4
TORSDOF 4
ENDMDL
MODEL       76
REMARK 921   NORMALIZED FREE ENERGY PREDICTED BY IDOCK:   -3.71 KCAL/MOL
REMARK 922        TOTAL FREE ENERGY PREDICTED BY IDOCK:   -4.82 KCAL/MOL
REMARK 923 INTER-LIGAND FREE ENERGY PREDICTED BY IDOCK:   -4.52 KCAL/MOL
REMARK 924 INTRA-LIGAND FREE ENERGY PREDICTED BY IDOCK:   -0.30 KCAL/MOL
REMARK 927      BINDING AFFINITY PREDICTED BY RF-SCORE:    0.00 PKD
ROOT
HETATM    1  C   UNL     1     -10.344  13.997  66.825  1.00  0.00    -0.271 C  
HETATM    2  N   UNL     1     -11.583  14.604  67.296  1.00  0.00    -0.379 NA 
HETATM    3  H   UNL     1     -12.138  13.926  67.818  1.00  0.00     0.000 HD 
ENDROOT
BRANCH   2   4
HETATM    4  C   UNL     1     -11.382  15.832  68.091  1.00  0.00    -0.337 C  
HETATM    5  C   UNL     1     -11.826  15.642  69.546  1.00  0.00    -0.387 C  
BRANCH   4   6
HETATM    6  C   UNL     1      -9.887  16.266  68.089  1.00  0.00    -0.229 C  
BRANCH   6   7
HETATM    7  C   UNL     1      -9.640  17.751  67.925  1.00  0.00    -0.280 A  
HETATM    8  C   UNL     1     -10.606  18.469  67.183  1.00  0.00    -0.439 A  
HETATM    9  C   UNL     1     -10.463  19.828  66.913  1.00  0.00    -0.596 A  
HETATM   10  C   UNL     1      -9.340  20.502  67.372  1.00  0.00    -0.511 A  
HETATM   11  C   UNL     1      -8.368  19.807  68.094  1.00  0.00    -0.326 A  
HETATM   12  C   UNL     1      -8.507  18.439  68.382  1.00  0.00    -0.326 A  
BRANCH  12  13
HETATM   13  O   UNL     1      -7.399  17.895  68.971  1.00  0.00    -0.260 OA 
HETATM   14  C   UNL     1      -6.212  17.847  68.197  1.00  0.00    -0.175 C  
ENDBRANCH  12  13
ENDBRANCH   6   7
ENDBRANCH   4   6
ENDBRANCH   2   4
TORSDOF 4
ENDMDL
MODEL       77
REMARK 921   NORMALIZED FREE ENERGY PREDICTED BY IDOCK:   -3.70 KCAL/MOL
REMARK 922        TOTAL FREE ENERGY PREDICTED BY IDOCK:   -4.80 KCAL/MOL
REMARK 923 INTER-LIGAND FREE ENERGY PREDICTED BY IDOCK:   -4.66 KCAL/MOL
REMARK 924 INTRA-LIGAND FREE ENERGY PREDICTED BY IDOCK:   -0.14 KCAL/MOL
REMARK 927      BINDING AFFINITY PREDICTED BY RF-SCORE:    0.00 PKD
ROOT
HETATM    1  C   UNL     1     -11.069   9.617  70.405  1.00  0.00    -0.290 C  
HETATM    2  N   UNL     1     -11.206  10.004  69.007  1.00  0.00    -0.402 NA 
HETATM    3  H   UNL     1     -11.750   9.310  68.494  1.00  0.00     0.000 HD 
ENDROOT
BRANCH   2   4
HETATM    4  C   UNL     1     -11.773  11.354  68.814  1.00  0.00    -0.339 C  
HETATM    5  C   UNL     1     -11.973  12.080  70.149  1.00  0.00    -0.401 C  
BRANCH   4   6
HETATM    6  C   UNL     1     -10.852  12.229  67.915  1.00  0.00    -0.252 C  
BRANCH   6   7
HETATM    7  C   UNL     1     -10.816  11.848  66.450  1.00  0.00    -0.318 A  
HETATM    8  C   UNL     1      -9.805  10.938  66.063  1.00  0.00    -0.280 A  
HETATM    9  C   UNL     1      -9.631  10.554  64.736  1.00  0.00    -0.342 A  
HETATM   10  C   UNL     1     -10.463  11.081  63.757  1.00  0.00    -0.408 A  
HETATM   11  C   UNL     1     -11.458  11.992  64.117  1.00  0.00    -0.460 A  
HETATM   12  C   UNL     1     -11.649  12.378  65.454  1.00  0.00    -0.381 A  
BRANCH  12  13
HETATM   13  O   UNL     1     -12.570  13.379  65.602  1.00  0.00    -0.466 OA 
HETATM   14  C   UNL     1     -12.441  14.507  64.754  1.00  0.00    -0.319 C  
ENDBRANCH  12  13
ENDBRANCH   6   7
ENDBRANCH   4   6
ENDBRANCH   2   4
TORSDOF 4
ENDMDL
MODEL       78
REMARK 921   NORMALIZED FREE ENERGY PREDICTED BY IDOCK:   -3.70 KCAL/MOL
REMARK 922        TOTAL FREE ENERGY PREDICTED BY IDOCK:   -4.80 KCAL/MOL
REMARK 923 INTER-LIGAND FREE ENERGY PREDICTED BY IDOCK:   -4.53 KCAL/MOL
REMARK 924 INTRA-LIGAND FREE ENERGY PREDICTED BY IDOCK:   -0.27 KCAL/MOL
REMARK 927      BINDING AFFINITY PREDICTED BY RF-SCORE:    0.00 PKD
ROOT
HETATM    1  C   UNL     1      -9.521  20.214  67.828  1.00  0.00    -0.354 C  
HETATM    2  N   UNL     1     -10.518  19.329  68.417  1.00  0.00    -0.446 NA 
HETATM    3  H   UNL     1     -11.394  19.828  68.572  1.00  0.00     0.000 HD 
ENDROOT
BRANCH   2   4
HETATM    4  C   UNL     1     -10.754  18.095  67.641  1.00  0.00    -0.343 C  
HETATM    5  C   UNL     1     -10.440  18.294  66.154  1.00  0.00    -0.403 C  
BRANCH   4   6
HETATM    6  C   UNL     1      -9.883  16.920  68.172  1.00  0.00    -0.264 C  
BRANCH   6   7
HETATM    7  C   UNL     1     -10.571  15.572  68.230  1.00  0.00    -0.255 A  
HETATM    8  C   UNL     1     -10.287  14.677  67.173  1.00  0.00    -0.265 A  
HETATM    9  C   UNL     1     -10.901  13.431  67.081  1.00  0.00    -0.284 A  
HETATM   10  C   UNL     1     -11.826  13.052  68.044  1.00  0.00    -0.391 A  
HETATM   11  C   UNL     1     -12.132  13.928  69.087  1.00  0.00    -0.377 A  
HETATM   12  C   UNL     1     -11.510  15.183  69.196  1.00  0.00    -0.306 A  
BRANCH  12  13
HETATM   13  O   UNL     1     -12.032  15.960  70.193  1.00  0.00    -0.344 OA 
HETATM   14  C   UNL     1     -13.067  15.395  70.980  1.00  0.00    -0.501 C  
ENDBRANCH  12  13
ENDBRANCH   6   7
ENDBRANCH   4   6
ENDBRANCH   2   4
TORSDOF 4
ENDMDL
MODEL       79
REMARK 921   NORMALIZED FREE ENERGY PREDICTED BY IDOCK:   -3.70 KCAL/MOL
REMARK 922        TOTAL FREE ENERGY PREDICTED BY IDOCK:   -4.80 KCAL/MOL
REMARK 923 INTER-LIGAND FREE ENERGY PREDICTED BY IDOCK:   -4.53 KCAL/MOL
REMARK 924 INTRA-LIGAND FREE ENERGY PREDICTED BY IDOCK:   -0.26 KCAL/MOL
REMARK 927      BINDING AFFINITY PREDICTED BY RF-SCORE:    0.00 PKD
ROOT
HETATM    1  C   UNL     1      -8.075  11.583  68.572  1.00  0.00    -0.146 C  
HETATM    2  N   UNL     1      -9.401  12.189  68.592  1.00  0.00    -0.385 NA 
HETATM    3  H   UNL     1      -9.539  12.776  67.769  1.00  0.00     0.000 HD 
ENDROOT
BRANCH   2   4
HETATM    4  C   UNL     1     -10.501  11.215  68.726  1.00  0.00    -0.203 C  
HETATM    5  C   UNL     1     -10.822  10.537  67.388  1.00  0.00    -0.349 C  
BRANCH   4   6
HETATM    6  C   UNL     1     -10.152  10.108  69.763  1.00  0.00    -0.269 C  
BRANCH   6   7
HETATM    7  C   UNL     1     -11.311   9.609  70.599  1.00  0.00    -0.379 A  
HETATM    8  C   UNL     1     -12.179  10.596  71.122  1.00  0.00    -0.479 A  
HETATM    9  C   UNL     1     -13.247  10.268  71.953  1.00  0.00    -0.550 A  
HETATM   10  C   UNL     1     -13.469   8.941  72.291  1.00  0.00    -0.503 A  
HETATM   11  C   UNL     1     -12.615   7.952  71.796  1.00  0.00    -0.353 A  
HETATM   12  C   UNL     1     -11.541   8.270  70.948  1.00  0.00    -0.262 A  
BRANCH  12  13
HETATM   13  O   UNL     1     -10.731   7.201  70.678  1.00  0.00    -0.226 OA 
HETATM   14  C   UNL     1     -11.198   6.261  69.725  1.00  0.00    -0.430 C  
ENDBRANCH  12  13
ENDBRANCH   6   7
ENDBRANCH   4   6
ENDBRANCH   2   4
TORSDOF 4
ENDMDL
MODEL       80
REMARK 921   NORMALIZED FREE ENERGY PREDICTED BY IDOCK:   -3.70 KCAL/MOL
REMARK 922        TOTAL FREE ENERGY PREDICTED BY IDOCK:   -4.80 KCAL/MOL
REMARK 923 INTER-LIGAND FREE ENERGY PREDICTED BY IDOCK:   -4.67 KCAL/MOL
REMARK 924 INTRA-LIGAND FREE ENERGY PREDICTED BY IDOCK:   -0.13 KCAL/MOL
REMARK 927      BINDING AFFINITY PREDICTED BY RF-SCORE:    0.00 PKD
ROOT
HETATM    1  C   UNL     1     -10.586   6.956  71.935  1.00  0.00    -0.211 C  
HETATM    2  N   UNL     1     -11.467   8.032  72.373  1.00  0.00    -0.362 NA 
HETATM    3  H   UNL     1     -11.429   8.136  73.387  1.00  0.00     0.000 HD 
ENDROOT
BRANCH   2   4
HETATM    4  C   UNL     1     -11.208   9.324  71.708  1.00  0.00    -0.343 C  
HETATM    5  C   UNL     1      -9.896   9.299  70.916  1.00  0.00    -0.363 C  
BRANCH   4   6
HETATM    6  C   UNL     1     -12.361   9.697  70.732  1.00  0.00    -0.279 C  
BRANCH   6   7
HETATM    7  C   UNL     1     -12.283  11.085  70.131  1.00  0.00    -0.424 A  
HETATM    8  C   UNL     1     -11.730  11.175  68.833  1.00  0.00    -0.406 A  
HETATM    9  C   UNL     1     -11.550  12.400  68.195  1.00  0.00    -0.395 A  
HETATM   10  C   UNL     1     -11.913  13.570  68.848  1.00  0.00    -0.378 A  
HETATM   11  C   UNL     1     -12.448  13.503  70.136  1.00  0.00    -0.276 A  
HETATM   12  C   UNL     1     -12.643  12.272  70.784  1.00  0.00    -0.213 A  
BRANCH  12  13
HETATM   13  O   UNL     1     -13.042  12.404  72.086  1.00  0.00    -0.424 OA 
HETATM   14  C   UNL     1     -13.723  13.597  72.437  1.00  0.00    -0.595 C  
ENDBRANCH  12  13
ENDBRANCH   6   7
ENDBRANCH   4   6
ENDBRANCH   2   4
TORSDOF 4
ENDMDL
MODEL       81
REMARK 921   NORMALIZED FREE ENERGY PREDICTED BY IDOCK:   -3.69 KCAL/MOL
REMARK 922        TOTAL FREE ENERGY PREDICTED BY IDOCK:   -4.79 KCAL/MOL
REMARK 923 INTER-LIGAND FREE ENERGY PREDICTED BY IDOCK:   -4.44 KCAL/MOL
REMARK 924 INTRA-LIGAND FREE ENERGY PREDICTED BY IDOCK:   -0.35 KCAL/MOL
REMARK 927      BINDING AFFINITY PREDICTED BY RF-SCORE:    0.00 PKD
ROOT
HETATM    1  C   UNL     1     -11.598  10.552  69.659  1.00  0.00    -0.271 C  
HETATM    2  N   UNL     1     -12.106  10.867  68.330  1.00  0.00    -0.818 NA 
HETATM    3  H   UNL     1     -12.942  11.448  68.394  1.00  0.00     0.000 HD 
ENDROOT
BRANCH   2   4
HETATM    4  C   UNL     1     -11.107  11.491  67.441  1.00  0.00    -0.282 C  
HETATM    5  C   UNL     1     -11.770  12.369  66.374  1.00  0.00    -0.453 C  
BRANCH   4   6
HETATM    6  C   UNL     1     -10.107  12.371  68.246  1.00  0.00    -0.227 C  
BRANCH   6   7
HETATM    7  C   UNL     1     -10.415  13.853  68.270  1.00  0.00    -0.252 A  
HETATM    8  C   UNL     1      -9.442  14.704  67.698  1.00  0.00    -0.205 A  
HETATM    9  C   UNL     1      -9.581  16.090  67.710  1.00  0.00    -0.219 A  
HETATM   10  C   UNL     1     -10.697  16.660  68.306  1.00  0.00    -0.351 A  
HETATM   11  C   UNL     1     -11.662  15.837  68.889  1.00  0.00    -0.404 A  
HETATM   12  C   UNL     1     -11.538  14.438  68.873  1.00  0.00    -0.306 A  
BRANCH  12  13
HETATM   13  O   UNL     1     -12.498  13.800  69.610  1.00  0.00    -0.281 OA 
HETATM   14  C   UNL     1     -12.579  14.127  70.987  1.00  0.00    -0.369 C  
ENDBRANCH  12  13
ENDBRANCH   6   7
ENDBRANCH   4   6
ENDBRANCH   2   4
TORSDOF 4
ENDMDL
MODEL       82
REMARK 921   NORMALIZED FREE ENERGY PREDICTED BY IDOCK:   -3.69 KCAL/MOL
REMARK 922        TOTAL FREE ENERGY PREDICTED BY IDOCK:   -4.78 KCAL/MOL
REMARK 923 INTER-LIGAND FREE ENERGY PREDICTED BY IDOCK:   -4.55 KCAL/MOL
REMARK 924 INTRA-LIGAND FREE ENERGY PREDICTED BY IDOCK:   -0.23 KCAL/MOL
REMARK 927      BINDING AFFINITY PREDICTED BY RF-SCORE:    0.00 PKD
ROOT
HETATM    1  C   UNL     1      -9.857  11.652  66.163  1.00  0.00    -0.223 C  
HETATM    2  N   UNL     1     -11.152  11.598  66.830  1.00  0.00    -0.298 NA 
HETATM    3  H   UNL     1     -11.905  11.536  66.145  1.00  0.00     0.000 HD 
ENDROOT
BRANCH   2   4
HETATM    4  C   UNL     1     -11.266  10.516  67.827  1.00  0.00    -0.273 C  
HETATM    5  C   UNL     1     -10.523   9.252  67.377  1.00  0.00    -0.340 C  
BRANCH   4   6
HETATM    6  C   UNL     1     -10.692  10.955  69.205  1.00  0.00    -0.265 C  
BRANCH   6   7
HETATM    7  C   UNL     1     -11.705  11.493  70.192  1.00  0.00    -0.395 A  
HETATM    8  C   UNL     1     -11.846  12.899  70.243  1.00  0.00    -0.291 A  
HETATM    9  C   UNL     1     -12.702  13.519  71.150  1.00  0.00    -0.425 A  
HETATM   10  C   UNL     1     -13.435  12.744  72.038  1.00  0.00    -0.540 A  
HETATM   11  C   UNL     1     -13.299  11.354  72.013  1.00  0.00    -0.388 A  
HETATM   12  C   UNL     1     -12.447  10.718  71.096  1.00  0.00    -0.414 A  
BRANCH  12  13
HETATM   13  O   UNL     1     -12.332   9.371  71.308  1.00  0.00    -0.313 OA 
HETATM   14  C   UNL     1     -12.975   8.840  72.454  1.00  0.00    -0.383 C  
ENDBRANCH  12  13
ENDBRANCH   6   7
ENDBRANCH   4   6
ENDBRANCH   2   4
TORSDOF 4
ENDMDL
MODEL       83
REMARK 921   NORMALIZED FREE ENERGY PREDICTED BY IDOCK:   -3.68 KCAL/MOL
REMARK 922        TOTAL FREE ENERGY PREDICTED BY IDOCK:   -4.78 KCAL/MOL
REMARK 923 INTER-LIGAND FREE ENERGY PREDICTED BY IDOCK:   -4.50 KCAL/MOL
REMARK 924 INTRA-LIGAND FREE ENERGY PREDICTED BY IDOCK:   -0.29 KCAL/MOL
REMARK 927      BINDING AFFINITY PREDICTED BY RF-SCORE:    0.00 PKD
ROOT
HETATM    1  C   UNL     1      -8.237  16.789  66.222  1.00  0.00    -0.324 C  
HETATM    2  N   UNL     1      -9.100  17.889  66.634  1.00  0.00    -0.261 NA 
HETATM    3  H   UNL     1      -9.914  17.954  66.023  1.00  0.00     0.000 HD 
ENDROOT
BRANCH   2   4
HETATM    4  C   UNL     1      -9.516  17.824  68.049  1.00  0.00    -0.281 C  
HETATM    5  C   UNL     1      -9.279  19.156  68.769  1.00  0.00    -0.407 C  
BRANCH   4   6
HETATM    6  C   UNL     1     -11.023  17.460  68.177  1.00  0.00    -0.160 C  
BRANCH   6   7
HETATM    7  C   UNL     1     -11.317  16.035  68.596  1.00  0.00    -0.383 A  
HETATM    8  C   UNL     1     -11.442  15.088  67.554  1.00  0.00    -0.339 A  
HETATM    9  C   UNL     1     -11.768  13.758  67.805  1.00  0.00    -0.393 A  
HETATM   10  C   UNL     1     -11.988  13.343  69.112  1.00  0.00    -0.363 A  
HETATM   11  C   UNL     1     -11.883  14.267  70.154  1.00  0.00    -0.379 A  
HETATM   12  C   UNL     1     -11.544  15.608  69.912  1.00  0.00    -0.347 A  
BRANCH  12  13
HETATM   13  O   UNL     1     -11.626  16.396  71.028  1.00  0.00    -0.380 OA 
HETATM   14  C   UNL     1     -12.065  15.778  72.226  1.00  0.00    -0.478 C  
ENDBRANCH  12  13
ENDBRANCH   6   7
ENDBRANCH   4   6
ENDBRANCH   2   4
TORSDOF 4
ENDMDL
MODEL       84
REMARK 921   NORMALIZED FREE ENERGY PREDICTED BY IDOCK:   -3.63 KCAL/MOL
REMARK 922        TOTAL FREE ENERGY PREDICTED BY IDOCK:   -4.71 KCAL/MOL
REMARK 923 INTER-LIGAND FREE ENERGY PREDICTED BY IDOCK:   -4.51 KCAL/MOL
REMARK 924 INTRA-LIGAND FREE ENERGY PREDICTED BY IDOCK:   -0.20 KCAL/MOL
REMARK 927      BINDING AFFINITY PREDICTED BY RF-SCORE:    0.00 PKD
ROOT
HETATM    1  C   UNL     1      -8.177  12.234  68.335  1.00  0.00    -0.146 C  
HETATM    2  N   UNL     1      -9.568  12.120  68.755  1.00  0.00    -0.405 NA 
HETATM    3  H   UNL     1      -9.809  12.869  69.404  1.00  0.00     0.000 HD 
ENDROOT
BRANCH   2   4
HETATM    4  C   UNL     1     -10.528  12.076  67.634  1.00  0.00    -0.205 C  
HETATM    5  C   UNL     1     -10.792  10.638  67.172  1.00  0.00    -0.328 C  
BRANCH   4   6
HETATM    6  C   UNL     1     -11.889  12.720  68.031  1.00  0.00    -0.386 C  
BRANCH   6   7
HETATM    7  C   UNL     1     -11.817  13.787  69.102  1.00  0.00    -0.398 A  
HETATM    8  C   UNL     1     -12.266  13.414  70.390  1.00  0.00    -0.415 A  
HETATM    9  C   UNL     1     -12.306  14.321  71.445  1.00  0.00    -0.431 A  
HETATM   10  C   UNL     1     -11.904  15.633  71.234  1.00  0.00    -0.473 A  
HETATM   11  C   UNL     1     -11.471  16.025  69.966  1.00  0.00    -0.334 A  
HETATM   12  C   UNL     1     -11.417  15.115  68.897  1.00  0.00    -0.320 A  
BRANCH  12  13
HETATM   13  O   UNL     1     -11.105  15.703  67.702  1.00  0.00    -0.324 OA 
HETATM   14  C   UNL     1     -10.658  17.048  67.739  1.00  0.00    -0.350 C  
ENDBRANCH  12  13
ENDBRANCH   6   7
ENDBRANCH   4   6
ENDBRANCH   2   4
TORSDOF 4
ENDMDL
MODEL       85
REMARK 921   NORMALIZED FREE ENERGY PREDICTED BY IDOCK:   -3.62 KCAL/MOL
REMARK 922        TOTAL FREE ENERGY PREDICTED BY IDOCK:   -4.70 KCAL/MOL
REMARK 923 INTER-LIGAND FREE ENERGY PREDICTED BY IDOCK:   -4.37 KCAL/MOL
REMARK 924 INTRA-LIGAND FREE ENERGY PREDICTED BY IDOCK:   -0.33 KCAL/MOL
REMARK 927      BINDING AFFINITY PREDICTED BY RF-SCORE:    0.00 PKD
ROOT
HETATM    1  C   UNL     1     -11.179  16.016  69.844  1.00  0.00    -0.361 C  
HETATM    2  N   UNL     1     -11.395  15.900  68.407  1.00  0.00    -0.362 NA 
HETATM    3  H   UNL     1     -12.265  16.359  68.137  1.00  0.00     0.000 HD 
ENDROOT
BRANCH   2   4
HETATM    4  C   UNL     1     -10.269  16.398  67.592  1.00  0.00    -0.272 C  
HETATM    5  C   UNL     1      -9.222  17.115  68.452  1.00  0.00    -0.266 C  
BRANCH   4   6
HETATM    6  C   UNL     1      -9.565  15.237  66.832  1.00  0.00    -0.245 C  
BRANCH   6   7
HETATM    7  C   UNL     1     -10.489  14.239  66.167  1.00  0.00    -0.294 A  
HETATM    8  C   UNL     1     -11.173  14.689  65.015  1.00  0.00    -0.388 A  
HETATM    9  C   UNL     1     -12.094  13.886  64.347  1.00  0.00    -0.477 A  
HETATM   10  C   UNL     1     -12.361  12.610  64.823  1.00  0.00    -0.556 A  
HETATM   11  C   UNL     1     -11.706  12.152  65.968  1.00  0.00    -0.388 A  
HETATM   12  C   UNL     1     -10.767  12.949  66.643  1.00  0.00    -0.265 A  
BRANCH  12  13
HETATM   13  O   UNL     1     -10.333  12.397  67.818  1.00  0.00    -0.209 OA 
HETATM   14  C   UNL     1     -11.304  12.181  68.828  1.00  0.00    -0.288 C  
ENDBRANCH  12  13
ENDBRANCH   6   7
ENDBRANCH   4   6
ENDBRANCH   2   4
TORSDOF 4
ENDMDL
MODEL       86
REMARK 921   NORMALIZED FREE ENERGY PREDICTED BY IDOCK:   -3.62 KCAL/MOL
REMARK 922        TOTAL FREE ENERGY PREDICTED BY IDOCK:   -4.70 KCAL/MOL
REMARK 923 INTER-LIGAND FREE ENERGY PREDICTED BY IDOCK:   -4.58 KCAL/MOL
REMARK 924 INTRA-LIGAND FREE ENERGY PREDICTED BY IDOCK:   -0.12 KCAL/MOL
REMARK 927      BINDING AFFINITY PREDICTED BY RF-SCORE:    0.00 PKD
ROOT
HETATM    1  C   UNL     1      -8.336  12.206  68.211  1.00  0.00    -0.172 C  
HETATM    2  N   UNL     1      -9.633  12.676  68.680  1.00  0.00    -0.408 NA 
HETATM    3  H   UNL     1      -9.606  13.679  68.864  1.00  0.00     0.000 HD 
ENDROOT
BRANCH   2   4
HETATM    4  C   UNL     1     -10.751  12.344  67.775  1.00  0.00    -0.221 C  
HETATM    5  C   UNL     1     -11.283  10.929  68.030  1.00  0.00    -0.378 C  
BRANCH   4   6
HETATM    6  C   UNL     1     -11.930  13.347  67.942  1.00  0.00    -0.360 C  
BRANCH   6   7
HETATM    7  C   UNL     1     -11.910  14.169  69.214  1.00  0.00    -0.381 A  
HETATM    8  C   UNL     1     -11.441  15.497  69.094  1.00  0.00    -0.356 A  
HETATM    9  C   UNL     1     -11.320  16.336  70.200  1.00  0.00    -0.292 A  
HETATM   10  C   UNL     1     -11.659  15.860  71.459  1.00  0.00    -0.537 A  
HETATM   11  C   UNL     1     -12.111  14.546  71.600  1.00  0.00    -0.379 A  
HETATM   12  C   UNL     1     -12.247  13.696  70.490  1.00  0.00    -0.368 A  
BRANCH  12  13
HETATM   13  O   UNL     1     -12.565  12.409  70.830  1.00  0.00    -0.340 OA 
HETATM   14  C   UNL     1     -13.350  12.224  71.996  1.00  0.00    -0.386 C  
ENDBRANCH  12  13
ENDBRANCH   6   7
ENDBRANCH   4   6
ENDBRANCH   2   4
TORSDOF 4
ENDMDL
MODEL       87
REMARK 921   NORMALIZED FREE ENERGY PREDICTED BY IDOCK:   -3.60 KCAL/MOL
REMARK 922        TOTAL FREE ENERGY PREDICTED BY IDOCK:   -4.68 KCAL/MOL
REMARK 923 INTER-LIGAND FREE ENERGY PREDICTED BY IDOCK:   -4.43 KCAL/MOL
REMARK 924 INTRA-LIGAND FREE ENERGY PREDICTED BY IDOCK:   -0.25 KCAL/MOL
REMARK 927      BINDING AFFINITY PREDICTED BY RF-SCORE:    0.00 PKD
ROOT
HETATM    1  C   UNL     1     -12.582  12.053  63.342  1.00  0.00    -0.469 C  
HETATM    2  N   UNL     1     -12.988  12.577  64.640  1.00  0.00    -0.844 NA 
HETATM    3  H   UNL     1     -13.721  11.996  65.047  1.00  0.00     0.000 HD 
ENDROOT
BRANCH   2   4
HETATM    4  C   UNL     1     -11.872  12.747  65.591  1.00  0.00    -0.425 C  
HETATM    5  C   UNL     1     -10.688  11.839  65.242  1.00  0.00    -0.338 C  
BRANCH   4   6
HETATM    6  C   UNL     1     -11.369  14.220  65.611  1.00  0.00    -0.317 C  
BRANCH   6   7
HETATM    7  C   UNL     1     -10.398  14.562  66.722  1.00  0.00    -0.269 A  
HETATM    8  C   UNL     1      -9.049  14.743  66.341  1.00  0.00    -0.267 A  
HETATM    9  C   UNL     1      -8.051  15.003  67.277  1.00  0.00    -0.237 A  
HETATM   10  C   UNL     1      -8.379  15.080  68.624  1.00  0.00    -0.166 A  
HETATM   11  C   UNL     1      -9.704  14.890  69.021  1.00  0.00    -0.212 A  
HETATM   12  C   UNL     1     -10.721  14.638  68.084  1.00  0.00    -0.242 A  
BRANCH  12  13
HETATM   13  O   UNL     1     -11.925  14.339  68.660  1.00  0.00    -0.333 OA 
HETATM   14  C   UNL     1     -11.966  13.221  69.532  1.00  0.00    -0.307 C  
ENDBRANCH  12  13
ENDBRANCH   6   7
ENDBRANCH   4   6
ENDBRANCH   2   4
TORSDOF 4
ENDMDL
MODEL       88
REMARK 921   NORMALIZED FREE ENERGY PREDICTED BY IDOCK:   -3.58 KCAL/MOL
REMARK 922        TOTAL FREE ENERGY PREDICTED BY IDOCK:   -4.66 KCAL/MOL
REMARK 923 INTER-LIGAND FREE ENERGY PREDICTED BY IDOCK:   -4.40 KCAL/MOL
REMARK 924 INTRA-LIGAND FREE ENERGY PREDICTED BY IDOCK:   -0.26 KCAL/MOL
REMARK 927      BINDING AFFINITY PREDICTED BY RF-SCORE:    0.00 PKD
ROOT
HETATM    1  C   UNL     1      -8.508   8.302  65.971  1.00  0.00    -0.139 C  
HETATM    2  N   UNL     1      -9.906   8.713  65.945  1.00  0.00    -0.464 NA 
HETATM    3  H   UNL     1     -10.381   8.316  65.134  1.00  0.00     0.000 HD 
ENDROOT
BRANCH   2   4
HETATM    4  C   UNL     1     -10.644   8.400  67.184  1.00  0.00    -0.256 C  
HETATM    5  C   UNL     1     -10.747   6.888  67.414  1.00  0.00    -0.396 C  
BRANCH   4   6
HETATM    6  C   UNL     1      -9.956   9.037  68.427  1.00  0.00    -0.200 C  
BRANCH   6   7
HETATM    7  C   UNL     1     -10.879   9.392  69.573  1.00  0.00    -0.231 A  
HETATM    8  C   UNL     1     -10.773   8.593  70.734  1.00  0.00    -0.260 A  
HETATM    9  C   UNL     1     -11.606   8.781  71.834  1.00  0.00    -0.432 A  
HETATM   10  C   UNL     1     -12.577   9.772  71.794  1.00  0.00    -0.506 A  
HETATM   11  C   UNL     1     -12.708  10.563  70.651  1.00  0.00    -0.441 A  
HETATM   12  C   UNL     1     -11.866  10.389  69.540  1.00  0.00    -0.147 A  
BRANCH  12  13
HETATM   13  O   UNL     1     -12.228  11.150  68.462  1.00  0.00    -0.600 OA 
HETATM   14  C   UNL     1     -11.562  12.390  68.293  1.00  0.00    -0.333 C  
ENDBRANCH  12  13
ENDBRANCH   6   7
ENDBRANCH   4   6
ENDBRANCH   2   4
TORSDOF 4
ENDMDL
MODEL       89
REMARK 921   NORMALIZED FREE ENERGY PREDICTED BY IDOCK:   -3.58 KCAL/MOL
REMARK 922        TOTAL FREE ENERGY PREDICTED BY IDOCK:   -4.65 KCAL/MOL
REMARK 923 INTER-LIGAND FREE ENERGY PREDICTED BY IDOCK:   -4.42 KCAL/MOL
REMARK 924 INTRA-LIGAND FREE ENERGY PREDICTED BY IDOCK:   -0.24 KCAL/MOL
REMARK 927      BINDING AFFINITY PREDICTED BY RF-SCORE:    0.00 PKD
ROOT
HETATM    1  C   UNL     1      -7.559  10.091  68.688  1.00  0.00    -0.088 C  
HETATM    2  N   UNL     1      -8.427  11.165  69.154  1.00  0.00    -0.373 NA 
HETATM    3  H   UNL     1      -7.896  11.845  69.698  1.00  0.00     0.000 HD 
ENDROOT
BRANCH   2   4
HETATM    4  C   UNL     1      -9.179  11.836  68.076  1.00  0.00    -0.181 C  
HETATM    5  C   UNL     1      -8.343  12.927  67.398  1.00  0.00    -0.190 C  
BRANCH   4   6
HETATM    6  C   UNL     1      -9.631  10.819  66.987  1.00  0.00    -0.195 C  
BRANCH   6   7
HETATM    7  C   UNL     1     -10.368  11.414  65.806  1.00  0.00    -0.304 A  
HETATM    8  C   UNL     1      -9.767  11.238  64.538  1.00  0.00    -0.293 A  
HETATM    9  C   UNL     1     -10.316  11.787  63.382  1.00  0.00    -0.481 A  
HETATM   10  C   UNL     1     -11.481  12.538  63.469  1.00  0.00    -0.570 A  
HETATM   11  C   UNL     1     -12.082  12.735  64.713  1.00  0.00    -0.488 A  
HETATM   12  C   UNL     1     -11.543  12.177  65.884  1.00  0.00    -0.364 A  
BRANCH  12  13
HETATM   13  O   UNL     1     -12.179  12.589  67.023  1.00  0.00    -0.490 OA 
HETATM   14  C   UNL     1     -12.004  13.942  67.408  1.00  0.00    -0.401 C  
ENDBRANCH  12  13
ENDBRANCH   6   7
ENDBRANCH   4   6
ENDBRANCH   2   4
TORSDOF 4
ENDMDL
MODEL       90
REMARK 921   NORMALIZED FREE ENERGY PREDICTED BY IDOCK:   -3.57 KCAL/MOL
REMARK 922        TOTAL FREE ENERGY PREDICTED BY IDOCK:   -4.64 KCAL/MOL
REMARK 923 INTER-LIGAND FREE ENERGY PREDICTED BY IDOCK:   -4.38 KCAL/MOL
REMARK 924 INTRA-LIGAND FREE ENERGY PREDICTED BY IDOCK:   -0.26 KCAL/MOL
REMARK 927      BINDING AFFINITY PREDICTED BY RF-SCORE:    0.00 PKD
ROOT
HETATM    1  C   UNL     1      -7.223  19.869  65.977  1.00  0.00    -0.298 C  
HETATM    2  N   UNL     1      -8.022  18.678  65.714  1.00  0.00    -0.464 NA 
HETATM    3  H   UNL     1      -7.471  17.835  65.872  1.00  0.00     0.000 HD 
ENDROOT
BRANCH   2   4
HETATM    4  C   UNL     1      -9.284  18.625  66.479  1.00  0.00    -0.320 C  
HETATM    5  C   UNL     1     -10.052  19.949  66.395  1.00  0.00    -0.615 C  
BRANCH   4   6
HETATM    6  C   UNL     1     -10.211  17.488  65.959  1.00  0.00    -0.306 C  
BRANCH   6   7
HETATM    7  C   UNL     1     -10.119  16.177  66.711  1.00  0.00    -0.275 A  
HETATM    8  C   UNL     1      -9.676  16.253  68.051  1.00  0.00    -0.230 A  
HETATM    9  C   UNL     1      -9.494  15.113  68.830  1.00  0.00    -0.213 A  
HETATM   10  C   UNL     1      -9.744  13.863  68.281  1.00  0.00    -0.223 A  
HETATM   11  C   UNL     1     -10.169  13.766  66.954  1.00  0.00    -0.261 A  
HETATM   12  C   UNL     1     -10.366  14.910  66.163  1.00  0.00    -0.301 A  
BRANCH  12  13
HETATM   13  O   UNL     1     -10.644  14.621  64.855  1.00  0.00    -0.416 OA 
HETATM   14  C   UNL     1     -11.961  14.191  64.554  1.00  0.00    -0.458 C  
ENDBRANCH  12  13
ENDBRANCH   6   7
ENDBRANCH   4   6
ENDBRANCH   2   4
TORSDOF 4
ENDMDL
MODEL       91
REMARK 921   NORMALIZED FREE ENERGY PREDICTED BY IDOCK:   -3.55 KCAL/MOL
REMARK 922        TOTAL FREE ENERGY PREDICTED BY IDOCK:   -4.62 KCAL/MOL
REMARK 923 INTER-LIGAND FREE ENERGY PREDICTED BY IDOCK:   -4.30 KCAL/MOL
REMARK 924 INTRA-LIGAND FREE ENERGY PREDICTED BY IDOCK:   -0.32 KCAL/MOL
REMARK 927      BINDING AFFINITY PREDICTED BY RF-SCORE:    0.00 PKD
ROOT
HETATM    1  C   UNL     1     -12.039  13.575  66.343  1.00  0.00    -0.417 C  
HETATM    2  N   UNL     1     -10.626  13.798  66.062  1.00  0.00    -0.286 NA 
HETATM    3  H   UNL     1     -10.359  13.351  65.185  1.00  0.00     0.000 HD 
ENDROOT
BRANCH   2   4
HETATM    4  C   UNL     1     -10.236  15.222  66.059  1.00  0.00    -0.317 C  
HETATM    5  C   UNL     1     -11.028  16.023  65.019  1.00  0.00    -0.393 C  
BRANCH   4   6
HETATM    6  C   UNL     1     -10.465  15.873  67.454  1.00  0.00    -0.306 C  
BRANCH   6   7
HETATM    7  C   UNL     1      -9.449  16.919  67.860  1.00  0.00    -0.239 A  
HETATM    8  C   UNL     1      -8.270  16.442  68.478  1.00  0.00    -0.201 A  
HETATM    9  C   UNL     1      -7.286  17.308  68.949  1.00  0.00    -0.243 A  
HETATM   10  C   UNL     1      -7.463  18.678  68.823  1.00  0.00    -0.322 A  
HETATM   11  C   UNL     1      -8.628  19.170  68.229  1.00  0.00    -0.370 A  
HETATM   12  C   UNL     1      -9.622  18.306  67.740  1.00  0.00    -0.283 A  
BRANCH  12  13
HETATM   13  O   UNL     1     -10.749  18.959  67.323  1.00  0.00    -0.445 OA 
HETATM   14  C   UNL     1     -10.658  19.700  66.117  1.00  0.00    -0.483 C  
ENDBRANCH  12  13
ENDBRANCH   6   7
ENDBRANCH   4   6
ENDBRANCH   2   4
TORSDOF 4
ENDMDL
MODEL       92
REMARK 921   NORMALIZED FREE ENERGY PREDICTED BY IDOCK:   -3.54 KCAL/MOL
REMARK 922        TOTAL FREE ENERGY PREDICTED BY IDOCK:   -4.60 KCAL/MOL
REMARK 923 INTER-LIGAND FREE ENERGY PREDICTED BY IDOCK:   -4.37 KCAL/MOL
REMARK 924 INTRA-LIGAND FREE ENERGY PREDICTED BY IDOCK:   -0.23 KCAL/MOL
REMARK 927      BINDING AFFINITY PREDICTED BY RF-SCORE:    0.00 PKD
ROOT
HETATM    1  C   UNL     1      -7.625  16.265  66.652  1.00  0.00    -0.232 C  
HETATM    2  N   UNL     1      -8.796  15.523  66.202  1.00  0.00    -0.419 NA 
HETATM    3  H   UNL     1      -8.700  14.532  66.425  1.00  0.00     0.000 HD 
ENDROOT
BRANCH   2   4
HETATM    4  C   UNL     1     -10.073  16.051  66.720  1.00  0.00    -0.268 C  
HETATM    5  C   UNL     1     -10.610  17.190  65.846  1.00  0.00    -0.219 C  
BRANCH   4   6
HETATM    6  C   UNL     1     -11.157  14.936  66.791  1.00  0.00    -0.335 C  
BRANCH   6   7
HETATM    7  C   UNL     1     -11.093  13.894  65.694  1.00  0.00    -0.298 A  
HETATM    8  C   UNL     1     -12.051  14.011  64.661  1.00  0.00    -0.462 A  
HETATM    9  C   UNL     1     -12.133  13.081  63.627  1.00  0.00    -0.604 A  
HETATM   10  C   UNL     1     -11.261  12.002  63.607  1.00  0.00    -0.528 A  
HETATM   11  C   UNL     1     -10.317  11.861  64.627  1.00  0.00    -0.326 A  
HETATM   12  C   UNL     1     -10.218  12.798  65.668  1.00  0.00    -0.279 A  
BRANCH  12  13
HETATM   13  O   UNL     1      -9.338  12.427  66.648  1.00  0.00    -0.218 OA 
HETATM   14  C   UNL     1      -9.843  11.620  67.699  1.00  0.00    -0.186 C  
ENDBRANCH  12  13
ENDBRANCH   6   7
ENDBRANCH   4   6
ENDBRANCH   2   4
TORSDOF 4
ENDMDL
MODEL       93
REMARK 921   NORMALIZED FREE ENERGY PREDICTED BY IDOCK:   -3.54 KCAL/MOL
REMARK 922        TOTAL FREE ENERGY PREDICTED BY IDOCK:   -4.60 KCAL/MOL
REMARK 923 INTER-LIGAND FREE ENERGY PREDICTED BY IDOCK:   -4.29 KCAL/MOL
REMARK 924 INTRA-LIGAND FREE ENERGY PREDICTED BY IDOCK:   -0.31 KCAL/MOL
REMARK 927      BINDING AFFINITY PREDICTED BY RF-SCORE:    0.00 PKD
ROOT
HETATM    1  C   UNL     1     -11.061   6.376  67.352  1.00  0.00    -0.322 C  
HETATM    2  N   UNL     1     -10.151   7.064  66.445  1.00  0.00    -0.448 NA 
HETATM    3  H   UNL     1     -10.647   7.384  65.613  1.00  0.00     0.000 HD 
ENDROOT
BRANCH   2   4
HETATM    4  C   UNL     1      -9.414   8.180  67.071  1.00  0.00    -0.177 C  
HETATM    5  C   UNL     1      -8.017   8.346  66.463  1.00  0.00    -0.096 C  
BRANCH   4   6
HETATM    6  C   UNL     1     -10.182   9.524  66.909  1.00  0.00    -0.317 C  
BRANCH   6   7
HETATM    7  C   UNL     1     -10.753  10.107  68.184  1.00  0.00    -0.285 A  
HETATM    8  C   UNL     1     -10.466   9.406  69.377  1.00  0.00    -0.231 A  
HETATM    9  C   UNL     1     -10.981   9.808  70.607  1.00  0.00    -0.398 A  
HETATM   10  C   UNL     1     -11.808  10.921  70.671  1.00  0.00    -0.453 A  
HETATM   11  C   UNL     1     -12.116  11.618  69.501  1.00  0.00    -0.336 A  
HETATM   12  C   UNL     1     -11.592  11.228  68.257  1.00  0.00    -0.300 A  
BRANCH  12  13
HETATM   13  O   UNL     1     -12.109  11.936  67.207  1.00  0.00    -0.582 OA 
HETATM   14  C   UNL     1     -11.427  13.119  66.825  1.00  0.00    -0.343 C  
ENDBRANCH  12  13
ENDBRANCH   6   7
ENDBRANCH   4   6
ENDBRANCH   2   4
TORSDOF 4
ENDMDL
MODEL       94
REMARK 921   NORMALIZED FREE ENERGY PREDICTED BY IDOCK:   -3.52 KCAL/MOL
REMARK 922        TOTAL FREE ENERGY PREDICTED BY IDOCK:   -4.58 KCAL/MOL
REMARK 923 INTER-LIGAND FREE ENERGY PREDICTED BY IDOCK:   -4.34 KCAL/MOL
REMARK 924 INTRA-LIGAND FREE ENERGY PREDICTED BY IDOCK:   -0.24 KCAL/MOL
REMARK 927      BINDING AFFINITY PREDICTED BY RF-SCORE:    0.00 PKD
ROOT
HETATM    1  C   UNL     1      -7.496  20.328  66.352  1.00  0.00    -0.245 C  
HETATM    2  N   UNL     1      -8.267  19.259  65.729  1.00  0.00    -0.414 NA 
HETATM    3  H   UNL     1      -7.928  19.076  64.784  1.00  0.00     0.000 HD 
ENDROOT
BRANCH   2   4
HETATM    4  C   UNL     1      -8.304  18.011  66.517  1.00  0.00    -0.268 C  
HETATM    5  C   UNL     1      -7.230  18.002  67.611  1.00  0.00    -0.210 C  
BRANCH   4   6
HETATM    6  C   UNL     1      -9.692  17.812  67.194  1.00  0.00    -0.288 C  
BRANCH   6   7
HETATM    7  C   UNL     1     -10.363  16.482  66.926  1.00  0.00    -0.300 A  
HETATM    8  C   UNL     1     -10.261  15.982  65.608  1.00  0.00    -0.412 A  
HETATM    9  C   UNL     1     -10.884  14.798  65.221  1.00  0.00    -0.395 A  
HETATM   10  C   UNL     1     -11.635  14.087  66.147  1.00  0.00    -0.374 A  
HETATM   11  C   UNL     1     -11.759  14.571  67.451  1.00  0.00    -0.425 A  
HETATM   12  C   UNL     1     -11.126  15.759  67.854  1.00  0.00    -0.326 A  
BRANCH  12  13
HETATM   13  O   UNL     1     -11.471  16.153  69.118  1.00  0.00    -0.338 OA 
HETATM   14  C   UNL     1     -12.072  15.182  69.958  1.00  0.00    -0.345 C  
ENDBRANCH  12  13
ENDBRANCH   6   7
ENDBRANCH   4   6
ENDBRANCH   2   4
TORSDOF 4
ENDMDL
MODEL       95
REMARK 921   NORMALIZED FREE ENERGY PREDICTED BY IDOCK:   -3.52 KCAL/MOL
REMARK 922        TOTAL FREE ENERGY PREDICTED BY IDOCK:   -4.57 KCAL/MOL
REMARK 923 INTER-LIGAND FREE ENERGY PREDICTED BY IDOCK:   -4.25 KCAL/MOL
REMARK 924 INTRA-LIGAND FREE ENERGY PREDICTED BY IDOCK:   -0.32 KCAL/MOL
REMARK 927      BINDING AFFINITY PREDICTED BY RF-SCORE:    0.00 PKD
ROOT
HETATM    1  C   UNL     1     -11.776  13.628  69.419  1.00  0.00    -0.324 C  
HETATM    2  N   UNL     1     -11.303  12.339  69.909  1.00  0.00    -0.507 NA 
HETATM    3  H   UNL     1     -11.778  12.089  70.776  1.00  0.00     0.000 HD 
ENDROOT
BRANCH   2   4
HETATM    4  C   UNL     1     -11.415  11.248  68.922  1.00  0.00    -0.297 C  
HETATM    5  C   UNL     1     -11.607  11.789  67.500  1.00  0.00    -0.361 C  
BRANCH   4   6
HETATM    6  C   UNL     1     -10.147  10.344  68.934  1.00  0.00    -0.213 C  
BRANCH   6   7
HETATM    7  C   UNL     1     -10.408   8.855  68.865  1.00  0.00    -0.229 A  
HETATM    8  C   UNL     1     -10.362   8.269  67.579  1.00  0.00    -0.333 A  
HETATM    9  C   UNL     1     -10.642   6.920  67.376  1.00  0.00    -0.373 A  
HETATM   10  C   UNL     1     -10.984   6.122  68.459  1.00  0.00    -0.404 A  
HETATM   11  C   UNL     1     -11.048   6.685  69.735  1.00  0.00    -0.398 A  
HETATM   12  C   UNL     1     -10.758   8.042  69.953  1.00  0.00    -0.242 A  
BRANCH  12  13
HETATM   13  O   UNL     1     -11.008   8.450  71.235  1.00  0.00    -0.236 OA 
HETATM   14  C   UNL     1     -12.360   8.692  71.584  1.00  0.00    -0.333 C  
ENDBRANCH  12  13
ENDBRANCH   6   7
ENDBRANCH   4   6
ENDBRANCH   2   4
TORSDOF 4
ENDMDL
MODEL       96
REMARK 921   NORMALIZED FREE ENERGY PREDICTED BY IDOCK:   -3.51 KCAL/MOL
REMARK 922        TOTAL FREE ENERGY PREDICTED BY IDOCK:   -4.57 KCAL/MOL
REMARK 923 INTER-LIGAND FREE ENERGY PREDICTED BY IDOCK:   -4.33 KCAL/MOL
REMARK 924 INTRA-LIGAND FREE ENERGY PREDICTED BY IDOCK:   -0.24 KCAL/MOL
REMARK 927      BINDING AFFINITY PREDICTED BY RF-SCORE:    0.00 PKD
ROOT
HETATM    1  C   UNL     1     -10.001  19.854  68.666  1.00  0.00    -0.384 C  
HETATM    2  N   UNL     1      -9.913  18.460  68.249  1.00  0.00    -0.349 NA 
HETATM    3  H   UNL     1     -10.498  17.871  68.841  1.00  0.00     0.000 HD 
ENDROOT
BRANCH   2   4
HETATM    4  C   UNL     1     -10.230  18.241  66.824  1.00  0.00    -0.378 C  
HETATM    5  C   UNL     1     -10.241  19.558  66.039  1.00  0.00    -0.567 C  
BRANCH   4   6
HETATM    6  C   UNL     1      -9.200  17.283  66.158  1.00  0.00    -0.193 C  
BRANCH   6   7
HETATM    7  C   UNL     1      -9.702  15.883  65.872  1.00  0.00    -0.386 A  
HETATM    8  C   UNL     1     -10.822  15.781  65.016  1.00  0.00    -0.461 A  
HETATM    9  C   UNL     1     -11.413  14.554  64.723  1.00  0.00    -0.408 A  
HETATM   10  C   UNL     1     -10.900  13.396  65.290  1.00  0.00    -0.318 A  
HETATM   11  C   UNL     1      -9.803  13.478  66.150  1.00  0.00    -0.292 A  
HETATM   12  C   UNL     1      -9.193  14.708  66.444  1.00  0.00    -0.249 A  
BRANCH  12  13
HETATM   13  O   UNL     1      -8.227  14.617  67.409  1.00  0.00    -0.174 OA 
HETATM   14  C   UNL     1      -7.575  13.366  67.555  1.00  0.00    -0.169 C  
ENDBRANCH  12  13
ENDBRANCH   6   7
ENDBRANCH   4   6
ENDBRANCH   2   4
TORSDOF 4
ENDMDL
MODEL       97
REMARK 921   NORMALIZED FREE ENERGY PREDICTED BY IDOCK:   -3.51 KCAL/MOL
REMARK 922        TOTAL FREE ENERGY PREDICTED BY IDOCK:   -4.57 KCAL/MOL
REMARK 923 INTER-LIGAND FREE ENERGY PREDICTED BY IDOCK:   -4.39 KCAL/MOL
REMARK 924 INTRA-LIGAND FREE ENERGY PREDICTED BY IDOCK:   -0.18 KCAL/MOL
REMARK 927      BINDING AFFINITY PREDICTED BY RF-SCORE:    0.00 PKD
ROOT
HETATM    1  C   UNL     1     -10.079  11.995  63.469  1.00  0.00    -0.424 C  
HETATM    2  N   UNL     1     -10.603  13.221  64.057  1.00  0.00    -0.525 NA 
HETATM    3  H   UNL     1     -10.220  14.038  63.582  1.00  0.00     0.000 HD 
ENDROOT
BRANCH   2   4
HETATM    4  C   UNL     1     -12.077  13.284  64.091  1.00  0.00    -0.432 C  
HETATM    5  C   UNL     1     -12.711  12.076  63.392  1.00  0.00    -0.527 C  
BRANCH   4   6
HETATM    6  C   UNL     1     -12.606  13.334  65.555  1.00  0.00    -0.505 C  
BRANCH   6   7
HETATM    7  C   UNL     1     -11.664  12.788  66.607  1.00  0.00    -0.459 A  
HETATM    8  C   UNL     1     -11.648  11.383  66.765  1.00  0.00    -0.038 A  
HETATM    9  C   UNL     1     -10.869  10.762  67.738  1.00  0.00    -0.320 A  
HETATM   10  C   UNL     1     -10.091  11.536  68.587  1.00  0.00    -0.214 A  
HETATM   11  C   UNL     1     -10.105  12.927  68.457  1.00  0.00    -0.193 A  
HETATM   12  C   UNL     1     -10.878  13.562  67.472  1.00  0.00    -0.264 A  
BRANCH  12  13
HETATM   13  O   UNL     1     -10.880  14.926  67.582  1.00  0.00    -0.272 OA 
HETATM   14  C   UNL     1      -9.632  15.587  67.450  1.00  0.00    -0.213 C  
ENDBRANCH  12  13
ENDBRANCH   6   7
ENDBRANCH   4   6
ENDBRANCH   2   4
TORSDOF 4
ENDMDL
MODEL       98
REMARK 921   NORMALIZED FREE ENERGY PREDICTED BY IDOCK:   -3.51 KCAL/MOL
REMARK 922        TOTAL FREE ENERGY PREDICTED BY IDOCK:   -4.56 KCAL/MOL
REMARK 923 INTER-LIGAND FREE ENERGY PREDICTED BY IDOCK:   -4.28 KCAL/MOL
REMARK 924 INTRA-LIGAND FREE ENERGY PREDICTED BY IDOCK:   -0.28 KCAL/MOL
REMARK 927      BINDING AFFINITY PREDICTED BY RF-SCORE:    0.00 PKD
ROOT
HETATM    1  C   UNL     1     -11.159  16.018  70.245  1.00  0.00    -0.374 C  
HETATM    2  N   UNL     1     -10.171  15.411  69.364  1.00  0.00    -0.246 NA 
HETATM    3  H   UNL     1     -10.559  14.588  68.903  1.00  0.00     0.000 HD 
ENDROOT
BRANCH   2   4
HETATM    4  C   UNL     1      -9.603  16.343  68.370  1.00  0.00    -0.219 C  
HETATM    5  C   UNL     1     -10.271  16.184  66.999  1.00  0.00    -0.285 C  
BRANCH   4   6
HETATM    6  C   UNL     1      -9.769  17.822  68.826  1.00  0.00    -0.314 C  
BRANCH   6   7
HETATM    7  C   UNL     1      -8.675  18.769  68.379  1.00  0.00    -0.369 A  
HETATM    8  C   UNL     1      -7.387  18.536  68.914  1.00  0.00    -0.289 A  
HETATM    9  C   UNL     1      -6.311  19.372  68.626  1.00  0.00    -0.284 A  
HETATM   10  C   UNL     1      -6.500  20.471  67.800  1.00  0.00    -0.330 A  
HETATM   11  C   UNL     1      -7.768  20.726  67.273  1.00  0.00    -0.332 A  
HETATM   12  C   UNL     1      -8.858  19.884  67.548  1.00  0.00    -0.338 A  
BRANCH  12  13
HETATM   13  O   UNL     1     -10.046  20.363  67.067  1.00  0.00    -0.445 OA 
HETATM   14  C   UNL     1     -10.547  19.774  65.878  1.00  0.00    -0.453 C  
ENDBRANCH  12  13
ENDBRANCH   6   7
ENDBRANCH   4   6
ENDBRANCH   2   4
TORSDOF 4
ENDMDL
MODEL       99
REMARK 921   NORMALIZED FREE ENERGY PREDICTED BY IDOCK:   -3.50 KCAL/MOL
REMARK 922        TOTAL FREE ENERGY PREDICTED BY IDOCK:   -4.55 KCAL/MOL
REMARK 923 INTER-LIGAND FREE ENERGY PREDICTED BY IDOCK:   -4.45 KCAL/MOL
REMARK 924 INTRA-LIGAND FREE ENERGY PREDICTED BY IDOCK:   -0.10 KCAL/MOL
REMARK 927      BINDING AFFINITY PREDICTED BY RF-SCORE:    0.00 PKD
ROOT
HETATM    1  C   UNL     1      -8.194  11.730  68.342  1.00  0.00    -0.154 C  
HETATM    2  N   UNL     1      -9.521  12.317  68.480  1.00  0.00    -0.359 NA 
HETATM    3  H   UNL     1      -9.746  12.890  67.667  1.00  0.00     0.000 HD 
ENDROOT
BRANCH   2   4
HETATM    4  C   UNL     1     -10.588  11.327  68.728  1.00  0.00    -0.203 C  
HETATM    5  C   UNL     1     -10.930  10.534  67.461  1.00  0.00    -0.365 C  
BRANCH   4   6
HETATM    6  C   UNL     1     -10.175  10.318  69.839  1.00  0.00    -0.250 C  
BRANCH   6   7
HETATM    7  C   UNL     1     -11.308   9.784  70.689  1.00  0.00    -0.401 A  
HETATM    8  C   UNL     1     -11.388   8.378  70.816  1.00  0.00    -0.290 A  
HETATM    9  C   UNL     1     -12.417   7.761  71.522  1.00  0.00    -0.348 A  
HETATM   10  C   UNL     1     -13.402   8.540  72.114  1.00  0.00    -0.382 A  
HETATM   11  C   UNL     1     -13.349   9.930  71.989  1.00  0.00    -0.532 A  
HETATM   12  C   UNL     1     -12.309  10.563  71.288  1.00  0.00    -0.397 A  
BRANCH  12  13
HETATM   13  O   UNL     1     -12.493  11.911  71.147  1.00  0.00    -0.348 OA 
HETATM   14  C   UNL     1     -13.370  12.543  72.064  1.00  0.00    -0.426 C  
ENDBRANCH  12  13
ENDBRANCH   6   7
ENDBRANCH   4   6
ENDBRANCH   2   4
TORSDOF 4
ENDMDL
MODEL      100
REMARK 921   NORMALIZED FREE ENERGY PREDICTED BY IDOCK:   -3.49 KCAL/MOL
REMARK 922        TOTAL FREE ENERGY PREDICTED BY IDOCK:   -4.55 KCAL/MOL
REMARK 923 INTER-LIGAND FREE ENERGY PREDICTED BY IDOCK:   -4.55 KCAL/MOL
REMARK 924 INTRA-LIGAND FREE ENERGY PREDICTED BY IDOCK:    0.00 KCAL/MOL
REMARK 927      BINDING AFFINITY PREDICTED BY RF-SCORE:    0.00 PKD
ROOT
HETATM    1  C   UNL     1      -6.051  21.168  63.558  1.00  0.00    -0.316 C  
HETATM    2  N   UNL     1      -6.274  19.792  63.986  1.00  0.00    -0.336 NA 
HETATM    3  H   UNL     1      -5.707  19.149  63.434  1.00  0.00     0.000 HD 
ENDROOT
BRANCH   2   4
HETATM    4  C   UNL     1      -6.054  19.573  65.429  1.00  0.00    -0.223 C  
HETATM    5  C   UNL     1      -6.330  20.843  66.242  1.00  0.00    -0.305 C  
BRANCH   4   6
HETATM    6  C   UNL     1      -6.968  18.436  65.972  1.00  0.00    -0.310 C  
BRANCH   6   7
HETATM    7  C   UNL     1      -8.139  18.889  66.818  1.00  0.00    -0.278 A  
HETATM    8  C   UNL     1      -9.210  19.504  66.128  1.00  0.00    -0.363 A  
HETATM    9  C   UNL     1     -10.318  20.016  66.798  1.00  0.00    -0.564 A  
HETATM   10  C   UNL     1     -10.378  19.933  68.182  1.00  0.00    -0.533 A  
HETATM   11  C   UNL     1      -9.324  19.342  68.883  1.00  0.00    -0.417 A  
HETATM   12  C   UNL     1      -8.207  18.813  68.216  1.00  0.00    -0.325 A  
BRANCH  12  13
HETATM   13  O   UNL     1      -7.214  18.404  69.065  1.00  0.00    -0.282 OA 
HETATM   14  C   UNL     1      -6.379  19.409  69.615  1.00  0.00    -0.298 C  
ENDBRANCH  12  13
ENDBRANCH   6   7
ENDBRANCH   4   6
ENDBRANCH   2   4
TORSDOF 4
ENDMDL
MODEL      101
REMARK 921   NORMALIZED FREE ENERGY PREDICTED BY IDOCK:   -3.48 KCAL/MOL
REMARK 922        TOTAL FREE ENERGY PREDICTED BY IDOCK:   -4.54 KCAL/MOL
REMARK 923 INTER-LIGAND FREE ENERGY PREDICTED BY IDOCK:   -4.08 KCAL/MOL
REMARK 924 INTRA-LIGAND FREE ENERGY PREDICTED BY IDOCK:   -0.45 KCAL/MOL
REMARK 927      BINDING AFFINITY PREDICTED BY RF-SCORE:    0.00 PKD
ROOT
HETATM    1  C   UNL     1      -8.129   7.679  66.221  1.00  0.00    -0.112 C  
HETATM    2  N   UNL     1      -9.515   7.432  65.844  1.00  0.00    -0.403 NA 
HETATM    3  H   UNL     1      -9.651   6.452  65.598  1.00  0.00     0.000 HD 
ENDROOT
BRANCH   2   4
HETATM    4  C   UNL     1     -10.495   7.852  66.865  1.00  0.00    -0.318 C  
HETATM    5  C   UNL     1     -10.833   6.708  67.829  1.00  0.00    -0.372 C  
BRANCH   4   6
HETATM    6  C   UNL     1      -9.962   9.053  67.700  1.00  0.00    -0.252 C  
BRANCH   6   7
HETATM    7  C   UNL     1     -10.552  10.403  67.351  1.00  0.00    -0.321 A  
HETATM    8  C   UNL     1     -11.309  11.036  68.363  1.00  0.00    -0.363 A  
HETATM    9  C   UNL     1     -11.952  12.253  68.146  1.00  0.00    -0.256 A  
HETATM   10  C   UNL     1     -11.859  12.863  66.903  1.00  0.00    -0.444 A  
HETATM   11  C   UNL     1     -11.127  12.246  65.886  1.00  0.00    -0.360 A  
HETATM   12  C   UNL     1     -10.466  11.025  66.097  1.00  0.00    -0.244 A  
BRANCH  12  13
HETATM   13  O   UNL     1      -9.921  10.501  64.957  1.00  0.00    -0.278 OA 
HETATM   14  C   UNL     1     -10.084  11.245  63.761  1.00  0.00    -0.361 C  
ENDBRANCH  12  13
ENDBRANCH   6   7
ENDBRANCH   4   6
ENDBRANCH   2   4
TORSDOF 4
ENDMDL
MODEL      102
REMARK 921   NORMALIZED FREE ENERGY PREDICTED BY IDOCK:   -3.47 KCAL/MOL
REMARK 922        TOTAL FREE ENERGY PREDICTED BY IDOCK:   -4.52 KCAL/MOL
REMARK 923 INTER-LIGAND FREE ENERGY PREDICTED BY IDOCK:   -4.21 KCAL/MOL
REMARK 924 INTRA-LIGAND FREE ENERGY PREDICTED BY IDOCK:   -0.31 KCAL/MOL
REMARK 927      BINDING AFFINITY PREDICTED BY RF-SCORE:    0.00 PKD
ROOT
HETATM    1  C   UNL     1      -8.549   7.205  65.763  1.00  0.00    -0.133 C  
HETATM    2  N   UNL     1      -9.546   8.268  65.779  1.00  0.00    -0.446 NA 
HETATM    3  H   UNL     1     -10.092   8.261  64.918  1.00  0.00     0.000 HD 
ENDROOT
BRANCH   2   4
HETATM    4  C   UNL     1     -10.435   8.235  66.957  1.00  0.00    -0.314 C  
HETATM    5  C   UNL     1     -10.804   6.799  67.347  1.00  0.00    -0.417 C  
BRANCH   4   6
HETATM    6  C   UNL     1      -9.769   8.920  68.186  1.00  0.00    -0.180 C  
BRANCH   6   7
HETATM    7  C   UNL     1     -10.724   9.469  69.224  1.00  0.00    -0.240 A  
HETATM    8  C   UNL     1     -11.290  10.735  68.948  1.00  0.00    -0.349 A  
HETATM    9  C   UNL     1     -12.137  11.374  69.850  1.00  0.00    -0.404 A  
HETATM   10  C   UNL     1     -12.432  10.762  71.061  1.00  0.00    -0.522 A  
HETATM   11  C   UNL     1     -11.872   9.518  71.359  1.00  0.00    -0.464 A  
HETATM   12  C   UNL     1     -11.025   8.861  70.451  1.00  0.00    -0.244 A  
BRANCH  12  13
HETATM   13  O   UNL     1     -10.459   7.726  70.965  1.00  0.00    -0.203 OA 
HETATM   14  C   UNL     1     -11.333   6.660  71.297  1.00  0.00    -0.299 C  
ENDBRANCH  12  13
ENDBRANCH   6   7
ENDBRANCH   4   6
ENDBRANCH   2   4
TORSDOF 4
ENDMDL
MODEL      103
REMARK 921   NORMALIZED FREE ENERGY PREDICTED BY IDOCK:   -3.47 KCAL/MOL
REMARK 922        TOTAL FREE ENERGY PREDICTED BY IDOCK:   -4.52 KCAL/MOL
REMARK 923 INTER-LIGAND FREE ENERGY PREDICTED BY IDOCK:   -4.24 KCAL/MOL
REMARK 924 INTRA-LIGAND FREE ENERGY PREDICTED BY IDOCK:   -0.29 KCAL/MOL
REMARK 927      BINDING AFFINITY PREDICTED BY RF-SCORE:    0.00 PKD
ROOT
HETATM    1  C   UNL     1      -8.494   8.920  65.038  1.00  0.00    -0.176 C  
HETATM    2  N   UNL     1      -9.863   8.723  65.497  1.00  0.00    -0.375 NA 
HETATM    3  H   UNL     1     -10.004   7.760  65.802  1.00  0.00     0.000 HD 
ENDROOT
BRANCH   2   4
HETATM    4  C   UNL     1     -10.281   9.668  66.551  1.00  0.00    -0.224 C  
HETATM    5  C   UNL     1      -9.798   9.221  67.935  1.00  0.00    -0.200 C  
BRANCH   4   6
HETATM    6  C   UNL     1      -9.727  11.097  66.279  1.00  0.00    -0.244 C  
BRANCH   6   7
HETATM    7  C   UNL     1     -10.760  12.133  65.888  1.00  0.00    -0.302 A  
HETATM    8  C   UNL     1     -10.881  12.407  64.506  1.00  0.00    -0.358 A  
HETATM    9  C   UNL     1     -11.753  13.380  64.024  1.00  0.00    -0.465 A  
HETATM   10  C   UNL     1     -12.521  14.113  64.918  1.00  0.00    -0.419 A  
HETATM   11  C   UNL     1     -12.405  13.868  66.288  1.00  0.00    -0.489 A  
HETATM   12  C   UNL     1     -11.537  12.881  66.784  1.00  0.00    -0.360 A  
BRANCH  12  13
HETATM   13  O   UNL     1     -11.447  12.877  68.149  1.00  0.00    -0.272 OA 
HETATM   14  C   UNL     1     -11.918  14.027  68.832  1.00  0.00    -0.352 C  
ENDBRANCH  12  13
ENDBRANCH   6   7
ENDBRANCH   4   6
ENDBRANCH   2   4
TORSDOF 4
ENDMDL
MODEL      104
REMARK 921   NORMALIZED FREE ENERGY PREDICTED BY IDOCK:   -3.47 KCAL/MOL
REMARK 922        TOTAL FREE ENERGY PREDICTED BY IDOCK:   -4.52 KCAL/MOL
REMARK 923 INTER-LIGAND FREE ENERGY PREDICTED BY IDOCK:   -4.23 KCAL/MOL
REMARK 924 INTRA-LIGAND FREE ENERGY PREDICTED BY IDOCK:   -0.28 KCAL/MOL
REMARK 927      BINDING AFFINITY PREDICTED BY RF-SCORE:    0.00 PKD
ROOT
HETATM    1  C   UNL     1     -10.129  19.581  68.583  1.00  0.00    -0.442 C  
HETATM    2  N   UNL     1     -10.599  18.237  68.895  1.00  0.00    -0.334 NA 
HETATM    3  H   UNL     1     -11.507  18.272  69.358  1.00  0.00     0.000 HD 
ENDROOT
BRANCH   2   4
HETATM    4  C   UNL     1     -10.645  17.335  67.728  1.00  0.00    -0.367 C  
HETATM    5  C   UNL     1     -10.066  18.001  66.475  1.00  0.00    -0.379 C  
BRANCH   4   6
HETATM    6  C   UNL     1      -9.851  16.023  67.996  1.00  0.00    -0.222 C  
BRANCH   6   7
HETATM    7  C   UNL     1     -10.689  14.773  68.151  1.00  0.00    -0.247 A  
HETATM    8  C   UNL     1     -11.142  14.480  69.458  1.00  0.00    -0.285 A  
HETATM    9  C   UNL     1     -11.872  13.328  69.741  1.00  0.00    -0.394 A  
HETATM   10  C   UNL     1     -12.160  12.432  68.721  1.00  0.00    -0.158 A  
HETATM   11  C   UNL     1     -11.709  12.697  67.425  1.00  0.00    -0.432 A  
HETATM   12  C   UNL     1     -10.981  13.860  67.127  1.00  0.00    -0.291 A  
BRANCH  12  13
HETATM   13  O   UNL     1     -10.502  13.885  65.845  1.00  0.00    -0.290 OA 
HETATM   14  C   UNL     1     -11.240  14.632  64.893  1.00  0.00    -0.396 C  
ENDBRANCH  12  13
ENDBRANCH   6   7
ENDBRANCH   4   6
ENDBRANCH   2   4
TORSDOF 4
ENDMDL
MODEL      105
REMARK 921   NORMALIZED FREE ENERGY PREDICTED BY IDOCK:   -3.47 KCAL/MOL
REMARK 922        TOTAL FREE ENERGY PREDICTED BY IDOCK:   -4.52 KCAL/MOL
REMARK 923 INTER-LIGAND FREE ENERGY PREDICTED BY IDOCK:   -4.47 KCAL/MOL
REMARK 924 INTRA-LIGAND FREE ENERGY PREDICTED BY IDOCK:   -0.04 KCAL/MOL
REMARK 927      BINDING AFFINITY PREDICTED BY RF-SCORE:    0.00 PKD
ROOT
HETATM    1  C   UNL     1     -11.063  16.173  64.680  1.00  0.00    -0.296 C  
HETATM    2  N   UNL     1     -11.206  14.737  64.471  1.00  0.00    -0.617 NA 
HETATM    3  H   UNL     1     -10.316  14.263  64.619  1.00  0.00     0.000 HD 
ENDROOT
BRANCH   2   4
HETATM    4  C   UNL     1     -12.267  14.118  65.289  1.00  0.00    -0.434 C  
HETATM    5  C   UNL     1     -12.435  12.629  64.964  1.00  0.00    -0.556 C  
BRANCH   4   6
HETATM    6  C   UNL     1     -11.961  14.255  66.809  1.00  0.00    -0.462 C  
BRANCH   6   7
HETATM    7  C   UNL     1     -10.853  13.365  67.333  1.00  0.00    -0.279 A  
HETATM    8  C   UNL     1      -9.538  13.707  66.945  1.00  0.00    -0.262 A  
HETATM    9  C   UNL     1      -8.439  12.934  67.314  1.00  0.00    -0.197 A  
HETATM   10  C   UNL     1      -8.633  11.790  68.075  1.00  0.00    -0.158 A  
HETATM   11  C   UNL     1      -9.926  11.427  68.456  1.00  0.00    -0.203 A  
HETATM   12  C   UNL     1     -11.040  12.205  68.099  1.00  0.00    -0.248 A  
BRANCH  12  13
HETATM   13  O   UNL     1     -12.234  11.627  68.434  1.00  0.00    -0.498 OA 
HETATM   14  C   UNL     1     -12.344  11.080  69.738  1.00  0.00    -0.262 C  
ENDBRANCH  12  13
ENDBRANCH   6   7
ENDBRANCH   4   6
ENDBRANCH   2   4
TORSDOF 4
ENDMDL
MODEL      106
REMARK 921   NORMALIZED FREE ENERGY PREDICTED BY IDOCK:   -3.47 KCAL/MOL
REMARK 922        TOTAL FREE ENERGY PREDICTED BY IDOCK:   -4.51 KCAL/MOL
REMARK 923 INTER-LIGAND FREE ENERGY PREDICTED BY IDOCK:   -4.02 KCAL/MOL
REMARK 924 INTRA-LIGAND FREE ENERGY PREDICTED BY IDOCK:   -0.50 KCAL/MOL
REMARK 927      BINDING AFFINITY PREDICTED BY RF-SCORE:    0.00 PKD
ROOT
HETATM    1  C   UNL     1      -7.516   9.697  70.493  1.00  0.00    -0.132 C  
HETATM    2  N   UNL     1      -8.438   8.769  69.849  1.00  0.00    -0.125 NA 
HETATM    3  H   UNL     1      -7.948   8.197  69.160  1.00  0.00     0.000 HD 
ENDROOT
BRANCH   2   4
HETATM    4  C   UNL     1      -9.184   7.916  70.795  1.00  0.00    -0.157 C  
HETATM    5  C   UNL     1      -9.094   8.450  72.229  1.00  0.00    -0.313 C  
BRANCH   4   6
HETATM    6  C   UNL     1     -10.687   7.820  70.403  1.00  0.00    -0.238 C  
BRANCH   6   7
HETATM    7  C   UNL     1     -11.564   8.950  70.899  1.00  0.00    -0.331 A  
HETATM    8  C   UNL     1     -12.590   8.596  71.805  1.00  0.00    -0.396 A  
HETATM    9  C   UNL     1     -13.499   9.534  72.288  1.00  0.00    -0.521 A  
HETATM   10  C   UNL     1     -13.409  10.853  71.867  1.00  0.00    -0.429 A  
HETATM   11  C   UNL     1     -12.411  11.220  70.961  1.00  0.00    -0.503 A  
HETATM   12  C   UNL     1     -11.483  10.284  70.476  1.00  0.00    -0.343 A  
BRANCH  12  13
HETATM   13  O   UNL     1     -10.671  10.786  69.495  1.00  0.00    -0.227 OA 
HETATM   14  C   UNL     1     -11.204  10.847  68.183  1.00  0.00    -0.301 C  
ENDBRANCH  12  13
ENDBRANCH   6   7
ENDBRANCH   4   6
ENDBRANCH   2   4
TORSDOF 4
ENDMDL
MODEL      107
REMARK 921   NORMALIZED FREE ENERGY PREDICTED BY IDOCK:   -3.47 KCAL/MOL
REMARK 922        TOTAL FREE ENERGY PREDICTED BY IDOCK:   -4.51 KCAL/MOL
REMARK 923 INTER-LIGAND FREE ENERGY PREDICTED BY IDOCK:   -4.01 KCAL/MOL
REMARK 924 INTRA-LIGAND FREE ENERGY PREDICTED BY IDOCK:   -0.50 KCAL/MOL
REMARK 927      BINDING AFFINITY PREDICTED BY RF-SCORE:    0.00 PKD
ROOT
HETATM    1  C   UNL     1     -12.513  14.212  64.912  1.00  0.00    -0.401 C  
HETATM    2  N   UNL     1     -12.564  12.961  65.657  1.00  0.00    -0.553 NA 
HETATM    3  H   UNL     1     -12.485  12.164  65.025  1.00  0.00     0.000 HD 
ENDROOT
BRANCH   2   4
HETATM    4  C   UNL     1     -11.562  12.868  66.737  1.00  0.00    -0.360 C  
HETATM    5  C   UNL     1     -11.952  13.727  67.946  1.00  0.00    -0.391 C  
BRANCH   4   6
HETATM    6  C   UNL     1     -11.386  11.398  67.219  1.00  0.00    -0.347 C  
BRANCH   6   7
HETATM    7  C   UNL     1     -10.208  10.654  66.626  1.00  0.00    -0.284 A  
HETATM    8  C   UNL     1      -9.202  10.248  67.532  1.00  0.00    -0.153 A  
HETATM    9  C   UNL     1      -8.042   9.607  67.103  1.00  0.00    -0.110 A  
HETATM   10  C   UNL     1      -7.856   9.366  65.749  1.00  0.00    -0.099 A  
HETATM   11  C   UNL     1      -8.831   9.772  64.836  1.00  0.00    -0.230 A  
HETATM   12  C   UNL     1     -10.010  10.409  65.259  1.00  0.00    -0.309 A  
BRANCH  12  13
HETATM   13  O   UNL     1     -10.781  10.862  64.224  1.00  0.00    -0.353 OA 
HETATM   14  C   UNL     1     -10.160  11.716  63.279  1.00  0.00    -0.423 C  
ENDBRANCH  12  13
ENDBRANCH   6   7
ENDBRANCH   4   6
ENDBRANCH   2   4
TORSDOF 4
ENDMDL
MODEL      108
REMARK 921   NORMALIZED FREE ENERGY PREDICTED BY IDOCK:   -3.46 KCAL/MOL
REMARK 922        TOTAL FREE ENERGY PREDICTED BY IDOCK:   -4.51 KCAL/MOL
REMARK 923 INTER-LIGAND FREE ENERGY PREDICTED BY IDOCK:   -4.16 KCAL/MOL
REMARK 924 INTRA-LIGAND FREE ENERGY PREDICTED BY IDOCK:   -0.35 KCAL/MOL
REMARK 927      BINDING AFFINITY PREDICTED BY RF-SCORE:    0.00 PKD
ROOT
HETATM    1  C   UNL     1      -9.681   9.073  66.133  1.00  0.00    -0.283 C  
HETATM    2  N   UNL     1     -10.317  10.330  66.507  1.00  0.00    -0.228 NA 
HETATM    3  H   UNL     1     -11.246  10.399  66.091  1.00  0.00     0.000 HD 
ENDROOT
BRANCH   2   4
HETATM    4  C   UNL     1     -10.383  10.555  67.964  1.00  0.00    -0.181 C  
HETATM    5  C   UNL     1      -9.209  11.408  68.458  1.00  0.00    -0.174 C  
BRANCH   4   6
HETATM    6  C   UNL     1     -11.707  11.267  68.366  1.00  0.00    -0.365 C  
BRANCH   6   7
HETATM    7  C   UNL     1     -11.661  12.780  68.363  1.00  0.00    -0.365 A  
HETATM    8  C   UNL     1     -11.946  13.419  69.591  1.00  0.00    -0.386 A  
HETATM    9  C   UNL     1     -11.993  14.806  69.705  1.00  0.00    -0.360 A  
HETATM   10  C   UNL     1     -11.763  15.592  68.584  1.00  0.00    -0.363 A  
HETATM   11  C   UNL     1     -11.493  14.980  67.358  1.00  0.00    -0.326 A  
HETATM   12  C   UNL     1     -11.433  13.582  67.235  1.00  0.00    -0.339 A  
BRANCH  12  13
HETATM   13  O   UNL     1     -11.299  13.158  65.941  1.00  0.00    -0.299 OA 
HETATM   14  C   UNL     1     -12.491  12.882  65.224  1.00  0.00    -0.493 C  
ENDBRANCH  12  13
ENDBRANCH   6   7
ENDBRANCH   4   6
ENDBRANCH   2   4
TORSDOF 4
ENDMDL
MODEL      109
REMARK 921   NORMALIZED FREE ENERGY PREDICTED BY IDOCK:   -3.46 KCAL/MOL
REMARK 922        TOTAL FREE ENERGY PREDICTED BY IDOCK:   -4.50 KCAL/MOL
REMARK 923 INTER-LIGAND FREE ENERGY PREDICTED BY IDOCK:   -4.24 KCAL/MOL
REMARK 924 INTRA-LIGAND FREE ENERGY PREDICTED BY IDOCK:   -0.26 KCAL/MOL
REMARK 927      BINDING AFFINITY PREDICTED BY RF-SCORE:    0.00 PKD
ROOT
HETATM    1  C   UNL     1      -9.372  11.695  66.440  1.00  0.00    -0.213 C  
HETATM    2  N   UNL     1      -9.673  12.618  65.353  1.00  0.00    -0.451 NA 
HETATM    3  H   UNL     1     -10.240  12.160  64.640  1.00  0.00     0.000 HD 
ENDROOT
BRANCH   2   4
HETATM    4  C   UNL     1     -10.309  13.875  65.796  1.00  0.00    -0.316 C  
HETATM    5  C   UNL     1     -11.766  13.652  66.218  1.00  0.00    -0.396 C  
BRANCH   4   6
HETATM    6  C   UNL     1      -9.543  14.503  66.996  1.00  0.00    -0.250 C  
BRANCH   6   7
HETATM    7  C   UNL     1      -9.627  16.010  67.107  1.00  0.00    -0.224 A  
HETATM    8  C   UNL     1      -8.570  16.742  66.518  1.00  0.00    -0.312 A  
HETATM    9  C   UNL     1      -8.501  18.130  66.602  1.00  0.00    -0.282 A  
HETATM   10  C   UNL     1      -9.489  18.823  67.289  1.00  0.00    -0.326 A  
HETATM   11  C   UNL     1     -10.533  18.117  67.890  1.00  0.00    -0.408 A  
HETATM   12  C   UNL     1     -10.618  16.718  67.802  1.00  0.00    -0.341 A  
BRANCH  12  13
HETATM   13  O   UNL     1     -11.622  16.188  68.564  1.00  0.00    -0.377 OA 
HETATM   14  C   UNL     1     -11.325  15.908  69.922  1.00  0.00    -0.348 C  
ENDBRANCH  12  13
ENDBRANCH   6   7
ENDBRANCH   4   6
ENDBRANCH   2   4
TORSDOF 4
ENDMDL
MODEL      110
REMARK 921   NORMALIZED FREE ENERGY PREDICTED BY IDOCK:   -3.46 KCAL/MOL
REMARK 922        TOTAL FREE ENERGY PREDICTED BY IDOCK:   -4.50 KCAL/MOL
REMARK 923 INTER-LIGAND FREE ENERGY PREDICTED BY IDOCK:   -4.35 KCAL/MOL
REMARK 924 INTRA-LIGAND FREE ENERGY PREDICTED BY IDOCK:   -0.15 KCAL/MOL
REMARK 927      BINDING AFFINITY PREDICTED BY RF-SCORE:    0.00 PKD
ROOT
HETATM    1  C   UNL     1      -6.919  19.844  65.356  1.00  0.00    -0.293 C  
HETATM    2  N   UNL     1      -8.123  19.155  65.803  1.00  0.00    -0.424 NA 
HETATM    3  H   UNL     1      -7.888  18.413  66.461  1.00  0.00     0.000 HD 
ENDROOT
BRANCH   2   4
HETATM    4  C   UNL     1      -9.147  20.052  66.375  1.00  0.00    -0.336 C  
HETATM    5  C   UNL     1     -10.552  19.700  65.872  1.00  0.00    -0.566 C  
BRANCH   4   6
HETATM    6  C   UNL     1      -9.153  19.981  67.930  1.00  0.00    -0.377 C  
BRANCH   6   7
HETATM    7  C   UNL     1      -8.226  18.951  68.540  1.00  0.00    -0.388 A  
HETATM    8  C   UNL     1      -7.058  19.449  69.161  1.00  0.00    -0.384 A  
HETATM    9  C   UNL     1      -6.098  18.600  69.707  1.00  0.00    -0.248 A  
HETATM   10  C   UNL     1      -6.281  17.226  69.636  1.00  0.00    -0.232 A  
HETATM   11  C   UNL     1      -7.421  16.714  69.013  1.00  0.00    -0.232 A  
HETATM   12  C   UNL     1      -8.400  17.561  68.469  1.00  0.00    -0.274 A  
BRANCH  12  13
HETATM   13  O   UNL     1      -9.372  16.890  67.777  1.00  0.00    -0.231 OA 
HETATM   14  C   UNL     1     -10.677  16.889  68.332  1.00  0.00    -0.368 C  
ENDBRANCH  12  13
ENDBRANCH   6   7
ENDBRANCH   4   6
ENDBRANCH   2   4
TORSDOF 4
ENDMDL
MODEL      111
REMARK 921   NORMALIZED FREE ENERGY PREDICTED BY IDOCK:   -3.45 KCAL/MOL
REMARK 922        TOTAL FREE ENERGY PREDICTED BY IDOCK:   -4.50 KCAL/MOL
REMARK 923 INTER-LIGAND FREE ENERGY PREDICTED BY IDOCK:   -4.26 KCAL/MOL
REMARK 924 INTRA-LIGAND FREE ENERGY PREDICTED BY IDOCK:   -0.24 KCAL/MOL
REMARK 927      BINDING AFFINITY PREDICTED BY RF-SCORE:    0.00 PKD
ROOT
HETATM    1  C   UNL     1     -10.911   9.652  69.888  1.00  0.00    -0.256 C  
HETATM    2  N   UNL     1     -10.835  11.061  70.253  1.00  0.00    -0.396 NA 
HETATM    3  H   UNL     1     -10.159  11.548  69.665  1.00  0.00     0.000 HD 
ENDROOT
BRANCH   2   4
HETATM    4  C   UNL     1     -12.138  11.755  70.230  1.00  0.00    -0.342 C  
HETATM    5  C   UNL     1     -12.952  11.472  71.498  1.00  0.00    -0.485 C  
BRANCH   4   6
HETATM    6  C   UNL     1     -11.955  13.295  70.100  1.00  0.00    -0.388 C  
BRANCH   6   7
HETATM    7  C   UNL     1     -11.504  13.786  68.741  1.00  0.00    -0.338 A  
HETATM    8  C   UNL     1     -12.000  13.078  67.622  1.00  0.00    -0.353 A  
HETATM    9  C   UNL     1     -11.613  13.395  66.322  1.00  0.00    -0.378 A  
HETATM   10  C   UNL     1     -10.708  14.425  66.111  1.00  0.00    -0.304 A  
HETATM   11  C   UNL     1     -10.195  15.127  67.204  1.00  0.00    -0.247 A  
HETATM   12  C   UNL     1     -10.587  14.823  68.518  1.00  0.00    -0.248 A  
BRANCH  12  13
HETATM   13  O   UNL     1      -9.881  15.512  69.466  1.00  0.00    -0.255 OA 
HETATM   14  C   UNL     1      -8.475  15.588  69.297  1.00  0.00    -0.265 C  
ENDBRANCH  12  13
ENDBRANCH   6   7
ENDBRANCH   4   6
ENDBRANCH   2   4
TORSDOF 4
ENDMDL
MODEL      112
REMARK 921   NORMALIZED FREE ENERGY PREDICTED BY IDOCK:   -3.45 KCAL/MOL
REMARK 922        TOTAL FREE ENERGY PREDICTED BY IDOCK:   -4.49 KCAL/MOL
REMARK 923 INTER-LIGAND FREE ENERGY PREDICTED BY IDOCK:   -4.18 KCAL/MOL
REMARK 924 INTRA-LIGAND FREE ENERGY PREDICTED BY IDOCK:   -0.31 KCAL/MOL
REMARK 927      BINDING AFFINITY PREDICTED BY RF-SCORE:    0.00 PKD
ROOT
HETATM    1  C   UNL     1     -10.707   6.593  69.278  1.00  0.00    -0.265 C  
HETATM    2  N   UNL     1     -11.830   7.093  70.062  1.00  0.00    -0.567 NA 
HETATM    3  H   UNL     1     -12.081   6.428  70.794  1.00  0.00     0.000 HD 
ENDROOT
BRANCH   2   4
HETATM    4  C   UNL     1     -11.608   8.436  70.634  1.00  0.00    -0.191 C  
HETATM    5  C   UNL     1     -11.280   8.366  72.130  1.00  0.00    -0.431 C  
BRANCH   4   6
HETATM    6  C   UNL     1     -10.441   9.170  69.912  1.00  0.00    -0.239 C  
BRANCH   6   7
HETATM    7  C   UNL     1     -10.847  10.340  69.041  1.00  0.00    -0.265 A  
HETATM    8  C   UNL     1     -11.526  11.398  69.688  1.00  0.00    -0.380 A  
HETATM    9  C   UNL     1     -12.002  12.503  68.987  1.00  0.00    -0.280 A  
HETATM   10  C   UNL     1     -11.818  12.572  67.613  1.00  0.00    -0.381 A  
HETATM   11  C   UNL     1     -11.163  11.530  66.953  1.00  0.00    -0.363 A  
HETATM   12  C   UNL     1     -10.669  10.416  67.652  1.00  0.00    -0.286 A  
BRANCH  12  13
HETATM   13  O   UNL     1     -10.185   9.434  66.832  1.00  0.00    -0.224 OA 
HETATM   14  C   UNL     1      -9.860   9.803  65.502  1.00  0.00    -0.308 C  
ENDBRANCH  12  13
ENDBRANCH   6   7
ENDBRANCH   4   6
ENDBRANCH   2   4
TORSDOF 4
ENDMDL
MODEL      113
REMARK 921   NORMALIZED FREE ENERGY PREDICTED BY IDOCK:   -3.43 KCAL/MOL
REMARK 922        TOTAL FREE ENERGY PREDICTED BY IDOCK:   -4.47 KCAL/MOL
REMARK 923 INTER-LIGAND FREE ENERGY PREDICTED BY IDOCK:   -4.19 KCAL/MOL
REMARK 924 INTRA-LIGAND FREE ENERGY PREDICTED BY IDOCK:   -0.27 KCAL/MOL
REMARK 927      BINDING AFFINITY PREDICTED BY RF-SCORE:    0.00 PKD
ROOT
HETATM    1  C   UNL     1     -11.610  12.410  66.154  1.00  0.00    -0.396 C  
HETATM    2  N   UNL     1     -11.037  13.341  67.119  1.00  0.00    -0.279 NA 
HETATM    3  H   UNL     1     -11.426  14.275  66.990  1.00  0.00     0.000 HD 
ENDROOT
BRANCH   2   4
HETATM    4  C   UNL     1     -11.180  12.908  68.523  1.00  0.00    -0.274 C  
HETATM    5  C   UNL     1     -11.857  13.984  69.380  1.00  0.00    -0.381 C  
BRANCH   4   6
HETATM    6  C   UNL     1     -12.017  11.601  68.629  1.00  0.00    -0.311 C  
BRANCH   6   7
HETATM    7  C   UNL     1     -11.608  10.652  69.735  1.00  0.00    -0.385 A  
HETATM    8  C   UNL     1     -12.544  10.466  70.779  1.00  0.00    -0.462 A  
HETATM    9  C   UNL     1     -12.263   9.664  71.883  1.00  0.00    -0.413 A  
HETATM   10  C   UNL     1     -11.029   9.035  71.974  1.00  0.00    -0.355 A  
HETATM   11  C   UNL     1     -10.086   9.218  70.961  1.00  0.00    -0.373 A  
HETATM   12  C   UNL     1     -10.363  10.015  69.838  1.00  0.00    -0.272 A  
BRANCH  12  13
HETATM   13  O   UNL     1      -9.280  10.196  69.022  1.00  0.00    -0.163 OA 
HETATM   14  C   UNL     1      -9.218   9.408  67.845  1.00  0.00    -0.129 C  
ENDBRANCH  12  13
ENDBRANCH   6   7
ENDBRANCH   4   6
ENDBRANCH   2   4
TORSDOF 4
ENDMDL
MODEL      114
REMARK 921   NORMALIZED FREE ENERGY PREDICTED BY IDOCK:   -3.42 KCAL/MOL
REMARK 922        TOTAL FREE ENERGY PREDICTED BY IDOCK:   -4.46 KCAL/MOL
REMARK 923 INTER-LIGAND FREE ENERGY PREDICTED BY IDOCK:   -4.20 KCAL/MOL
REMARK 924 INTRA-LIGAND FREE ENERGY PREDICTED BY IDOCK:   -0.26 KCAL/MOL
REMARK 927      BINDING AFFINITY PREDICTED BY RF-SCORE:    0.00 PKD
ROOT
HETATM    1  C   UNL     1      -9.952   4.909  66.082  1.00  0.00    -0.231 C  
HETATM    2  N   UNL     1     -11.117   5.768  66.257  1.00  0.00    -0.755 NA 
HETATM    3  H   UNL     1     -11.972   5.212  66.281  1.00  0.00     0.000 HD 
ENDROOT
BRANCH   2   4
HETATM    4  C   UNL     1     -11.037   6.649  67.439  1.00  0.00    -0.320 C  
HETATM    5  C   UNL     1     -10.884   5.843  68.735  1.00  0.00    -0.353 C  
BRANCH   4   6
HETATM    6  C   UNL     1      -9.835   7.632  67.330  1.00  0.00    -0.245 C  
BRANCH   6   7
HETATM    7  C   UNL     1     -10.194   9.066  67.006  1.00  0.00    -0.336 A  
HETATM    8  C   UNL     1      -9.961   9.485  65.675  1.00  0.00    -0.269 A  
HETATM    9  C   UNL     1     -10.194  10.796  65.267  1.00  0.00    -0.351 A  
HETATM   10  C   UNL     1     -10.660  11.726  66.186  1.00  0.00    -0.301 A  
HETATM   11  C   UNL     1     -10.882  11.335  67.508  1.00  0.00    -0.292 A  
HETATM   12  C   UNL     1     -10.661  10.013  67.928  1.00  0.00    -0.250 A  
BRANCH  12  13
HETATM   13  O   UNL     1     -10.794   9.846  69.280  1.00  0.00    -0.218 OA 
HETATM   14  C   UNL     1     -11.835  10.564  69.921  1.00  0.00    -0.282 C  
ENDBRANCH  12  13
ENDBRANCH   6   7
ENDBRANCH   4   6
ENDBRANCH   2   4
TORSDOF 4
ENDMDL
MODEL      115
REMARK 921   NORMALIZED FREE ENERGY PREDICTED BY IDOCK:   -3.41 KCAL/MOL
REMARK 922        TOTAL FREE ENERGY PREDICTED BY IDOCK:   -4.45 KCAL/MOL
REMARK 923 INTER-LIGAND FREE ENERGY PREDICTED BY IDOCK:   -4.72 KCAL/MOL
REMARK 924 INTRA-LIGAND FREE ENERGY PREDICTED BY IDOCK:    0.27 KCAL/MOL
REMARK 927      BINDING AFFINITY PREDICTED BY RF-SCORE:    0.00 PKD
ROOT
HETATM    1  C   UNL     1     -12.215  12.777  63.721  1.00  0.00    -0.489 C  
HETATM    2  N   UNL     1     -12.744  13.684  64.732  1.00  0.00    -0.680 NA 
HETATM    3  H   UNL     1     -13.691  13.412  64.998  1.00  0.00     0.000 HD 
ENDROOT
BRANCH   2   4
HETATM    4  C   UNL     1     -11.886  13.813  65.926  1.00  0.00    -0.383 C  
HETATM    5  C   UNL     1     -11.344  12.453  66.382  1.00  0.00    -0.392 C  
BRANCH   4   6
HETATM    6  C   UNL     1     -10.677  14.754  65.652  1.00  0.00    -0.345 C  
BRANCH   6   7
HETATM    7  C   UNL     1     -10.486  15.877  66.650  1.00  0.00    -0.306 A  
HETATM    8  C   UNL     1      -9.531  16.863  66.310  1.00  0.00    -0.298 A  
HETATM    9  C   UNL     1      -9.222  17.914  67.169  1.00  0.00    -0.258 A  
HETATM   10  C   UNL     1      -9.858  17.999  68.400  1.00  0.00    -0.369 A  
HETATM   11  C   UNL     1     -10.794  17.028  68.761  1.00  0.00    -0.258 A  
HETATM   12  C   UNL     1     -11.120  15.970  67.897  1.00  0.00    -0.307 A  
BRANCH  12  13
HETATM   13  O   UNL     1     -11.946  15.040  68.469  1.00  0.00    -0.303 OA 
HETATM   14  C   UNL     1     -12.085  15.078  69.879  1.00  0.00    -0.334 C  
ENDBRANCH  12  13
ENDBRANCH   6   7
ENDBRANCH   4   6
ENDBRANCH   2   4
TORSDOF 4
ENDMDL
MODEL      116
REMARK 921   NORMALIZED FREE ENERGY PREDICTED BY IDOCK:   -3.41 KCAL/MOL
REMARK 922        TOTAL FREE ENERGY PREDICTED BY IDOCK:   -4.45 KCAL/MOL
REMARK 923 INTER-LIGAND FREE ENERGY PREDICTED BY IDOCK:   -4.21 KCAL/MOL
REMARK 924 INTRA-LIGAND FREE ENERGY PREDICTED BY IDOCK:   -0.24 KCAL/MOL
REMARK 927      BINDING AFFINITY PREDICTED BY RF-SCORE:    0.00 PKD
ROOT
HETATM    1  C   UNL     1      -6.926  20.123  65.402  1.00  0.00    -0.296 C  
HETATM    2  N   UNL     1      -8.064  19.270  65.723  1.00  0.00    -0.428 NA 
HETATM    3  H   UNL     1      -7.765  18.468  66.278  1.00  0.00     0.000 HD 
ENDROOT
BRANCH   2   4
HETATM    4  C   UNL     1      -9.173  19.980  66.390  1.00  0.00    -0.356 C  
HETATM    5  C   UNL     1     -10.535  19.545  65.838  1.00  0.00    -0.585 C  
BRANCH   4   6
HETATM    6  C   UNL     1      -9.163  19.724  67.925  1.00  0.00    -0.427 C  
BRANCH   6   7
HETATM    7  C   UNL     1      -8.653  18.366  68.357  1.00  0.00    -0.345 A  
HETATM    8  C   UNL     1      -9.625  17.351  68.513  1.00  0.00    -0.298 A  
HETATM    9  C   UNL     1      -9.290  16.076  68.962  1.00  0.00    -0.239 A  
HETATM   10  C   UNL     1      -7.969  15.787  69.276  1.00  0.00    -0.239 A  
HETATM   11  C   UNL     1      -6.996  16.781  69.143  1.00  0.00    -0.231 A  
HETATM   12  C   UNL     1      -7.322  18.067  68.681  1.00  0.00    -0.282 A  
BRANCH  12  13
HETATM   13  O   UNL     1      -6.276  18.946  68.749  1.00  0.00    -0.218 OA 
HETATM   14  C   UNL     1      -5.928  19.441  70.031  1.00  0.00    -0.263 C  
ENDBRANCH  12  13
ENDBRANCH   6   7
ENDBRANCH   4   6
ENDBRANCH   2   4
TORSDOF 4
ENDMDL
MODEL      117
REMARK 921   NORMALIZED FREE ENERGY PREDICTED BY IDOCK:   -3.40 KCAL/MOL
REMARK 922        TOTAL FREE ENERGY PREDICTED BY IDOCK:   -4.43 KCAL/MOL
REMARK 923 INTER-LIGAND FREE ENERGY PREDICTED BY IDOCK:   -4.15 KCAL/MOL
REMARK 924 INTRA-LIGAND FREE ENERGY PREDICTED BY IDOCK:   -0.28 KCAL/MOL
REMARK 927      BINDING AFFINITY PREDICTED BY RF-SCORE:    0.00 PKD
ROOT
HETATM    1  C   UNL     1     -10.940  11.409  66.118  1.00  0.00    -0.236 C  
HETATM    2  N   UNL     1     -11.592  11.094  67.383  1.00  0.00    -0.537 NA 
HETATM    3  H   UNL     1     -12.572  10.856  67.232  1.00  0.00     0.000 HD 
ENDROOT
BRANCH   2   4
HETATM    4  C   UNL     1     -10.914  10.036  68.158  1.00  0.00    -0.235 C  
HETATM    5  C   UNL     1      -9.687   9.492  67.417  1.00  0.00    -0.201 C  
BRANCH   4   6
HETATM    6  C   UNL     1     -10.452  10.563  69.548  1.00  0.00    -0.265 C  
BRANCH   6   7
HETATM    7  C   UNL     1     -10.695   9.628  70.713  1.00  0.00    -0.401 A  
HETATM    8  C   UNL     1     -12.042   9.450  71.104  1.00  0.00    -0.406 A  
HETATM    9  C   UNL     1     -12.392   8.662  72.197  1.00  0.00    -0.452 A  
HETATM   10  C   UNL     1     -11.397   8.038  72.936  1.00  0.00    -0.364 A  
HETATM   11  C   UNL     1     -10.059   8.213  72.576  1.00  0.00    -0.370 A  
HETATM   12  C   UNL     1      -9.696   8.997  71.468  1.00  0.00    -0.295 A  
BRANCH  12  13
HETATM   13  O   UNL     1      -8.344   9.171  71.349  1.00  0.00    -0.321 OA 
HETATM   14  C   UNL     1      -7.624   8.181  70.634  1.00  0.00    -0.073 C  
ENDBRANCH  12  13
ENDBRANCH   6   7
ENDBRANCH   4   6
ENDBRANCH   2   4
TORSDOF 4
ENDMDL
MODEL      118
REMARK 921   NORMALIZED FREE ENERGY PREDICTED BY IDOCK:   -3.40 KCAL/MOL
REMARK 922        TOTAL FREE ENERGY PREDICTED BY IDOCK:   -4.43 KCAL/MOL
REMARK 923 INTER-LIGAND FREE ENERGY PREDICTED BY IDOCK:   -4.26 KCAL/MOL
REMARK 924 INTRA-LIGAND FREE ENERGY PREDICTED BY IDOCK:   -0.16 KCAL/MOL
REMARK 927      BINDING AFFINITY PREDICTED BY RF-SCORE:    0.00 PKD
ROOT
HETATM    1  C   UNL     1     -10.442  15.650  65.293  1.00  0.00    -0.412 C  
HETATM    2  N   UNL     1     -11.515  14.934  65.971  1.00  0.00    -0.318 NA 
HETATM    3  H   UNL     1     -11.759  14.086  65.460  1.00  0.00     0.000 HD 
ENDROOT
BRANCH   2   4
HETATM    4  C   UNL     1     -11.225  14.622  67.385  1.00  0.00    -0.342 C  
HETATM    5  C   UNL     1     -11.395  15.854  68.282  1.00  0.00    -0.342 C  
BRANCH   4   6
HETATM    6  C   UNL     1     -12.159  13.497  67.917  1.00  0.00    -0.304 C  
BRANCH   6   7
HETATM    7  C   UNL     1     -11.555  12.109  67.952  1.00  0.00    -0.413 A  
HETATM    8  C   UNL     1     -11.018  11.629  66.736  1.00  0.00    -0.341 A  
HETATM    9  C   UNL     1     -10.487  10.347  66.623  1.00  0.00    -0.279 A  
HETATM   10  C   UNL     1     -10.489   9.506  67.728  1.00  0.00    -0.309 A  
HETATM   11  C   UNL     1     -11.029   9.957  68.934  1.00  0.00    -0.214 A  
HETATM   12  C   UNL     1     -11.557  11.252  69.062  1.00  0.00    -0.319 A  
BRANCH  12  13
HETATM   13  O   UNL     1     -12.167  11.471  70.267  1.00  0.00    -0.330 OA 
HETATM   14  C   UNL     1     -12.995  10.436  70.770  1.00  0.00    -0.341 C  
ENDBRANCH  12  13
ENDBRANCH   6   7
ENDBRANCH   4   6
ENDBRANCH   2   4
TORSDOF 4
ENDMDL
MODEL      119
REMARK 921   NORMALIZED FREE ENERGY PREDICTED BY IDOCK:   -3.40 KCAL/MOL
REMARK 922        TOTAL FREE ENERGY PREDICTED BY IDOCK:   -4.42 KCAL/MOL
REMARK 923 INTER-LIGAND FREE ENERGY PREDICTED BY IDOCK:   -4.09 KCAL/MOL
REMARK 924 INTRA-LIGAND FREE ENERGY PREDICTED BY IDOCK:   -0.34 KCAL/MOL
REMARK 927      BINDING AFFINITY PREDICTED BY RF-SCORE:    0.00 PKD
ROOT
HETATM    1  C   UNL     1     -11.570  15.819  64.539  1.00  0.00    -0.247 C  
HETATM    2  N   UNL     1     -11.135  14.475  64.898  1.00  0.00    -0.377 NA 
HETATM    3  H   UNL     1     -10.386  14.514  65.589  1.00  0.00     0.000 HD 
ENDROOT
BRANCH   2   4
HETATM    4  C   UNL     1     -12.227  13.599  65.366  1.00  0.00    -0.444 C  
HETATM    5  C   UNL     1     -12.627  12.575  64.297  1.00  0.00    -0.485 C  
BRANCH   4   6
HETATM    6  C   UNL     1     -11.819  12.827  66.654  1.00  0.00    -0.462 C  
BRANCH   6   7
HETATM    7  C   UNL     1     -11.224  13.673  67.760  1.00  0.00    -0.310 A  
HETATM    8  C   UNL     1     -12.141  14.264  68.659  1.00  0.00    -0.295 A  
HETATM    9  C   UNL     1     -11.723  15.111  69.683  1.00  0.00    -0.353 A  
HETATM   10  C   UNL     1     -10.372  15.394  69.827  1.00  0.00    -0.296 A  
HETATM   11  C   UNL     1      -9.452  14.831  68.940  1.00  0.00    -0.191 A  
HETATM   12  C   UNL     1      -9.862  13.968  67.911  1.00  0.00    -0.233 A  
BRANCH  12  13
HETATM   13  O   UNL     1      -8.849  13.626  67.057  1.00  0.00    -0.229 OA 
HETATM   14  C   UNL     1      -7.804  12.824  67.581  1.00  0.00    -0.165 C  
ENDBRANCH  12  13
ENDBRANCH   6   7
ENDBRANCH   4   6
ENDBRANCH   2   4
TORSDOF 4
ENDMDL
MODEL      120
REMARK 921   NORMALIZED FREE ENERGY PREDICTED BY IDOCK:   -3.39 KCAL/MOL
REMARK 922        TOTAL FREE ENERGY PREDICTED BY IDOCK:   -4.42 KCAL/MOL
REMARK 923 INTER-LIGAND FREE ENERGY PREDICTED BY IDOCK:   -4.05 KCAL/MOL
REMARK 924 INTRA-LIGAND FREE ENERGY PREDICTED BY IDOCK:   -0.37 KCAL/MOL
REMARK 927      BINDING AFFINITY PREDICTED BY RF-SCORE:    0.00 PKD
ROOT
HETATM    1  C   UNL     1     -13.149  11.035  71.688  1.00  0.00    -0.438 C  
HETATM    2  N   UNL     1     -13.078   9.715  71.074  1.00  0.00    -0.533 NA 
HETATM    3  H   UNL     1     -13.243   9.777  70.070  1.00  0.00     0.000 HD 
ENDROOT
BRANCH   2   4
HETATM    4  C   UNL     1     -11.818   8.996  71.349  1.00  0.00    -0.325 C  
HETATM    5  C   UNL     1     -11.861   7.557  70.822  1.00  0.00    -0.254 C  
BRANCH   4   6
HETATM    6  C   UNL     1     -10.602   9.718  70.699  1.00  0.00    -0.382 C  
BRANCH   6   7
HETATM    7  C   UNL     1     -10.492   9.583  69.195  1.00  0.00    -0.224 A  
HETATM    8  C   UNL     1      -9.500   8.697  68.716  1.00  0.00    -0.143 A  
HETATM    9  C   UNL     1      -9.261   8.530  67.354  1.00  0.00    -0.163 A  
HETATM   10  C   UNL     1     -10.005   9.256  66.435  1.00  0.00    -0.356 A  
HETATM   11  C   UNL     1     -10.980  10.147  66.888  1.00  0.00    -0.106 A  
HETATM   12  C   UNL     1     -11.238  10.315  68.259  1.00  0.00    -0.232 A  
BRANCH  12  13
HETATM   13  O   UNL     1     -12.121  11.326  68.523  1.00  0.00    -0.573 OA 
HETATM   14  C   UNL     1     -11.793  12.616  68.035  1.00  0.00    -0.323 C  
ENDBRANCH  12  13
ENDBRANCH   6   7
ENDBRANCH   4   6
ENDBRANCH   2   4
TORSDOF 4
ENDMDL
MODEL      121
REMARK 921   NORMALIZED FREE ENERGY PREDICTED BY IDOCK:   -3.37 KCAL/MOL
REMARK 922        TOTAL FREE ENERGY PREDICTED BY IDOCK:   -4.40 KCAL/MOL
REMARK 923 INTER-LIGAND FREE ENERGY PREDICTED BY IDOCK:   -4.07 KCAL/MOL
REMARK 924 INTRA-LIGAND FREE ENERGY PREDICTED BY IDOCK:   -0.33 KCAL/MOL
REMARK 927      BINDING AFFINITY PREDICTED BY RF-SCORE:    0.00 PKD
ROOT
HETATM    1  C   UNL     1      -8.785   5.894  68.980  1.00  0.00    -0.114 C  
HETATM    2  N   UNL     1      -9.834   6.872  69.241  1.00  0.00    -0.156 NA 
HETATM    3  H   UNL     1     -10.088   6.872  70.229  1.00  0.00     0.000 HD 
ENDROOT
BRANCH   2   4
HETATM    4  C   UNL     1      -9.500   8.238  68.791  1.00  0.00    -0.148 C  
HETATM    5  C   UNL     1     -10.491   8.744  67.736  1.00  0.00    -0.292 C  
BRANCH   4   6
HETATM    6  C   UNL     1      -9.501   9.240  69.982  1.00  0.00    -0.236 C  
BRANCH   6   7
HETATM    7  C   UNL     1     -10.840   9.453  70.655  1.00  0.00    -0.346 A  
HETATM    8  C   UNL     1     -11.446  10.716  70.459  1.00  0.00    -0.407 A  
HETATM    9  C   UNL     1     -12.650  11.055  71.072  1.00  0.00    -0.512 A  
HETATM   10  C   UNL     1     -13.274  10.139  71.907  1.00  0.00    -0.557 A  
HETATM   11  C   UNL     1     -12.684   8.892  72.124  1.00  0.00    -0.470 A  
HETATM   12  C   UNL     1     -11.476   8.535  71.503  1.00  0.00    -0.287 A  
BRANCH  12  13
HETATM   13  O   UNL     1     -10.976   7.339  71.940  1.00  0.00    -0.225 OA 
HETATM   14  C   UNL     1     -11.891   6.264  72.070  1.00  0.00    -0.318 C  
ENDBRANCH  12  13
ENDBRANCH   6   7
ENDBRANCH   4   6
ENDBRANCH   2   4
TORSDOF 4
ENDMDL
MODEL      122
REMARK 921   NORMALIZED FREE ENERGY PREDICTED BY IDOCK:   -3.37 KCAL/MOL
REMARK 922        TOTAL FREE ENERGY PREDICTED BY IDOCK:   -4.39 KCAL/MOL
REMARK 923 INTER-LIGAND FREE ENERGY PREDICTED BY IDOCK:   -3.95 KCAL/MOL
REMARK 924 INTRA-LIGAND FREE ENERGY PREDICTED BY IDOCK:   -0.44 KCAL/MOL
REMARK 927      BINDING AFFINITY PREDICTED BY RF-SCORE:    0.00 PKD
ROOT
HETATM    1  C   UNL     1      -8.545   9.834  69.302  1.00  0.00    -0.158 C  
HETATM    2  N   UNL     1      -9.473  10.952  69.409  1.00  0.00    -0.423 NA 
HETATM    3  H   UNL     1      -9.067  11.795  69.004  1.00  0.00     0.000 HD 
ENDROOT
BRANCH   2   4
HETATM    4  C   UNL     1     -10.802  10.683  68.823  1.00  0.00    -0.229 C  
HETATM    5  C   UNL     1     -11.876  11.604  69.411  1.00  0.00    -0.408 C  
BRANCH   4   6
HETATM    6  C   UNL     1     -10.786  10.874  67.278  1.00  0.00    -0.342 C  
BRANCH   6   7
HETATM    7  C   UNL     1     -10.754  12.310  66.799  1.00  0.00    -0.272 A  
HETATM    8  C   UNL     1     -11.919  12.782  66.153  1.00  0.00    -0.476 A  
HETATM    9  C   UNL     1     -11.993  14.065  65.616  1.00  0.00    -0.408 A  
HETATM   10  C   UNL     1     -10.893  14.907  65.705  1.00  0.00    -0.347 A  
HETATM   11  C   UNL     1      -9.727  14.454  66.326  1.00  0.00    -0.330 A  
HETATM   12  C   UNL     1      -9.646  13.166  66.881  1.00  0.00    -0.248 A  
BRANCH  12  13
HETATM   13  O   UNL     1      -8.391  12.845  67.320  1.00  0.00    -0.178 OA 
HETATM   14  C   UNL     1      -7.428  13.885  67.344  1.00  0.00    -0.128 C  
ENDBRANCH  12  13
ENDBRANCH   6   7
ENDBRANCH   4   6
ENDBRANCH   2   4
TORSDOF 4
ENDMDL
MODEL      123
REMARK 921   NORMALIZED FREE ENERGY PREDICTED BY IDOCK:   -3.36 KCAL/MOL
REMARK 922        TOTAL FREE ENERGY PREDICTED BY IDOCK:   -4.39 KCAL/MOL
REMARK 923 INTER-LIGAND FREE ENERGY PREDICTED BY IDOCK:   -4.16 KCAL/MOL
REMARK 924 INTRA-LIGAND FREE ENERGY PREDICTED BY IDOCK:   -0.23 KCAL/MOL
REMARK 927      BINDING AFFINITY PREDICTED BY RF-SCORE:    0.00 PKD
ROOT
HETATM    1  C   UNL     1      -9.675  10.949  63.022  1.00  0.00    -0.350 C  
HETATM    2  N   UNL     1     -10.909  11.116  63.780  1.00  0.00    -0.543 NA 
HETATM    3  H   UNL     1     -10.913  10.507  64.599  1.00  0.00     0.000 HD 
ENDROOT
BRANCH   2   4
HETATM    4  C   UNL     1     -11.186  12.512  64.170  1.00  0.00    -0.382 C  
HETATM    5  C   UNL     1     -12.273  13.140  63.290  1.00  0.00    -0.438 C  
BRANCH   4   6
HETATM    6  C   UNL     1     -11.646  12.603  65.654  1.00  0.00    -0.418 C  
BRANCH   6   7
HETATM    7  C   UNL     1     -10.590  12.268  66.686  1.00  0.00    -0.257 A  
HETATM    8  C   UNL     1      -9.264  12.643  66.371  1.00  0.00    -0.162 A  
HETATM    9  C   UNL     1      -8.196  12.339  67.211  1.00  0.00    -0.182 A  
HETATM   10  C   UNL     1      -8.428  11.639  68.387  1.00  0.00    -0.157 A  
HETATM   11  C   UNL     1      -9.729  11.247  68.709  1.00  0.00    -0.184 A  
HETATM   12  C   UNL     1     -10.815  11.558  67.874  1.00  0.00    -0.210 A  
BRANCH  12  13
HETATM   13  O   UNL     1     -11.988  10.975  68.272  1.00  0.00    -0.593 OA 
HETATM   14  C   UNL     1     -12.263  10.959  69.663  1.00  0.00    -0.283 C  
ENDBRANCH  12  13
ENDBRANCH   6   7
ENDBRANCH   4   6
ENDBRANCH   2   4
TORSDOF 4
ENDMDL
MODEL      124
REMARK 921   NORMALIZED FREE ENERGY PREDICTED BY IDOCK:   -3.33 KCAL/MOL
REMARK 922        TOTAL FREE ENERGY PREDICTED BY IDOCK:   -4.34 KCAL/MOL
REMARK 923 INTER-LIGAND FREE ENERGY PREDICTED BY IDOCK:   -3.86 KCAL/MOL
REMARK 924 INTRA-LIGAND FREE ENERGY PREDICTED BY IDOCK:   -0.48 KCAL/MOL
REMARK 927      BINDING AFFINITY PREDICTED BY RF-SCORE:    0.00 PKD
ROOT
HETATM    1  C   UNL     1     -12.444  11.437  70.984  1.00  0.00    -0.383 C  
HETATM    2  N   UNL     1     -13.094  10.169  70.675  1.00  0.00    -0.585 NA 
HETATM    3  H   UNL     1     -12.737   9.787  69.799  1.00  0.00     0.000 HD 
ENDROOT
BRANCH   2   4
HETATM    4  C   UNL     1     -12.995   9.169  71.757  1.00  0.00    -0.380 C  
HETATM    5  C   UNL     1     -14.376   8.656  72.180  1.00  0.00    -0.518 C  
BRANCH   4   6
HETATM    6  C   UNL     1     -12.134   7.949  71.319  1.00  0.00    -0.317 C  
BRANCH   6   7
HETATM    7  C   UNL     1     -10.641   8.192  71.258  1.00  0.00    -0.258 A  
HETATM    8  C   UNL     1      -9.906   7.877  72.423  1.00  0.00    -0.287 A  
HETATM    9  C   UNL     1      -8.536   8.110  72.513  1.00  0.00    -0.244 A  
HETATM   10  C   UNL     1      -7.867   8.677  71.437  1.00  0.00    -0.162 A  
HETATM   11  C   UNL     1      -8.578   9.009  70.282  1.00  0.00    -0.193 A  
HETATM   12  C   UNL     1      -9.958   8.767  70.177  1.00  0.00    -0.184 A  
BRANCH  12  13
HETATM   13  O   UNL     1     -10.512   9.283  69.036  1.00  0.00    -0.210 OA 
HETATM   14  C   UNL     1      -9.639   9.941  68.133  1.00  0.00    -0.139 C  
ENDBRANCH  12  13
ENDBRANCH   6   7
ENDBRANCH   4   6
ENDBRANCH   2   4
TORSDOF 4
ENDMDL
MODEL      125
REMARK 921   NORMALIZED FREE ENERGY PREDICTED BY IDOCK:   -3.32 KCAL/MOL
REMARK 922        TOTAL FREE ENERGY PREDICTED BY IDOCK:   -4.33 KCAL/MOL
REMARK 923 INTER-LIGAND FREE ENERGY PREDICTED BY IDOCK:   -4.37 KCAL/MOL
REMARK 924 INTRA-LIGAND FREE ENERGY PREDICTED BY IDOCK:    0.04 KCAL/MOL
REMARK 927      BINDING AFFINITY PREDICTED BY RF-SCORE:    0.00 PKD
ROOT
HETATM    1  C   UNL     1     -12.998  11.051  71.621  1.00  0.00    -0.456 C  
HETATM    2  N   UNL     1     -13.074   9.787  70.900  1.00  0.00    -0.562 NA 
HETATM    3  H   UNL     1     -12.624   9.866  69.988  1.00  0.00     0.000 HD 
ENDROOT
BRANCH   2   4
HETATM    4  C   UNL     1     -12.528   8.638  71.650  1.00  0.00    -0.335 C  
HETATM    5  C   UNL     1     -13.344   7.364  71.406  1.00  0.00    -0.398 C  
BRANCH   4   6
HETATM    6  C   UNL     1     -11.050   8.356  71.253  1.00  0.00    -0.307 C  
BRANCH   6   7
HETATM    7  C   UNL     1     -10.784   8.246  69.766  1.00  0.00    -0.221 A  
HETATM    8  C   UNL     1     -10.622   9.463  69.066  1.00  0.00    -0.233 A  
HETATM    9  C   UNL     1     -10.431   9.497  67.687  1.00  0.00    -0.321 A  
HETATM   10  C   UNL     1     -10.407   8.309  66.971  1.00  0.00    -0.393 A  
HETATM   11  C   UNL     1     -10.580   7.096  67.642  1.00  0.00    -0.318 A  
HETATM   12  C   UNL     1     -10.762   7.050  69.034  1.00  0.00    -0.210 A  
BRANCH  12  13
HETATM   13  O   UNL     1     -11.056   5.797  69.499  1.00  0.00    -0.366 OA 
HETATM   14  C   UNL     1      -9.974   5.014  69.974  1.00  0.00    -0.254 C  
ENDBRANCH  12  13
ENDBRANCH   6   7
ENDBRANCH   4   6
ENDBRANCH   2   4
TORSDOF 4
ENDMDL
MODEL      126
REMARK 921   NORMALIZED FREE ENERGY PREDICTED BY IDOCK:   -3.31 KCAL/MOL
REMARK 922        TOTAL FREE ENERGY PREDICTED BY IDOCK:   -4.32 KCAL/MOL
REMARK 923 INTER-LIGAND FREE ENERGY PREDICTED BY IDOCK:   -4.08 KCAL/MOL
REMARK 924 INTRA-LIGAND FREE ENERGY PREDICTED BY IDOCK:   -0.25 KCAL/MOL
REMARK 927      BINDING AFFINITY PREDICTED BY RF-SCORE:    0.00 PKD
ROOT
HETATM    1  C   UNL     1     -10.266   3.935  64.544  1.00  0.00    -0.223 C  
HETATM    2  N   UNL     1     -11.060   4.596  65.572  1.00  0.00    -0.942 NA 
HETATM    3  H   UNL     1     -11.709   3.937  66.003  1.00  0.00     0.000 HD 
ENDROOT
BRANCH   2   4
HETATM    4  C   UNL     1     -10.253   5.278  66.603  1.00  0.00    -0.253 C  
HETATM    5  C   UNL     1      -8.813   5.511  66.131  1.00  0.00    -0.139 C  
BRANCH   4   6
HETATM    6  C   UNL     1     -10.871   6.655  66.984  1.00  0.00    -0.467 C  
BRANCH   6   7
HETATM    7  C   UNL     1     -10.726   7.055  68.437  1.00  0.00    -0.224 A  
HETATM    8  C   UNL     1     -11.180   6.119  69.394  1.00  0.00    -0.466 A  
HETATM    9  C   UNL     1     -11.155   6.393  70.759  1.00  0.00    -0.365 A  
HETATM   10  C   UNL     1     -10.682   7.620  71.201  1.00  0.00    -0.242 A  
HETATM   11  C   UNL     1     -10.242   8.565  70.271  1.00  0.00    -0.206 A  
HETATM   12  C   UNL     1     -10.253   8.294  68.893  1.00  0.00    -0.210 A  
BRANCH  12  13
HETATM   13  O   UNL     1      -9.923   9.379  68.126  1.00  0.00    -0.162 OA 
HETATM   14  C   UNL     1      -9.414  10.517  68.801  1.00  0.00    -0.180 C  
ENDBRANCH  12  13
ENDBRANCH   6   7
ENDBRANCH   4   6
ENDBRANCH   2   4
TORSDOF 4
ENDMDL
MODEL      127
REMARK 921   NORMALIZED FREE ENERGY PREDICTED BY IDOCK:   -3.31 KCAL/MOL
REMARK 922        TOTAL FREE ENERGY PREDICTED BY IDOCK:   -4.32 KCAL/MOL
REMARK 923 INTER-LIGAND FREE ENERGY PREDICTED BY IDOCK:   -4.01 KCAL/MOL
REMARK 924 INTRA-LIGAND FREE ENERGY PREDICTED BY IDOCK:   -0.31 KCAL/MOL
REMARK 927      BINDING AFFINITY PREDICTED BY RF-SCORE:    0.00 PKD
ROOT
HETATM    1  C   UNL     1      -7.527  16.909  66.273  1.00  0.00    -0.247 C  
HETATM    2  N   UNL     1      -8.958  17.174  66.195  1.00  0.00    -0.473 NA 
HETATM    3  H   UNL     1      -9.229  17.401  65.238  1.00  0.00     0.000 HD 
ENDROOT
BRANCH   2   4
HETATM    4  C   UNL     1      -9.798  16.083  66.727  1.00  0.00    -0.250 C  
HETATM    5  C   UNL     1     -10.985  16.624  67.533  1.00  0.00    -0.147 C  
BRANCH   4   6
HETATM    6  C   UNL     1     -10.353  15.187  65.581  1.00  0.00    -0.379 C  
BRANCH   6   7
HETATM    7  C   UNL     1     -10.008  13.716  65.678  1.00  0.00    -0.261 A  
HETATM    8  C   UNL     1      -9.110  13.349  66.707  1.00  0.00    -0.221 A  
HETATM    9  C   UNL     1      -8.670  12.037  66.863  1.00  0.00    -0.193 A  
HETATM   10  C   UNL     1      -9.113  11.058  65.985  1.00  0.00    -0.212 A  
HETATM   11  C   UNL     1      -9.989  11.403  64.953  1.00  0.00    -0.311 A  
HETATM   12  C   UNL     1     -10.447  12.721  64.793  1.00  0.00    -0.335 A  
BRANCH  12  13
HETATM   13  O   UNL     1     -11.182  12.903  63.653  1.00  0.00    -0.430 OA 
HETATM   14  C   UNL     1     -12.297  12.050  63.458  1.00  0.00    -0.551 C  
ENDBRANCH  12  13
ENDBRANCH   6   7
ENDBRANCH   4   6
ENDBRANCH   2   4
TORSDOF 4
ENDMDL
MODEL      128
REMARK 921   NORMALIZED FREE ENERGY PREDICTED BY IDOCK:   -3.28 KCAL/MOL
REMARK 922        TOTAL FREE ENERGY PREDICTED BY IDOCK:   -4.28 KCAL/MOL
REMARK 923 INTER-LIGAND FREE ENERGY PREDICTED BY IDOCK:   -3.98 KCAL/MOL
REMARK 924 INTRA-LIGAND FREE ENERGY PREDICTED BY IDOCK:   -0.31 KCAL/MOL
REMARK 927      BINDING AFFINITY PREDICTED BY RF-SCORE:    0.00 PKD
ROOT
HETATM    1  C   UNL     1      -8.491   8.923  65.047  1.00  0.00    -0.176 C  
HETATM    2  N   UNL     1      -9.817   8.782  65.637  1.00  0.00    -0.429 NA 
HETATM    3  H   UNL     1     -10.005   7.806  65.867  1.00  0.00     0.000 HD 
ENDROOT
BRANCH   2   4
HETATM    4  C   UNL     1     -10.043   9.646  66.812  1.00  0.00    -0.236 C  
HETATM    5  C   UNL     1      -9.476   9.019  68.091  1.00  0.00    -0.155 C  
BRANCH   4   6
HETATM    6  C   UNL     1      -9.385  11.043  66.620  1.00  0.00    -0.196 C  
BRANCH   6   7
HETATM    7  C   UNL     1     -10.343  12.215  66.579  1.00  0.00    -0.239 A  
HETATM    8  C   UNL     1     -10.395  13.022  67.739  1.00  0.00    -0.227 A  
HETATM    9  C   UNL     1     -11.278  14.094  67.848  1.00  0.00    -0.299 A  
HETATM   10  C   UNL     1     -12.140  14.379  66.798  1.00  0.00    -0.393 A  
HETATM   11  C   UNL     1     -12.114  13.584  65.650  1.00  0.00    -0.467 A  
HETATM   12  C   UNL     1     -11.221  12.508  65.525  1.00  0.00    -0.314 A  
BRANCH  12  13
HETATM   13  O   UNL     1     -11.431  11.758  64.401  1.00  0.00    -0.324 OA 
HETATM   14  C   UNL     1     -12.146  12.370  63.339  1.00  0.00    -0.524 C  
ENDBRANCH  12  13
ENDBRANCH   6   7
ENDBRANCH   4   6
ENDBRANCH   2   4
TORSDOF 4
ENDMDL
MODEL      129
REMARK 921   NORMALIZED FREE ENERGY PREDICTED BY IDOCK:   -3.27 KCAL/MOL
REMARK 922        TOTAL FREE ENERGY PREDICTED BY IDOCK:   -4.27 KCAL/MOL
REMARK 923 INTER-LIGAND FREE ENERGY PREDICTED BY IDOCK:   -3.92 KCAL/MOL
REMARK 924 INTRA-LIGAND FREE ENERGY PREDICTED BY IDOCK:   -0.35 KCAL/MOL
REMARK 927      BINDING AFFINITY PREDICTED BY RF-SCORE:    0.00 PKD
ROOT
HETATM    1  C   UNL     1     -11.277   6.249  70.125  1.00  0.00    -0.403 C  
HETATM    2  N   UNL     1     -11.402   7.554  69.488  1.00  0.00    -0.455 NA 
HETATM    3  H   UNL     1     -11.686   8.260  70.167  1.00  0.00     0.000 HD 
ENDROOT
BRANCH   2   4
HETATM    4  C   UNL     1     -10.188   7.986  68.767  1.00  0.00    -0.206 C  
HETATM    5  C   UNL     1      -9.046   6.976  68.928  1.00  0.00    -0.134 C  
BRANCH   4   6
HETATM    6  C   UNL     1     -10.468   8.169  67.247  1.00  0.00    -0.379 C  
BRANCH   6   7
HETATM    7  C   UNL     1     -10.443   9.597  66.746  1.00  0.00    -0.257 A  
HETATM    8  C   UNL     1      -9.492   9.892  65.742  1.00  0.00    -0.280 A  
HETATM    9  C   UNL     1      -9.330  11.181  65.240  1.00  0.00    -0.243 A  
HETATM   10  C   UNL     1     -10.112  12.213  65.741  1.00  0.00    -0.272 A  
HETATM   11  C   UNL     1     -11.046  11.945  66.743  1.00  0.00    -0.359 A  
HETATM   12  C   UNL     1     -11.226  10.646  67.249  1.00  0.00    -0.161 A  
BRANCH  12  13
HETATM   13  O   UNL     1     -12.077  10.595  68.319  1.00  0.00    -0.423 OA 
HETATM   14  C   UNL     1     -11.711  11.334  69.472  1.00  0.00    -0.345 C  
ENDBRANCH  12  13
ENDBRANCH   6   7
ENDBRANCH   4   6
ENDBRANCH   2   4
TORSDOF 4
ENDMDL
MODEL      130
REMARK 921   NORMALIZED FREE ENERGY PREDICTED BY IDOCK:   -3.27 KCAL/MOL
REMARK 922        TOTAL FREE ENERGY PREDICTED BY IDOCK:   -4.27 KCAL/MOL
REMARK 923 INTER-LIGAND FREE ENERGY PREDICTED BY IDOCK:   -4.10 KCAL/MOL
REMARK 924 INTRA-LIGAND FREE ENERGY PREDICTED BY IDOCK:   -0.17 KCAL/MOL
REMARK 927      BINDING AFFINITY PREDICTED BY RF-SCORE:    0.00 PKD
ROOT
HETATM    1  C   UNL     1     -11.800  14.908  64.559  1.00  0.00    -0.396 C  
HETATM    2  N   UNL     1     -10.581  15.188  65.307  1.00  0.00    -0.379 NA 
HETATM    3  H   UNL     1     -10.015  15.885  64.823  1.00  0.00     0.000 HD 
ENDROOT
BRANCH   2   4
HETATM    4  C   UNL     1     -10.819  15.592  66.707  1.00  0.00    -0.277 C  
HETATM    5  C   UNL     1     -11.653  14.552  67.462  1.00  0.00    -0.403 C  
BRANCH   4   6
HETATM    6  C   UNL     1      -9.478  15.793  67.472  1.00  0.00    -0.218 C  
BRANCH   6   7
HETATM    7  C   UNL     1      -8.615  16.938  66.986  1.00  0.00    -0.229 A  
HETATM    8  C   UNL     1      -7.257  16.637  66.736  1.00  0.00    -0.272 A  
HETATM    9  C   UNL     1      -6.348  17.616  66.342  1.00  0.00    -0.265 A  
HETATM   10  C   UNL     1      -6.776  18.928  66.197  1.00  0.00    -0.256 A  
HETATM   11  C   UNL     1      -8.111  19.248  66.454  1.00  0.00    -0.327 A  
HETATM   12  C   UNL     1      -9.038  18.267  66.841  1.00  0.00    -0.282 A  
BRANCH  12  13
HETATM   13  O   UNL     1     -10.258  18.782  67.185  1.00  0.00    -0.343 OA 
HETATM   14  C   UNL     1     -10.276  19.798  68.173  1.00  0.00    -0.452 C  
ENDBRANCH  12  13
ENDBRANCH   6   7
ENDBRANCH   4   6
ENDBRANCH   2   4
TORSDOF 4
ENDMDL
MODEL      131
REMARK 921   NORMALIZED FREE ENERGY PREDICTED BY IDOCK:   -3.26 KCAL/MOL
REMARK 922        TOTAL FREE ENERGY PREDICTED BY IDOCK:   -4.26 KCAL/MOL
REMARK 923 INTER-LIGAND FREE ENERGY PREDICTED BY IDOCK:   -4.00 KCAL/MOL
REMARK 924 INTRA-LIGAND FREE ENERGY PREDICTED BY IDOCK:   -0.27 KCAL/MOL
REMARK 927      BINDING AFFINITY PREDICTED BY RF-SCORE:    0.00 PKD
ROOT
HETATM    1  C   UNL     1      -7.861   8.936  67.061  1.00  0.00    -0.102 C  
HETATM    2  N   UNL     1      -9.285   9.094  67.328  1.00  0.00    -0.132 NA 
HETATM    3  H   UNL     1      -9.548   8.593  68.176  1.00  0.00     0.000 HD 
ENDROOT
BRANCH   2   4
HETATM    4  C   UNL     1      -9.727  10.501  67.397  1.00  0.00    -0.164 C  
HETATM    5  C   UNL     1      -9.430  11.252  66.094  1.00  0.00    -0.232 C  
BRANCH   4   6
HETATM    6  C   UNL     1     -11.254  10.599  67.680  1.00  0.00    -0.361 C  
BRANCH   6   7
HETATM    7  C   UNL     1     -11.644  11.456  68.866  1.00  0.00    -0.388 A  
HETATM    8  C   UNL     1     -12.086  10.767  70.019  1.00  0.00    -0.423 A  
HETATM    9  C   UNL     1     -12.528  11.443  71.154  1.00  0.00    -0.465 A  
HETATM   10  C   UNL     1     -12.546  12.830  71.159  1.00  0.00    -0.365 A  
HETATM   11  C   UNL     1     -12.127  13.529  70.025  1.00  0.00    -0.411 A  
HETATM   12  C   UNL     1     -11.670  12.858  68.879  1.00  0.00    -0.327 A  
BRANCH  12  13
HETATM   13  O   UNL     1     -11.436  13.692  67.820  1.00  0.00    -0.284 OA 
HETATM   14  C   UNL     1     -11.457  15.086  68.079  1.00  0.00    -0.342 C  
ENDBRANCH  12  13
ENDBRANCH   6   7
ENDBRANCH   4   6
ENDBRANCH   2   4
TORSDOF 4
ENDMDL
MODEL      132
REMARK 921   NORMALIZED FREE ENERGY PREDICTED BY IDOCK:   -3.25 KCAL/MOL
REMARK 922        TOTAL FREE ENERGY PREDICTED BY IDOCK:   -4.25 KCAL/MOL
REMARK 923 INTER-LIGAND FREE ENERGY PREDICTED BY IDOCK:   -3.86 KCAL/MOL
REMARK 924 INTRA-LIGAND FREE ENERGY PREDICTED BY IDOCK:   -0.39 KCAL/MOL
REMARK 927      BINDING AFFINITY PREDICTED BY RF-SCORE:    0.00 PKD
ROOT
HETATM    1  C   UNL     1     -11.165   6.155  70.262  1.00  0.00    -0.369 C  
HETATM    2  N   UNL     1     -11.509   7.532  69.932  1.00  0.00    -0.480 NA 
HETATM    3  H   UNL     1     -12.037   7.962  70.692  1.00  0.00     0.000 HD 
ENDROOT
BRANCH   2   4
HETATM    4  C   UNL     1     -10.347   8.368  69.570  1.00  0.00    -0.219 C  
HETATM    5  C   UNL     1      -9.096   7.518  69.321  1.00  0.00    -0.138 C  
BRANCH   4   6
HETATM    6  C   UNL     1     -10.632   9.205  68.289  1.00  0.00    -0.223 C  
BRANCH   6   7
HETATM    7  C   UNL     1     -10.906  10.676  68.519  1.00  0.00    -0.275 A  
HETATM    8  C   UNL     1     -10.008  11.583  67.912  1.00  0.00    -0.193 A  
HETATM    9  C   UNL     1     -10.118  12.960  68.096  1.00  0.00    -0.240 A  
HETATM   10  C   UNL     1     -11.129  13.463  68.903  1.00  0.00    -0.307 A  
HETATM   11  C   UNL     1     -12.018  12.582  69.523  1.00  0.00    -0.329 A  
HETATM   12  C   UNL     1     -11.922  11.193  69.336  1.00  0.00    -0.349 A  
BRANCH  12  13
HETATM   13  O   UNL     1     -12.781  10.480  70.127  1.00  0.00    -0.287 OA 
HETATM   14  C   UNL     1     -12.926  10.906  71.472  1.00  0.00    -0.451 C  
ENDBRANCH  12  13
ENDBRANCH   6   7
ENDBRANCH   4   6
ENDBRANCH   2   4
TORSDOF 4
ENDMDL
MODEL      133
REMARK 921   NORMALIZED FREE ENERGY PREDICTED BY IDOCK:   -3.25 KCAL/MOL
REMARK 922        TOTAL FREE ENERGY PREDICTED BY IDOCK:   -4.25 KCAL/MOL
REMARK 923 INTER-LIGAND FREE ENERGY PREDICTED BY IDOCK:   -4.05 KCAL/MOL
REMARK 924 INTRA-LIGAND FREE ENERGY PREDICTED BY IDOCK:   -0.19 KCAL/MOL
REMARK 927      BINDING AFFINITY PREDICTED BY RF-SCORE:    0.00 PKD
ROOT
HETATM    1  C   UNL     1     -13.025  14.941  70.513  1.00  0.00    -0.292 C  
HETATM    2  N   UNL     1     -12.514  14.970  69.149  1.00  0.00    -0.588 NA 
HETATM    3  H   UNL     1     -13.259  15.198  68.491  1.00  0.00     0.000 HD 
ENDROOT
BRANCH   2   4
HETATM    4  C   UNL     1     -11.363  15.876  68.962  1.00  0.00    -0.371 C  
HETATM    5  C   UNL     1     -10.202  15.515  69.897  1.00  0.00    -0.305 C  
BRANCH   4   6
HETATM    6  C   UNL     1     -10.842  15.831  67.496  1.00  0.00    -0.315 C  
BRANCH   6   7
HETATM    7  C   UNL     1      -9.526  16.538  67.250  1.00  0.00    -0.237 A  
HETATM    8  C   UNL     1      -8.426  15.716  66.912  1.00  0.00    -0.286 A  
HETATM    9  C   UNL     1      -7.150  16.239  66.718  1.00  0.00    -0.200 A  
HETATM   10  C   UNL     1      -6.940  17.602  66.869  1.00  0.00    -0.219 A  
HETATM   11  C   UNL     1      -8.010  18.430  67.217  1.00  0.00    -0.239 A  
HETATM   12  C   UNL     1      -9.304  17.914  67.404  1.00  0.00    -0.257 A  
BRANCH  12  13
HETATM   13  O   UNL     1     -10.192  18.841  67.877  1.00  0.00    -0.357 OA 
HETATM   14  C   UNL     1     -10.905  19.603  66.917  1.00  0.00    -0.389 C  
ENDBRANCH  12  13
ENDBRANCH   6   7
ENDBRANCH   4   6
ENDBRANCH   2   4
TORSDOF 4
ENDMDL
MODEL      134
REMARK 921   NORMALIZED FREE ENERGY PREDICTED BY IDOCK:   -3.24 KCAL/MOL
REMARK 922        TOTAL FREE ENERGY PREDICTED BY IDOCK:   -4.23 KCAL/MOL
REMARK 923 INTER-LIGAND FREE ENERGY PREDICTED BY IDOCK:   -3.83 KCAL/MOL
REMARK 924 INTRA-LIGAND FREE ENERGY PREDICTED BY IDOCK:   -0.40 KCAL/MOL
REMARK 927      BINDING AFFINITY PREDICTED BY RF-SCORE:    0.00 PKD
ROOT
HETATM    1  C   UNL     1      -8.896  15.224  68.751  1.00  0.00    -0.192 C  
HETATM    2  N   UNL     1      -7.829  14.748  67.879  1.00  0.00    -0.125 NA 
HETATM    3  H   UNL     1      -6.975  14.587  68.413  1.00  0.00     0.000 HD 
ENDROOT
BRANCH   2   4
HETATM    4  C   UNL     1      -8.188  13.548  67.098  1.00  0.00    -0.112 C  
HETATM    5  C   UNL     1      -7.289  12.356  67.447  1.00  0.00    -0.149 C  
BRANCH   4   6
HETATM    6  C   UNL     1      -9.667  13.133  67.347  1.00  0.00    -0.220 C  
BRANCH   6   7
HETATM    7  C   UNL     1     -10.503  12.917  66.103  1.00  0.00    -0.283 A  
HETATM    8  C   UNL     1     -10.344  11.673  65.450  1.00  0.00    -0.313 A  
HETATM    9  C   UNL     1     -11.012  11.376  64.265  1.00  0.00    -0.390 A  
HETATM   10  C   UNL     1     -11.851  12.324  63.697  1.00  0.00    -0.610 A  
HETATM   11  C   UNL     1     -12.011  13.564  64.319  1.00  0.00    -0.479 A  
HETATM   12  C   UNL     1     -11.350  13.870  65.521  1.00  0.00    -0.308 A  
BRANCH  12  13
HETATM   13  O   UNL     1     -11.511  15.172  65.909  1.00  0.00    -0.284 OA 
HETATM   14  C   UNL     1     -10.693  16.142  65.276  1.00  0.00    -0.368 C  
ENDBRANCH  12  13
ENDBRANCH   6   7
ENDBRANCH   4   6
ENDBRANCH   2   4
TORSDOF 4
ENDMDL
MODEL      135
REMARK 921   NORMALIZED FREE ENERGY PREDICTED BY IDOCK:   -3.22 KCAL/MOL
REMARK 922        TOTAL FREE ENERGY PREDICTED BY IDOCK:   -4.21 KCAL/MOL
REMARK 923 INTER-LIGAND FREE ENERGY PREDICTED BY IDOCK:   -3.97 KCAL/MOL
REMARK 924 INTRA-LIGAND FREE ENERGY PREDICTED BY IDOCK:   -0.25 KCAL/MOL
REMARK 927      BINDING AFFINITY PREDICTED BY RF-SCORE:    0.00 PKD
ROOT
HETATM    1  C   UNL     1      -6.945   6.880  71.809  1.00  0.00    -0.070 C  
HETATM    2  N   UNL     1      -8.348   6.579  71.553  1.00  0.00    -0.120 NA 
HETATM    3  H   UNL     1      -8.702   5.912  72.239  1.00  0.00     0.000 HD 
ENDROOT
BRANCH   2   4
HETATM    4  C   UNL     1      -9.214   7.773  71.495  1.00  0.00    -0.137 C  
HETATM    5  C   UNL     1      -8.441   9.010  71.025  1.00  0.00    -0.254 C  
BRANCH   4   6
HETATM    6  C   UNL     1     -10.415   7.551  70.530  1.00  0.00    -0.224 C  
BRANCH   6   7
HETATM    7  C   UNL     1     -11.771   7.952  71.074  1.00  0.00    -0.293 A  
HETATM    8  C   UNL     1     -12.706   6.908  71.259  1.00  0.00    -0.368 A  
HETATM    9  C   UNL     1     -14.005   7.155  71.697  1.00  0.00    -0.438 A  
HETATM   10  C   UNL     1     -14.404   8.459  71.953  1.00  0.00    -0.561 A  
HETATM   11  C   UNL     1     -13.499   9.506  71.762  1.00  0.00    -0.480 A  
HETATM   12  C   UNL     1     -12.184   9.267  71.331  1.00  0.00    -0.349 A  
BRANCH  12  13
HETATM   13  O   UNL     1     -11.486  10.414  71.063  1.00  0.00    -0.328 OA 
HETATM   14  C   UNL     1     -11.769  11.073  69.841  1.00  0.00    -0.346 C  
ENDBRANCH  12  13
ENDBRANCH   6   7
ENDBRANCH   4   6
ENDBRANCH   2   4
TORSDOF 4
ENDMDL
MODEL      136
REMARK 921   NORMALIZED FREE ENERGY PREDICTED BY IDOCK:   -3.22 KCAL/MOL
REMARK 922        TOTAL FREE ENERGY PREDICTED BY IDOCK:   -4.21 KCAL/MOL
REMARK 923 INTER-LIGAND FREE ENERGY PREDICTED BY IDOCK:   -3.92 KCAL/MOL
REMARK 924 INTRA-LIGAND FREE ENERGY PREDICTED BY IDOCK:   -0.29 KCAL/MOL
REMARK 927      BINDING AFFINITY PREDICTED BY RF-SCORE:    0.00 PKD
ROOT
HETATM    1  C   UNL     1     -10.312   9.702  67.025  1.00  0.00    -0.248 C  
HETATM    2  N   UNL     1     -10.831   8.728  67.977  1.00  0.00    -0.476 NA 
HETATM    3  H   UNL     1     -11.799   8.492  67.756  1.00  0.00     0.000 HD 
ENDROOT
BRANCH   2   4
HETATM    4  C   UNL     1     -10.011   7.506  68.089  1.00  0.00    -0.172 C  
HETATM    5  C   UNL     1      -8.845   7.696  69.067  1.00  0.00    -0.135 C  
BRANCH   4   6
HETATM    6  C   UNL     1     -10.863   6.297  68.573  1.00  0.00    -0.394 C  
BRANCH   6   7
HETATM    7  C   UNL     1     -10.805   6.011  70.058  1.00  0.00    -0.429 A  
HETATM    8  C   UNL     1     -10.068   4.869  70.448  1.00  0.00    -0.316 A  
HETATM    9  C   UNL     1      -9.987   4.466  71.779  1.00  0.00    -0.257 A  
HETATM   10  C   UNL     1     -10.654   5.194  72.755  1.00  0.00    -0.278 A  
HETATM   11  C   UNL     1     -11.400   6.317  72.388  1.00  0.00    -0.333 A  
HETATM   12  C   UNL     1     -11.478   6.738  71.050  1.00  0.00    -0.324 A  
BRANCH  12  13
HETATM   13  O   UNL     1     -12.361   7.765  70.858  1.00  0.00    -0.230 OA 
HETATM   14  C   UNL     1     -12.044   9.012  71.453  1.00  0.00    -0.327 C  
ENDBRANCH  12  13
ENDBRANCH   6   7
ENDBRANCH   4   6
ENDBRANCH   2   4
TORSDOF 4
ENDMDL
MODEL      137
REMARK 921   NORMALIZED FREE ENERGY PREDICTED BY IDOCK:   -3.20 KCAL/MOL
REMARK 922        TOTAL FREE ENERGY PREDICTED BY IDOCK:   -4.18 KCAL/MOL
REMARK 923 INTER-LIGAND FREE ENERGY PREDICTED BY IDOCK:   -3.76 KCAL/MOL
REMARK 924 INTRA-LIGAND FREE ENERGY PREDICTED BY IDOCK:   -0.42 KCAL/MOL
REMARK 927      BINDING AFFINITY PREDICTED BY RF-SCORE:    0.00 PKD
ROOT
HETATM    1  C   UNL     1     -12.419  15.161  64.359  1.00  0.00    -0.089 C  
HETATM    2  N   UNL     1     -11.664  14.099  63.706  1.00  0.00    -0.628 NA 
HETATM    3  H   UNL     1     -10.663  14.290  63.753  1.00  0.00     0.000 HD 
ENDROOT
BRANCH   2   4
HETATM    4  C   UNL     1     -11.961  12.750  64.225  1.00  0.00    -0.405 C  
HETATM    5  C   UNL     1     -12.902  11.979  63.292  1.00  0.00    -0.330 C  
BRANCH   4   6
HETATM    6  C   UNL     1     -10.659  11.915  64.405  1.00  0.00    -0.366 C  
BRANCH   6   7
HETATM    7  C   UNL     1     -10.149  11.800  65.826  1.00  0.00    -0.270 A  
HETATM    8  C   UNL     1     -10.199  10.513  66.407  1.00  0.00    -0.296 A  
HETATM    9  C   UNL     1      -9.814  10.288  67.727  1.00  0.00    -0.195 A  
HETATM   10  C   UNL     1      -9.376  11.352  68.502  1.00  0.00    -0.180 A  
HETATM   11  C   UNL     1      -9.334  12.634  67.951  1.00  0.00    -0.204 A  
HETATM   12  C   UNL     1      -9.710  12.871  66.618  1.00  0.00    -0.254 A  
BRANCH  12  13
HETATM   13  O   UNL     1      -9.740  14.199  66.292  1.00  0.00    -0.284 OA 
HETATM   14  C   UNL     1      -8.698  15.015  66.802  1.00  0.00    -0.260 C  
ENDBRANCH  12  13
ENDBRANCH   6   7
ENDBRANCH   4   6
ENDBRANCH   2   4
TORSDOF 4
ENDMDL
MODEL      138
REMARK 921   NORMALIZED FREE ENERGY PREDICTED BY IDOCK:   -3.20 KCAL/MOL
REMARK 922        TOTAL FREE ENERGY PREDICTED BY IDOCK:   -4.18 KCAL/MOL
REMARK 923 INTER-LIGAND FREE ENERGY PREDICTED BY IDOCK:   -4.25 KCAL/MOL
REMARK 924 INTRA-LIGAND FREE ENERGY PREDICTED BY IDOCK:    0.07 KCAL/MOL
REMARK 927      BINDING AFFINITY PREDICTED BY RF-SCORE:    0.00 PKD
ROOT
HETATM    1  C   UNL     1     -12.784  13.796  65.430  1.00  0.00    -0.472 C  
HETATM    2  N   UNL     1     -11.566  13.134  65.880  1.00  0.00    -0.338 NA 
HETATM    3  H   UNL     1     -11.462  12.227  65.426  1.00  0.00     0.000 HD 
ENDROOT
BRANCH   2   4
HETATM    4  C   UNL     1     -10.346  13.947  65.704  1.00  0.00    -0.325 C  
HETATM    5  C   UNL     1     -10.674  15.359  65.205  1.00  0.00    -0.439 C  
BRANCH   4   6
HETATM    6  C   UNL     1      -9.554  14.071  67.038  1.00  0.00    -0.253 C  
BRANCH   6   7
HETATM    7  C   UNL     1     -10.364  14.513  68.239  1.00  0.00    -0.236 A  
HETATM    8  C   UNL     1     -11.176  13.527  68.845  1.00  0.00    -0.316 A  
HETATM    9  C   UNL     1     -12.011  13.822  69.919  1.00  0.00    -0.412 A  
HETATM   10  C   UNL     1     -12.062  15.120  70.409  1.00  0.00    -0.373 A  
HETATM   11  C   UNL     1     -11.279  16.111  69.815  1.00  0.00    -0.343 A  
HETATM   12  C   UNL     1     -10.424  15.822  68.738  1.00  0.00    -0.228 A  
BRANCH  12  13
HETATM   13  O   UNL     1      -9.844  16.935  68.194  1.00  0.00    -0.248 OA 
HETATM   14  C   UNL     1      -8.499  17.204  68.552  1.00  0.00    -0.262 C  
ENDBRANCH  12  13
ENDBRANCH   6   7
ENDBRANCH   4   6
ENDBRANCH   2   4
TORSDOF 4
ENDMDL
MODEL      139
REMARK 921   NORMALIZED FREE ENERGY PREDICTED BY IDOCK:   -3.19 KCAL/MOL
REMARK 922        TOTAL FREE ENERGY PREDICTED BY IDOCK:   -4.18 KCAL/MOL
REMARK 923 INTER-LIGAND FREE ENERGY PREDICTED BY IDOCK:   -4.09 KCAL/MOL
REMARK 924 INTRA-LIGAND FREE ENERGY PREDICTED BY IDOCK:   -0.09 KCAL/MOL
REMARK 927      BINDING AFFINITY PREDICTED BY RF-SCORE:    0.00 PKD
ROOT
HETATM    1  C   UNL     1      -7.777   7.313  70.974  1.00  0.00    -0.089 C  
HETATM    2  N   UNL     1      -8.603   7.198  69.779  1.00  0.00    -0.140 NA 
HETATM    3  H   UNL     1      -9.400   6.586  69.952  1.00  0.00     0.000 HD 
ENDROOT
BRANCH   2   4
HETATM    4  C   UNL     1      -9.052   8.495  69.237  1.00  0.00    -0.153 C  
HETATM    5  C   UNL     1     -10.374   8.361  68.472  1.00  0.00    -0.232 C  
BRANCH   4   6
HETATM    6  C   UNL     1      -9.248   9.543  70.371  1.00  0.00    -0.305 C  
BRANCH   6   7
HETATM    7  C   UNL     1     -10.666   9.698  70.878  1.00  0.00    -0.402 A  
HETATM    8  C   UNL     1     -11.118   8.712  71.786  1.00  0.00    -0.396 A  
HETATM    9  C   UNL     1     -12.421   8.710  72.279  1.00  0.00    -0.460 A  
HETATM   10  C   UNL     1     -13.309   9.693  71.867  1.00  0.00    -0.526 A  
HETATM   11  C   UNL     1     -12.887  10.667  70.960  1.00  0.00    -0.496 A  
HETATM   12  C   UNL     1     -11.572  10.685  70.465  1.00  0.00    -0.350 A  
BRANCH  12  13
HETATM   13  O   UNL     1     -11.376  11.619  69.485  1.00  0.00    -0.258 OA 
HETATM   14  C   UNL     1     -11.762  12.952  69.775  1.00  0.00    -0.281 C  
ENDBRANCH  12  13
ENDBRANCH   6   7
ENDBRANCH   4   6
ENDBRANCH   2   4
TORSDOF 4
ENDMDL
MODEL      140
REMARK 921   NORMALIZED FREE ENERGY PREDICTED BY IDOCK:   -3.19 KCAL/MOL
REMARK 922        TOTAL FREE ENERGY PREDICTED BY IDOCK:   -4.17 KCAL/MOL
REMARK 923 INTER-LIGAND FREE ENERGY PREDICTED BY IDOCK:   -3.84 KCAL/MOL
REMARK 924 INTRA-LIGAND FREE ENERGY PREDICTED BY IDOCK:   -0.33 KCAL/MOL
REMARK 927      BINDING AFFINITY PREDICTED BY RF-SCORE:    0.00 PKD
ROOT
HETATM    1  C   UNL     1      -7.920  16.574  66.375  1.00  0.00    -0.317 C  
HETATM    2  N   UNL     1      -9.311  16.979  66.535  1.00  0.00    -0.258 NA 
HETATM    3  H   UNL     1      -9.821  16.865  65.659  1.00  0.00     0.000 HD 
ENDROOT
BRANCH   2   4
HETATM    4  C   UNL     1     -10.010  16.290  67.638  1.00  0.00    -0.247 C  
HETATM    5  C   UNL     1     -10.509  17.280  68.697  1.00  0.00    -0.356 C  
BRANCH   4   6
HETATM    6  C   UNL     1     -11.231  15.480  67.112  1.00  0.00    -0.204 C  
BRANCH   6   7
HETATM    7  C   UNL     1     -11.160  13.983  67.323  1.00  0.00    -0.314 A  
HETATM    8  C   UNL     1     -10.536  13.234  66.299  1.00  0.00    -0.289 A  
HETATM    9  C   UNL     1     -10.459  11.844  66.348  1.00  0.00    -0.258 A  
HETATM   10  C   UNL     1     -11.017  11.166  67.423  1.00  0.00    -0.347 A  
HETATM   11  C   UNL     1     -11.651  11.887  68.437  1.00  0.00    -0.376 A  
HETATM   12  C   UNL     1     -11.724  13.289  68.404  1.00  0.00    -0.354 A  
BRANCH  12  13
HETATM   13  O   UNL     1     -12.500  13.815  69.401  1.00  0.00    -0.255 OA 
HETATM   14  C   UNL     1     -11.844  14.198  70.598  1.00  0.00    -0.263 C  
ENDBRANCH  12  13
ENDBRANCH   6   7
ENDBRANCH   4   6
ENDBRANCH   2   4
TORSDOF 4
ENDMDL
MODEL      141
REMARK 921   NORMALIZED FREE ENERGY PREDICTED BY IDOCK:   -3.18 KCAL/MOL
REMARK 922        TOTAL FREE ENERGY PREDICTED BY IDOCK:   -4.16 KCAL/MOL
REMARK 923 INTER-LIGAND FREE ENERGY PREDICTED BY IDOCK:   -3.97 KCAL/MOL
REMARK 924 INTRA-LIGAND FREE ENERGY PREDICTED BY IDOCK:   -0.19 KCAL/MOL
REMARK 927      BINDING AFFINITY PREDICTED BY RF-SCORE:    0.00 PKD
ROOT
HETATM    1  C   UNL     1     -12.393  11.857  63.265  1.00  0.00    -0.391 C  
HETATM    2  N   UNL     1     -11.168  12.593  63.554  1.00  0.00    -0.530 NA 
HETATM    3  H   UNL     1     -10.838  13.081  62.721  1.00  0.00     0.000 HD 
ENDROOT
BRANCH   2   4
HETATM    4  C   UNL     1     -11.286  13.526  64.691  1.00  0.00    -0.363 C  
HETATM    5  C   UNL     1     -12.615  13.348  65.434  1.00  0.00    -0.528 C  
BRANCH   4   6
HETATM    6  C   UNL     1     -10.126  13.324  65.709  1.00  0.00    -0.293 C  
BRANCH   6   7
HETATM    7  C   UNL     1      -9.556  14.592  66.309  1.00  0.00    -0.333 A  
HETATM    8  C   UNL     1     -10.141  15.806  65.881  1.00  0.00    -0.381 A  
HETATM    9  C   UNL     1      -9.668  17.042  66.315  1.00  0.00    -0.302 A  
HETATM   10  C   UNL     1      -8.588  17.094  67.184  1.00  0.00    -0.221 A  
HETATM   11  C   UNL     1      -7.987  15.907  67.608  1.00  0.00    -0.163 A  
HETATM   12  C   UNL     1      -8.463  14.654  67.185  1.00  0.00    -0.221 A  
BRANCH  12  13
HETATM   13  O   UNL     1      -7.671  13.612  67.584  1.00  0.00    -0.148 OA 
HETATM   14  C   UNL     1      -6.280  13.864  67.699  1.00  0.00    -0.095 C  
ENDBRANCH  12  13
ENDBRANCH   6   7
ENDBRANCH   4   6
ENDBRANCH   2   4
TORSDOF 4
ENDMDL
MODEL      142
REMARK 921   NORMALIZED FREE ENERGY PREDICTED BY IDOCK:   -3.18 KCAL/MOL
REMARK 922        TOTAL FREE ENERGY PREDICTED BY IDOCK:   -4.15 KCAL/MOL
REMARK 923 INTER-LIGAND FREE ENERGY PREDICTED BY IDOCK:   -3.84 KCAL/MOL
REMARK 924 INTRA-LIGAND FREE ENERGY PREDICTED BY IDOCK:   -0.32 KCAL/MOL
REMARK 927      BINDING AFFINITY PREDICTED BY RF-SCORE:    0.00 PKD
ROOT
HETATM    1  C   UNL     1      -9.400   4.066  68.803  1.00  0.00    -0.163 C  
HETATM    2  N   UNL     1     -10.012   4.949  67.817  1.00  0.00    -0.152 NA 
HETATM    3  H   UNL     1     -10.851   4.521  67.425  1.00  0.00     0.000 HD 
ENDROOT
BRANCH   2   4
HETATM    4  C   UNL     1     -10.309   6.301  68.330  1.00  0.00    -0.200 C  
HETATM    5  C   UNL     1     -10.690   7.263  67.200  1.00  0.00    -0.413 C  
BRANCH   4   6
HETATM    6  C   UNL     1     -11.476   6.270  69.360  1.00  0.00    -0.348 C  
BRANCH   6   7
HETATM    7  C   UNL     1     -11.112   6.680  70.771  1.00  0.00    -0.336 A  
HETATM    8  C   UNL     1     -11.091   5.649  71.738  1.00  0.00    -0.265 A  
HETATM    9  C   UNL     1     -10.828   5.907  73.081  1.00  0.00    -0.296 A  
HETATM   10  C   UNL     1     -10.589   7.210  73.492  1.00  0.00    -0.416 A  
HETATM   11  C   UNL     1     -10.620   8.245  72.555  1.00  0.00    -0.407 A  
HETATM   12  C   UNL     1     -10.873   7.995  71.196  1.00  0.00    -0.238 A  
BRANCH  12  13
HETATM   13  O   UNL     1     -11.005   9.135  70.451  1.00  0.00    -0.231 OA 
HETATM   14  C   UNL     1     -11.904  10.120  70.931  1.00  0.00    -0.374 C  
ENDBRANCH  12  13
ENDBRANCH   6   7
ENDBRANCH   4   6
ENDBRANCH   2   4
TORSDOF 4
ENDMDL
MODEL      143
REMARK 921   NORMALIZED FREE ENERGY PREDICTED BY IDOCK:   -3.16 KCAL/MOL
REMARK 922        TOTAL FREE ENERGY PREDICTED BY IDOCK:   -4.14 KCAL/MOL
REMARK 923 INTER-LIGAND FREE ENERGY PREDICTED BY IDOCK:   -3.85 KCAL/MOL
REMARK 924 INTRA-LIGAND FREE ENERGY PREDICTED BY IDOCK:   -0.29 KCAL/MOL
REMARK 927      BINDING AFFINITY PREDICTED BY RF-SCORE:    0.00 PKD
ROOT
HETATM    1  C   UNL     1      -7.728   5.505  73.573  1.00  0.00    -0.099 C  
HETATM    2  N   UNL     1      -9.118   5.563  74.008  1.00  0.00    -0.125 NA 
HETATM    3  H   UNL     1      -9.198   6.080  74.884  1.00  0.00     0.000 HD 
ENDROOT
BRANCH   2   4
HETATM    4  C   UNL     1     -10.039   6.112  72.994  1.00  0.00    -0.183 C  
HETATM    5  C   UNL     1     -11.399   5.406  73.024  1.00  0.00    -0.355 C  
BRANCH   4   6
HETATM    6  C   UNL     1     -10.274   7.636  73.212  1.00  0.00    -0.398 C  
BRANCH   6   7
HETATM    7  C   UNL     1     -10.157   8.497  71.973  1.00  0.00    -0.386 A  
HETATM    8  C   UNL     1      -8.867   8.609  71.406  1.00  0.00    -0.276 A  
HETATM    9  C   UNL     1      -8.618   9.419  70.301  1.00  0.00    -0.249 A  
HETATM   10  C   UNL     1      -9.658  10.146  69.738  1.00  0.00    -0.213 A  
HETATM   11  C   UNL     1     -10.937  10.060  70.292  1.00  0.00    -0.377 A  
HETATM   12  C   UNL     1     -11.201   9.239  71.400  1.00  0.00    -0.362 A  
BRANCH  12  13
HETATM   13  O   UNL     1     -12.469   9.387  71.893  1.00  0.00    -0.360 OA 
HETATM   14  C   UNL     1     -13.040  10.683  71.830  1.00  0.00    -0.466 C  
ENDBRANCH  12  13
ENDBRANCH   6   7
ENDBRANCH   4   6
ENDBRANCH   2   4
TORSDOF 4
ENDMDL
MODEL      144
REMARK 921   NORMALIZED FREE ENERGY PREDICTED BY IDOCK:   -3.15 KCAL/MOL
REMARK 922        TOTAL FREE ENERGY PREDICTED BY IDOCK:   -4.12 KCAL/MOL
REMARK 923 INTER-LIGAND FREE ENERGY PREDICTED BY IDOCK:   -3.80 KCAL/MOL
REMARK 924 INTRA-LIGAND FREE ENERGY PREDICTED BY IDOCK:   -0.33 KCAL/MOL
REMARK 927      BINDING AFFINITY PREDICTED BY RF-SCORE:    0.00 PKD
ROOT
HETATM    1  C   UNL     1     -11.150   6.156  69.473  1.00  0.00    -0.420 C  
HETATM    2  N   UNL     1     -11.929   7.077  70.293  1.00  0.00    -0.597 NA 
HETATM    3  H   UNL     1     -12.037   6.711  71.239  1.00  0.00     0.000 HD 
ENDROOT
BRANCH   2   4
HETATM    4  C   UNL     1     -11.388   8.450  70.326  1.00  0.00    -0.129 C  
HETATM    5  C   UNL     1     -11.099   8.909  71.760  1.00  0.00    -0.433 C  
BRANCH   4   6
HETATM    6  C   UNL     1     -10.071   8.558  69.503  1.00  0.00    -0.200 C  
BRANCH   6   7
HETATM    7  C   UNL     1     -10.143   9.432  68.269  1.00  0.00    -0.210 A  
HETATM    8  C   UNL     1      -9.849   8.802  67.038  1.00  0.00    -0.279 A  
HETATM    9  C   UNL     1      -9.824   9.511  65.839  1.00  0.00    -0.360 A  
HETATM   10  C   UNL     1     -10.084  10.874  65.845  1.00  0.00    -0.307 A  
HETATM   11  C   UNL     1     -10.361  11.517  67.053  1.00  0.00    -0.254 A  
HETATM   12  C   UNL     1     -10.400  10.810  68.266  1.00  0.00    -0.173 A  
BRANCH  12  13
HETATM   13  O   UNL     1     -10.546  11.620  69.359  1.00  0.00    -0.112 OA 
HETATM   14  C   UNL     1     -11.832  12.171  69.589  1.00  0.00    -0.322 C  
ENDBRANCH  12  13
ENDBRANCH   6   7
ENDBRANCH   4   6
ENDBRANCH   2   4
TORSDOF 4
ENDMDL
MODEL      145
REMARK 921   NORMALIZED FREE ENERGY PREDICTED BY IDOCK:   -3.15 KCAL/MOL
REMARK 922        TOTAL FREE ENERGY PREDICTED BY IDOCK:   -4.12 KCAL/MOL
REMARK 923 INTER-LIGAND FREE ENERGY PREDICTED BY IDOCK:   -3.82 KCAL/MOL
REMARK 924 INTRA-LIGAND FREE ENERGY PREDICTED BY IDOCK:   -0.30 KCAL/MOL
REMARK 927      BINDING AFFINITY PREDICTED BY RF-SCORE:    0.00 PKD
ROOT
HETATM    1  C   UNL     1     -13.670   7.396  71.544  1.00  0.00    -0.371 C  
HETATM    2  N   UNL     1     -12.567   7.573  70.607  1.00  0.00    -0.544 NA 
HETATM    3  H   UNL     1     -12.884   8.056  69.767  1.00  0.00     0.000 HD 
ENDROOT
BRANCH   2   4
HETATM    4  C   UNL     1     -11.394   8.256  71.188  1.00  0.00    -0.263 C  
HETATM    5  C   UNL     1     -11.345   9.734  70.787  1.00  0.00    -0.416 C  
BRANCH   4   6
HETATM    6  C   UNL     1     -11.405   8.171  72.742  1.00  0.00    -0.406 C  
BRANCH   6   7
HETATM    7  C   UNL     1     -10.190   7.520  73.368  1.00  0.00    -0.399 A  
HETATM    8  C   UNL     1      -8.990   8.268  73.334  1.00  0.00    -0.260 A  
HETATM    9  C   UNL     1      -7.791   7.755  73.824  1.00  0.00    -0.207 A  
HETATM   10  C   UNL     1      -7.762   6.473  74.354  1.00  0.00    -0.100 A  
HETATM   11  C   UNL     1      -8.933   5.713  74.384  1.00  0.00    -0.122 A  
HETATM   12  C   UNL     1     -10.150   6.224  73.903  1.00  0.00    -0.270 A  
BRANCH  12  13
HETATM   13  O   UNL     1     -11.155   5.296  73.880  1.00  0.00    -0.231 OA 
HETATM   14  C   UNL     1     -10.839   4.012  73.369  1.00  0.00    -0.236 C  
ENDBRANCH  12  13
ENDBRANCH   6   7
ENDBRANCH   4   6
ENDBRANCH   2   4
TORSDOF 4
ENDMDL
MODEL      146
REMARK 921   NORMALIZED FREE ENERGY PREDICTED BY IDOCK:   -3.15 KCAL/MOL
REMARK 922        TOTAL FREE ENERGY PREDICTED BY IDOCK:   -4.12 KCAL/MOL
REMARK 923 INTER-LIGAND FREE ENERGY PREDICTED BY IDOCK:   -3.86 KCAL/MOL
REMARK 924 INTRA-LIGAND FREE ENERGY PREDICTED BY IDOCK:   -0.26 KCAL/MOL
REMARK 927      BINDING AFFINITY PREDICTED BY RF-SCORE:    0.00 PKD
ROOT
HETATM    1  C   UNL     1     -14.256   7.770  71.601  1.00  0.00    -0.457 C  
HETATM    2  N   UNL     1     -13.047   7.506  70.831  1.00  0.00    -0.589 NA 
HETATM    3  H   UNL     1     -13.192   7.731  69.847  1.00  0.00     0.000 HD 
ENDROOT
BRANCH   2   4
HETATM    4  C   UNL     1     -11.848   8.194  71.349  1.00  0.00    -0.295 C  
HETATM    5  C   UNL     1     -12.030   9.716  71.362  1.00  0.00    -0.480 C  
BRANCH   4   6
HETATM    6  C   UNL     1     -11.512   7.730  72.796  1.00  0.00    -0.415 C  
BRANCH   6   7
HETATM    7  C   UNL     1     -10.663   6.481  72.900  1.00  0.00    -0.280 A  
HETATM    8  C   UNL     1     -11.360   5.254  72.994  1.00  0.00    -0.376 A  
HETATM    9  C   UNL     1     -10.694   4.041  73.153  1.00  0.00    -0.272 A  
HETATM   10  C   UNL     1      -9.308   4.028  73.232  1.00  0.00    -0.127 A  
HETATM   11  C   UNL     1      -8.602   5.230  73.156  1.00  0.00    -0.117 A  
HETATM   12  C   UNL     1      -9.263   6.458  72.985  1.00  0.00    -0.132 A  
BRANCH  12  13
HETATM   13  O   UNL     1      -8.429   7.539  73.074  1.00  0.00    -0.116 OA 
HETATM   14  C   UNL     1      -7.892   7.838  74.351  1.00  0.00    -0.205 C  
ENDBRANCH  12  13
ENDBRANCH   6   7
ENDBRANCH   4   6
ENDBRANCH   2   4
TORSDOF 4
ENDMDL
MODEL      147
REMARK 921   NORMALIZED FREE ENERGY PREDICTED BY IDOCK:   -3.14 KCAL/MOL
REMARK 922        TOTAL FREE ENERGY PREDICTED BY IDOCK:   -4.11 KCAL/MOL
REMARK 923 INTER-LIGAND FREE ENERGY PREDICTED BY IDOCK:   -3.64 KCAL/MOL
REMARK 924 INTRA-LIGAND FREE ENERGY PREDICTED BY IDOCK:   -0.47 KCAL/MOL
REMARK 927      BINDING AFFINITY PREDICTED BY RF-SCORE:    0.00 PKD
ROOT
HETATM    1  C   UNL     1      -7.304  12.033  66.958  1.00  0.00    -0.097 C  
HETATM    2  N   UNL     1      -8.569  11.785  66.277  1.00  0.00    -0.353 NA 
HETATM    3  H   UNL     1      -8.406  11.384  65.354  1.00  0.00     0.000 HD 
ENDROOT
BRANCH   2   4
HETATM    4  C   UNL     1      -9.508  10.948  67.049  1.00  0.00    -0.164 C  
HETATM    5  C   UNL     1      -9.062  10.794  68.508  1.00  0.00    -0.170 C  
BRANCH   4   6
HETATM    6  C   UNL     1     -10.943  11.552  67.038  1.00  0.00    -0.347 C  
BRANCH   6   7
HETATM    7  C   UNL     1     -11.131  12.799  67.876  1.00  0.00    -0.281 A  
HETATM    8  C   UNL     1     -11.863  12.643  69.076  1.00  0.00    -0.341 A  
HETATM    9  C   UNL     1     -12.155  13.724  69.904  1.00  0.00    -0.412 A  
HETATM   10  C   UNL     1     -11.727  14.995  69.545  1.00  0.00    -0.350 A  
HETATM   11  C   UNL     1     -11.015  15.172  68.357  1.00  0.00    -0.271 A  
HETATM   12  C   UNL     1     -10.706  14.087  67.520  1.00  0.00    -0.268 A  
BRANCH  12  13
HETATM   13  O   UNL     1     -10.131  14.463  66.337  1.00  0.00    -0.268 OA 
HETATM   14  C   UNL     1      -9.103  15.437  66.398  1.00  0.00    -0.314 C  
ENDBRANCH  12  13
ENDBRANCH   6   7
ENDBRANCH   4   6
ENDBRANCH   2   4
TORSDOF 4
ENDMDL
MODEL      148
REMARK 921   NORMALIZED FREE ENERGY PREDICTED BY IDOCK:   -3.14 KCAL/MOL
REMARK 922        TOTAL FREE ENERGY PREDICTED BY IDOCK:   -4.10 KCAL/MOL
REMARK 923 INTER-LIGAND FREE ENERGY PREDICTED BY IDOCK:   -3.87 KCAL/MOL
REMARK 924 INTRA-LIGAND FREE ENERGY PREDICTED BY IDOCK:   -0.24 KCAL/MOL
REMARK 927      BINDING AFFINITY PREDICTED BY RF-SCORE:    0.00 PKD
ROOT
HETATM    1  C   UNL     1     -11.928  15.587  70.635  1.00  0.00    -0.378 C  
HETATM    2  N   UNL     1     -11.495  14.217  70.390  1.00  0.00    -0.474 NA 
HETATM    3  H   UNL     1     -12.254  13.562  70.576  1.00  0.00     0.000 HD 
ENDROOT
BRANCH   2   4
HETATM    4  C   UNL     1     -10.939  13.999  69.040  1.00  0.00    -0.259 C  
HETATM    5  C   UNL     1     -11.777  12.996  68.240  1.00  0.00    -0.390 C  
BRANCH   4   6
HETATM    6  C   UNL     1     -10.871  15.330  68.236  1.00  0.00    -0.262 C  
BRANCH   6   7
HETATM    7  C   UNL     1      -9.508  15.688  67.683  1.00  0.00    -0.211 A  
HETATM    8  C   UNL     1      -8.396  15.352  68.488  1.00  0.00    -0.151 A  
HETATM    9  C   UNL     1      -7.094  15.681  68.117  1.00  0.00    -0.125 A  
HETATM   10  C   UNL     1      -6.874  16.365  66.930  1.00  0.00    -0.231 A  
HETATM   11  C   UNL     1      -7.960  16.719  66.127  1.00  0.00    -0.273 A  
HETATM   12  C   UNL     1      -9.276  16.383  66.487  1.00  0.00    -0.277 A  
BRANCH  12  13
HETATM   13  O   UNL     1     -10.219  16.930  65.660  1.00  0.00    -0.542 OA 
HETATM   14  C   UNL     1     -10.870  16.055  64.753  1.00  0.00    -0.294 C  
ENDBRANCH  12  13
ENDBRANCH   6   7
ENDBRANCH   4   6
ENDBRANCH   2   4
TORSDOF 4
ENDMDL
MODEL      149
REMARK 921   NORMALIZED FREE ENERGY PREDICTED BY IDOCK:   -3.14 KCAL/MOL
REMARK 922        TOTAL FREE ENERGY PREDICTED BY IDOCK:   -4.10 KCAL/MOL
REMARK 923 INTER-LIGAND FREE ENERGY PREDICTED BY IDOCK:   -3.90 KCAL/MOL
REMARK 924 INTRA-LIGAND FREE ENERGY PREDICTED BY IDOCK:   -0.20 KCAL/MOL
REMARK 927      BINDING AFFINITY PREDICTED BY RF-SCORE:    0.00 PKD
ROOT
HETATM    1  C   UNL     1     -11.066  12.655  64.289  1.00  0.00    -0.362 C  
HETATM    2  N   UNL     1     -10.763  13.726  65.230  1.00  0.00    -0.321 NA 
HETATM    3  H   UNL     1     -11.513  14.417  65.240  1.00  0.00     0.000 HD 
ENDROOT
BRANCH   2   4
HETATM    4  C   UNL     1     -10.476  13.253  66.599  1.00  0.00    -0.279 C  
HETATM    5  C   UNL     1      -9.979  14.392  67.497  1.00  0.00    -0.224 C  
BRANCH   4   6
HETATM    6  C   UNL     1     -11.740  12.628  67.257  1.00  0.00    -0.435 C  
BRANCH   6   7
HETATM    7  C   UNL     1     -11.488  11.423  68.138  1.00  0.00    -0.375 A  
HETATM    8  C   UNL     1     -11.999  11.491  69.455  1.00  0.00    -0.392 A  
HETATM    9  C   UNL     1     -11.783  10.472  70.380  1.00  0.00    -0.434 A  
HETATM   10  C   UNL     1     -11.040   9.360  70.010  1.00  0.00    -0.248 A  
HETATM   11  C   UNL     1     -10.515   9.280  68.719  1.00  0.00    -0.233 A  
HETATM   12  C   UNL     1     -10.736  10.297  67.775  1.00  0.00    -0.275 A  
BRANCH  12  13
HETATM   13  O   UNL     1     -10.032  10.119  66.615  1.00  0.00    -0.197 OA 
HETATM   14  C   UNL     1      -8.739   9.548  66.722  1.00  0.00    -0.127 C  
ENDBRANCH  12  13
ENDBRANCH   6   7
ENDBRANCH   4   6
ENDBRANCH   2   4
TORSDOF 4
ENDMDL
MODEL      150
REMARK 921   NORMALIZED FREE ENERGY PREDICTED BY IDOCK:   -3.11 KCAL/MOL
REMARK 922        TOTAL FREE ENERGY PREDICTED BY IDOCK:   -4.07 KCAL/MOL
REMARK 923 INTER-LIGAND FREE ENERGY PREDICTED BY IDOCK:   -3.77 KCAL/MOL
REMARK 924 INTRA-LIGAND FREE ENERGY PREDICTED BY IDOCK:   -0.31 KCAL/MOL
REMARK 927      BINDING AFFINITY PREDICTED BY RF-SCORE:    0.00 PKD
ROOT
HETATM    1  C   UNL     1     -11.862  10.529  70.820  1.00  0.00    -0.365 C  
HETATM    2  N   UNL     1     -12.202   9.152  70.484  1.00  0.00    -0.477 NA 
HETATM    3  H   UNL     1     -12.319   9.047  69.476  1.00  0.00     0.000 HD 
ENDROOT
BRANCH   2   4
HETATM    4  C   UNL     1     -11.243   8.157  71.002  1.00  0.00    -0.258 C  
HETATM    5  C   UNL     1     -10.842   8.459  72.451  1.00  0.00    -0.416 C  
BRANCH   4   6
HETATM    6  C   UNL     1     -11.838   6.719  70.949  1.00  0.00    -0.438 C  
BRANCH   6   7
HETATM    7  C   UNL     1     -10.838   5.608  70.712  1.00  0.00    -0.294 A  
HETATM    8  C   UNL     1     -10.319   5.500  69.401  1.00  0.00    -0.348 A  
HETATM    9  C   UNL     1      -9.437   4.485  69.041  1.00  0.00    -0.229 A  
HETATM   10  C   UNL     1      -9.057   3.542  69.987  1.00  0.00    -0.197 A  
HETATM   11  C   UNL     1      -9.570   3.623  71.283  1.00  0.00    -0.244 A  
HETATM   12  C   UNL     1     -10.451   4.649  71.660  1.00  0.00    -0.053 A  
BRANCH  12  13
HETATM   13  O   UNL     1     -10.960   4.490  72.920  1.00  0.00    -0.214 OA 
HETATM   14  C   UNL     1     -10.188   4.995  73.997  1.00  0.00    -0.231 C  
ENDBRANCH  12  13
ENDBRANCH   6   7
ENDBRANCH   4   6
ENDBRANCH   2   4
TORSDOF 4
ENDMDL
MODEL      151
REMARK 921   NORMALIZED FREE ENERGY PREDICTED BY IDOCK:   -3.09 KCAL/MOL
REMARK 922        TOTAL FREE ENERGY PREDICTED BY IDOCK:   -4.05 KCAL/MOL
REMARK 923 INTER-LIGAND FREE ENERGY PREDICTED BY IDOCK:   -3.80 KCAL/MOL
REMARK 924 INTRA-LIGAND FREE ENERGY PREDICTED BY IDOCK:   -0.25 KCAL/MOL
REMARK 927      BINDING AFFINITY PREDICTED BY RF-SCORE:    0.00 PKD
ROOT
HETATM    1  C   UNL     1      -8.530   8.259  65.897  1.00  0.00    -0.140 C  
HETATM    2  N   UNL     1      -9.783   8.926  65.568  1.00  0.00    -0.447 NA 
HETATM    3  H   UNL     1     -10.423   8.898  66.362  1.00  0.00     0.000 HD 
ENDROOT
BRANCH   2   4
HETATM    4  C   UNL     1      -9.614  10.311  65.085  1.00  0.00    -0.277 C  
HETATM    5  C   UNL     1      -9.481  10.365  63.559  1.00  0.00    -0.356 C  
BRANCH   4   6
HETATM    6  C   UNL     1     -10.817  11.205  65.503  1.00  0.00    -0.205 C  
BRANCH   6   7
HETATM    7  C   UNL     1     -10.473  12.401  66.365  1.00  0.00    -0.267 A  
HETATM    8  C   UNL     1      -9.411  12.228  67.283  1.00  0.00    -0.186 A  
HETATM    9  C   UNL     1      -9.037  13.233  68.170  1.00  0.00    -0.207 A  
HETATM   10  C   UNL     1      -9.725  14.439  68.168  1.00  0.00    -0.223 A  
HETATM   11  C   UNL     1     -10.785  14.624  67.279  1.00  0.00    -0.290 A  
HETATM   12  C   UNL     1     -11.164  13.621  66.372  1.00  0.00    -0.308 A  
BRANCH  12  13
HETATM   13  O   UNL     1     -12.306  13.920  65.680  1.00  0.00    -0.423 OA 
HETATM   14  C   UNL     1     -12.151  14.499  64.395  1.00  0.00    -0.472 C  
ENDBRANCH  12  13
ENDBRANCH   6   7
ENDBRANCH   4   6
ENDBRANCH   2   4
TORSDOF 4
ENDMDL
MODEL      152
REMARK 921   NORMALIZED FREE ENERGY PREDICTED BY IDOCK:   -3.08 KCAL/MOL
REMARK 922        TOTAL FREE ENERGY PREDICTED BY IDOCK:   -4.04 KCAL/MOL
REMARK 923 INTER-LIGAND FREE ENERGY PREDICTED BY IDOCK:   -3.73 KCAL/MOL
REMARK 924 INTRA-LIGAND FREE ENERGY PREDICTED BY IDOCK:   -0.30 KCAL/MOL
REMARK 927      BINDING AFFINITY PREDICTED BY RF-SCORE:    0.00 PKD
ROOT
HETATM    1  C   UNL     1      -8.315  10.540  68.872  1.00  0.00    -0.147 C  
HETATM    2  N   UNL     1      -9.723  10.827  68.632  1.00  0.00    -0.178 NA 
HETATM    3  H   UNL     1     -10.078  10.263  67.860  1.00  0.00     0.000 HD 
ENDROOT
BRANCH   2   4
HETATM    4  C   UNL     1     -10.577  10.670  69.826  1.00  0.00    -0.184 C  
HETATM    5  C   UNL     1     -11.725  11.686  69.839  1.00  0.00    -0.414 C  
BRANCH   4   6
HETATM    6  C   UNL     1     -11.189   9.240  69.897  1.00  0.00    -0.145 C  
BRANCH   6   7
HETATM    7  C   UNL     1     -10.968   8.501  71.200  1.00  0.00    -0.306 A  
HETATM    8  C   UNL     1      -9.744   8.748  71.861  1.00  0.00    -0.386 A  
HETATM    9  C   UNL     1      -9.397   8.085  73.037  1.00  0.00    -0.344 A  
HETATM   10  C   UNL     1     -10.268   7.148  73.575  1.00  0.00    -0.394 A  
HETATM   11  C   UNL     1     -11.476   6.879  72.929  1.00  0.00    -0.129 A  
HETATM   12  C   UNL     1     -11.840   7.550  71.749  1.00  0.00    -0.294 A  
BRANCH  12  13
HETATM   13  O   UNL     1     -12.985   7.061  71.181  1.00  0.00    -0.360 OA 
HETATM   14  C   UNL     1     -14.213   7.622  71.613  1.00  0.00    -0.454 C  
ENDBRANCH  12  13
ENDBRANCH   6   7
ENDBRANCH   4   6
ENDBRANCH   2   4
TORSDOF 4
ENDMDL
MODEL      153
REMARK 921   NORMALIZED FREE ENERGY PREDICTED BY IDOCK:   -3.08 KCAL/MOL
REMARK 922        TOTAL FREE ENERGY PREDICTED BY IDOCK:   -4.04 KCAL/MOL
REMARK 923 INTER-LIGAND FREE ENERGY PREDICTED BY IDOCK:   -3.76 KCAL/MOL
REMARK 924 INTRA-LIGAND FREE ENERGY PREDICTED BY IDOCK:   -0.28 KCAL/MOL
REMARK 927      BINDING AFFINITY PREDICTED BY RF-SCORE:    0.00 PKD
ROOT
HETATM    1  C   UNL     1      -8.053  18.094  68.519  1.00  0.00    -0.302 C  
HETATM    2  N   UNL     1      -7.993  16.637  68.530  1.00  0.00    -0.212 NA 
HETATM    3  H   UNL     1      -7.939  16.288  69.487  1.00  0.00     0.000 HD 
ENDROOT
BRANCH   2   4
HETATM    4  C   UNL     1      -9.102  15.989  67.803  1.00  0.00    -0.196 C  
HETATM    5  C   UNL     1      -9.717  16.925  66.756  1.00  0.00    -0.274 C  
BRANCH   4   6
HETATM    6  C   UNL     1      -8.623  14.696  67.080  1.00  0.00    -0.249 C  
BRANCH   6   7
HETATM    7  C   UNL     1      -9.616  13.554  67.058  1.00  0.00    -0.248 A  
HETATM    8  C   UNL     1      -9.492  12.595  68.090  1.00  0.00    -0.218 A  
HETATM    9  C   UNL     1     -10.307  11.468  68.147  1.00  0.00    -0.211 A  
HETATM   10  C   UNL     1     -11.266  11.267  67.163  1.00  0.00    -0.344 A  
HETATM   11  C   UNL     1     -11.395  12.195  66.128  1.00  0.00    -0.414 A  
HETATM   12  C   UNL     1     -10.585  13.341  66.067  1.00  0.00    -0.286 A  
BRANCH  12  13
HETATM   13  O   UNL     1     -10.751  14.060  64.915  1.00  0.00    -0.371 OA 
HETATM   14  C   UNL     1     -12.015  13.977  64.277  1.00  0.00    -0.435 C  
ENDBRANCH  12  13
ENDBRANCH   6   7
ENDBRANCH   4   6
ENDBRANCH   2   4
TORSDOF 4
ENDMDL
MODEL      154
REMARK 921   NORMALIZED FREE ENERGY PREDICTED BY IDOCK:   -3.07 KCAL/MOL
REMARK 922        TOTAL FREE ENERGY PREDICTED BY IDOCK:   -4.02 KCAL/MOL
REMARK 923 INTER-LIGAND FREE ENERGY PREDICTED BY IDOCK:   -4.11 KCAL/MOL
REMARK 924 INTRA-LIGAND FREE ENERGY PREDICTED BY IDOCK:    0.08 KCAL/MOL
REMARK 927      BINDING AFFINITY PREDICTED BY RF-SCORE:    0.00 PKD
ROOT
HETATM    1  C   UNL     1     -10.587  15.228  65.182  1.00  0.00    -0.430 C  
HETATM    2  N   UNL     1     -11.623  14.667  66.040  1.00  0.00    -0.351 NA 
HETATM    3  H   UNL     1     -11.935  13.764  65.682  1.00  0.00     0.000 HD 
ENDROOT
BRANCH   2   4
HETATM    4  C   UNL     1     -11.228  14.554  67.458  1.00  0.00    -0.321 C  
HETATM    5  C   UNL     1     -11.030  15.932  68.101  1.00  0.00    -0.335 C  
BRANCH   4   6
HETATM    6  C   UNL     1     -12.298  13.780  68.282  1.00  0.00     0.028 C  
BRANCH   6   7
HETATM    7  C   UNL     1     -11.843  12.457  68.861  1.00  0.00    -0.350 A  
HETATM    8  C   UNL     1     -11.263  11.542  67.953  1.00  0.00    -0.344 A  
HETATM    9  C   UNL     1     -10.859  10.270  68.351  1.00  0.00    -0.288 A  
HETATM   10  C   UNL     1     -11.035   9.878  69.670  1.00  0.00    -0.285 A  
HETATM   11  C   UNL     1     -11.619  10.762  70.579  1.00  0.00    -0.425 A  
HETATM   12  C   UNL     1     -12.021  12.051  70.192  1.00  0.00    -0.321 A  
BRANCH  12  13
HETATM   13  O   UNL     1     -12.698  12.724  71.171  1.00  0.00    -0.359 OA 
HETATM   14  C   UNL     1     -12.293  14.056  71.441  1.00  0.00    -0.326 C  
ENDBRANCH  12  13
ENDBRANCH   6   7
ENDBRANCH   4   6
ENDBRANCH   2   4
TORSDOF 4
ENDMDL
MODEL      155
REMARK 921   NORMALIZED FREE ENERGY PREDICTED BY IDOCK:   -3.07 KCAL/MOL
REMARK 922        TOTAL FREE ENERGY PREDICTED BY IDOCK:   -4.02 KCAL/MOL
REMARK 923 INTER-LIGAND FREE ENERGY PREDICTED BY IDOCK:   -3.76 KCAL/MOL
REMARK 924 INTRA-LIGAND FREE ENERGY PREDICTED BY IDOCK:   -0.26 KCAL/MOL
REMARK 927      BINDING AFFINITY PREDICTED BY RF-SCORE:    0.00 PKD
ROOT
HETATM    1  C   UNL     1      -8.842   7.887  69.037  1.00  0.00    -0.145 C  
HETATM    2  N   UNL     1      -9.877   8.526  69.839  1.00  0.00    -0.183 NA 
HETATM    3  H   UNL     1      -9.708   8.370  70.833  1.00  0.00     0.000 HD 
ENDROOT
BRANCH   2   4
HETATM    4  C   UNL     1     -10.044   9.966  69.561  1.00  0.00    -0.221 C  
HETATM    5  C   UNL     1      -8.773  10.577  68.960  1.00  0.00    -0.160 C  
BRANCH   4   6
HETATM    6  C   UNL     1     -11.221  10.218  68.573  1.00  0.00    -0.271 C  
BRANCH   6   7
HETATM    7  C   UNL     1     -11.389  11.649  68.110  1.00  0.00    -0.358 A  
HETATM    8  C   UNL     1     -11.881  12.565  69.068  1.00  0.00    -0.344 A  
HETATM    9  C   UNL     1     -12.134  13.897  68.749  1.00  0.00    -0.344 A  
HETATM   10  C   UNL     1     -11.909  14.344  67.455  1.00  0.00    -0.430 A  
HETATM   11  C   UNL     1     -11.437  13.452  66.490  1.00  0.00    -0.372 A  
HETATM   12  C   UNL     1     -11.168  12.109  66.804  1.00  0.00    -0.322 A  
BRANCH  12  13
HETATM   13  O   UNL     1     -10.850  11.351  65.710  1.00  0.00    -0.275 OA 
HETATM   14  C   UNL     1     -11.101  11.918  64.435  1.00  0.00    -0.336 C  
ENDBRANCH  12  13
ENDBRANCH   6   7
ENDBRANCH   4   6
ENDBRANCH   2   4
TORSDOF 4
ENDMDL
MODEL      156
REMARK 921   NORMALIZED FREE ENERGY PREDICTED BY IDOCK:   -3.06 KCAL/MOL
REMARK 922        TOTAL FREE ENERGY PREDICTED BY IDOCK:   -4.01 KCAL/MOL
REMARK 923 INTER-LIGAND FREE ENERGY PREDICTED BY IDOCK:   -3.75 KCAL/MOL
REMARK 924 INTRA-LIGAND FREE ENERGY PREDICTED BY IDOCK:   -0.26 KCAL/MOL
REMARK 927      BINDING AFFINITY PREDICTED BY RF-SCORE:    0.00 PKD
ROOT
HETATM    1  C   UNL     1      -9.927   5.634  68.398  1.00  0.00    -0.156 C  
HETATM    2  N   UNL     1     -10.451   5.437  69.744  1.00  0.00    -0.307 NA 
HETATM    3  H   UNL     1      -9.697   5.205  70.391  1.00  0.00     0.000 HD 
ENDROOT
BRANCH   2   4
HETATM    4  C   UNL     1     -11.239   6.577  70.251  1.00  0.00    -0.374 C  
HETATM    5  C   UNL     1     -11.983   6.220  71.543  1.00  0.00    -0.245 C  
BRANCH   4   6
HETATM    6  C   UNL     1     -10.332   7.809  70.534  1.00  0.00    -0.205 C  
BRANCH   6   7
HETATM    7  C   UNL     1     -10.774   9.107  69.891  1.00  0.00    -0.246 A  
HETATM    8  C   UNL     1     -11.641   9.921  70.656  1.00  0.00    -0.413 A  
HETATM    9  C   UNL     1     -12.164  11.110  70.154  1.00  0.00    -0.417 A  
HETATM   10  C   UNL     1     -11.839  11.510  68.865  1.00  0.00    -0.406 A  
HETATM   11  C   UNL     1     -10.996  10.711  68.088  1.00  0.00    -0.321 A  
HETATM   12  C   UNL     1     -10.454   9.516  68.589  1.00  0.00    -0.211 A  
BRANCH  12  13
HETATM   13  O   UNL     1      -9.770   8.797  67.648  1.00  0.00    -0.156 OA 
HETATM   14  C   UNL     1      -9.786   9.290  66.318  1.00  0.00    -0.291 C  
ENDBRANCH  12  13
ENDBRANCH   6   7
ENDBRANCH   4   6
ENDBRANCH   2   4
TORSDOF 4
ENDMDL
MODEL      157
REMARK 921   NORMALIZED FREE ENERGY PREDICTED BY IDOCK:   -3.05 KCAL/MOL
REMARK 922        TOTAL FREE ENERGY PREDICTED BY IDOCK:   -4.00 KCAL/MOL
REMARK 923 INTER-LIGAND FREE ENERGY PREDICTED BY IDOCK:   -3.74 KCAL/MOL
REMARK 924 INTRA-LIGAND FREE ENERGY PREDICTED BY IDOCK:   -0.26 KCAL/MOL
REMARK 927      BINDING AFFINITY PREDICTED BY RF-SCORE:    0.00 PKD
ROOT
HETATM    1  C   UNL     1     -11.367   5.537  72.823  1.00  0.00    -0.303 C  
HETATM    2  N   UNL     1     -12.386   6.377  72.206  1.00  0.00    -0.537 NA 
HETATM    3  H   UNL     1     -12.823   6.980  72.902  1.00  0.00     0.000 HD 
ENDROOT
BRANCH   2   4
HETATM    4  C   UNL     1     -11.892   7.174  71.065  1.00  0.00    -0.333 C  
HETATM    5  C   UNL     1     -11.909   8.675  71.375  1.00  0.00    -0.352 C  
BRANCH   4   6
HETATM    6  C   UNL     1     -10.438   6.770  70.682  1.00  0.00    -0.243 C  
BRANCH   6   7
HETATM    7  C   UNL     1     -10.300   5.965  69.407  1.00  0.00    -0.313 A  
HETATM    8  C   UNL     1      -9.752   4.669  69.540  1.00  0.00    -0.278 A  
HETATM    9  C   UNL     1      -9.519   3.853  68.436  1.00  0.00    -0.210 A  
HETATM   10  C   UNL     1      -9.822   4.321  67.165  1.00  0.00    -0.205 A  
HETATM   11  C   UNL     1     -10.350   5.604  67.011  1.00  0.00    -0.306 A  
HETATM   12  C   UNL     1     -10.599   6.431  68.119  1.00  0.00    -0.255 A  
BRANCH  12  13
HETATM   13  O   UNL     1     -10.981   7.698  67.772  1.00  0.00    -0.102 OA 
HETATM   14  C   UNL     1     -10.260   8.329  66.727  1.00  0.00    -0.304 C  
ENDBRANCH  12  13
ENDBRANCH   6   7
ENDBRANCH   4   6
ENDBRANCH   2   4
TORSDOF 4
ENDMDL
MODEL      158
REMARK 921   NORMALIZED FREE ENERGY PREDICTED BY IDOCK:   -3.04 KCAL/MOL
REMARK 922        TOTAL FREE ENERGY PREDICTED BY IDOCK:   -3.98 KCAL/MOL
REMARK 923 INTER-LIGAND FREE ENERGY PREDICTED BY IDOCK:   -4.02 KCAL/MOL
REMARK 924 INTRA-LIGAND FREE ENERGY PREDICTED BY IDOCK:    0.03 KCAL/MOL
REMARK 927      BINDING AFFINITY PREDICTED BY RF-SCORE:    0.00 PKD
ROOT
HETATM    1  C   UNL     1     -11.093   4.552  73.268  1.00  0.00    -0.304 C  
HETATM    2  N   UNL     1     -10.450   5.665  72.580  1.00  0.00    -0.199 NA 
HETATM    3  H   UNL     1     -10.448   5.511  71.572  1.00  0.00     0.000 HD 
ENDROOT
BRANCH   2   4
HETATM    4  C   UNL     1     -11.033   6.983  72.903  1.00  0.00    -0.302 C  
HETATM    5  C   UNL     1      -9.964   8.081  72.935  1.00  0.00    -0.360 C  
BRANCH   4   6
HETATM    6  C   UNL     1     -12.119   7.388  71.864  1.00  0.00    -0.341 C  
BRANCH   6   7
HETATM    7  C   UNL     1     -11.711   8.464  70.880  1.00  0.00    -0.269 A  
HETATM    8  C   UNL     1     -10.852   8.062  69.831  1.00  0.00    -0.217 A  
HETATM    9  C   UNL     1     -10.359   8.969  68.896  1.00  0.00    -0.232 A  
HETATM   10  C   UNL     1     -10.708  10.309  68.995  1.00  0.00    -0.257 A  
HETATM   11  C   UNL     1     -11.543  10.729  70.032  1.00  0.00    -0.417 A  
HETATM   12  C   UNL     1     -12.055   9.820  70.974  1.00  0.00    -0.346 A  
BRANCH  12  13
HETATM   13  O   UNL     1     -12.735  10.426  71.995  1.00  0.00    -0.397 OA 
HETATM   14  C   UNL     1     -13.116  11.778  71.806  1.00  0.00    -0.375 C  
ENDBRANCH  12  13
ENDBRANCH   6   7
ENDBRANCH   4   6
ENDBRANCH   2   4
TORSDOF 4
ENDMDL
MODEL      159
REMARK 921   NORMALIZED FREE ENERGY PREDICTED BY IDOCK:   -3.04 KCAL/MOL
REMARK 922        TOTAL FREE ENERGY PREDICTED BY IDOCK:   -3.98 KCAL/MOL
REMARK 923 INTER-LIGAND FREE ENERGY PREDICTED BY IDOCK:   -3.94 KCAL/MOL
REMARK 924 INTRA-LIGAND FREE ENERGY PREDICTED BY IDOCK:   -0.04 KCAL/MOL
REMARK 927      BINDING AFFINITY PREDICTED BY RF-SCORE:    0.00 PKD
ROOT
HETATM    1  C   UNL     1      -5.362  20.413  62.350  1.00  0.00    -0.226 C  
HETATM    2  N   UNL     1      -5.731  19.293  63.207  1.00  0.00    -0.403 NA 
HETATM    3  H   UNL     1      -5.176  18.469  62.977  1.00  0.00     0.000 HD 
ENDROOT
BRANCH   2   4
HETATM    4  C   UNL     1      -5.646  19.591  64.650  1.00  0.00    -0.219 C  
HETATM    5  C   UNL     1      -6.325  20.922  64.993  1.00  0.00    -0.251 C  
BRANCH   4   6
HETATM    6  C   UNL     1      -6.314  18.470  65.498  1.00  0.00    -0.320 C  
BRANCH   6   7
HETATM    7  C   UNL     1      -7.051  18.938  66.734  1.00  0.00    -0.222 A  
HETATM    8  C   UNL     1      -6.272  19.113  67.901  1.00  0.00    -0.224 A  
HETATM    9  C   UNL     1      -6.842  19.484  69.116  1.00  0.00    -0.381 A  
HETATM   10  C   UNL     1      -8.213  19.681  69.196  1.00  0.00    -0.093 A  
HETATM   11  C   UNL     1      -9.003  19.499  68.059  1.00  0.00    -0.380 A  
HETATM   12  C   UNL     1      -8.437  19.136  66.825  1.00  0.00    -0.303 A  
BRANCH  12  13
HETATM   13  O   UNL     1      -9.369  18.865  65.861  1.00  0.00    -0.454 OA 
HETATM   14  C   UNL     1     -10.549  19.652  65.863  1.00  0.00    -0.466 C  
ENDBRANCH  12  13
ENDBRANCH   6   7
ENDBRANCH   4   6
ENDBRANCH   2   4
TORSDOF 4
ENDMDL
MODEL      160
REMARK 921   NORMALIZED FREE ENERGY PREDICTED BY IDOCK:   -3.03 KCAL/MOL
REMARK 922        TOTAL FREE ENERGY PREDICTED BY IDOCK:   -3.97 KCAL/MOL
REMARK 923 INTER-LIGAND FREE ENERGY PREDICTED BY IDOCK:   -3.80 KCAL/MOL
REMARK 924 INTRA-LIGAND FREE ENERGY PREDICTED BY IDOCK:   -0.17 KCAL/MOL
REMARK 927      BINDING AFFINITY PREDICTED BY RF-SCORE:    0.00 PKD
ROOT
HETATM    1  C   UNL     1     -10.445  16.873  65.396  1.00  0.00    -0.154 C  
HETATM    2  N   UNL     1      -9.168  17.325  65.935  1.00  0.00    -0.522 NA 
HETATM    3  H   UNL     1      -8.416  17.148  65.270  1.00  0.00     0.000 HD 
ENDROOT
BRANCH   2   4
HETATM    4  C   UNL     1      -9.166  18.739  66.359  1.00  0.00    -0.307 C  
HETATM    5  C   UNL     1     -10.545  19.385  66.181  1.00  0.00    -0.571 C  
BRANCH   4   6
HETATM    6  C   UNL     1      -8.749  18.880  67.852  1.00  0.00    -0.327 C  
BRANCH   6   7
HETATM    7  C   UNL     1      -8.464  17.581  68.575  1.00  0.00    -0.280 A  
HETATM    8  C   UNL     1      -7.104  17.290  68.830  1.00  0.00    -0.238 A  
HETATM    9  C   UNL     1      -6.708  16.100  69.435  1.00  0.00    -0.205 A  
HETATM   10  C   UNL     1      -7.667  15.163  69.793  1.00  0.00    -0.066 A  
HETATM   11  C   UNL     1      -9.015  15.425  69.536  1.00  0.00    -0.229 A  
HETATM   12  C   UNL     1      -9.426  16.627  68.937  1.00  0.00    -0.251 A  
BRANCH  12  13
HETATM   13  O   UNL     1     -10.760  16.651  68.634  1.00  0.00    -0.310 OA 
HETATM   14  C   UNL     1     -11.443  15.409  68.618  1.00  0.00    -0.346 C  
ENDBRANCH  12  13
ENDBRANCH   6   7
ENDBRANCH   4   6
ENDBRANCH   2   4
TORSDOF 4
ENDMDL
MODEL      161
REMARK 921   NORMALIZED FREE ENERGY PREDICTED BY IDOCK:   -3.02 KCAL/MOL
REMARK 922        TOTAL FREE ENERGY PREDICTED BY IDOCK:   -3.96 KCAL/MOL
REMARK 923 INTER-LIGAND FREE ENERGY PREDICTED BY IDOCK:   -3.70 KCAL/MOL
REMARK 924 INTRA-LIGAND FREE ENERGY PREDICTED BY IDOCK:   -0.27 KCAL/MOL
REMARK 927      BINDING AFFINITY PREDICTED BY RF-SCORE:    0.00 PKD
ROOT
HETATM    1  C   UNL     1     -11.140  12.380  63.457  1.00  0.00    -0.458 C  
HETATM    2  N   UNL     1     -10.189  13.193  64.204  1.00  0.00    -0.657 NA 
HETATM    3  H   UNL     1      -9.708  13.843  63.583  1.00  0.00     0.000 HD 
ENDROOT
BRANCH   2   4
HETATM    4  C   UNL     1     -10.786  13.913  65.346  1.00  0.00    -0.319 C  
HETATM    5  C   UNL     1     -12.317  13.840  65.322  1.00  0.00    -0.491 C  
BRANCH   4   6
HETATM    6  C   UNL     1     -10.291  13.329  66.702  1.00  0.00    -0.274 C  
BRANCH   6   7
HETATM    7  C   UNL     1      -8.908  13.768  67.134  1.00  0.00    -0.240 A  
HETATM    8  C   UNL     1      -8.633  15.152  67.047  1.00  0.00    -0.265 A  
HETATM    9  C   UNL     1      -7.380  15.673  67.360  1.00  0.00    -0.235 A  
HETATM   10  C   UNL     1      -6.364  14.816  67.759  1.00  0.00    -0.172 A  
HETATM   11  C   UNL     1      -6.611  13.444  67.836  1.00  0.00    -0.149 A  
HETATM   12  C   UNL     1      -7.874  12.909  67.534  1.00  0.00    -0.177 A  
BRANCH  12  13
HETATM   13  O   UNL     1      -7.894  11.541  67.527  1.00  0.00    -0.120 OA 
HETATM   14  C   UNL     1      -7.151  10.888  66.511  1.00  0.00    -0.139 C  
ENDBRANCH  12  13
ENDBRANCH   6   7
ENDBRANCH   4   6
ENDBRANCH   2   4
TORSDOF 4
ENDMDL
MODEL      162
REMARK 921   NORMALIZED FREE ENERGY PREDICTED BY IDOCK:   -3.02 KCAL/MOL
REMARK 922        TOTAL FREE ENERGY PREDICTED BY IDOCK:   -3.96 KCAL/MOL
REMARK 923 INTER-LIGAND FREE ENERGY PREDICTED BY IDOCK:   -3.91 KCAL/MOL
REMARK 924 INTRA-LIGAND FREE ENERGY PREDICTED BY IDOCK:   -0.06 KCAL/MOL
REMARK 927      BINDING AFFINITY PREDICTED BY RF-SCORE:    0.00 PKD
ROOT
HETATM    1  C   UNL     1     -14.405   7.541  71.534  1.00  0.00    -0.458 C  
HETATM    2  N   UNL     1     -13.183   7.115  72.204  1.00  0.00    -0.534 NA 
HETATM    3  H   UNL     1     -12.810   6.272  71.768  1.00  0.00     0.000 HD 
ENDROOT
BRANCH   2   4
HETATM    4  C   UNL     1     -12.147   8.164  72.279  1.00  0.00    -0.364 C  
HETATM    5  C   UNL     1     -10.905   7.678  73.035  1.00  0.00    -0.457 C  
BRANCH   4   6
HETATM    6  C   UNL     1     -11.707   8.625  70.859  1.00  0.00    -0.287 C  
BRANCH   6   7
HETATM    7  C   UNL     1     -10.727   7.713  70.153  1.00  0.00    -0.245 A  
HETATM    8  C   UNL     1     -11.213   6.439  69.779  1.00  0.00    -0.484 A  
HETATM    9  C   UNL     1     -10.393   5.489  69.175  1.00  0.00    -0.318 A  
HETATM   10  C   UNL     1      -9.058   5.788  68.939  1.00  0.00    -0.121 A  
HETATM   11  C   UNL     1      -8.556   7.035  69.314  1.00  0.00    -0.136 A  
HETATM   12  C   UNL     1      -9.376   8.005  69.913  1.00  0.00    -0.156 A  
BRANCH  12  13
HETATM   13  O   UNL     1      -8.687   9.107  70.341  1.00  0.00    -0.173 OA 
HETATM   14  C   UNL     1      -8.536  10.174  69.419  1.00  0.00    -0.174 C  
ENDBRANCH  12  13
ENDBRANCH   6   7
ENDBRANCH   4   6
ENDBRANCH   2   4
TORSDOF 4
ENDMDL
MODEL      163
REMARK 921   NORMALIZED FREE ENERGY PREDICTED BY IDOCK:   -3.02 KCAL/MOL
REMARK 922        TOTAL FREE ENERGY PREDICTED BY IDOCK:   -3.96 KCAL/MOL
REMARK 923 INTER-LIGAND FREE ENERGY PREDICTED BY IDOCK:   -3.91 KCAL/MOL
REMARK 924 INTRA-LIGAND FREE ENERGY PREDICTED BY IDOCK:   -0.05 KCAL/MOL
REMARK 927      BINDING AFFINITY PREDICTED BY RF-SCORE:    0.00 PKD
ROOT
HETATM    1  C   UNL     1     -11.243  11.190  68.960  1.00  0.00    -0.256 C  
HETATM    2  N   UNL     1     -12.124  11.335  70.112  1.00  0.00    -0.345 NA 
HETATM    3  H   UNL     1     -13.101  11.253  69.829  1.00  0.00     0.000 HD 
ENDROOT
BRANCH   2   4
HETATM    4  C   UNL     1     -11.823  10.400  71.214  1.00  0.00    -0.289 C  
HETATM    5  C   UNL     1     -12.991   9.443  71.478  1.00  0.00    -0.449 C  
BRANCH   4   6
HETATM    6  C   UNL     1     -10.556   9.551  70.904  1.00  0.00    -0.395 C  
BRANCH   6   7
HETATM    7  C   UNL     1     -10.555   8.149  71.474  1.00  0.00    -0.282 A  
HETATM    8  C   UNL     1     -10.379   8.040  72.872  1.00  0.00    -0.397 A  
HETATM    9  C   UNL     1     -10.302   6.803  73.509  1.00  0.00    -0.342 A  
HETATM   10  C   UNL     1     -10.390   5.641  72.756  1.00  0.00    -0.224 A  
HETATM   11  C   UNL     1     -10.549   5.727  71.372  1.00  0.00    -0.313 A  
HETATM   12  C   UNL     1     -10.639   6.968  70.721  1.00  0.00    -0.219 A  
BRANCH  12  13
HETATM   13  O   UNL     1     -10.650   6.864  69.357  1.00  0.00    -0.210 OA 
HETATM   14  C   UNL     1     -10.514   5.565  68.806  1.00  0.00    -0.191 C  
ENDBRANCH  12  13
ENDBRANCH   6   7
ENDBRANCH   4   6
ENDBRANCH   2   4
TORSDOF 4
ENDMDL
MODEL      164
REMARK 921   NORMALIZED FREE ENERGY PREDICTED BY IDOCK:   -3.01 KCAL/MOL
REMARK 922        TOTAL FREE ENERGY PREDICTED BY IDOCK:   -3.95 KCAL/MOL
REMARK 923 INTER-LIGAND FREE ENERGY PREDICTED BY IDOCK:   -3.74 KCAL/MOL
REMARK 924 INTRA-LIGAND FREE ENERGY PREDICTED BY IDOCK:   -0.22 KCAL/MOL
REMARK 927      BINDING AFFINITY PREDICTED BY RF-SCORE:    0.00 PKD
ROOT
HETATM    1  C   UNL     1     -13.244   7.226  71.571  1.00  0.00    -0.379 C  
HETATM    2  N   UNL     1     -11.992   6.911  72.249  1.00  0.00    -0.449 NA 
HETATM    3  H   UNL     1     -12.148   6.226  72.988  1.00  0.00     0.000 HD 
ENDROOT
BRANCH   2   4
HETATM    4  C   UNL     1     -10.918   6.462  71.341  1.00  0.00    -0.267 C  
HETATM    5  C   UNL     1     -10.364   5.094  71.756  1.00  0.00    -0.274 C  
BRANCH   4   6
HETATM    6  C   UNL     1     -11.426   6.359  69.874  1.00  0.00    -0.483 C  
BRANCH   6   7
HETATM    7  C   UNL     1     -10.768   7.301  68.888  1.00  0.00    -0.173 A  
HETATM    8  C   UNL     1     -10.423   6.753  67.631  1.00  0.00    -0.287 A  
HETATM    9  C   UNL     1      -9.761   7.501  66.661  1.00  0.00    -0.273 A  
HETATM   10  C   UNL     1      -9.417   8.818  66.930  1.00  0.00    -0.231 A  
HETATM   11  C   UNL     1      -9.736   9.374  68.171  1.00  0.00    -0.164 A  
HETATM   12  C   UNL     1     -10.414   8.632  69.152  1.00  0.00    -0.211 A  
BRANCH  12  13
HETATM   13  O   UNL     1     -10.516   9.286  70.350  1.00  0.00    -0.211 OA 
HETATM   14  C   UNL     1     -11.474  10.327  70.439  1.00  0.00    -0.335 C  
ENDBRANCH  12  13
ENDBRANCH   6   7
ENDBRANCH   4   6
ENDBRANCH   2   4
TORSDOF 4
ENDMDL
MODEL      165
REMARK 921   NORMALIZED FREE ENERGY PREDICTED BY IDOCK:   -3.01 KCAL/MOL
REMARK 922        TOTAL FREE ENERGY PREDICTED BY IDOCK:   -3.95 KCAL/MOL
REMARK 923 INTER-LIGAND FREE ENERGY PREDICTED BY IDOCK:   -3.96 KCAL/MOL
REMARK 924 INTRA-LIGAND FREE ENERGY PREDICTED BY IDOCK:    0.02 KCAL/MOL
REMARK 927      BINDING AFFINITY PREDICTED BY RF-SCORE:    0.00 PKD
ROOT
HETATM    1  C   UNL     1      -9.075   7.396  66.682  1.00  0.00    -0.154 C  
HETATM    2  N   UNL     1      -9.728   8.507  66.001  1.00  0.00    -0.451 NA 
HETATM    3  H   UNL     1     -10.740   8.381  65.997  1.00  0.00     0.000 HD 
ENDROOT
BRANCH   2   4
HETATM    4  C   UNL     1      -9.371   9.833  66.545  1.00  0.00    -0.162 C  
HETATM    5  C   UNL     1      -8.370  10.563  65.643  1.00  0.00    -0.167 C  
BRANCH   4   6
HETATM    6  C   UNL     1     -10.631  10.733  66.706  1.00  0.00    -0.307 C  
BRANCH   6   7
HETATM    7  C   UNL     1     -10.494  12.146  66.178  1.00  0.00    -0.281 A  
HETATM    8  C   UNL     1     -10.179  13.143  67.130  1.00  0.00    -0.244 A  
HETATM    9  C   UNL     1     -10.084  14.488  66.781  1.00  0.00    -0.264 A  
HETATM   10  C   UNL     1     -10.312  14.870  65.466  1.00  0.00    -0.388 A  
HETATM   11  C   UNL     1     -10.639  13.902  64.514  1.00  0.00    -0.375 A  
HETATM   12  C   UNL     1     -10.727  12.542  64.853  1.00  0.00    -0.295 A  
BRANCH  12  13
HETATM   13  O   UNL     1     -11.194  11.759  63.833  1.00  0.00    -0.366 OA 
HETATM   14  C   UNL     1     -12.516  12.004  63.383  1.00  0.00    -0.509 C  
ENDBRANCH  12  13
ENDBRANCH   6   7
ENDBRANCH   4   6
ENDBRANCH   2   4
TORSDOF 4
ENDMDL
MODEL      166
REMARK 921   NORMALIZED FREE ENERGY PREDICTED BY IDOCK:   -3.00 KCAL/MOL
REMARK 922        TOTAL FREE ENERGY PREDICTED BY IDOCK:   -3.93 KCAL/MOL
REMARK 923 INTER-LIGAND FREE ENERGY PREDICTED BY IDOCK:   -3.77 KCAL/MOL
REMARK 924 INTRA-LIGAND FREE ENERGY PREDICTED BY IDOCK:   -0.16 KCAL/MOL
REMARK 927      BINDING AFFINITY PREDICTED BY RF-SCORE:    0.00 PKD
ROOT
HETATM    1  C   UNL     1     -12.547  14.777  70.025  1.00  0.00    -0.224 C  
HETATM    2  N   UNL     1     -11.964  14.696  68.692  1.00  0.00    -0.510 NA 
HETATM    3  H   UNL     1     -12.676  14.448  68.004  1.00  0.00     0.000 HD 
ENDROOT
BRANCH   2   4
HETATM    4  C   UNL     1     -11.246  15.917  68.279  1.00  0.00    -0.354 C  
HETATM    5  C   UNL     1     -10.737  16.710  69.488  1.00  0.00    -0.306 C  
BRANCH   4   6
HETATM    6  C   UNL     1     -10.028  15.576  67.371  1.00  0.00    -0.234 C  
BRANCH   6   7
HETATM    7  C   UNL     1      -9.802  14.102  67.111  1.00  0.00    -0.253 A  
HETATM    8  C   UNL     1      -8.960  13.426  68.024  1.00  0.00    -0.190 A  
HETATM    9  C   UNL     1      -8.628  12.083  67.861  1.00  0.00    -0.165 A  
HETATM   10  C   UNL     1      -9.124  11.384  66.770  1.00  0.00    -0.181 A  
HETATM   11  C   UNL     1      -9.945  12.037  65.848  1.00  0.00    -0.260 A  
HETATM   12  C   UNL     1     -10.296  13.388  66.009  1.00  0.00    -0.297 A  
BRANCH  12  13
HETATM   13  O   UNL     1     -10.986  13.898  64.944  1.00  0.00    -0.345 OA 
HETATM   14  C   UNL     1     -12.384  14.072  65.102  1.00  0.00    -0.453 C  
ENDBRANCH  12  13
ENDBRANCH   6   7
ENDBRANCH   4   6
ENDBRANCH   2   4
TORSDOF 4
ENDMDL
MODEL      167
REMARK 921   NORMALIZED FREE ENERGY PREDICTED BY IDOCK:   -2.99 KCAL/MOL
REMARK 922        TOTAL FREE ENERGY PREDICTED BY IDOCK:   -3.93 KCAL/MOL
REMARK 923 INTER-LIGAND FREE ENERGY PREDICTED BY IDOCK:   -3.71 KCAL/MOL
REMARK 924 INTRA-LIGAND FREE ENERGY PREDICTED BY IDOCK:   -0.22 KCAL/MOL
REMARK 927      BINDING AFFINITY PREDICTED BY RF-SCORE:    0.00 PKD
ROOT
HETATM    1  C   UNL     1      -5.809  15.155  68.357  1.00  0.00    -0.107 C  
HETATM    2  N   UNL     1      -6.482  14.678  67.155  1.00  0.00    -0.302 NA 
HETATM    3  H   UNL     1      -5.821  14.202  66.540  1.00  0.00     0.000 HD 
ENDROOT
BRANCH   2   4
HETATM    4  C   UNL     1      -7.651  13.818  67.426  1.00  0.00    -0.137 C  
HETATM    5  C   UNL     1      -7.379  12.839  68.573  1.00  0.00    -0.115 C  
BRANCH   4   6
HETATM    6  C   UNL     1      -8.902  14.668  67.795  1.00  0.00    -0.177 C  
BRANCH   6   7
HETATM    7  C   UNL     1     -10.062  14.575  66.827  1.00  0.00    -0.264 A  
HETATM    8  C   UNL     1      -9.997  15.410  65.688  1.00  0.00    -0.396 A  
HETATM    9  C   UNL     1     -11.029  15.460  64.754  1.00  0.00    -0.411 A  
HETATM   10  C   UNL     1     -12.160  14.678  64.943  1.00  0.00    -0.386 A  
HETATM   11  C   UNL     1     -12.250  13.857  66.069  1.00  0.00    -0.495 A  
HETATM   12  C   UNL     1     -11.210  13.791  67.011  1.00  0.00    -0.311 A  
BRANCH  12  13
HETATM   13  O   UNL     1     -11.528  13.048  68.115  1.00  0.00    -0.277 OA 
HETATM   14  C   UNL     1     -12.119  13.732  69.208  1.00  0.00    -0.329 C  
ENDBRANCH  12  13
ENDBRANCH   6   7
ENDBRANCH   4   6
ENDBRANCH   2   4
TORSDOF 4
ENDMDL
MODEL      168
REMARK 921   NORMALIZED FREE ENERGY PREDICTED BY IDOCK:   -2.99 KCAL/MOL
REMARK 922        TOTAL FREE ENERGY PREDICTED BY IDOCK:   -3.92 KCAL/MOL
REMARK 923 INTER-LIGAND FREE ENERGY PREDICTED BY IDOCK:   -3.56 KCAL/MOL
REMARK 924 INTRA-LIGAND FREE ENERGY PREDICTED BY IDOCK:   -0.36 KCAL/MOL
REMARK 927      BINDING AFFINITY PREDICTED BY RF-SCORE:    0.00 PKD
ROOT
HETATM    1  C   UNL     1     -12.113  15.851  70.331  1.00  0.00    -0.287 C  
HETATM    2  N   UNL     1     -11.550  14.923  71.304  1.00  0.00    -0.442 NA 
HETATM    3  H   UNL     1     -11.458  15.371  72.215  1.00  0.00     0.000 HD 
ENDROOT
BRANCH   2   4
HETATM    4  C   UNL     1     -12.298  13.655  71.421  1.00  0.00    -0.210 C  
HETATM    5  C   UNL     1     -13.606  13.840  72.198  1.00  0.00    -0.613 C  
BRANCH   4   6
HETATM    6  C   UNL     1     -12.640  13.070  70.020  1.00  0.00     0.024 C  
BRANCH   6   7
HETATM    7  C   UNL     1     -11.577  12.184  69.406  1.00  0.00    -0.381 A  
HETATM    8  C   UNL     1     -11.622  10.815  69.758  1.00  0.00    -0.393 A  
HETATM    9  C   UNL     1     -10.666   9.909  69.306  1.00  0.00    -0.247 A  
HETATM   10  C   UNL     1      -9.632  10.354  68.495  1.00  0.00    -0.161 A  
HETATM   11  C   UNL     1      -9.562  11.705  68.147  1.00  0.00    -0.190 A  
HETATM   12  C   UNL     1     -10.527  12.625  68.589  1.00  0.00    -0.205 A  
BRANCH  12  13
HETATM   13  O   UNL     1     -10.223  13.921  68.271  1.00  0.00    -0.234 OA 
HETATM   14  C   UNL     1      -9.253  14.129  67.259  1.00  0.00    -0.219 C  
ENDBRANCH  12  13
ENDBRANCH   6   7
ENDBRANCH   4   6
ENDBRANCH   2   4
TORSDOF 4
ENDMDL
MODEL      169
REMARK 921   NORMALIZED FREE ENERGY PREDICTED BY IDOCK:   -2.99 KCAL/MOL
REMARK 922        TOTAL FREE ENERGY PREDICTED BY IDOCK:   -3.92 KCAL/MOL
REMARK 923 INTER-LIGAND FREE ENERGY PREDICTED BY IDOCK:   -3.93 KCAL/MOL
REMARK 924 INTRA-LIGAND FREE ENERGY PREDICTED BY IDOCK:    0.01 KCAL/MOL
REMARK 927      BINDING AFFINITY PREDICTED BY RF-SCORE:    0.00 PKD
ROOT
HETATM    1  C   UNL     1     -10.067  11.887  63.930  1.00  0.00    -0.370 C  
HETATM    2  N   UNL     1     -10.127  13.339  63.815  1.00  0.00    -0.637 NA 
HETATM    3  H   UNL     1      -9.750  13.644  62.917  1.00  0.00     0.000 HD 
ENDROOT
BRANCH   2   4
HETATM    4  C   UNL     1     -11.476  13.900  64.029  1.00  0.00    -0.158 C  
HETATM    5  C   UNL     1     -12.558  12.817  63.946  1.00  0.00    -0.380 C  
BRANCH   4   6
HETATM    6  C   UNL     1     -11.584  14.593  65.418  1.00  0.00    -0.345 C  
BRANCH   6   7
HETATM    7  C   UNL     1     -10.401  14.393  66.342  1.00  0.00    -0.289 A  
HETATM    8  C   UNL     1     -10.393  13.201  67.101  1.00  0.00    -0.247 A  
HETATM    9  C   UNL     1      -9.391  12.927  68.028  1.00  0.00    -0.213 A  
HETATM   10  C   UNL     1      -8.372  13.850  68.226  1.00  0.00    -0.163 A  
HETATM   11  C   UNL     1      -8.370  15.040  67.496  1.00  0.00    -0.192 A  
HETATM   12  C   UNL     1      -9.370  15.321  66.551  1.00  0.00    -0.281 A  
BRANCH  12  13
HETATM   13  O   UNL     1      -9.289  16.586  66.037  1.00  0.00    -0.353 OA 
HETATM   14  C   UNL     1      -9.864  17.633  66.801  1.00  0.00    -0.304 C  
ENDBRANCH  12  13
ENDBRANCH   6   7
ENDBRANCH   4   6
ENDBRANCH   2   4
TORSDOF 4
ENDMDL
MODEL      170
REMARK 921   NORMALIZED FREE ENERGY PREDICTED BY IDOCK:   -2.98 KCAL/MOL
REMARK 922        TOTAL FREE ENERGY PREDICTED BY IDOCK:   -3.92 KCAL/MOL
REMARK 923 INTER-LIGAND FREE ENERGY PREDICTED BY IDOCK:   -3.62 KCAL/MOL
REMARK 924 INTRA-LIGAND FREE ENERGY PREDICTED BY IDOCK:   -0.30 KCAL/MOL
REMARK 927      BINDING AFFINITY PREDICTED BY RF-SCORE:    0.00 PKD
ROOT
HETATM    1  C   UNL     1      -8.066   5.550  70.716  1.00  0.00    -0.113 C  
HETATM    2  N   UNL     1      -8.961   6.162  71.690  1.00  0.00    -0.142 NA 
HETATM    3  H   UNL     1      -8.947   7.178  71.601  1.00  0.00     0.000 HD 
ENDROOT
BRANCH   2   4
HETATM    4  C   UNL     1     -10.346   5.655  71.629  1.00  0.00    -0.215 C  
HETATM    5  C   UNL     1     -10.835   5.180  73.002  1.00  0.00    -0.336 C  
BRANCH   4   6
HETATM    6  C   UNL     1     -11.326   6.749  71.114  1.00  0.00    -0.342 C  
BRANCH   6   7
HETATM    7  C   UNL     1     -11.056   7.259  69.714  1.00  0.00    -0.203 A  
HETATM    8  C   UNL     1     -11.109   6.300  68.676  1.00  0.00    -0.409 A  
HETATM    9  C   UNL     1     -10.822   6.631  67.354  1.00  0.00    -0.434 A  
HETATM   10  C   UNL     1     -10.465   7.935  67.039  1.00  0.00    -0.419 A  
HETATM   11  C   UNL     1     -10.393   8.894  68.051  1.00  0.00    -0.271 A  
HETATM   12  C   UNL     1     -10.691   8.572  69.386  1.00  0.00    -0.156 A  
BRANCH  12  13
HETATM   13  O   UNL     1     -10.432   9.594  70.259  1.00  0.00    -0.242 OA 
HETATM   14  C   UNL     1     -11.448  10.567  70.436  1.00  0.00    -0.341 C  
ENDBRANCH  12  13
ENDBRANCH   6   7
ENDBRANCH   4   6
ENDBRANCH   2   4
TORSDOF 4
ENDMDL
MODEL      171
REMARK 921   NORMALIZED FREE ENERGY PREDICTED BY IDOCK:   -2.98 KCAL/MOL
REMARK 922        TOTAL FREE ENERGY PREDICTED BY IDOCK:   -3.91 KCAL/MOL
REMARK 923 INTER-LIGAND FREE ENERGY PREDICTED BY IDOCK:   -3.61 KCAL/MOL
REMARK 924 INTRA-LIGAND FREE ENERGY PREDICTED BY IDOCK:   -0.30 KCAL/MOL
REMARK 927      BINDING AFFINITY PREDICTED BY RF-SCORE:    0.00 PKD
ROOT
HETATM    1  C   UNL     1     -11.142  12.375  63.425  1.00  0.00    -0.402 C  
HETATM    2  N   UNL     1     -10.147  13.183  64.119  1.00  0.00    -0.721 NA 
HETATM    3  H   UNL     1      -9.681  13.815  63.468  1.00  0.00     0.000 HD 
ENDROOT
BRANCH   2   4
HETATM    4  C   UNL     1     -10.686  13.931  65.273  1.00  0.00    -0.345 C  
HETATM    5  C   UNL     1     -11.945  14.721  64.897  1.00  0.00    -0.359 C  
BRANCH   4   6
HETATM    6  C   UNL     1     -11.041  12.975  66.448  1.00  0.00    -0.313 C  
BRANCH   6   7
HETATM    7  C   UNL     1      -9.863  12.448  67.239  1.00  0.00    -0.207 A  
HETATM    8  C   UNL     1      -8.888  13.398  67.620  1.00  0.00    -0.200 A  
HETATM    9  C   UNL     1      -7.729  13.028  68.300  1.00  0.00    -0.141 A  
HETATM   10  C   UNL     1      -7.513  11.692  68.607  1.00  0.00    -0.117 A  
HETATM   11  C   UNL     1      -8.458  10.737  68.226  1.00  0.00    -0.130 A  
HETATM   12  C   UNL     1      -9.635  11.099  67.551  1.00  0.00    -0.168 A  
BRANCH  12  13
HETATM   13  O   UNL     1     -10.372  10.025  67.134  1.00  0.00    -0.214 OA 
HETATM   14  C   UNL     1      -9.809   9.207  66.122  1.00  0.00    -0.293 C  
ENDBRANCH  12  13
ENDBRANCH   6   7
ENDBRANCH   4   6
ENDBRANCH   2   4
TORSDOF 4
ENDMDL
MODEL      172
REMARK 921   NORMALIZED FREE ENERGY PREDICTED BY IDOCK:   -2.96 KCAL/MOL
REMARK 922        TOTAL FREE ENERGY PREDICTED BY IDOCK:   -3.89 KCAL/MOL
REMARK 923 INTER-LIGAND FREE ENERGY PREDICTED BY IDOCK:   -3.40 KCAL/MOL
REMARK 924 INTRA-LIGAND FREE ENERGY PREDICTED BY IDOCK:   -0.49 KCAL/MOL
REMARK 927      BINDING AFFINITY PREDICTED BY RF-SCORE:    0.00 PKD
ROOT
HETATM    1  C   UNL     1      -9.136   8.199  72.997  1.00  0.00    -0.274 C  
HETATM    2  N   UNL     1      -9.650   7.462  71.849  1.00  0.00    -0.151 NA 
HETATM    3  H   UNL     1     -10.664   7.558  71.786  1.00  0.00     0.000 HD 
ENDROOT
BRANCH   2   4
HETATM    4  C   UNL     1      -9.013   7.830  70.569  1.00  0.00    -0.150 C  
HETATM    5  C   UNL     1      -8.133   6.697  70.029  1.00  0.00    -0.121 C  
BRANCH   4   6
HETATM    6  C   UNL     1     -10.077   8.180  69.489  1.00  0.00    -0.193 C  
BRANCH   6   7
HETATM    7  C   UNL     1     -10.740   9.532  69.640  1.00  0.00    -0.257 A  
HETATM    8  C   UNL     1     -10.207  10.583  68.859  1.00  0.00    -0.223 A  
HETATM    9  C   UNL     1     -10.691  11.886  68.952  1.00  0.00    -0.236 A  
HETATM   10  C   UNL     1     -11.719  12.171  69.839  1.00  0.00    -0.361 A  
HETATM   11  C   UNL     1     -12.250  11.150  70.631  1.00  0.00    -0.492 A  
HETATM   12  C   UNL     1     -11.776   9.831  70.537  1.00  0.00    -0.268 A  
BRANCH  12  13
HETATM   13  O   UNL     1     -12.310   8.997  71.482  1.00  0.00    -0.301 OA 
HETATM   14  C   UNL     1     -13.277   9.548  72.359  1.00  0.00    -0.368 C  
ENDBRANCH  12  13
ENDBRANCH   6   7
ENDBRANCH   4   6
ENDBRANCH   2   4
TORSDOF 4
ENDMDL
MODEL      173
REMARK 921   NORMALIZED FREE ENERGY PREDICTED BY IDOCK:   -2.96 KCAL/MOL
REMARK 922        TOTAL FREE ENERGY PREDICTED BY IDOCK:   -3.89 KCAL/MOL
REMARK 923 INTER-LIGAND FREE ENERGY PREDICTED BY IDOCK:   -3.65 KCAL/MOL
REMARK 924 INTRA-LIGAND FREE ENERGY PREDICTED BY IDOCK:   -0.23 KCAL/MOL
REMARK 927      BINDING AFFINITY PREDICTED BY RF-SCORE:    0.00 PKD
ROOT
HETATM    1  C   UNL     1      -8.516   8.567  65.186  1.00  0.00    -0.175 C  
HETATM    2  N   UNL     1      -9.844   8.907  65.682  1.00  0.00    -0.453 NA 
HETATM    3  H   UNL     1     -10.564   8.521  65.072  1.00  0.00     0.000 HD 
ENDROOT
BRANCH   2   4
HETATM    4  C   UNL     1     -10.079   8.503  67.083  1.00  0.00    -0.262 C  
HETATM    5  C   UNL     1     -10.863   9.571  67.854  1.00  0.00    -0.240 C  
BRANCH   4   6
HETATM    6  C   UNL     1     -10.871   7.165  67.159  1.00  0.00    -0.403 C  
BRANCH   6   7
HETATM    7  C   UNL     1     -10.453   6.223  68.268  1.00  0.00    -0.277 A  
HETATM    8  C   UNL     1      -9.666   5.113  67.884  1.00  0.00    -0.184 A  
HETATM    9  C   UNL     1      -9.267   4.143  68.801  1.00  0.00    -0.206 A  
HETATM   10  C   UNL     1      -9.657   4.256  70.128  1.00  0.00    -0.269 A  
HETATM   11  C   UNL     1     -10.446   5.338  70.525  1.00  0.00    -0.312 A  
HETATM   12  C   UNL     1     -10.845   6.327  69.610  1.00  0.00    -0.339 A  
BRANCH  12  13
HETATM   13  O   UNL     1     -11.727   7.229  70.140  1.00  0.00    -0.180 OA 
HETATM   14  C   UNL     1     -12.131   7.026  71.484  1.00  0.00    -0.353 C  
ENDBRANCH  12  13
ENDBRANCH   6   7
ENDBRANCH   4   6
ENDBRANCH   2   4
TORSDOF 4
ENDMDL
MODEL      174
REMARK 921   NORMALIZED FREE ENERGY PREDICTED BY IDOCK:   -2.96 KCAL/MOL
REMARK 922        TOTAL FREE ENERGY PREDICTED BY IDOCK:   -3.89 KCAL/MOL
REMARK 923 INTER-LIGAND FREE ENERGY PREDICTED BY IDOCK:   -3.77 KCAL/MOL
REMARK 924 INTRA-LIGAND FREE ENERGY PREDICTED BY IDOCK:   -0.12 KCAL/MOL
REMARK 927      BINDING AFFINITY PREDICTED BY RF-SCORE:    0.00 PKD
ROOT
HETATM    1  C   UNL     1     -13.470   9.248  72.217  1.00  0.00    -0.482 C  
HETATM    2  N   UNL     1     -13.000   9.920  71.012  1.00  0.00    -0.474 NA 
HETATM    3  H   UNL     1     -13.409  10.851  70.937  1.00  0.00     0.000 HD 
ENDROOT
BRANCH   2   4
HETATM    4  C   UNL     1     -11.529   9.989  70.903  1.00  0.00    -0.371 C  
HETATM    5  C   UNL     1     -10.843   9.052  71.903  1.00  0.00    -0.413 C  
BRANCH   4   6
HETATM    6  C   UNL     1     -11.051   9.609  69.471  1.00  0.00    -0.198 C  
BRANCH   6   7
HETATM    7  C   UNL     1     -10.452  10.740  68.662  1.00  0.00    -0.213 A  
HETATM    8  C   UNL     1      -9.278  10.437  67.935  1.00  0.00    -0.143 A  
HETATM    9  C   UNL     1      -8.598  11.405  67.200  1.00  0.00    -0.151 A  
HETATM   10  C   UNL     1      -9.075  12.709  67.182  1.00  0.00    -0.210 A  
HETATM   11  C   UNL     1     -10.225  13.032  67.906  1.00  0.00    -0.234 A  
HETATM   12  C   UNL     1     -10.923  12.060  68.642  1.00  0.00    -0.240 A  
BRANCH  12  13
HETATM   13  O   UNL     1     -11.938  12.581  69.398  1.00  0.00    -0.298 OA 
HETATM   14  C   UNL     1     -12.126  13.986  69.349  1.00  0.00    -0.340 C  
ENDBRANCH  12  13
ENDBRANCH   6   7
ENDBRANCH   4   6
ENDBRANCH   2   4
TORSDOF 4
ENDMDL
MODEL      175
REMARK 921   NORMALIZED FREE ENERGY PREDICTED BY IDOCK:   -2.96 KCAL/MOL
REMARK 922        TOTAL FREE ENERGY PREDICTED BY IDOCK:   -3.88 KCAL/MOL
REMARK 923 INTER-LIGAND FREE ENERGY PREDICTED BY IDOCK:   -3.82 KCAL/MOL
REMARK 924 INTRA-LIGAND FREE ENERGY PREDICTED BY IDOCK:   -0.07 KCAL/MOL
REMARK 927      BINDING AFFINITY PREDICTED BY RF-SCORE:    0.00 PKD
ROOT
HETATM    1  C   UNL     1     -12.048  15.058  64.509  1.00  0.00    -0.363 C  
HETATM    2  N   UNL     1     -10.600  15.177  64.618  1.00  0.00    -0.573 NA 
HETATM    3  H   UNL     1     -10.211  15.610  63.781  1.00  0.00     0.000 HD 
ENDROOT
BRANCH   2   4
HETATM    4  C   UNL     1     -10.149  15.890  65.829  1.00  0.00    -0.361 C  
HETATM    5  C   UNL     1     -10.364  17.403  65.707  1.00  0.00    -0.226 C  
BRANCH   4   6
HETATM    6  C   UNL     1     -10.906  15.390  67.094  1.00  0.00    -0.321 C  
BRANCH   6   7
HETATM    7  C   UNL     1     -10.686  13.936  67.454  1.00  0.00    -0.275 A  
HETATM    8  C   UNL     1     -11.838  13.194  67.799  1.00  0.00    -0.392 A  
HETATM    9  C   UNL     1     -11.761  11.864  68.206  1.00  0.00    -0.385 A  
HETATM   10  C   UNL     1     -10.521  11.245  68.285  1.00  0.00    -0.220 A  
HETATM   11  C   UNL     1      -9.370  11.965  67.962  1.00  0.00    -0.193 A  
HETATM   12  C   UNL     1      -9.437  13.304  67.540  1.00  0.00    -0.220 A  
BRANCH  12  13
HETATM   13  O   UNL     1      -8.209  13.890  67.403  1.00  0.00    -0.171 OA 
HETATM   14  C   UNL     1      -7.324  13.805  68.508  1.00  0.00    -0.117 C  
ENDBRANCH  12  13
ENDBRANCH   6   7
ENDBRANCH   4   6
ENDBRANCH   2   4
TORSDOF 4
ENDMDL
MODEL      176
REMARK 921   NORMALIZED FREE ENERGY PREDICTED BY IDOCK:   -2.95 KCAL/MOL
REMARK 922        TOTAL FREE ENERGY PREDICTED BY IDOCK:   -3.87 KCAL/MOL
REMARK 923 INTER-LIGAND FREE ENERGY PREDICTED BY IDOCK:   -3.81 KCAL/MOL
REMARK 924 INTRA-LIGAND FREE ENERGY PREDICTED BY IDOCK:   -0.06 KCAL/MOL
REMARK 927      BINDING AFFINITY PREDICTED BY RF-SCORE:    0.00 PKD
ROOT
HETATM    1  C   UNL     1      -6.624  20.538  64.765  1.00  0.00    -0.258 C  
HETATM    2  N   UNL     1      -6.619  19.082  64.822  1.00  0.00    -0.451 NA 
HETATM    3  H   UNL     1      -5.868  18.703  64.246  1.00  0.00     0.000 HD 
ENDROOT
BRANCH   2   4
HETATM    4  C   UNL     1      -6.547  18.538  66.193  1.00  0.00    -0.232 C  
HETATM    5  C   UNL     1      -7.278  19.437  67.197  1.00  0.00    -0.231 C  
BRANCH   4   6
HETATM    6  C   UNL     1      -7.169  17.114  66.269  1.00  0.00    -0.308 C  
BRANCH   6   7
HETATM    7  C   UNL     1      -8.411  16.989  67.125  1.00  0.00    -0.222 A  
HETATM    8  C   UNL     1      -8.264  16.293  68.346  1.00  0.00    -0.185 A  
HETATM    9  C   UNL     1      -9.344  16.061  69.194  1.00  0.00    -0.251 A  
HETATM   10  C   UNL     1     -10.606  16.513  68.834  1.00  0.00    -0.326 A  
HETATM   11  C   UNL     1     -10.775  17.191  67.624  1.00  0.00    -0.302 A  
HETATM   12  C   UNL     1      -9.690  17.440  66.767  1.00  0.00    -0.290 A  
BRANCH  12  13
HETATM   13  O   UNL     1     -10.062  17.986  65.569  1.00  0.00    -0.508 OA 
HETATM   14  C   UNL     1     -10.738  19.232  65.608  1.00  0.00    -0.251 C  
ENDBRANCH  12  13
ENDBRANCH   6   7
ENDBRANCH   4   6
ENDBRANCH   2   4
TORSDOF 4
ENDMDL
MODEL      177
REMARK 921   NORMALIZED FREE ENERGY PREDICTED BY IDOCK:   -2.94 KCAL/MOL
REMARK 922        TOTAL FREE ENERGY PREDICTED BY IDOCK:   -3.86 KCAL/MOL
REMARK 923 INTER-LIGAND FREE ENERGY PREDICTED BY IDOCK:   -3.68 KCAL/MOL
REMARK 924 INTRA-LIGAND FREE ENERGY PREDICTED BY IDOCK:   -0.18 KCAL/MOL
REMARK 927      BINDING AFFINITY PREDICTED BY RF-SCORE:    0.00 PKD
ROOT
HETATM    1  C   UNL     1     -10.345   7.793  68.403  1.00  0.00    -0.196 C  
HETATM    2  N   UNL     1     -10.676   8.869  67.478  1.00  0.00    -0.447 NA 
HETATM    3  H   UNL     1     -11.616   8.742  67.101  1.00  0.00     0.000 HD 
ENDROOT
BRANCH   2   4
HETATM    4  C   UNL     1     -10.527  10.220  68.056  1.00  0.00    -0.196 C  
HETATM    5  C   UNL     1      -9.275  10.927  67.525  1.00  0.00    -0.153 C  
BRANCH   4   6
HETATM    6  C   UNL     1     -11.763  11.110  67.737  1.00  0.00    -0.220 C  
BRANCH   6   7
HETATM    7  C   UNL     1     -11.877  12.383  68.549  1.00  0.00    -0.352 A  
HETATM    8  C   UNL     1     -11.983  13.587  67.815  1.00  0.00    -0.369 A  
HETATM    9  C   UNL     1     -12.036  14.828  68.444  1.00  0.00    -0.270 A  
HETATM   10  C   UNL     1     -11.973  14.896  69.829  1.00  0.00    -0.366 A  
HETATM   11  C   UNL     1     -11.853  13.719  70.571  1.00  0.00    -0.296 A  
HETATM   12  C   UNL     1     -11.810  12.461  69.947  1.00  0.00    -0.305 A  
BRANCH  12  13
HETATM   13  O   UNL     1     -11.550  11.435  70.815  1.00  0.00    -0.133 OA 
HETATM   14  C   UNL     1     -12.653  10.879  71.509  1.00  0.00    -0.375 C  
ENDBRANCH  12  13
ENDBRANCH   6   7
ENDBRANCH   4   6
ENDBRANCH   2   4
TORSDOF 4
ENDMDL
MODEL      178
REMARK 921   NORMALIZED FREE ENERGY PREDICTED BY IDOCK:   -2.93 KCAL/MOL
REMARK 922        TOTAL FREE ENERGY PREDICTED BY IDOCK:   -3.86 KCAL/MOL
REMARK 923 INTER-LIGAND FREE ENERGY PREDICTED BY IDOCK:   -3.54 KCAL/MOL
REMARK 924 INTRA-LIGAND FREE ENERGY PREDICTED BY IDOCK:   -0.31 KCAL/MOL
REMARK 927      BINDING AFFINITY PREDICTED BY RF-SCORE:    0.00 PKD
ROOT
HETATM    1  C   UNL     1     -10.243  19.958  68.829  1.00  0.00    -0.339 C  
HETATM    2  N   UNL     1     -10.395  18.618  68.275  1.00  0.00    -0.368 NA 
HETATM    3  H   UNL     1     -11.143  18.116  68.753  1.00  0.00     0.000 HD 
ENDROOT
BRANCH   2   4
HETATM    4  C   UNL     1     -10.606  18.596  66.814  1.00  0.00    -0.371 C  
HETATM    5  C   UNL     1     -10.119  19.891  66.153  1.00  0.00    -0.611 C  
BRANCH   4   6
HETATM    6  C   UNL     1      -9.859  17.400  66.155  1.00  0.00    -0.260 C  
BRANCH   6   7
HETATM    7  C   UNL     1      -9.074  16.519  67.103  1.00  0.00    -0.227 A  
HETATM    8  C   UNL     1      -9.642  15.260  67.405  1.00  0.00    -0.207 A  
HETATM    9  C   UNL     1      -9.046  14.383  68.308  1.00  0.00    -0.193 A  
HETATM   10  C   UNL     1      -7.866  14.751  68.941  1.00  0.00    -0.152 A  
HETATM   11  C   UNL     1      -7.297  15.996  68.667  1.00  0.00    -0.159 A  
HETATM   12  C   UNL     1      -7.884  16.883  67.749  1.00  0.00    -0.178 A  
BRANCH  12  13
HETATM   13  O   UNL     1      -7.271  18.106  67.712  1.00  0.00    -0.208 OA 
HETATM   14  C   UNL     1      -6.745  18.604  68.931  1.00  0.00    -0.272 C  
ENDBRANCH  12  13
ENDBRANCH   6   7
ENDBRANCH   4   6
ENDBRANCH   2   4
TORSDOF 4
ENDMDL
MODEL      179
REMARK 921   NORMALIZED FREE ENERGY PREDICTED BY IDOCK:   -2.93 KCAL/MOL
REMARK 922        TOTAL FREE ENERGY PREDICTED BY IDOCK:   -3.85 KCAL/MOL
REMARK 923 INTER-LIGAND FREE ENERGY PREDICTED BY IDOCK:   -3.72 KCAL/MOL
REMARK 924 INTRA-LIGAND FREE ENERGY PREDICTED BY IDOCK:   -0.13 KCAL/MOL
REMARK 927      BINDING AFFINITY PREDICTED BY RF-SCORE:    0.00 PKD
ROOT
HETATM    1  C   UNL     1     -12.788  12.313  63.110  1.00  0.00     0.051 C  
HETATM    2  N   UNL     1     -11.847  11.219  62.905  1.00  0.00    -0.650 NA 
HETATM    3  H   UNL     1     -11.565  11.167  61.926  1.00  0.00     0.000 HD 
ENDROOT
BRANCH   2   4
HETATM    4  C   UNL     1     -10.663  11.276  63.784  1.00  0.00    -0.379 C  
HETATM    5  C   UNL     1      -9.378  10.921  63.026  1.00  0.00    -0.349 C  
BRANCH   4   6
HETATM    6  C   UNL     1     -10.488  12.694  64.404  1.00  0.00    -0.398 C  
BRANCH   6   7
HETATM    7  C   UNL     1     -10.681  12.778  65.903  1.00  0.00    -0.294 A  
HETATM    8  C   UNL     1     -11.954  13.205  66.348  1.00  0.00    -0.462 A  
HETATM    9  C   UNL     1     -12.238  13.379  67.700  1.00  0.00    -0.202 A  
HETATM   10  C   UNL     1     -11.248  13.139  68.643  1.00  0.00    -0.314 A  
HETATM   11  C   UNL     1      -9.981  12.731  68.223  1.00  0.00    -0.230 A  
HETATM   12  C   UNL     1      -9.687  12.542  66.862  1.00  0.00    -0.232 A  
BRANCH  12  13
HETATM   13  O   UNL     1      -8.364  12.280  66.626  1.00  0.00    -0.129 OA 
HETATM   14  C   UNL     1      -7.415  13.048  67.346  1.00  0.00    -0.131 C  
ENDBRANCH  12  13
ENDBRANCH   6   7
ENDBRANCH   4   6
ENDBRANCH   2   4
TORSDOF 4
ENDMDL
MODEL      180
REMARK 921   NORMALIZED FREE ENERGY PREDICTED BY IDOCK:   -2.91 KCAL/MOL
REMARK 922        TOTAL FREE ENERGY PREDICTED BY IDOCK:   -3.82 KCAL/MOL
REMARK 923 INTER-LIGAND FREE ENERGY PREDICTED BY IDOCK:   -3.54 KCAL/MOL
REMARK 924 INTRA-LIGAND FREE ENERGY PREDICTED BY IDOCK:   -0.28 KCAL/MOL
REMARK 927      BINDING AFFINITY PREDICTED BY RF-SCORE:    0.00 PKD
ROOT
HETATM    1  C   UNL     1      -9.229  16.065  66.146  1.00  0.00    -0.352 C  
HETATM    2  N   UNL     1     -10.592  15.852  66.615  1.00  0.00    -0.316 NA 
HETATM    3  H   UNL     1     -11.241  16.466  66.123  1.00  0.00     0.000 HD 
ENDROOT
BRANCH   2   4
HETATM    4  C   UNL     1     -11.039  14.448  66.531  1.00  0.00    -0.331 C  
HETATM    5  C   UNL     1     -11.327  14.032  65.083  1.00  0.00    -0.328 C  
BRANCH   4   6
HETATM    6  C   UNL     1      -9.970  13.479  67.114  1.00  0.00    -0.246 C  
BRANCH   6   7
HETATM    7  C   UNL     1     -10.488  12.451  68.097  1.00  0.00    -0.228 A  
HETATM    8  C   UNL     1     -11.708  12.759  68.742  1.00  0.00    -0.363 A  
HETATM    9  C   UNL     1     -12.260  11.923  69.710  1.00  0.00    -0.241 A  
HETATM   10  C   UNL     1     -11.595  10.757  70.064  1.00  0.00    -0.417 A  
HETATM   11  C   UNL     1     -10.382  10.442  69.449  1.00  0.00    -0.259 A  
HETATM   12  C   UNL     1      -9.823  11.272  68.464  1.00  0.00    -0.197 A  
BRANCH  12  13
HETATM   13  O   UNL     1      -8.569  10.883  68.076  1.00  0.00    -0.124 OA 
HETATM   14  C   UNL     1      -7.550  10.910  69.061  1.00  0.00    -0.135 C  
ENDBRANCH  12  13
ENDBRANCH   6   7
ENDBRANCH   4   6
ENDBRANCH   2   4
TORSDOF 4
ENDMDL
MODEL      181
REMARK 921   NORMALIZED FREE ENERGY PREDICTED BY IDOCK:   -2.88 KCAL/MOL
REMARK 922        TOTAL FREE ENERGY PREDICTED BY IDOCK:   -3.79 KCAL/MOL
REMARK 923 INTER-LIGAND FREE ENERGY PREDICTED BY IDOCK:   -3.45 KCAL/MOL
REMARK 924 INTRA-LIGAND FREE ENERGY PREDICTED BY IDOCK:   -0.34 KCAL/MOL
REMARK 927      BINDING AFFINITY PREDICTED BY RF-SCORE:    0.00 PKD
ROOT
HETATM    1  C   UNL     1      -8.571  10.876  68.727  1.00  0.00    -0.159 C  
HETATM    2  N   UNL     1      -9.936  11.349  68.922  1.00  0.00    -0.352 NA 
HETATM    3  H   UNL     1     -10.420  11.427  68.028  1.00  0.00     0.000 HD 
ENDROOT
BRANCH   2   4
HETATM    4  C   UNL     1     -10.722  10.532  69.868  1.00  0.00    -0.247 C  
HETATM    5  C   UNL     1     -12.226  10.794  69.726  1.00  0.00    -0.359 C  
BRANCH   4   6
HETATM    6  C   UNL     1     -10.467   9.013  69.648  1.00  0.00    -0.227 C  
BRANCH   6   7
HETATM    7  C   UNL     1     -10.510   8.157  70.896  1.00  0.00    -0.229 A  
HETATM    8  C   UNL     1     -11.661   7.355  71.067  1.00  0.00    -0.326 A  
HETATM    9  C   UNL     1     -11.846   6.568  72.202  1.00  0.00    -0.348 A  
HETATM   10  C   UNL     1     -10.882   6.572  73.200  1.00  0.00    -0.286 A  
HETATM   11  C   UNL     1      -9.744   7.368  73.056  1.00  0.00    -0.255 A  
HETATM   12  C   UNL     1      -9.543   8.157  71.911  1.00  0.00    -0.201 A  
BRANCH  12  13
HETATM   13  O   UNL     1      -8.450   8.975  72.004  1.00  0.00    -0.368 OA 
HETATM   14  C   UNL     1      -7.177   8.376  71.832  1.00  0.00    -0.095 C  
ENDBRANCH  12  13
ENDBRANCH   6   7
ENDBRANCH   4   6
ENDBRANCH   2   4
TORSDOF 4
ENDMDL
MODEL      182
REMARK 921   NORMALIZED FREE ENERGY PREDICTED BY IDOCK:   -2.86 KCAL/MOL
REMARK 922        TOTAL FREE ENERGY PREDICTED BY IDOCK:   -3.76 KCAL/MOL
REMARK 923 INTER-LIGAND FREE ENERGY PREDICTED BY IDOCK:   -3.48 KCAL/MOL
REMARK 924 INTRA-LIGAND FREE ENERGY PREDICTED BY IDOCK:   -0.28 KCAL/MOL
REMARK 927      BINDING AFFINITY PREDICTED BY RF-SCORE:    0.00 PKD
ROOT
HETATM    1  C   UNL     1     -11.499   6.345  69.747  1.00  0.00    -0.399 C  
HETATM    2  N   UNL     1     -12.508   6.640  70.756  1.00  0.00    -0.368 NA 
HETATM    3  H   UNL     1     -12.300   6.150  71.626  1.00  0.00     0.000 HD 
ENDROOT
BRANCH   2   4
HETATM    4  C   UNL     1     -12.699   8.083  71.005  1.00  0.00    -0.032 C  
HETATM    5  C   UNL     1     -13.694   8.334  72.143  1.00  0.00    -0.329 C  
BRANCH   4   6
HETATM    6  C   UNL     1     -11.353   8.774  71.372  1.00  0.00    -0.364 C  
BRANCH   6   7
HETATM    7  C   UNL     1     -10.890   9.850  70.412  1.00  0.00    -0.380 A  
HETATM    8  C   UNL     1     -11.860  10.800  70.019  1.00  0.00    -0.424 A  
HETATM    9  C   UNL     1     -11.574  11.803  69.097  1.00  0.00    -0.372 A  
HETATM   10  C   UNL     1     -10.307  11.875  68.536  1.00  0.00    -0.228 A  
HETATM   11  C   UNL     1      -9.339  10.937  68.900  1.00  0.00    -0.169 A  
HETATM   12  C   UNL     1      -9.613   9.928  69.837  1.00  0.00    -0.227 A  
BRANCH  12  13
HETATM   13  O   UNL     1      -8.599   9.018  69.966  1.00  0.00    -0.127 OA 
HETATM   14  C   UNL     1      -7.634   9.264  70.975  1.00  0.00    -0.059 C  
ENDBRANCH  12  13
ENDBRANCH   6   7
ENDBRANCH   4   6
ENDBRANCH   2   4
TORSDOF 4
ENDMDL
MODEL      183
REMARK 921   NORMALIZED FREE ENERGY PREDICTED BY IDOCK:   -2.83 KCAL/MOL
REMARK 922        TOTAL FREE ENERGY PREDICTED BY IDOCK:   -3.73 KCAL/MOL
REMARK 923 INTER-LIGAND FREE ENERGY PREDICTED BY IDOCK:   -3.45 KCAL/MOL
REMARK 924 INTRA-LIGAND FREE ENERGY PREDICTED BY IDOCK:   -0.29 KCAL/MOL
REMARK 927      BINDING AFFINITY PREDICTED BY RF-SCORE:    0.00 PKD
ROOT
HETATM    1  C   UNL     1      -8.449  14.540  68.652  1.00  0.00    -0.161 C  
HETATM    2  N   UNL     1      -7.949  15.332  67.535  1.00  0.00    -0.160 NA 
HETATM    3  H   UNL     1      -7.822  14.747  66.709  1.00  0.00     0.000 HD 
ENDROOT
BRANCH   2   4
HETATM    4  C   UNL     1      -8.782  16.508  67.216  1.00  0.00    -0.188 C  
HETATM    5  C   UNL     1     -10.224  16.106  66.885  1.00  0.00    -0.283 C  
BRANCH   4   6
HETATM    6  C   UNL     1      -8.816  17.514  68.403  1.00  0.00    -0.276 C  
BRANCH   6   7
HETATM    7  C   UNL     1      -8.007  18.779  68.209  1.00  0.00    -0.346 A  
HETATM    8  C   UNL     1      -8.417  19.630  67.157  1.00  0.00    -0.345 A  
HETATM    9  C   UNL     1      -7.720  20.794  66.840  1.00  0.00    -0.214 A  
HETATM   10  C   UNL     1      -6.586  21.130  67.565  1.00  0.00    -0.428 A  
HETATM   11  C   UNL     1      -6.156  20.295  68.598  1.00  0.00    -0.335 A  
HETATM   12  C   UNL     1      -6.858  19.125  68.934  1.00  0.00    -0.322 A  
BRANCH  12  13
HETATM   13  O   UNL     1      -6.218  18.361  69.871  1.00  0.00    -0.221 OA 
HETATM   14  C   UNL     1      -5.378  17.322  69.395  1.00  0.00    -0.170 C  
ENDBRANCH  12  13
ENDBRANCH   6   7
ENDBRANCH   4   6
ENDBRANCH   2   4
TORSDOF 4
ENDMDL
MODEL      184
REMARK 921   NORMALIZED FREE ENERGY PREDICTED BY IDOCK:   -2.83 KCAL/MOL
REMARK 922        TOTAL FREE ENERGY PREDICTED BY IDOCK:   -3.73 KCAL/MOL
REMARK 923 INTER-LIGAND FREE ENERGY PREDICTED BY IDOCK:   -3.44 KCAL/MOL
REMARK 924 INTRA-LIGAND FREE ENERGY PREDICTED BY IDOCK:   -0.29 KCAL/MOL
REMARK 927      BINDING AFFINITY PREDICTED BY RF-SCORE:    0.00 PKD
ROOT
HETATM    1  C   UNL     1      -7.992  15.567  66.965  1.00  0.00    -0.233 C  
HETATM    2  N   UNL     1      -8.840  15.111  68.059  1.00  0.00    -0.168 NA 
HETATM    3  H   UNL     1      -9.081  15.888  68.674  1.00  0.00     0.000 HD 
ENDROOT
BRANCH   2   4
HETATM    4  C   UNL     1     -10.057  14.403  67.615  1.00  0.00    -0.222 C  
HETATM    5  C   UNL     1     -11.278  15.331  67.603  1.00  0.00    -0.320 C  
BRANCH   4   6
HETATM    6  C   UNL     1      -9.878  13.813  66.186  1.00  0.00    -0.310 C  
BRANCH   6   7
HETATM    7  C   UNL     1      -9.862  12.301  66.103  1.00  0.00    -0.257 A  
HETATM    8  C   UNL     1      -9.561  11.610  67.299  1.00  0.00    -0.182 A  
HETATM    9  C   UNL     1      -9.458  10.222  67.339  1.00  0.00    -0.174 A  
HETATM   10  C   UNL     1      -9.645   9.489  66.176  1.00  0.00    -0.302 A  
HETATM   11  C   UNL     1      -9.929  10.154  64.981  1.00  0.00    -0.375 A  
HETATM   12  C   UNL     1     -10.046  11.553  64.932  1.00  0.00    -0.268 A  
BRANCH  12  13
HETATM   13  O   UNL     1     -10.185  12.039  63.660  1.00  0.00    -0.381 OA 
HETATM   14  C   UNL     1      -9.531  11.331  62.621  1.00  0.00    -0.244 C  
ENDBRANCH  12  13
ENDBRANCH   6   7
ENDBRANCH   4   6
ENDBRANCH   2   4
TORSDOF 4
ENDMDL
MODEL      185
REMARK 921   NORMALIZED FREE ENERGY PREDICTED BY IDOCK:   -2.83 KCAL/MOL
REMARK 922        TOTAL FREE ENERGY PREDICTED BY IDOCK:   -3.72 KCAL/MOL
REMARK 923 INTER-LIGAND FREE ENERGY PREDICTED BY IDOCK:   -3.51 KCAL/MOL
REMARK 924 INTRA-LIGAND FREE ENERGY PREDICTED BY IDOCK:   -0.22 KCAL/MOL
REMARK 927      BINDING AFFINITY PREDICTED BY RF-SCORE:    0.00 PKD
ROOT
HETATM    1  C   UNL     1      -7.867  15.464  69.116  1.00  0.00    -0.212 C  
HETATM    2  N   UNL     1      -7.956  14.012  69.025  1.00  0.00    -0.326 NA 
HETATM    3  H   UNL     1      -8.884  13.692  69.303  1.00  0.00     0.000 HD 
ENDROOT
BRANCH   2   4
HETATM    4  C   UNL     1      -7.597  13.474  67.698  1.00  0.00    -0.177 C  
HETATM    5  C   UNL     1      -6.235  12.771  67.723  1.00  0.00    -0.138 C  
BRANCH   4   6
HETATM    6  C   UNL     1      -8.662  12.458  67.194  1.00  0.00    -0.195 C  
BRANCH   6   7
HETATM    7  C   UNL     1      -9.702  12.043  68.214  1.00  0.00    -0.205 A  
HETATM    8  C   UNL     1      -9.579  10.735  68.738  1.00  0.00    -0.194 A  
HETATM    9  C   UNL     1     -10.506  10.215  69.638  1.00  0.00    -0.282 A  
HETATM   10  C   UNL     1     -11.587  10.992  70.031  1.00  0.00    -0.427 A  
HETATM   11  C   UNL     1     -11.734  12.280  69.514  1.00  0.00    -0.398 A  
HETATM   12  C   UNL     1     -10.800  12.818  68.613  1.00  0.00    -0.253 A  
BRANCH  12  13
HETATM   13  O   UNL     1     -11.176  14.031  68.104  1.00  0.00    -0.254 OA 
HETATM   14  C   UNL     1     -12.004  14.021  66.953  1.00  0.00    -0.447 C  
ENDBRANCH  12  13
ENDBRANCH   6   7
ENDBRANCH   4   6
ENDBRANCH   2   4
TORSDOF 4
ENDMDL
MODEL      186
REMARK 921   NORMALIZED FREE ENERGY PREDICTED BY IDOCK:   -2.83 KCAL/MOL
REMARK 922        TOTAL FREE ENERGY PREDICTED BY IDOCK:   -3.72 KCAL/MOL
REMARK 923 INTER-LIGAND FREE ENERGY PREDICTED BY IDOCK:   -3.49 KCAL/MOL
REMARK 924 INTRA-LIGAND FREE ENERGY PREDICTED BY IDOCK:   -0.23 KCAL/MOL
REMARK 927      BINDING AFFINITY PREDICTED BY RF-SCORE:    0.00 PKD
ROOT
HETATM    1  C   UNL     1      -9.363   9.146  70.729  1.00  0.00    -0.264 C  
HETATM    2  N   UNL     1      -9.507   9.865  69.469  1.00  0.00    -0.210 NA 
HETATM    3  H   UNL     1      -8.696  10.460  69.301  1.00  0.00     0.000 HD 
ENDROOT
BRANCH   2   4
HETATM    4  C   UNL     1      -9.760   8.990  68.307  1.00  0.00    -0.152 C  
HETATM    5  C   UNL     1     -10.505   7.713  68.713  1.00  0.00    -0.208 C  
BRANCH   4   6
HETATM    6  C   UNL     1     -10.602   9.723  67.222  1.00  0.00    -0.320 C  
BRANCH   6   7
HETATM    7  C   UNL     1     -10.010   9.724  65.829  1.00  0.00    -0.349 A  
HETATM    8  C   UNL     1      -9.026   8.744  65.565  1.00  0.00    -0.231 A  
HETATM    9  C   UNL     1      -8.364   8.678  64.341  1.00  0.00    -0.148 A  
HETATM   10  C   UNL     1      -8.666   9.602  63.350  1.00  0.00    -0.237 A  
HETATM   11  C   UNL     1      -9.625  10.587  63.596  1.00  0.00    -0.370 A  
HETATM   12  C   UNL     1     -10.306  10.656  64.823  1.00  0.00    -0.283 A  
BRANCH  12  13
HETATM   13  O   UNL     1     -11.101  11.763  64.939  1.00  0.00    -0.305 OA 
HETATM   14  C   UNL     1     -10.804  12.864  64.097  1.00  0.00    -0.416 C  
ENDBRANCH  12  13
ENDBRANCH   6   7
ENDBRANCH   4   6
ENDBRANCH   2   4
TORSDOF 4
ENDMDL
MODEL      187
REMARK 921   NORMALIZED FREE ENERGY PREDICTED BY IDOCK:   -2.82 KCAL/MOL
REMARK 922        TOTAL FREE ENERGY PREDICTED BY IDOCK:   -3.72 KCAL/MOL
REMARK 923 INTER-LIGAND FREE ENERGY PREDICTED BY IDOCK:   -3.40 KCAL/MOL
REMARK 924 INTRA-LIGAND FREE ENERGY PREDICTED BY IDOCK:   -0.31 KCAL/MOL
REMARK 927      BINDING AFFINITY PREDICTED BY RF-SCORE:    0.00 PKD
ROOT
HETATM    1  C   UNL     1      -8.081  15.320  68.991  1.00  0.00    -0.202 C  
HETATM    2  N   UNL     1      -9.396  14.914  69.472  1.00  0.00    -0.426 NA 
HETATM    3  H   UNL     1      -9.910  15.718  69.833  1.00  0.00     0.000 HD 
ENDROOT
BRANCH   2   4
HETATM    4  C   UNL     1     -10.202  14.192  68.467  1.00  0.00    -0.247 C  
HETATM    5  C   UNL     1     -11.563  14.862  68.247  1.00  0.00    -0.356 C  
BRANCH   4   6
HETATM    6  C   UNL     1      -9.465  14.121  67.098  1.00  0.00    -0.237 C  
BRANCH   6   7
HETATM    7  C   UNL     1      -9.553  12.792  66.379  1.00  0.00    -0.254 A  
HETATM    8  C   UNL     1     -10.455  12.725  65.292  1.00  0.00    -0.312 A  
HETATM    9  C   UNL     1     -10.669  11.543  64.587  1.00  0.00    -0.379 A  
HETATM   10  C   UNL     1      -9.990  10.392  64.960  1.00  0.00    -0.399 A  
HETATM   11  C   UNL     1      -9.105  10.434  66.039  1.00  0.00    -0.187 A  
HETATM   12  C   UNL     1      -8.873  11.623  66.750  1.00  0.00    -0.184 A  
BRANCH  12  13
HETATM   13  O   UNL     1      -8.089  11.447  67.858  1.00  0.00    -0.117 OA 
HETATM   14  C   UNL     1      -7.954  10.124  68.351  1.00  0.00    -0.102 C  
ENDBRANCH  12  13
ENDBRANCH   6   7
ENDBRANCH   4   6
ENDBRANCH   2   4
TORSDOF 4
ENDMDL
MODEL      188
REMARK 921   NORMALIZED FREE ENERGY PREDICTED BY IDOCK:   -2.81 KCAL/MOL
REMARK 922        TOTAL FREE ENERGY PREDICTED BY IDOCK:   -3.71 KCAL/MOL
REMARK 923 INTER-LIGAND FREE ENERGY PREDICTED BY IDOCK:   -3.33 KCAL/MOL
REMARK 924 INTRA-LIGAND FREE ENERGY PREDICTED BY IDOCK:   -0.38 KCAL/MOL
REMARK 927      BINDING AFFINITY PREDICTED BY RF-SCORE:    0.00 PKD
ROOT
HETATM    1  C   UNL     1     -10.619   4.984  72.223  1.00  0.00    -0.206 C  
HETATM    2  N   UNL     1     -11.758   5.853  72.489  1.00  0.00    -0.448 NA 
HETATM    3  H   UNL     1     -11.859   6.015  73.491  1.00  0.00     0.000 HD 
ENDROOT
BRANCH   2   4
HETATM    4  C   UNL     1     -11.714   7.135  71.758  1.00  0.00    -0.290 C  
HETATM    5  C   UNL     1     -11.939   8.328  72.695  1.00  0.00    -0.360 C  
BRANCH   4   6
HETATM    6  C   UNL     1     -10.346   7.329  71.041  1.00  0.00    -0.208 C  
BRANCH   6   7
HETATM    7  C   UNL     1     -10.426   7.675  69.569  1.00  0.00    -0.227 A  
HETATM    8  C   UNL     1     -10.564   9.046  69.254  1.00  0.00    -0.226 A  
HETATM    9  C   UNL     1     -10.706   9.487  67.940  1.00  0.00    -0.285 A  
HETATM   10  C   UNL     1     -10.722   8.562  66.907  1.00  0.00    -0.156 A  
HETATM   11  C   UNL     1     -10.602   7.201  67.198  1.00  0.00    -0.417 A  
HETATM   12  C   UNL     1     -10.447   6.747  68.518  1.00  0.00    -0.204 A  
BRANCH  12  13
HETATM   13  O   UNL     1     -10.486   5.383  68.629  1.00  0.00    -0.181 OA 
HETATM   14  C   UNL     1      -9.244   4.701  68.662  1.00  0.00    -0.126 C  
ENDBRANCH  12  13
ENDBRANCH   6   7
ENDBRANCH   4   6
ENDBRANCH   2   4
TORSDOF 4
ENDMDL
MODEL      189
REMARK 921   NORMALIZED FREE ENERGY PREDICTED BY IDOCK:   -2.81 KCAL/MOL
REMARK 922        TOTAL FREE ENERGY PREDICTED BY IDOCK:   -3.70 KCAL/MOL
REMARK 923 INTER-LIGAND FREE ENERGY PREDICTED BY IDOCK:   -3.54 KCAL/MOL
REMARK 924 INTRA-LIGAND FREE ENERGY PREDICTED BY IDOCK:   -0.16 KCAL/MOL
REMARK 927      BINDING AFFINITY PREDICTED BY RF-SCORE:    0.00 PKD
ROOT
HETATM    1  C   UNL     1      -7.011   5.406  69.464  1.00  0.00    -0.062 C  
HETATM    2  N   UNL     1      -7.783   6.638  69.566  1.00  0.00    -0.102 NA 
HETATM    3  H   UNL     1      -8.375   6.760  68.744  1.00  0.00     0.000 HD 
ENDROOT
BRANCH   2   4
HETATM    4  C   UNL     1      -8.584   6.740  70.802  1.00  0.00    -0.141 C  
HETATM    5  C   UNL     1      -7.961   5.934  71.948  1.00  0.00    -0.107 C  
BRANCH   4   6
HETATM    6  C   UNL     1      -8.723   8.219  71.265  1.00  0.00    -0.186 C  
BRANCH   6   7
HETATM    7  C   UNL     1     -10.131   8.776  71.257  1.00  0.00    -0.336 A  
HETATM    8  C   UNL     1     -10.344   9.930  70.468  1.00  0.00    -0.298 A  
HETATM    9  C   UNL     1     -11.580  10.571  70.424  1.00  0.00    -0.430 A  
HETATM   10  C   UNL     1     -12.634  10.075  71.179  1.00  0.00    -0.480 A  
HETATM   11  C   UNL     1     -12.439   8.945  71.976  1.00  0.00    -0.461 A  
HETATM   12  C   UNL     1     -11.200   8.285  72.019  1.00  0.00    -0.323 A  
BRANCH  12  13
HETATM   13  O   UNL     1     -11.151   7.289  72.956  1.00  0.00    -0.324 OA 
HETATM   14  C   UNL     1     -11.518   5.986  72.534  1.00  0.00    -0.290 C  
ENDBRANCH  12  13
ENDBRANCH   6   7
ENDBRANCH   4   6
ENDBRANCH   2   4
TORSDOF 4
ENDMDL
MODEL      190
REMARK 921   NORMALIZED FREE ENERGY PREDICTED BY IDOCK:   -2.80 KCAL/MOL
REMARK 922        TOTAL FREE ENERGY PREDICTED BY IDOCK:   -3.69 KCAL/MOL
REMARK 923 INTER-LIGAND FREE ENERGY PREDICTED BY IDOCK:   -3.53 KCAL/MOL
REMARK 924 INTRA-LIGAND FREE ENERGY PREDICTED BY IDOCK:   -0.16 KCAL/MOL
REMARK 927      BINDING AFFINITY PREDICTED BY RF-SCORE:    0.00 PKD
ROOT
HETATM    1  C   UNL     1      -8.274   9.252  70.652  1.00  0.00    -0.190 C  
HETATM    2  N   UNL     1      -9.474   8.464  70.904  1.00  0.00    -0.161 NA 
HETATM    3  H   UNL     1      -9.250   7.636  71.456  1.00  0.00     0.000 HD 
ENDROOT
BRANCH   2   4
HETATM    4  C   UNL     1     -10.568   9.229  71.535  1.00  0.00    -0.335 C  
HETATM    5  C   UNL     1     -11.401   9.986  70.495  1.00  0.00    -0.409 C  
BRANCH   4   6
HETATM    6  C   UNL     1     -11.520   8.294  72.337  1.00  0.00    -0.463 C  
BRANCH   6   7
HETATM    7  C   UNL     1     -10.894   7.018  72.858  1.00  0.00    -0.334 A  
HETATM    8  C   UNL     1     -11.618   5.825  72.629  1.00  0.00    -0.304 A  
HETATM    9  C   UNL     1     -11.177   4.594  73.110  1.00  0.00    -0.367 A  
HETATM   10  C   UNL     1     -10.001   4.529  73.844  1.00  0.00    -0.195 A  
HETATM   11  C   UNL     1      -9.279   5.698  74.094  1.00  0.00    -0.127 A  
HETATM   12  C   UNL     1      -9.709   6.943  73.604  1.00  0.00    -0.235 A  
BRANCH  12  13
HETATM   13  O   UNL     1      -8.960   7.992  74.063  1.00  0.00    -0.249 OA 
HETATM   14  C   UNL     1      -7.562   7.788  74.177  1.00  0.00    -0.157 C  
ENDBRANCH  12  13
ENDBRANCH   6   7
ENDBRANCH   4   6
ENDBRANCH   2   4
TORSDOF 4
ENDMDL
MODEL      191
REMARK 921   NORMALIZED FREE ENERGY PREDICTED BY IDOCK:   -2.79 KCAL/MOL
REMARK 922        TOTAL FREE ENERGY PREDICTED BY IDOCK:   -3.68 KCAL/MOL
REMARK 923 INTER-LIGAND FREE ENERGY PREDICTED BY IDOCK:   -3.45 KCAL/MOL
REMARK 924 INTRA-LIGAND FREE ENERGY PREDICTED BY IDOCK:   -0.23 KCAL/MOL
REMARK 927      BINDING AFFINITY PREDICTED BY RF-SCORE:    0.00 PKD
ROOT
HETATM    1  C   UNL     1     -10.695  15.212  70.959  1.00  0.00     0.051 C  
HETATM    2  N   UNL     1      -9.861  14.762  69.852  1.00  0.00    -0.427 NA 
HETATM    3  H   UNL     1     -10.192  13.866  69.494  1.00  0.00     0.000 HD 
ENDROOT
BRANCH   2   4
HETATM    4  C   UNL     1      -9.739  15.745  68.757  1.00  0.00    -0.213 C  
HETATM    5  C   UNL     1     -11.038  15.857  67.951  1.00  0.00    -0.317 C  
BRANCH   4   6
HETATM    6  C   UNL     1      -9.382  17.157  69.305  1.00  0.00     0.057 C  
BRANCH   6   7
HETATM    7  C   UNL     1      -9.212  18.239  68.260  1.00  0.00    -0.322 A  
HETATM    8  C   UNL     1     -10.168  19.281  68.275  1.00  0.00    -0.513 A  
HETATM    9  C   UNL     1     -10.156  20.303  67.329  1.00  0.00    -0.545 A  
HETATM   10  C   UNL     1      -9.188  20.302  66.334  1.00  0.00    -0.348 A  
HETATM   11  C   UNL     1      -8.243  19.274  66.294  1.00  0.00    -0.327 A  
HETATM   12  C   UNL     1      -8.240  18.244  67.249  1.00  0.00    -0.237 A  
BRANCH  12  13
HETATM   13  O   UNL     1      -7.339  17.253  66.973  1.00  0.00    -0.161 OA 
HETATM   14  C   UNL     1      -5.963  17.581  67.080  1.00  0.00    -0.146 C  
ENDBRANCH  12  13
ENDBRANCH   6   7
ENDBRANCH   4   6
ENDBRANCH   2   4
TORSDOF 4
ENDMDL
MODEL      192
REMARK 921   NORMALIZED FREE ENERGY PREDICTED BY IDOCK:   -2.78 KCAL/MOL
REMARK 922        TOTAL FREE ENERGY PREDICTED BY IDOCK:   -3.67 KCAL/MOL
REMARK 923 INTER-LIGAND FREE ENERGY PREDICTED BY IDOCK:   -3.64 KCAL/MOL
REMARK 924 INTRA-LIGAND FREE ENERGY PREDICTED BY IDOCK:   -0.03 KCAL/MOL
REMARK 927      BINDING AFFINITY PREDICTED BY RF-SCORE:    0.00 PKD
ROOT
HETATM    1  C   UNL     1      -6.337  12.815  67.528  1.00  0.00    -0.162 C  
HETATM    2  N   UNL     1      -7.455  12.437  66.672  1.00  0.00    -0.356 NA 
HETATM    3  H   UNL     1      -7.179  12.461  65.691  1.00  0.00     0.000 HD 
ENDROOT
BRANCH   2   4
HETATM    4  C   UNL     1      -8.052  11.131  67.012  1.00  0.00    -0.148 C  
HETATM    5  C   UNL     1      -7.891  10.806  68.502  1.00  0.00    -0.122 C  
BRANCH   4   6
HETATM    6  C   UNL     1      -9.568  11.096  66.665  1.00  0.00    -0.215 C  
BRANCH   6   7
HETATM    7  C   UNL     1     -10.375  12.284  67.146  1.00  0.00    -0.234 A  
HETATM    8  C   UNL     1     -10.939  12.177  68.438  1.00  0.00    -0.271 A  
HETATM    9  C   UNL     1     -11.749  13.177  68.970  1.00  0.00    -0.367 A  
HETATM   10  C   UNL     1     -12.023  14.309  68.215  1.00  0.00    -0.346 A  
HETATM   11  C   UNL     1     -11.487  14.427  66.931  1.00  0.00    -0.379 A  
HETATM   12  C   UNL     1     -10.660  13.429  66.389  1.00  0.00    -0.285 A  
BRANCH  12  13
HETATM   13  O   UNL     1     -10.343  13.645  65.075  1.00  0.00    -0.353 OA 
HETATM   14  C   UNL     1     -11.147  13.000  64.102  1.00  0.00    -0.401 C  
ENDBRANCH  12  13
ENDBRANCH   6   7
ENDBRANCH   4   6
ENDBRANCH   2   4
TORSDOF 4
ENDMDL
MODEL      193
REMARK 921   NORMALIZED FREE ENERGY PREDICTED BY IDOCK:   -2.78 KCAL/MOL
REMARK 922        TOTAL FREE ENERGY PREDICTED BY IDOCK:   -3.67 KCAL/MOL
REMARK 923 INTER-LIGAND FREE ENERGY PREDICTED BY IDOCK:   -3.73 KCAL/MOL
REMARK 924 INTRA-LIGAND FREE ENERGY PREDICTED BY IDOCK:    0.05 KCAL/MOL
REMARK 927      BINDING AFFINITY PREDICTED BY RF-SCORE:    0.00 PKD
ROOT
HETATM    1  C   UNL     1     -12.218  13.378  63.855  1.00  0.00    -0.415 C  
HETATM    2  N   UNL     1     -12.790  13.955  65.065  1.00  0.00    -0.733 NA 
HETATM    3  H   UNL     1     -13.484  13.325  65.469  1.00  0.00     0.000 HD 
ENDROOT
BRANCH   2   4
HETATM    4  C   UNL     1     -11.786  14.339  66.076  1.00  0.00    -0.391 C  
HETATM    5  C   UNL     1     -12.024  13.622  67.410  1.00  0.00    -0.413 C  
BRANCH   4   6
HETATM    6  C   UNL     1     -10.344  14.008  65.594  1.00  0.00    -0.342 C  
BRANCH   6   7
HETATM    7  C   UNL     1      -9.435  13.386  66.633  1.00  0.00    -0.264 A  
HETATM    8  C   UNL     1      -9.448  11.975  66.714  1.00  0.00    -0.212 A  
HETATM    9  C   UNL     1      -8.701  11.287  67.667  1.00  0.00    -0.131 A  
HETATM   10  C   UNL     1      -7.927  11.999  68.572  1.00  0.00    -0.132 A  
HETATM   11  C   UNL     1      -7.911  13.394  68.518  1.00  0.00    -0.107 A  
HETATM   12  C   UNL     1      -8.653  14.097  67.554  1.00  0.00    -0.191 A  
BRANCH  12  13
HETATM   13  O   UNL     1      -8.631  15.453  67.738  1.00  0.00    -0.152 OA 
HETATM   14  C   UNL     1      -8.442  15.923  69.063  1.00  0.00    -0.242 C  
ENDBRANCH  12  13
ENDBRANCH   6   7
ENDBRANCH   4   6
ENDBRANCH   2   4
TORSDOF 4
ENDMDL
MODEL      194
REMARK 921   NORMALIZED FREE ENERGY PREDICTED BY IDOCK:   -2.78 KCAL/MOL
REMARK 922        TOTAL FREE ENERGY PREDICTED BY IDOCK:   -3.67 KCAL/MOL
REMARK 923 INTER-LIGAND FREE ENERGY PREDICTED BY IDOCK:   -3.42 KCAL/MOL
REMARK 924 INTRA-LIGAND FREE ENERGY PREDICTED BY IDOCK:   -0.25 KCAL/MOL
REMARK 927      BINDING AFFINITY PREDICTED BY RF-SCORE:    0.00 PKD
ROOT
HETATM    1  C   UNL     1      -7.961   8.840  65.048  1.00  0.00    -0.132 C  
HETATM    2  N   UNL     1      -9.013   9.838  64.902  1.00  0.00    -0.200 NA 
HETATM    3  H   UNL     1      -9.548   9.673  64.050  1.00  0.00     0.000 HD 
ENDROOT
BRANCH   2   4
HETATM    4  C   UNL     1      -9.911   9.935  66.070  1.00  0.00    -0.264 C  
HETATM    5  C   UNL     1     -10.282   8.551  66.614  1.00  0.00    -0.345 C  
BRANCH   4   6
HETATM    6  C   UNL     1      -9.254  10.752  67.220  1.00  0.00    -0.158 C  
BRANCH   6   7
HETATM    7  C   UNL     1     -10.186  11.667  67.985  1.00  0.00    -0.202 A  
HETATM    8  C   UNL     1     -10.134  13.039  67.648  1.00  0.00    -0.217 A  
HETATM    9  C   UNL     1     -10.899  13.990  68.319  1.00  0.00    -0.268 A  
HETATM   10  C   UNL     1     -11.732  13.590  69.354  1.00  0.00    -0.381 A  
HETATM   11  C   UNL     1     -11.788  12.241  69.712  1.00  0.00    -0.388 A  
HETATM   12  C   UNL     1     -11.028  11.273  69.035  1.00  0.00    -0.236 A  
BRANCH  12  13
HETATM   13  O   UNL     1     -11.099  10.032  69.608  1.00  0.00    -0.242 OA 
HETATM   14  C   UNL     1     -11.441   9.974  70.983  1.00  0.00    -0.383 C  
ENDBRANCH  12  13
ENDBRANCH   6   7
ENDBRANCH   4   6
ENDBRANCH   2   4
TORSDOF 4
ENDMDL
MODEL      195
REMARK 921   NORMALIZED FREE ENERGY PREDICTED BY IDOCK:   -2.78 KCAL/MOL
REMARK 922        TOTAL FREE ENERGY PREDICTED BY IDOCK:   -3.66 KCAL/MOL
REMARK 923 INTER-LIGAND FREE ENERGY PREDICTED BY IDOCK:   -3.41 KCAL/MOL
REMARK 924 INTRA-LIGAND FREE ENERGY PREDICTED BY IDOCK:   -0.26 KCAL/MOL
REMARK 927      BINDING AFFINITY PREDICTED BY RF-SCORE:    0.00 PKD
ROOT
HETATM    1  C   UNL     1      -6.091  12.288  69.998  1.00  0.00    -0.130 C  
HETATM    2  N   UNL     1      -7.045  13.332  69.648  1.00  0.00    -0.317 NA 
HETATM    3  H   UNL     1      -6.736  14.236  70.006  1.00  0.00     0.000 HD 
ENDROOT
BRANCH   2   4
HETATM    4  C   UNL     1      -7.333  13.418  68.202  1.00  0.00    -0.117 C  
HETATM    5  C   UNL     1      -6.515  12.398  67.402  1.00  0.00    -0.154 C  
BRANCH   4   6
HETATM    6  C   UNL     1      -8.842  13.171  67.912  1.00  0.00    -0.196 C  
BRANCH   6   7
HETATM    7  C   UNL     1      -9.463  14.079  66.872  1.00  0.00    -0.271 A  
HETATM    8  C   UNL     1      -9.508  15.456  67.189  1.00  0.00    -0.221 A  
HETATM    9  C   UNL     1     -10.106  16.386  66.341  1.00  0.00    -0.328 A  
HETATM   10  C   UNL     1     -10.685  15.956  65.155  1.00  0.00    -0.449 A  
HETATM   11  C   UNL     1     -10.663  14.598  64.831  1.00  0.00    -0.447 A  
HETATM   12  C   UNL     1     -10.053  13.654  65.673  1.00  0.00    -0.284 A  
BRANCH  12  13
HETATM   13  O   UNL     1     -10.250  12.361  65.269  1.00  0.00    -0.276 OA 
HETATM   14  C   UNL     1     -11.587  11.891  65.233  1.00  0.00    -0.216 C  
ENDBRANCH  12  13
ENDBRANCH   6   7
ENDBRANCH   4   6
ENDBRANCH   2   4
TORSDOF 4
ENDMDL
MODEL      196
REMARK 921   NORMALIZED FREE ENERGY PREDICTED BY IDOCK:   -2.78 KCAL/MOL
REMARK 922        TOTAL FREE ENERGY PREDICTED BY IDOCK:   -3.66 KCAL/MOL
REMARK 923 INTER-LIGAND FREE ENERGY PREDICTED BY IDOCK:   -3.38 KCAL/MOL
REMARK 924 INTRA-LIGAND FREE ENERGY PREDICTED BY IDOCK:   -0.28 KCAL/MOL
REMARK 927      BINDING AFFINITY PREDICTED BY RF-SCORE:    0.00 PKD
ROOT
HETATM    1  C   UNL     1     -10.687  13.507  66.433  1.00  0.00    -0.287 C  
HETATM    2  N   UNL     1     -11.636  14.513  66.896  1.00  0.00    -0.375 NA 
HETATM    3  H   UNL     1     -12.449  14.069  67.323  1.00  0.00     0.000 HD 
ENDROOT
BRANCH   2   4
HETATM    4  C   UNL     1     -11.049  15.511  67.811  1.00  0.00    -0.315 C  
HETATM    5  C   UNL     1     -11.835  15.606  69.124  1.00  0.00    -0.378 C  
BRANCH   4   6
HETATM    6  C   UNL     1      -9.570  15.165  68.151  1.00  0.00    -0.205 C  
BRANCH   6   7
HETATM    7  C   UNL     1      -8.673  16.349  68.441  1.00  0.00    -0.213 A  
HETATM    8  C   UNL     1      -9.039  17.575  67.840  1.00  0.00    -0.261 A  
HETATM    9  C   UNL     1      -8.263  18.723  67.982  1.00  0.00    -0.317 A  
HETATM   10  C   UNL     1      -7.092  18.669  68.725  1.00  0.00    -0.326 A  
HETATM   11  C   UNL     1      -6.706  17.464  69.315  1.00  0.00    -0.222 A  
HETATM   12  C   UNL     1      -7.486  16.303  69.187  1.00  0.00    -0.218 A  
BRANCH  12  13
HETATM   13  O   UNL     1      -6.887  15.189  69.707  1.00  0.00    -0.170 OA 
HETATM   14  C   UNL     1      -5.713  14.724  69.061  1.00  0.00    -0.092 C  
ENDBRANCH  12  13
ENDBRANCH   6   7
ENDBRANCH   4   6
ENDBRANCH   2   4
TORSDOF 4
ENDMDL
MODEL      197
REMARK 921   NORMALIZED FREE ENERGY PREDICTED BY IDOCK:   -2.75 KCAL/MOL
REMARK 922        TOTAL FREE ENERGY PREDICTED BY IDOCK:   -3.64 KCAL/MOL
REMARK 923 INTER-LIGAND FREE ENERGY PREDICTED BY IDOCK:   -3.23 KCAL/MOL
REMARK 924 INTRA-LIGAND FREE ENERGY PREDICTED BY IDOCK:   -0.41 KCAL/MOL
REMARK 927      BINDING AFFINITY PREDICTED BY RF-SCORE:    0.00 PKD
ROOT
HETATM    1  C   UNL     1      -9.154   3.995  71.293  1.00  0.00    -0.118 C  
HETATM    2  N   UNL     1     -10.396   4.744  71.147  1.00  0.00    -0.165 NA 
HETATM    3  H   UNL     1     -11.130   4.149  70.762  1.00  0.00     0.000 HD 
ENDROOT
BRANCH   2   4
HETATM    4  C   UNL     1     -10.853   5.391  72.393  1.00  0.00    -0.241 C  
HETATM    5  C   UNL     1     -10.782   4.433  73.587  1.00  0.00    -0.339 C  
BRANCH   4   6
HETATM    6  C   UNL     1      -9.995   6.648  72.723  1.00  0.00    -0.187 C  
BRANCH   6   7
HETATM    7  C   UNL     1     -10.273   7.869  71.873  1.00  0.00    -0.258 A  
HETATM    8  C   UNL     1     -11.371   8.669  72.264  1.00  0.00    -0.411 A  
HETATM    9  C   UNL     1     -11.765   9.785  71.531  1.00  0.00    -0.450 A  
HETATM   10  C   UNL     1     -11.072  10.125  70.377  1.00  0.00    -0.393 A  
HETATM   11  C   UNL     1      -9.994   9.339  69.965  1.00  0.00    -0.238 A  
HETATM   12  C   UNL     1      -9.581   8.217  70.704  1.00  0.00    -0.166 A  
BRANCH  12  13
HETATM   13  O   UNL     1      -8.605   7.488  70.080  1.00  0.00    -0.138 OA 
HETATM   14  C   UNL     1      -8.663   7.406  68.666  1.00  0.00    -0.128 C  
ENDBRANCH  12  13
ENDBRANCH   6   7
ENDBRANCH   4   6
ENDBRANCH   2   4
TORSDOF 4
ENDMDL
MODEL      198
REMARK 921   NORMALIZED FREE ENERGY PREDICTED BY IDOCK:   -2.75 KCAL/MOL
REMARK 922        TOTAL FREE ENERGY PREDICTED BY IDOCK:   -3.63 KCAL/MOL
REMARK 923 INTER-LIGAND FREE ENERGY PREDICTED BY IDOCK:   -3.46 KCAL/MOL
REMARK 924 INTRA-LIGAND FREE ENERGY PREDICTED BY IDOCK:   -0.17 KCAL/MOL
REMARK 927      BINDING AFFINITY PREDICTED BY RF-SCORE:    0.00 PKD
ROOT
HETATM    1  C   UNL     1     -10.640  14.766  65.372  1.00  0.00    -0.378 C  
HETATM    2  N   UNL     1     -11.802  13.939  65.671  1.00  0.00    -0.354 NA 
HETATM    3  H   UNL     1     -11.671  12.993  65.312  1.00  0.00     0.000 HD 
ENDROOT
BRANCH   2   4
HETATM    4  C   UNL     1     -12.159  13.906  67.103  1.00  0.00    -0.387 C  
HETATM    5  C   UNL     1     -11.311  12.887  67.874  1.00  0.00    -0.336 C  
BRANCH   4   6
HETATM    6  C   UNL     1     -11.967  15.301  67.765  1.00  0.00     0.020 C  
BRANCH   6   7
HETATM    7  C   UNL     1     -11.894  15.302  69.277  1.00  0.00    -0.353 A  
HETATM    8  C   UNL     1     -13.099  15.023  69.963  1.00  0.00     0.094 A  
HETATM    9  C   UNL     1     -13.175  15.051  71.353  1.00  0.00    -0.497 A  
HETATM   10  C   UNL     1     -12.045  15.369  72.094  1.00  0.00    -0.489 A  
HETATM   11  C   UNL     1     -10.850  15.662  71.435  1.00  0.00     0.025 A  
HETATM   12  C   UNL     1     -10.758  15.626  70.034  1.00  0.00    -0.335 A  
BRANCH  12  13
HETATM   13  O   UNL     1      -9.557  16.075  69.558  1.00  0.00    -0.254 OA 
HETATM   14  C   UNL     1      -8.673  15.108  69.016  1.00  0.00    -0.215 C  
ENDBRANCH  12  13
ENDBRANCH   6   7
ENDBRANCH   4   6
ENDBRANCH   2   4
TORSDOF 4
ENDMDL
MODEL      199
REMARK 921   NORMALIZED FREE ENERGY PREDICTED BY IDOCK:   -2.75 KCAL/MOL
REMARK 922        TOTAL FREE ENERGY PREDICTED BY IDOCK:   -3.63 KCAL/MOL
REMARK 923 INTER-LIGAND FREE ENERGY PREDICTED BY IDOCK:   -3.46 KCAL/MOL
REMARK 924 INTRA-LIGAND FREE ENERGY PREDICTED BY IDOCK:   -0.16 KCAL/MOL
REMARK 927      BINDING AFFINITY PREDICTED BY RF-SCORE:    0.00 PKD
ROOT
HETATM    1  C   UNL     1      -6.858  13.915  67.610  1.00  0.00    -0.179 C  
HETATM    2  N   UNL     1      -6.808  12.688  66.825  1.00  0.00    -0.388 NA 
HETATM    3  H   UNL     1      -5.880  12.268  66.874  1.00  0.00     0.000 HD 
ENDROOT
BRANCH   2   4
HETATM    4  C   UNL     1      -7.844  11.702  67.191  1.00  0.00    -0.163 C  
HETATM    5  C   UNL     1      -7.226  10.396  67.702  1.00  0.00    -0.086 C  
BRANCH   4   6
HETATM    6  C   UNL     1      -8.788  12.261  68.296  1.00  0.00    -0.178 C  
BRANCH   6   7
HETATM    7  C   UNL     1     -10.023  12.980  67.796  1.00  0.00    -0.227 A  
HETATM    8  C   UNL     1     -10.664  12.416  66.669  1.00  0.00    -0.263 A  
HETATM    9  C   UNL     1     -11.774  13.016  66.079  1.00  0.00    -0.442 A  
HETATM   10  C   UNL     1     -12.266  14.205  66.599  1.00  0.00    -0.450 A  
HETATM   11  C   UNL     1     -11.638  14.786  67.703  1.00  0.00    -0.374 A  
HETATM   12  C   UNL     1     -10.524  14.184  68.312  1.00  0.00    -0.249 A  
BRANCH  12  13
HETATM   13  O   UNL     1      -9.955  14.959  69.286  1.00  0.00    -0.217 OA 
HETATM   14  C   UNL     1      -9.540  16.262  68.914  1.00  0.00    -0.243 C  
ENDBRANCH  12  13
ENDBRANCH   6   7
ENDBRANCH   4   6
ENDBRANCH   2   4
TORSDOF 4
ENDMDL
MODEL      200
REMARK 921   NORMALIZED FREE ENERGY PREDICTED BY IDOCK:   -2.75 KCAL/MOL
REMARK 922        TOTAL FREE ENERGY PREDICTED BY IDOCK:   -3.62 KCAL/MOL
REMARK 923 INTER-LIGAND FREE ENERGY PREDICTED BY IDOCK:   -3.23 KCAL/MOL
REMARK 924 INTRA-LIGAND FREE ENERGY PREDICTED BY IDOCK:   -0.40 KCAL/MOL
REMARK 927      BINDING AFFINITY PREDICTED BY RF-SCORE:    0.00 PKD
ROOT
HETATM    1  C   UNL     1      -9.437   3.411  68.025  1.00  0.00    -0.156 C  
HETATM    2  N   UNL     1      -9.303   4.783  68.498  1.00  0.00    -0.125 NA 
HETATM    3  H   UNL     1      -9.840   5.420  67.909  1.00  0.00     0.000 HD 
ENDROOT
BRANCH   2   4
HETATM    4  C   UNL     1      -9.662   4.963  69.919  1.00  0.00    -0.206 C  
HETATM    5  C   UNL     1      -8.569   5.715  70.687  1.00  0.00    -0.130 C  
BRANCH   4   6
HETATM    6  C   UNL     1     -10.996   5.751  70.069  1.00  0.00    -0.382 C  
BRANCH   6   7
HETATM    7  C   UNL     1     -10.864   7.259  70.079  1.00  0.00    -0.271 A  
HETATM    8  C   UNL     1     -11.184   7.908  71.293  1.00  0.00    -0.283 A  
HETATM    9  C   UNL     1     -11.159   9.296  71.413  1.00  0.00    -0.437 A  
HETATM   10  C   UNL     1     -10.821  10.071  70.313  1.00  0.00    -0.370 A  
HETATM   11  C   UNL     1     -10.517   9.449  69.100  1.00  0.00    -0.230 A  
HETATM   12  C   UNL     1     -10.528   8.051  68.971  1.00  0.00    -0.199 A  
BRANCH  12  13
HETATM   13  O   UNL     1     -10.344   7.625  67.684  1.00  0.00    -0.202 OA 
HETATM   14  C   UNL     1      -9.701   8.519  66.792  1.00  0.00    -0.236 C  
ENDBRANCH  12  13
ENDBRANCH   6   7
ENDBRANCH   4   6
ENDBRANCH   2   4
TORSDOF 4
ENDMDL
MODEL      201
REMARK 921   NORMALIZED FREE ENERGY PREDICTED BY IDOCK:   -2.74 KCAL/MOL
REMARK 922        TOTAL FREE ENERGY PREDICTED BY IDOCK:   -3.61 KCAL/MOL
REMARK 923 INTER-LIGAND FREE ENERGY PREDICTED BY IDOCK:   -3.29 KCAL/MOL
REMARK 924 INTRA-LIGAND FREE ENERGY PREDICTED BY IDOCK:   -0.32 KCAL/MOL
REMARK 927      BINDING AFFINITY PREDICTED BY RF-SCORE:    0.00 PKD
ROOT
HETATM    1  C   UNL     1     -11.367   5.537  72.823  1.00  0.00    -0.303 C  
HETATM    2  N   UNL     1     -12.386   6.377  72.206  1.00  0.00    -0.537 NA 
HETATM    3  H   UNL     1     -12.823   6.980  72.902  1.00  0.00     0.000 HD 
ENDROOT
BRANCH   2   4
HETATM    4  C   UNL     1     -11.892   7.174  71.065  1.00  0.00    -0.333 C  
HETATM    5  C   UNL     1     -11.909   8.675  71.375  1.00  0.00    -0.352 C  
BRANCH   4   6
HETATM    6  C   UNL     1     -10.438   6.770  70.682  1.00  0.00    -0.243 C  
BRANCH   6   7
HETATM    7  C   UNL     1     -10.300   5.965  69.407  1.00  0.00    -0.313 A  
HETATM    8  C   UNL     1     -10.828   6.553  68.235  1.00  0.00    -0.359 A  
HETATM    9  C   UNL     1     -10.815   5.889  67.010  1.00  0.00    -0.379 A  
HETATM   10  C   UNL     1     -10.278   4.611  66.932  1.00  0.00    -0.200 A  
HETATM   11  C   UNL     1      -9.764   4.008  68.081  1.00  0.00    -0.138 A  
HETATM   12  C   UNL     1      -9.763   4.673  69.319  1.00  0.00    -0.196 A  
BRANCH  12  13
HETATM   13  O   UNL     1      -9.353   3.882  70.357  1.00  0.00    -0.128 OA 
HETATM   14  C   UNL     1      -9.868   2.562  70.408  1.00  0.00     0.188 C  
ENDBRANCH  12  13
ENDBRANCH   6   7
ENDBRANCH   4   6
ENDBRANCH   2   4
TORSDOF 4
ENDMDL
MODEL      202
REMARK 921   NORMALIZED FREE ENERGY PREDICTED BY IDOCK:   -2.73 KCAL/MOL
REMARK 922        TOTAL FREE ENERGY PREDICTED BY IDOCK:   -3.60 KCAL/MOL
REMARK 923 INTER-LIGAND FREE ENERGY PREDICTED BY IDOCK:   -3.43 KCAL/MOL
REMARK 924 INTRA-LIGAND FREE ENERGY PREDICTED BY IDOCK:   -0.18 KCAL/MOL
REMARK 927      BINDING AFFINITY PREDICTED BY RF-SCORE:    0.00 PKD
ROOT
HETATM    1  C   UNL     1     -12.595  13.980  64.695  1.00  0.00    -0.248 C  
HETATM    2  N   UNL     1     -11.839  13.049  65.524  1.00  0.00    -0.371 NA 
HETATM    3  H   UNL     1     -11.120  12.581  64.974  1.00  0.00     0.000 HD 
ENDROOT
BRANCH   2   4
HETATM    4  C   UNL     1     -11.252  13.666  66.730  1.00  0.00    -0.314 C  
HETATM    5  C   UNL     1     -11.773  13.009  68.013  1.00  0.00    -0.397 C  
BRANCH   4   6
HETATM    6  C   UNL     1      -9.699  13.556  66.720  1.00  0.00    -0.271 C  
BRANCH   6   7
HETATM    7  C   UNL     1      -8.961  14.686  67.405  1.00  0.00    -0.202 A  
HETATM    8  C   UNL     1      -8.623  14.482  68.763  1.00  0.00    -0.145 A  
HETATM    9  C   UNL     1      -7.995  15.469  69.520  1.00  0.00    -0.192 A  
HETATM   10  C   UNL     1      -7.697  16.692  68.935  1.00  0.00    -0.239 A  
HETATM   11  C   UNL     1      -8.035  16.918  67.600  1.00  0.00    -0.186 A  
HETATM   12  C   UNL     1      -8.658  15.926  66.824  1.00  0.00    -0.266 A  
BRANCH  12  13
HETATM   13  O   UNL     1      -9.042  16.368  65.587  1.00  0.00    -0.446 OA 
HETATM   14  C   UNL     1     -10.374  16.835  65.451  1.00  0.00    -0.146 C  
ENDBRANCH  12  13
ENDBRANCH   6   7
ENDBRANCH   4   6
ENDBRANCH   2   4
TORSDOF 4
ENDMDL
MODEL      203
REMARK 921   NORMALIZED FREE ENERGY PREDICTED BY IDOCK:   -2.72 KCAL/MOL
REMARK 922        TOTAL FREE ENERGY PREDICTED BY IDOCK:   -3.59 KCAL/MOL
REMARK 923 INTER-LIGAND FREE ENERGY PREDICTED BY IDOCK:   -3.30 KCAL/MOL
REMARK 924 INTRA-LIGAND FREE ENERGY PREDICTED BY IDOCK:   -0.29 KCAL/MOL
REMARK 927      BINDING AFFINITY PREDICTED BY RF-SCORE:    0.00 PKD
ROOT
HETATM    1  C   UNL     1      -6.072  14.302  69.373  1.00  0.00    -0.108 C  
HETATM    2  N   UNL     1      -5.827  15.657  68.893  1.00  0.00    -0.102 NA 
HETATM    3  H   UNL     1      -5.335  15.637  68.000  1.00  0.00     0.000 HD 
ENDROOT
BRANCH   2   4
HETATM    4  C   UNL     1      -7.044  16.487  68.798  1.00  0.00    -0.189 C  
HETATM    5  C   UNL     1      -6.726  17.977  68.964  1.00  0.00    -0.252 C  
BRANCH   4   6
HETATM    6  C   UNL     1      -7.756  16.288  67.429  1.00  0.00    -0.187 C  
BRANCH   6   7
HETATM    7  C   UNL     1      -9.145  15.689  67.496  1.00  0.00    -0.198 A  
HETATM    8  C   UNL     1      -9.344  14.485  66.784  1.00  0.00    -0.278 A  
HETATM    9  C   UNL     1     -10.590  13.866  66.720  1.00  0.00    -0.277 A  
HETATM   10  C   UNL     1     -11.674  14.446  67.363  1.00  0.00    -0.424 A  
HETATM   11  C   UNL     1     -11.502  15.643  68.060  1.00  0.00    -0.294 A  
HETATM   12  C   UNL     1     -10.247  16.270  68.140  1.00  0.00    -0.258 A  
BRANCH  12  13
HETATM   13  O   UNL     1     -10.294  17.499  68.740  1.00  0.00    -0.353 OA 
HETATM   14  C   UNL     1     -10.435  18.627  67.892  1.00  0.00    -0.385 C  
ENDBRANCH  12  13
ENDBRANCH   6   7
ENDBRANCH   4   6
ENDBRANCH   2   4
TORSDOF 4
ENDMDL
MODEL      204
REMARK 921   NORMALIZED FREE ENERGY PREDICTED BY IDOCK:   -2.70 KCAL/MOL
REMARK 922        TOTAL FREE ENERGY PREDICTED BY IDOCK:   -3.57 KCAL/MOL
REMARK 923 INTER-LIGAND FREE ENERGY PREDICTED BY IDOCK:   -3.31 KCAL/MOL
REMARK 924 INTRA-LIGAND FREE ENERGY PREDICTED BY IDOCK:   -0.26 KCAL/MOL
REMARK 927      BINDING AFFINITY PREDICTED BY RF-SCORE:    0.00 PKD
ROOT
HETATM    1  C   UNL     1     -11.973  10.334  71.025  1.00  0.00    -0.385 C  
HETATM    2  N   UNL     1     -12.265   8.944  70.700  1.00  0.00    -0.487 NA 
HETATM    3  H   UNL     1     -12.503   8.849  69.713  1.00  0.00     0.000 HD 
ENDROOT
BRANCH   2   4
HETATM    4  C   UNL     1     -11.186   8.005  71.067  1.00  0.00    -0.266 C  
HETATM    5  C   UNL     1     -11.020   7.901  72.587  1.00  0.00    -0.440 C  
BRANCH   4   6
HETATM    6  C   UNL     1     -11.463   6.580  70.506  1.00  0.00    -0.448 C  
BRANCH   6   7
HETATM    7  C   UNL     1     -10.241   5.807  70.057  1.00  0.00    -0.304 A  
HETATM    8  C   UNL     1      -9.761   4.821  70.950  1.00  0.00    -0.260 A  
HETATM    9  C   UNL     1      -8.611   4.083  70.679  1.00  0.00    -0.106 A  
HETATM   10  C   UNL     1      -7.906   4.322  69.507  1.00  0.00    -0.057 A  
HETATM   11  C   UNL     1      -8.356   5.301  68.620  1.00  0.00    -0.089 A  
HETATM   12  C   UNL     1      -9.521   6.044  68.878  1.00  0.00    -0.126 A  
BRANCH  12  13
HETATM   13  O   UNL     1      -9.731   7.051  67.976  1.00  0.00    -0.128 OA 
HETATM   14  C   UNL     1     -10.306   6.694  66.730  1.00  0.00    -0.210 C  
ENDBRANCH  12  13
ENDBRANCH   6   7
ENDBRANCH   4   6
ENDBRANCH   2   4
TORSDOF 4
ENDMDL
MODEL      205
REMARK 921   NORMALIZED FREE ENERGY PREDICTED BY IDOCK:   -2.68 KCAL/MOL
REMARK 922        TOTAL FREE ENERGY PREDICTED BY IDOCK:   -3.54 KCAL/MOL
REMARK 923 INTER-LIGAND FREE ENERGY PREDICTED BY IDOCK:   -3.44 KCAL/MOL
REMARK 924 INTRA-LIGAND FREE ENERGY PREDICTED BY IDOCK:   -0.10 KCAL/MOL
REMARK 927      BINDING AFFINITY PREDICTED BY RF-SCORE:    0.00 PKD
ROOT
HETATM    1  C   UNL     1      -8.117   8.189  69.016  1.00  0.00    -0.115 C  
HETATM    2  N   UNL     1      -9.528   8.328  69.355  1.00  0.00    -0.158 NA 
HETATM    3  H   UNL     1      -9.738   9.288  69.631  1.00  0.00     0.000 HD 
ENDROOT
BRANCH   2   4
HETATM    4  C   UNL     1     -10.445   7.882  68.288  1.00  0.00    -0.164 C  
HETATM    5  C   UNL     1      -9.752   7.854  66.921  1.00  0.00    -0.285 C  
BRANCH   4   6
HETATM    6  C   UNL     1     -11.003   6.459  68.582  1.00  0.00    -0.404 C  
BRANCH   6   7
HETATM    7  C   UNL     1     -11.068   6.073  70.045  1.00  0.00    -0.451 A  
HETATM    8  C   UNL     1     -12.032   6.748  70.828  1.00  0.00    -0.433 A  
HETATM    9  C   UNL     1     -12.152   6.525  72.198  1.00  0.00    -0.309 A  
HETATM   10  C   UNL     1     -11.299   5.625  72.821  1.00  0.00    -0.350 A  
HETATM   11  C   UNL     1     -10.330   4.959  72.067  1.00  0.00    -0.263 A  
HETATM   12  C   UNL     1     -10.208   5.168  70.683  1.00  0.00    -0.256 A  
BRANCH  12  13
HETATM   13  O   UNL     1      -9.121   4.544  70.136  1.00  0.00    -0.088 OA 
HETATM   14  C   UNL     1      -9.367   3.401  69.333  1.00  0.00    -0.166 C  
ENDBRANCH  12  13
ENDBRANCH   6   7
ENDBRANCH   4   6
ENDBRANCH   2   4
TORSDOF 4
ENDMDL
MODEL      206
REMARK 921   NORMALIZED FREE ENERGY PREDICTED BY IDOCK:   -2.68 KCAL/MOL
REMARK 922        TOTAL FREE ENERGY PREDICTED BY IDOCK:   -3.54 KCAL/MOL
REMARK 923 INTER-LIGAND FREE ENERGY PREDICTED BY IDOCK:   -3.82 KCAL/MOL
REMARK 924 INTRA-LIGAND FREE ENERGY PREDICTED BY IDOCK:    0.28 KCAL/MOL
REMARK 927      BINDING AFFINITY PREDICTED BY RF-SCORE:    0.00 PKD
ROOT
HETATM    1  C   UNL     1     -11.831  11.691  68.965  1.00  0.00    -0.328 C  
HETATM    2  N   UNL     1     -11.678  11.508  70.403  1.00  0.00    -0.486 NA 
HETATM    3  H   UNL     1     -12.545  11.736  70.888  1.00  0.00     0.000 HD 
ENDROOT
BRANCH   2   4
HETATM    4  C   UNL     1     -11.206  10.162  70.786  1.00  0.00    -0.336 C  
HETATM    5  C   UNL     1     -12.341   9.133  70.748  1.00  0.00    -0.103 C  
BRANCH   4   6
HETATM    6  C   UNL     1     -10.070   9.673  69.841  1.00  0.00    -0.279 C  
BRANCH   6   7
HETATM    7  C   UNL     1     -10.374   8.416  69.053  1.00  0.00    -0.231 A  
HETATM    8  C   UNL     1     -10.362   7.203  69.778  1.00  0.00    -0.224 A  
HETATM    9  C   UNL     1     -10.568   5.973  69.157  1.00  0.00    -0.362 A  
HETATM   10  C   UNL     1     -10.784   5.928  67.786  1.00  0.00    -0.346 A  
HETATM   11  C   UNL     1     -10.785   7.114  67.050  1.00  0.00    -0.420 A  
HETATM   12  C   UNL     1     -10.589   8.360  67.668  1.00  0.00    -0.195 A  
BRANCH  12  13
HETATM   13  O   UNL     1     -10.481   9.395  66.779  1.00  0.00    -0.243 OA 
HETATM   14  C   UNL     1      -9.548   9.244  65.722  1.00  0.00    -0.271 C  
ENDBRANCH  12  13
ENDBRANCH   6   7
ENDBRANCH   4   6
ENDBRANCH   2   4
TORSDOF 4
ENDMDL
MODEL      207
REMARK 921   NORMALIZED FREE ENERGY PREDICTED BY IDOCK:   -2.68 KCAL/MOL
REMARK 922        TOTAL FREE ENERGY PREDICTED BY IDOCK:   -3.54 KCAL/MOL
REMARK 923 INTER-LIGAND FREE ENERGY PREDICTED BY IDOCK:   -3.26 KCAL/MOL
REMARK 924 INTRA-LIGAND FREE ENERGY PREDICTED BY IDOCK:   -0.28 KCAL/MOL
REMARK 927      BINDING AFFINITY PREDICTED BY RF-SCORE:    0.00 PKD
ROOT
HETATM    1  C   UNL     1     -12.773   7.144  71.356  1.00  0.00    -0.391 C  
HETATM    2  N   UNL     1     -11.923   7.096  70.174  1.00  0.00    -0.578 NA 
HETATM    3  H   UNL     1     -12.489   7.071  69.326  1.00  0.00     0.000 HD 
ENDROOT
BRANCH   2   4
HETATM    4  C   UNL     1     -10.933   8.189  70.106  1.00  0.00    -0.223 C  
HETATM    5  C   UNL     1      -9.662   7.850  70.893  1.00  0.00    -0.177 C  
BRANCH   4   6
HETATM    6  C   UNL     1     -10.530   8.494  68.634  1.00  0.00    -0.200 C  
BRANCH   6   7
HETATM    7  C   UNL     1     -10.292   9.954  68.312  1.00  0.00    -0.232 A  
HETATM    8  C   UNL     1     -11.395  10.669  67.792  1.00  0.00    -0.320 A  
HETATM    9  C   UNL     1     -11.289  12.002  67.402  1.00  0.00    -0.393 A  
HETATM   10  C   UNL     1     -10.067  12.651  67.515  1.00  0.00    -0.212 A  
HETATM   11  C   UNL     1      -8.962  11.958  68.012  1.00  0.00    -0.185 A  
HETATM   12  C   UNL     1      -9.061  10.617  68.418  1.00  0.00    -0.156 A  
BRANCH  12  13
HETATM   13  O   UNL     1      -7.854  10.060  68.743  1.00  0.00    -0.086 OA 
HETATM   14  C   UNL     1      -6.881  10.915  69.319  1.00  0.00    -0.105 C  
ENDBRANCH  12  13
ENDBRANCH   6   7
ENDBRANCH   4   6
ENDBRANCH   2   4
TORSDOF 4
ENDMDL
MODEL      208
REMARK 921   NORMALIZED FREE ENERGY PREDICTED BY IDOCK:   -2.67 KCAL/MOL
REMARK 922        TOTAL FREE ENERGY PREDICTED BY IDOCK:   -3.53 KCAL/MOL
REMARK 923 INTER-LIGAND FREE ENERGY PREDICTED BY IDOCK:   -3.23 KCAL/MOL
REMARK 924 INTRA-LIGAND FREE ENERGY PREDICTED BY IDOCK:   -0.30 KCAL/MOL
REMARK 927      BINDING AFFINITY PREDICTED BY RF-SCORE:    0.00 PKD
ROOT
HETATM    1  C   UNL     1     -11.881  12.526  68.205  1.00  0.00    -0.317 C  
HETATM    2  N   UNL     1     -11.591  13.171  66.930  1.00  0.00    -0.348 NA 
HETATM    3  H   UNL     1     -10.707  13.679  66.979  1.00  0.00     0.000 HD 
ENDROOT
BRANCH   2   4
HETATM    4  C   UNL     1     -11.596  12.248  65.779  1.00  0.00    -0.388 C  
HETATM    5  C   UNL     1     -12.212  12.899  64.535  1.00  0.00    -0.489 C  
BRANCH   4   6
HETATM    6  C   UNL     1     -10.155  11.781  65.423  1.00  0.00    -0.291 C  
BRANCH   6   7
HETATM    7  C   UNL     1      -9.628  10.615  66.232  1.00  0.00    -0.228 A  
HETATM    8  C   UNL     1     -10.268   9.371  66.027  1.00  0.00    -0.204 A  
HETATM    9  C   UNL     1      -9.916   8.235  66.753  1.00  0.00    -0.355 A  
HETATM   10  C   UNL     1      -8.916   8.321  67.712  1.00  0.00    -0.139 A  
HETATM   11  C   UNL     1      -8.282   9.544  67.939  1.00  0.00    -0.114 A  
HETATM   12  C   UNL     1      -8.622  10.692  67.205  1.00  0.00    -0.126 A  
BRANCH  12  13
HETATM   13  O   UNL     1      -8.002  11.826  67.656  1.00  0.00    -0.127 OA 
HETATM   14  C   UNL     1      -7.160  11.695  68.789  1.00  0.00    -0.106 C  
ENDBRANCH  12  13
ENDBRANCH   6   7
ENDBRANCH   4   6
ENDBRANCH   2   4
TORSDOF 4
ENDMDL
MODEL      209
REMARK 921   NORMALIZED FREE ENERGY PREDICTED BY IDOCK:   -2.66 KCAL/MOL
REMARK 922        TOTAL FREE ENERGY PREDICTED BY IDOCK:   -3.52 KCAL/MOL
REMARK 923 INTER-LIGAND FREE ENERGY PREDICTED BY IDOCK:   -3.25 KCAL/MOL
REMARK 924 INTRA-LIGAND FREE ENERGY PREDICTED BY IDOCK:   -0.28 KCAL/MOL
REMARK 927      BINDING AFFINITY PREDICTED BY RF-SCORE:    0.00 PKD
ROOT
HETATM    1  C   UNL     1     -10.589   4.960  72.187  1.00  0.00    -0.164 C  
HETATM    2  N   UNL     1     -11.712   5.871  72.369  1.00  0.00    -0.381 NA 
HETATM    3  H   UNL     1     -11.843   6.085  73.358  1.00  0.00     0.000 HD 
ENDROOT
BRANCH   2   4
HETATM    4  C   UNL     1     -11.607   7.113  71.579  1.00  0.00    -0.278 C  
HETATM    5  C   UNL     1     -11.891   8.353  72.434  1.00  0.00    -0.452 C  
BRANCH   4   6
HETATM    6  C   UNL     1     -10.190   7.266  70.953  1.00  0.00    -0.203 C  
BRANCH   6   7
HETATM    7  C   UNL     1     -10.151   7.368  69.443  1.00  0.00    -0.185 A  
HETATM    8  C   UNL     1     -11.032   6.519  68.735  1.00  0.00    -0.371 A  
HETATM    9  C   UNL     1     -11.051   6.476  67.343  1.00  0.00    -0.411 A  
HETATM   10  C   UNL     1     -10.177   7.279  66.623  1.00  0.00    -0.232 A  
HETATM   11  C   UNL     1      -9.289   8.114  67.304  1.00  0.00    -0.174 A  
HETATM   12  C   UNL     1      -9.270   8.173  68.708  1.00  0.00    -0.144 A  
BRANCH  12  13
HETATM   13  O   UNL     1      -8.246   8.934  69.203  1.00  0.00    -0.114 OA 
HETATM   14  C   UNL     1      -8.552  10.267  69.577  1.00  0.00    -0.138 C  
ENDBRANCH  12  13
ENDBRANCH   6   7
ENDBRANCH   4   6
ENDBRANCH   2   4
TORSDOF 4
ENDMDL
MODEL      210
REMARK 921   NORMALIZED FREE ENERGY PREDICTED BY IDOCK:   -2.65 KCAL/MOL
REMARK 922        TOTAL FREE ENERGY PREDICTED BY IDOCK:   -3.50 KCAL/MOL
REMARK 923 INTER-LIGAND FREE ENERGY PREDICTED BY IDOCK:   -3.23 KCAL/MOL
REMARK 924 INTRA-LIGAND FREE ENERGY PREDICTED BY IDOCK:   -0.28 KCAL/MOL
REMARK 927      BINDING AFFINITY PREDICTED BY RF-SCORE:    0.00 PKD
ROOT
HETATM    1  C   UNL     1      -9.310   4.836  68.102  1.00  0.00    -0.134 C  
HETATM    2  N   UNL     1      -9.278   3.603  68.879  1.00  0.00    -0.147 NA 
HETATM    3  H   UNL     1      -8.340   3.203  68.880  1.00  0.00     0.000 HD 
ENDROOT
BRANCH   2   4
HETATM    4  C   UNL     1      -9.779   3.754  70.260  1.00  0.00    -0.152 C  
HETATM    5  C   UNL     1      -9.512   2.499  71.099  1.00  0.00    -0.222 C  
BRANCH   4   6
HETATM    6  C   UNL     1      -9.114   4.968  70.971  1.00  0.00    -0.178 C  
BRANCH   6   7
HETATM    7  C   UNL     1     -10.071   5.981  71.563  1.00  0.00    -0.232 A  
HETATM    8  C   UNL     1     -11.260   6.220  70.836  1.00  0.00    -0.386 A  
HETATM    9  C   UNL     1     -12.192   7.170  71.245  1.00  0.00    -0.403 A  
HETATM   10  C   UNL     1     -11.952   7.915  72.392  1.00  0.00    -0.373 A  
HETATM   11  C   UNL     1     -10.776   7.704  73.116  1.00  0.00    -0.445 A  
HETATM   12  C   UNL     1      -9.835   6.740  72.718  1.00  0.00    -0.166 A  
BRANCH  12  13
HETATM   13  O   UNL     1      -8.685   6.769  73.460  1.00  0.00    -0.123 OA 
HETATM   14  C   UNL     1      -8.308   8.016  74.021  1.00  0.00    -0.265 C  
ENDBRANCH  12  13
ENDBRANCH   6   7
ENDBRANCH   4   6
ENDBRANCH   2   4
TORSDOF 4
ENDMDL
MODEL      211
REMARK 921   NORMALIZED FREE ENERGY PREDICTED BY IDOCK:   -2.64 KCAL/MOL
REMARK 922        TOTAL FREE ENERGY PREDICTED BY IDOCK:   -3.50 KCAL/MOL
REMARK 923 INTER-LIGAND FREE ENERGY PREDICTED BY IDOCK:   -3.30 KCAL/MOL
REMARK 924 INTRA-LIGAND FREE ENERGY PREDICTED BY IDOCK:   -0.20 KCAL/MOL
REMARK 927      BINDING AFFINITY PREDICTED BY RF-SCORE:    0.00 PKD
ROOT
HETATM    1  C   UNL     1     -10.545   6.336  67.131  1.00  0.00    -0.311 C  
HETATM    2  N   UNL     1     -11.436   6.964  68.099  1.00  0.00    -0.413 NA 
HETATM    3  H   UNL     1     -12.286   6.412  68.214  1.00  0.00     0.000 HD 
ENDROOT
BRANCH   2   4
HETATM    4  C   UNL     1     -10.806   7.226  69.408  1.00  0.00    -0.190 C  
HETATM    5  C   UNL     1     -10.556   8.723  69.625  1.00  0.00    -0.220 C  
BRANCH   4   6
HETATM    6  C   UNL     1     -11.693   6.704  70.575  1.00  0.00    -0.453 C  
BRANCH   6   7
HETATM    7  C   UNL     1     -10.982   5.844  71.599  1.00  0.00    -0.327 A  
HETATM    8  C   UNL     1     -11.006   6.310  72.934  1.00  0.00    -0.283 A  
HETATM    9  C   UNL     1     -10.340   5.639  73.957  1.00  0.00    -0.298 A  
HETATM   10  C   UNL     1      -9.624   4.486  73.666  1.00  0.00    -0.140 A  
HETATM   11  C   UNL     1      -9.577   4.018  72.352  1.00  0.00    -0.196 A  
HETATM   12  C   UNL     1     -10.253   4.680  71.314  1.00  0.00    -0.135 A  
BRANCH  12  13
HETATM   13  O   UNL     1      -9.982   4.165  70.076  1.00  0.00    -0.213 OA 
HETATM   14  C   UNL     1      -9.152   3.016  70.021  1.00  0.00    -0.124 C  
ENDBRANCH  12  13
ENDBRANCH   6   7
ENDBRANCH   4   6
ENDBRANCH   2   4
TORSDOF 4
ENDMDL
MODEL      212
REMARK 921   NORMALIZED FREE ENERGY PREDICTED BY IDOCK:   -2.64 KCAL/MOL
REMARK 922        TOTAL FREE ENERGY PREDICTED BY IDOCK:   -3.49 KCAL/MOL
REMARK 923 INTER-LIGAND FREE ENERGY PREDICTED BY IDOCK:   -3.15 KCAL/MOL
REMARK 924 INTRA-LIGAND FREE ENERGY PREDICTED BY IDOCK:   -0.34 KCAL/MOL
REMARK 927      BINDING AFFINITY PREDICTED BY RF-SCORE:    0.00 PKD
ROOT
HETATM    1  C   UNL     1      -8.397  11.309  68.665  1.00  0.00    -0.146 C  
HETATM    2  N   UNL     1      -9.734  11.773  69.014  1.00  0.00    -0.412 NA 
HETATM    3  H   UNL     1     -10.198  12.175  68.200  1.00  0.00     0.000 HD 
ENDROOT
BRANCH   2   4
HETATM    4  C   UNL     1     -10.581  10.738  69.638  1.00  0.00    -0.175 C  
HETATM    5  C   UNL     1     -12.029  11.215  69.803  1.00  0.00    -0.428 C  
BRANCH   4   6
HETATM    6  C   UNL     1     -10.591   9.432  68.790  1.00  0.00    -0.234 C  
BRANCH   6   7
HETATM    7  C   UNL     1     -10.129   8.183  69.511  1.00  0.00    -0.193 A  
HETATM    8  C   UNL     1      -8.951   7.576  69.020  1.00  0.00    -0.131 A  
HETATM    9  C   UNL     1      -8.456   6.391  69.559  1.00  0.00    -0.133 A  
HETATM   10  C   UNL     1      -9.136   5.778  70.601  1.00  0.00    -0.164 A  
HETATM   11  C   UNL     1     -10.310   6.354  71.091  1.00  0.00    -0.244 A  
HETATM   12  C   UNL     1     -10.812   7.555  70.562  1.00  0.00    -0.240 A  
BRANCH  12  13
HETATM   13  O   UNL     1     -12.039   7.895  71.063  1.00  0.00    -0.298 OA 
HETATM   14  C   UNL     1     -12.117   8.167  72.452  1.00  0.00    -0.348 C  
ENDBRANCH  12  13
ENDBRANCH   6   7
ENDBRANCH   4   6
ENDBRANCH   2   4
TORSDOF 4
ENDMDL
MODEL      213
REMARK 921   NORMALIZED FREE ENERGY PREDICTED BY IDOCK:   -2.62 KCAL/MOL
REMARK 922        TOTAL FREE ENERGY PREDICTED BY IDOCK:   -3.47 KCAL/MOL
REMARK 923 INTER-LIGAND FREE ENERGY PREDICTED BY IDOCK:   -3.25 KCAL/MOL
REMARK 924 INTRA-LIGAND FREE ENERGY PREDICTED BY IDOCK:   -0.22 KCAL/MOL
REMARK 927      BINDING AFFINITY PREDICTED BY RF-SCORE:    0.00 PKD
ROOT
HETATM    1  C   UNL     1      -6.816   5.497  69.742  1.00  0.00    -0.060 C  
HETATM    2  N   UNL     1      -8.172   5.314  70.245  1.00  0.00    -0.094 NA 
HETATM    3  H   UNL     1      -8.191   5.394  71.262  1.00  0.00     0.000 HD 
ENDROOT
BRANCH   2   4
HETATM    4  C   UNL     1      -9.163   6.222  69.634  1.00  0.00    -0.141 C  
HETATM    5  C   UNL     1      -9.552   5.766  68.223  1.00  0.00    -0.139 C  
BRANCH   4   6
HETATM    6  C   UNL     1     -10.457   6.306  70.495  1.00  0.00    -0.274 C  
BRANCH   6   7
HETATM    7  C   UNL     1     -11.044   7.692  70.655  1.00  0.00    -0.269 A  
HETATM    8  C   UNL     1     -10.321   8.752  70.062  1.00  0.00    -0.213 A  
HETATM    9  C   UNL     1     -10.725  10.079  70.189  1.00  0.00    -0.361 A  
HETATM   10  C   UNL     1     -11.864  10.379  70.924  1.00  0.00    -0.475 A  
HETATM   11  C   UNL     1     -12.585   9.347  71.529  1.00  0.00    -0.447 A  
HETATM   12  C   UNL     1     -12.191   8.005  71.398  1.00  0.00    -0.309 A  
BRANCH  12  13
HETATM   13  O   UNL     1     -12.928   7.148  72.171  1.00  0.00    -0.177 OA 
HETATM   14  C   UNL     1     -14.290   6.970  71.820  1.00  0.00    -0.294 C  
ENDBRANCH  12  13
ENDBRANCH   6   7
ENDBRANCH   4   6
ENDBRANCH   2   4
TORSDOF 4
ENDMDL
MODEL      214
REMARK 921   NORMALIZED FREE ENERGY PREDICTED BY IDOCK:   -2.61 KCAL/MOL
REMARK 922        TOTAL FREE ENERGY PREDICTED BY IDOCK:   -3.46 KCAL/MOL
REMARK 923 INTER-LIGAND FREE ENERGY PREDICTED BY IDOCK:   -3.16 KCAL/MOL
REMARK 924 INTRA-LIGAND FREE ENERGY PREDICTED BY IDOCK:   -0.30 KCAL/MOL
REMARK 927      BINDING AFFINITY PREDICTED BY RF-SCORE:    0.00 PKD
ROOT
HETATM    1  C   UNL     1      -7.045   5.884  68.398  1.00  0.00    -0.081 C  
HETATM    2  N   UNL     1      -8.364   6.467  68.183  1.00  0.00    -0.116 NA 
HETATM    3  H   UNL     1      -8.863   6.561  69.067  1.00  0.00     0.000 HD 
ENDROOT
BRANCH   2   4
HETATM    4  C   UNL     1      -8.336   7.756  67.463  1.00  0.00    -0.120 C  
HETATM    5  C   UNL     1      -7.153   7.837  66.492  1.00  0.00    -0.078 C  
BRANCH   4   6
HETATM    6  C   UNL     1      -9.647   7.979  66.654  1.00  0.00    -0.297 C  
BRANCH   6   7
HETATM    7  C   UNL     1     -10.153   9.405  66.612  1.00  0.00    -0.332 A  
HETATM    8  C   UNL     1     -10.781   9.883  67.785  1.00  0.00    -0.332 A  
HETATM    9  C   UNL     1     -11.340  11.157  67.852  1.00  0.00    -0.378 A  
HETATM   10  C   UNL     1     -11.292  11.984  66.738  1.00  0.00    -0.398 A  
HETATM   11  C   UNL     1     -10.689  11.525  65.565  1.00  0.00    -0.328 A  
HETATM   12  C   UNL     1     -10.113  10.246  65.491  1.00  0.00    -0.281 A  
BRANCH  12  13
HETATM   13  O   UNL     1      -9.697   9.913  64.230  1.00  0.00    -0.252 OA 
HETATM   14  C   UNL     1      -8.355  10.219  63.890  1.00  0.00    -0.165 C  
ENDBRANCH  12  13
ENDBRANCH   6   7
ENDBRANCH   4   6
ENDBRANCH   2   4
TORSDOF 4
ENDMDL
MODEL      215
REMARK 921   NORMALIZED FREE ENERGY PREDICTED BY IDOCK:   -2.61 KCAL/MOL
REMARK 922        TOTAL FREE ENERGY PREDICTED BY IDOCK:   -3.46 KCAL/MOL
REMARK 923 INTER-LIGAND FREE ENERGY PREDICTED BY IDOCK:   -3.24 KCAL/MOL
REMARK 924 INTRA-LIGAND FREE ENERGY PREDICTED BY IDOCK:   -0.22 KCAL/MOL
REMARK 927      BINDING AFFINITY PREDICTED BY RF-SCORE:    0.00 PKD
ROOT
HETATM    1  C   UNL     1      -9.592   4.761  67.800  1.00  0.00    -0.154 C  
HETATM    2  N   UNL     1      -9.704   4.332  69.189  1.00  0.00    -0.179 NA 
HETATM    3  H   UNL     1      -8.807   3.986  69.531  1.00  0.00     0.000 HD 
ENDROOT
BRANCH   2   4
HETATM    4  C   UNL     1     -10.239   5.369  70.093  1.00  0.00    -0.272 C  
HETATM    5  C   UNL     1     -10.236   4.903  71.553  1.00  0.00    -0.264 C  
BRANCH   4   6
HETATM    6  C   UNL     1      -9.410   6.683  69.998  1.00  0.00    -0.158 C  
BRANCH   6   7
HETATM    7  C   UNL     1     -10.210   7.966  70.066  1.00  0.00    -0.208 A  
HETATM    8  C   UNL     1     -10.317   8.703  68.864  1.00  0.00    -0.228 A  
HETATM    9  C   UNL     1     -10.977   9.928  68.810  1.00  0.00    -0.217 A  
HETATM   10  C   UNL     1     -11.541  10.452  69.965  1.00  0.00    -0.378 A  
HETATM   11  C   UNL     1     -11.433   9.747  71.166  1.00  0.00    -0.472 A  
HETATM   12  C   UNL     1     -10.779   8.505  71.229  1.00  0.00    -0.240 A  
BRANCH  12  13
HETATM   13  O   UNL     1     -10.646   8.028  72.505  1.00  0.00    -0.278 OA 
HETATM   14  C   UNL     1      -9.428   8.305  73.175  1.00  0.00    -0.193 C  
ENDBRANCH  12  13
ENDBRANCH   6   7
ENDBRANCH   4   6
ENDBRANCH   2   4
TORSDOF 4
ENDMDL
MODEL      216
REMARK 921   NORMALIZED FREE ENERGY PREDICTED BY IDOCK:   -2.61 KCAL/MOL
REMARK 922        TOTAL FREE ENERGY PREDICTED BY IDOCK:   -3.45 KCAL/MOL
REMARK 923 INTER-LIGAND FREE ENERGY PREDICTED BY IDOCK:   -3.57 KCAL/MOL
REMARK 924 INTRA-LIGAND FREE ENERGY PREDICTED BY IDOCK:    0.12 KCAL/MOL
REMARK 927      BINDING AFFINITY PREDICTED BY RF-SCORE:    0.00 PKD
ROOT
HETATM    1  C   UNL     1      -5.744  13.010  67.976  1.00  0.00    -0.107 C  
HETATM    2  N   UNL     1      -6.541  12.576  66.836  1.00  0.00    -0.457 NA 
HETATM    3  H   UNL     1      -5.938  12.305  66.059  1.00  0.00     0.000 HD 
ENDROOT
BRANCH   2   4
HETATM    4  C   UNL     1      -7.498  11.497  67.152  1.00  0.00    -0.142 C  
HETATM    5  C   UNL     1      -8.032  11.616  68.584  1.00  0.00    -0.127 C  
BRANCH   4   6
HETATM    6  C   UNL     1      -8.710  11.514  66.175  1.00  0.00    -0.131 C  
BRANCH   6   7
HETATM    7  C   UNL     1      -9.794  12.520  66.499  1.00  0.00    -0.251 A  
HETATM    8  C   UNL     1      -9.427  13.884  66.424  1.00  0.00    -0.268 A  
HETATM    9  C   UNL     1     -10.317  14.903  66.755  1.00  0.00    -0.269 A  
HETATM   10  C   UNL     1     -11.598  14.581  67.179  1.00  0.00    -0.406 A  
HETATM   11  C   UNL     1     -11.976  13.239  67.274  1.00  0.00    -0.393 A  
HETATM   12  C   UNL     1     -11.090  12.204  66.933  1.00  0.00    -0.297 A  
BRANCH  12  13
HETATM   13  O   UNL     1     -11.578  10.958  67.220  1.00  0.00    -0.475 OA 
HETATM   14  C   UNL     1     -11.229  10.401  68.476  1.00  0.00    -0.251 C  
ENDBRANCH  12  13
ENDBRANCH   6   7
ENDBRANCH   4   6
ENDBRANCH   2   4
TORSDOF 4
ENDMDL
MODEL      217
REMARK 921   NORMALIZED FREE ENERGY PREDICTED BY IDOCK:   -2.58 KCAL/MOL
REMARK 922        TOTAL FREE ENERGY PREDICTED BY IDOCK:   -3.43 KCAL/MOL
REMARK 923 INTER-LIGAND FREE ENERGY PREDICTED BY IDOCK:   -3.22 KCAL/MOL
REMARK 924 INTRA-LIGAND FREE ENERGY PREDICTED BY IDOCK:   -0.20 KCAL/MOL
REMARK 927      BINDING AFFINITY PREDICTED BY RF-SCORE:    0.00 PKD
ROOT
HETATM    1  C   UNL     1      -9.855   4.351  66.680  1.00  0.00    -0.226 C  
HETATM    2  N   UNL     1     -10.146   5.737  67.023  1.00  0.00    -0.166 NA 
HETATM    3  H   UNL     1     -11.110   5.971  66.787  1.00  0.00     0.000 HD 
ENDROOT
BRANCH   2   4
HETATM    4  C   UNL     1      -9.860   6.075  68.432  1.00  0.00    -0.130 C  
HETATM    5  C   UNL     1      -9.189   7.448  68.558  1.00  0.00    -0.142 C  
BRANCH   4   6
HETATM    6  C   UNL     1     -11.162   6.087  69.285  1.00  0.00    -0.367 C  
BRANCH   6   7
HETATM    7  C   UNL     1     -10.976   6.403  70.753  1.00  0.00    -0.346 A  
HETATM    8  C   UNL     1     -11.684   7.522  71.248  1.00  0.00    -0.312 A  
HETATM    9  C   UNL     1     -11.552   7.950  72.567  1.00  0.00    -0.443 A  
HETATM   10  C   UNL     1     -10.697   7.271  73.424  1.00  0.00    -0.415 A  
HETATM   11  C   UNL     1      -9.978   6.172  72.950  1.00  0.00    -0.184 A  
HETATM   12  C   UNL     1     -10.112   5.725  71.625  1.00  0.00    -0.194 A  
BRANCH  12  13
HETATM   13  O   UNL     1      -9.232   4.730  71.299  1.00  0.00    -0.133 OA 
HETATM   14  C   UNL     1      -9.678   3.393  71.455  1.00  0.00    -0.163 C  
ENDBRANCH  12  13
ENDBRANCH   6   7
ENDBRANCH   4   6
ENDBRANCH   2   4
TORSDOF 4
ENDMDL
MODEL      218
REMARK 921   NORMALIZED FREE ENERGY PREDICTED BY IDOCK:   -2.58 KCAL/MOL
REMARK 922        TOTAL FREE ENERGY PREDICTED BY IDOCK:   -3.43 KCAL/MOL
REMARK 923 INTER-LIGAND FREE ENERGY PREDICTED BY IDOCK:   -3.24 KCAL/MOL
REMARK 924 INTRA-LIGAND FREE ENERGY PREDICTED BY IDOCK:   -0.18 KCAL/MOL
REMARK 927      BINDING AFFINITY PREDICTED BY RF-SCORE:    0.00 PKD
ROOT
HETATM    1  C   UNL     1     -11.301  10.085  69.998  1.00  0.00    -0.275 C  
HETATM    2  N   UNL     1     -10.287   9.721  70.979  1.00  0.00    -0.318 NA 
HETATM    3  H   UNL     1     -10.366  10.306  71.811  1.00  0.00     0.000 HD 
ENDROOT
BRANCH   2   4
HETATM    4  C   UNL     1     -10.298   8.291  71.346  1.00  0.00    -0.213 C  
HETATM    5  C   UNL     1     -10.677   8.088  72.817  1.00  0.00    -0.431 C  
BRANCH   4   6
HETATM    6  C   UNL     1     -11.303   7.491  70.467  1.00  0.00    -0.279 C  
BRANCH   6   7
HETATM    7  C   UNL     1     -10.681   6.534  69.471  1.00  0.00    -0.322 A  
HETATM    8  C   UNL     1     -11.169   6.605  68.146  1.00  0.00    -0.207 A  
HETATM    9  C   UNL     1     -10.719   5.739  67.152  1.00  0.00    -0.358 A  
HETATM   10  C   UNL     1      -9.774   4.772  67.463  1.00  0.00    -0.209 A  
HETATM   11  C   UNL     1      -9.291   4.677  68.770  1.00  0.00    -0.197 A  
HETATM   12  C   UNL     1      -9.729   5.552  69.778  1.00  0.00    -0.176 A  
BRANCH  12  13
HETATM   13  O   UNL     1      -9.258   5.224  71.020  1.00  0.00    -0.142 OA 
HETATM   14  C   UNL     1      -9.060   3.847  71.294  1.00  0.00    -0.115 C  
ENDBRANCH  12  13
ENDBRANCH   6   7
ENDBRANCH   4   6
ENDBRANCH   2   4
TORSDOF 4
ENDMDL
MODEL      219
REMARK 921   NORMALIZED FREE ENERGY PREDICTED BY IDOCK:   -2.58 KCAL/MOL
REMARK 922        TOTAL FREE ENERGY PREDICTED BY IDOCK:   -3.42 KCAL/MOL
REMARK 923 INTER-LIGAND FREE ENERGY PREDICTED BY IDOCK:   -3.17 KCAL/MOL
REMARK 924 INTRA-LIGAND FREE ENERGY PREDICTED BY IDOCK:   -0.25 KCAL/MOL
REMARK 927      BINDING AFFINITY PREDICTED BY RF-SCORE:    0.00 PKD
ROOT
HETATM    1  C   UNL     1      -5.720  20.797  62.330  1.00  0.00    -0.241 C  
HETATM    2  N   UNL     1      -5.865  19.573  63.109  1.00  0.00    -0.371 NA 
HETATM    3  H   UNL     1      -5.263  18.838  62.737  1.00  0.00     0.000 HD 
ENDROOT
BRANCH   2   4
HETATM    4  C   UNL     1      -5.630  19.755  64.555  1.00  0.00    -0.211 C  
HETATM    5  C   UNL     1      -5.196  21.188  64.882  1.00  0.00    -0.221 C  
BRANCH   4   6
HETATM    6  C   UNL     1      -6.910  19.431  65.379  1.00  0.00    -0.270 C  
BRANCH   6   7
HETATM    7  C   UNL     1      -6.695  18.574  66.608  1.00  0.00    -0.218 A  
HETATM    8  C   UNL     1      -5.709  17.566  66.505  1.00  0.00    -0.234 A  
HETATM    9  C   UNL     1      -5.458  16.675  67.546  1.00  0.00    -0.161 A  
HETATM   10  C   UNL     1      -6.198  16.765  68.717  1.00  0.00    -0.151 A  
HETATM   11  C   UNL     1      -7.186  17.745  68.833  1.00  0.00    -0.256 A  
HETATM   12  C   UNL     1      -7.440  18.656  67.794  1.00  0.00    -0.227 A  
BRANCH  12  13
HETATM   13  O   UNL     1      -8.531  19.449  68.024  1.00  0.00    -0.302 OA 
HETATM   14  C   UNL     1      -9.521  18.947  68.907  1.00  0.00    -0.309 C  
ENDBRANCH  12  13
ENDBRANCH   6   7
ENDBRANCH   4   6
ENDBRANCH   2   4
TORSDOF 4
ENDMDL
MODEL      220
REMARK 921   NORMALIZED FREE ENERGY PREDICTED BY IDOCK:   -2.58 KCAL/MOL
REMARK 922        TOTAL FREE ENERGY PREDICTED BY IDOCK:   -3.42 KCAL/MOL
REMARK 923 INTER-LIGAND FREE ENERGY PREDICTED BY IDOCK:   -3.12 KCAL/MOL
REMARK 924 INTRA-LIGAND FREE ENERGY PREDICTED BY IDOCK:   -0.30 KCAL/MOL
REMARK 927      BINDING AFFINITY PREDICTED BY RF-SCORE:    0.00 PKD
ROOT
HETATM    1  C   UNL     1     -13.133   7.103  71.577  1.00  0.00    -0.375 C  
HETATM    2  N   UNL     1     -12.115   6.440  72.382  1.00  0.00    -0.525 NA 
HETATM    3  H   UNL     1     -12.488   5.588  72.802  1.00  0.00     0.000 HD 
ENDROOT
BRANCH   2   4
HETATM    4  C   UNL     1     -10.867   6.153  71.647  1.00  0.00    -0.258 C  
HETATM    5  C   UNL     1     -10.192   4.874  72.157  1.00  0.00    -0.257 C  
BRANCH   4   6
HETATM    6  C   UNL     1     -11.134   5.990  70.123  1.00  0.00    -0.432 C  
BRANCH   6   7
HETATM    7  C   UNL     1     -10.067   6.555  69.210  1.00  0.00    -0.192 A  
HETATM    8  C   UNL     1      -9.507   7.796  69.592  1.00  0.00    -0.156 A  
HETATM    9  C   UNL     1      -8.560   8.448  68.806  1.00  0.00    -0.135 A  
HETATM   10  C   UNL     1      -8.155   7.875  67.609  1.00  0.00    -0.124 A  
HETATM   11  C   UNL     1      -8.706   6.657  67.206  1.00  0.00    -0.118 A  
HETATM   12  C   UNL     1      -9.654   5.986  67.996  1.00  0.00    -0.117 A  
BRANCH  12  13
HETATM   13  O   UNL     1     -10.187   4.885  67.383  1.00  0.00    -0.172 OA 
HETATM   14  C   UNL     1     -10.090   4.821  65.970  1.00  0.00    -0.257 C  
ENDBRANCH  12  13
ENDBRANCH   6   7
ENDBRANCH   4   6
ENDBRANCH   2   4
TORSDOF 4
ENDMDL
MODEL      221
REMARK 921   NORMALIZED FREE ENERGY PREDICTED BY IDOCK:   -2.57 KCAL/MOL
REMARK 922        TOTAL FREE ENERGY PREDICTED BY IDOCK:   -3.41 KCAL/MOL
REMARK 923 INTER-LIGAND FREE ENERGY PREDICTED BY IDOCK:   -3.17 KCAL/MOL
REMARK 924 INTRA-LIGAND FREE ENERGY PREDICTED BY IDOCK:   -0.24 KCAL/MOL
REMARK 927      BINDING AFFINITY PREDICTED BY RF-SCORE:    0.00 PKD
ROOT
HETATM    1  C   UNL     1     -13.346  10.138  71.885  1.00  0.00    -0.402 C  
HETATM    2  N   UNL     1     -12.095  10.292  71.152  1.00  0.00    -0.371 NA 
HETATM    3  H   UNL     1     -11.651   9.385  71.006  1.00  0.00     0.000 HD 
ENDROOT
BRANCH   2   4
HETATM    4  C   UNL     1     -12.239  11.012  69.871  1.00  0.00    -0.336 C  
HETATM    5  C   UNL     1     -11.981  12.514  70.035  1.00  0.00    -0.372 C  
BRANCH   4   6
HETATM    6  C   UNL     1     -11.253  10.460  68.801  1.00  0.00    -0.295 C  
BRANCH   6   7
HETATM    7  C   UNL     1      -9.802  10.386  69.227  1.00  0.00    -0.243 A  
HETATM    8  C   UNL     1      -8.923  11.314  68.622  1.00  0.00    -0.148 A  
HETATM    9  C   UNL     1      -7.556  11.310  68.886  1.00  0.00    -0.126 A  
HETATM   10  C   UNL     1      -7.031  10.366  69.758  1.00  0.00    -0.138 A  
HETATM   11  C   UNL     1      -7.881   9.432  70.355  1.00  0.00    -0.179 A  
HETATM   12  C   UNL     1      -9.263   9.435  70.104  1.00  0.00    -0.234 A  
BRANCH  12  13
HETATM   13  O   UNL     1      -9.915   8.367  70.658  1.00  0.00    -0.181 OA 
HETATM   14  C   UNL     1      -9.137   7.457  71.418  1.00  0.00    -0.141 C  
ENDBRANCH  12  13
ENDBRANCH   6   7
ENDBRANCH   4   6
ENDBRANCH   2   4
TORSDOF 4
ENDMDL
MODEL      222
REMARK 921   NORMALIZED FREE ENERGY PREDICTED BY IDOCK:   -2.56 KCAL/MOL
REMARK 922        TOTAL FREE ENERGY PREDICTED BY IDOCK:   -3.39 KCAL/MOL
REMARK 923 INTER-LIGAND FREE ENERGY PREDICTED BY IDOCK:   -3.14 KCAL/MOL
REMARK 924 INTRA-LIGAND FREE ENERGY PREDICTED BY IDOCK:   -0.25 KCAL/MOL
REMARK 927      BINDING AFFINITY PREDICTED BY RF-SCORE:    0.00 PKD
ROOT
HETATM    1  C   UNL     1     -11.517   5.741  72.536  1.00  0.00    -0.296 C  
HETATM    2  N   UNL     1     -12.673   6.554  72.179  1.00  0.00    -0.546 NA 
HETATM    3  H   UNL     1     -13.252   6.734  73.000  1.00  0.00     0.000 HD 
ENDROOT
BRANCH   2   4
HETATM    4  C   UNL     1     -12.327   7.819  71.500  1.00  0.00    -0.320 C  
HETATM    5  C   UNL     1     -13.124   9.000  72.065  1.00  0.00    -0.474 C  
BRANCH   4   6
HETATM    6  C   UNL     1     -10.811   8.139  71.644  1.00  0.00    -0.306 C  
BRANCH   6   7
HETATM    7  C   UNL     1      -9.986   7.962  70.387  1.00  0.00    -0.192 A  
HETATM    8  C   UNL     1     -10.570   8.419  69.183  1.00  0.00    -0.177 A  
HETATM    9  C   UNL     1      -9.937   8.261  67.953  1.00  0.00    -0.227 A  
HETATM   10  C   UNL     1      -8.702   7.630  67.896  1.00  0.00    -0.124 A  
HETATM   11  C   UNL     1      -8.114   7.159  69.072  1.00  0.00    -0.121 A  
HETATM   12  C   UNL     1      -8.739   7.323  70.319  1.00  0.00    -0.147 A  
BRANCH  12  13
HETATM   13  O   UNL     1      -8.091   6.679  71.337  1.00  0.00    -0.109 OA 
HETATM   14  C   UNL     1      -7.701   5.335  71.108  1.00  0.00    -0.101 C  
ENDBRANCH  12  13
ENDBRANCH   6   7
ENDBRANCH   4   6
ENDBRANCH   2   4
TORSDOF 4
ENDMDL
MODEL      223
REMARK 921   NORMALIZED FREE ENERGY PREDICTED BY IDOCK:   -2.55 KCAL/MOL
REMARK 922        TOTAL FREE ENERGY PREDICTED BY IDOCK:   -3.38 KCAL/MOL
REMARK 923 INTER-LIGAND FREE ENERGY PREDICTED BY IDOCK:   -2.91 KCAL/MOL
REMARK 924 INTRA-LIGAND FREE ENERGY PREDICTED BY IDOCK:   -0.46 KCAL/MOL
REMARK 927      BINDING AFFINITY PREDICTED BY RF-SCORE:    0.00 PKD
ROOT
HETATM    1  C   UNL     1      -8.683   6.061  71.967  1.00  0.00    -0.136 C  
HETATM    2  N   UNL     1      -9.746   5.615  71.074  1.00  0.00    -0.168 NA 
HETATM    3  H   UNL     1     -10.571   6.206  71.177  1.00  0.00     0.000 HD 
ENDROOT
BRANCH   2   4
HETATM    4  C   UNL     1      -9.340   5.532  69.657  1.00  0.00    -0.134 C  
HETATM    5  C   UNL     1      -8.907   4.112  69.276  1.00  0.00    -0.142 C  
BRANCH   4   6
HETATM    6  C   UNL     1     -10.501   5.959  68.712  1.00  0.00    -0.314 C  
BRANCH   6   7
HETATM    7  C   UNL     1     -10.649   7.450  68.495  1.00  0.00    -0.188 A  
HETATM    8  C   UNL     1     -10.304   7.935  67.212  1.00  0.00    -0.377 A  
HETATM    9  C   UNL     1     -10.342   9.293  66.905  1.00  0.00    -0.316 A  
HETATM   10  C   UNL     1     -10.719  10.204  67.882  1.00  0.00    -0.317 A  
HETATM   11  C   UNL     1     -11.049   9.747  69.160  1.00  0.00    -0.158 A  
HETATM   12  C   UNL     1     -11.025   8.379  69.477  1.00  0.00    -0.040 A  
BRANCH  12  13
HETATM   13  O   UNL     1     -11.239   8.127  70.805  1.00  0.00    -0.257 OA 
HETATM   14  C   UNL     1     -11.056   9.207  71.705  1.00  0.00    -0.367 C  
ENDBRANCH  12  13
ENDBRANCH   6   7
ENDBRANCH   4   6
ENDBRANCH   2   4
TORSDOF 4
ENDMDL
MODEL      224
REMARK 921   NORMALIZED FREE ENERGY PREDICTED BY IDOCK:   -2.54 KCAL/MOL
REMARK 922        TOTAL FREE ENERGY PREDICTED BY IDOCK:   -3.37 KCAL/MOL
REMARK 923 INTER-LIGAND FREE ENERGY PREDICTED BY IDOCK:   -3.19 KCAL/MOL
REMARK 924 INTRA-LIGAND FREE ENERGY PREDICTED BY IDOCK:   -0.18 KCAL/MOL
REMARK 927      BINDING AFFINITY PREDICTED BY RF-SCORE:    0.00 PKD
ROOT
HETATM    1  C   UNL     1     -10.374  19.823  69.069  1.00  0.00    -0.137 C  
HETATM    2  N   UNL     1      -9.574  18.746  68.500  1.00  0.00    -0.350 NA 
HETATM    3  H   UNL     1      -9.607  17.920  69.097  1.00  0.00     0.000 HD 
ENDROOT
BRANCH   2   4
HETATM    4  C   UNL     1      -9.942  18.398  67.113  1.00  0.00    -0.337 C  
HETATM    5  C   UNL     1     -10.449  19.621  66.339  1.00  0.00    -0.618 C  
BRANCH   4   6
HETATM    6  C   UNL     1      -8.730  17.800  66.341  1.00  0.00    -0.255 C  
BRANCH   6   7
HETATM    7  C   UNL     1      -7.951  16.731  67.077  1.00  0.00    -0.231 A  
HETATM    8  C   UNL     1      -6.557  16.937  67.191  1.00  0.00    -0.224 A  
HETATM    9  C   UNL     1      -5.723  15.998  67.794  1.00  0.00    -0.161 A  
HETATM   10  C   UNL     1      -6.265  14.822  68.291  1.00  0.00    -0.125 A  
HETATM   11  C   UNL     1      -7.638  14.593  68.176  1.00  0.00    -0.123 A  
HETATM   12  C   UNL     1      -8.489  15.538  67.579  1.00  0.00    -0.173 A  
BRANCH  12  13
HETATM   13  O   UNL     1      -9.772  15.088  67.426  1.00  0.00    -0.214 OA 
HETATM   14  C   UNL     1     -10.323  14.327  68.488  1.00  0.00    -0.244 C  
ENDBRANCH  12  13
ENDBRANCH   6   7
ENDBRANCH   4   6
ENDBRANCH   2   4
TORSDOF 4
ENDMDL
MODEL      225
REMARK 921   NORMALIZED FREE ENERGY PREDICTED BY IDOCK:   -2.54 KCAL/MOL
REMARK 922        TOTAL FREE ENERGY PREDICTED BY IDOCK:   -3.37 KCAL/MOL
REMARK 923 INTER-LIGAND FREE ENERGY PREDICTED BY IDOCK:   -3.06 KCAL/MOL
REMARK 924 INTRA-LIGAND FREE ENERGY PREDICTED BY IDOCK:   -0.31 KCAL/MOL
REMARK 927      BINDING AFFINITY PREDICTED BY RF-SCORE:    0.00 PKD
ROOT
HETATM    1  C   UNL     1      -6.767   8.371  72.266  1.00  0.00    -0.089 C  
HETATM    2  N   UNL     1      -8.177   8.625  72.533  1.00  0.00    -0.392 NA 
HETATM    3  H   UNL     1      -8.285   9.408  73.178  1.00  0.00     0.000 HD 
ENDROOT
BRANCH   2   4
HETATM    4  C   UNL     1      -8.986   8.838  71.317  1.00  0.00    -0.231 C  
HETATM    5  C   UNL     1      -8.260   9.730  70.304  1.00  0.00    -0.178 C  
BRANCH   4   6
HETATM    6  C   UNL     1      -9.327   7.487  70.622  1.00  0.00    -0.163 C  
BRANCH   6   7
HETATM    7  C   UNL     1      -9.932   6.427  71.518  1.00  0.00    -0.200 A  
HETATM    8  C   UNL     1      -9.196   5.228  71.655  1.00  0.00    -0.170 A  
HETATM    9  C   UNL     1      -9.674   4.155  72.403  1.00  0.00    -0.210 A  
HETATM   10  C   UNL     1     -10.910   4.254  73.028  1.00  0.00    -0.267 A  
HETATM   11  C   UNL     1     -11.658   5.425  72.893  1.00  0.00    -0.296 A  
HETATM   12  C   UNL     1     -11.181   6.517  72.149  1.00  0.00    -0.271 A  
BRANCH  12  13
HETATM   13  O   UNL     1     -12.102   7.519  72.008  1.00  0.00    -0.288 OA 
HETATM   14  C   UNL     1     -13.349   7.174  71.430  1.00  0.00    -0.307 C  
ENDBRANCH  12  13
ENDBRANCH   6   7
ENDBRANCH   4   6
ENDBRANCH   2   4
TORSDOF 4
ENDMDL
MODEL      226
REMARK 921   NORMALIZED FREE ENERGY PREDICTED BY IDOCK:   -2.53 KCAL/MOL
REMARK 922        TOTAL FREE ENERGY PREDICTED BY IDOCK:   -3.36 KCAL/MOL
REMARK 923 INTER-LIGAND FREE ENERGY PREDICTED BY IDOCK:   -3.07 KCAL/MOL
REMARK 924 INTRA-LIGAND FREE ENERGY PREDICTED BY IDOCK:   -0.30 KCAL/MOL
REMARK 927      BINDING AFFINITY PREDICTED BY RF-SCORE:    0.00 PKD
ROOT
HETATM    1  C   UNL     1     -11.886  11.812  68.830  1.00  0.00    -0.320 C  
HETATM    2  N   UNL     1     -10.720  11.495  69.645  1.00  0.00    -0.456 NA 
HETATM    3  H   UNL     1     -10.883  11.750  70.619  1.00  0.00     0.000 HD 
ENDROOT
BRANCH   2   4
HETATM    4  C   UNL     1     -10.285  10.088  69.543  1.00  0.00    -0.234 C  
HETATM    5  C   UNL     1     -10.676   9.284  70.789  1.00  0.00    -0.350 C  
BRANCH   4   6
HETATM    6  C   UNL     1     -10.909   9.393  68.298  1.00  0.00    -0.163 C  
BRANCH   6   7
HETATM    7  C   UNL     1      -9.933   9.015  67.204  1.00  0.00    -0.286 A  
HETATM    8  C   UNL     1      -9.425  10.078  66.423  1.00  0.00    -0.235 A  
HETATM    9  C   UNL     1      -8.565   9.855  65.350  1.00  0.00    -0.164 A  
HETATM   10  C   UNL     1      -8.199   8.556  65.026  1.00  0.00    -0.160 A  
HETATM   11  C   UNL     1      -8.701   7.491  65.777  1.00  0.00    -0.142 A  
HETATM   12  C   UNL     1      -9.560   7.706  66.868  1.00  0.00    -0.193 A  
BRANCH  12  13
HETATM   13  O   UNL     1     -10.064   6.548  67.396  1.00  0.00    -0.137 OA 
HETATM   14  C   UNL     1     -10.745   5.676  66.509  1.00  0.00    -0.226 C  
ENDBRANCH  12  13
ENDBRANCH   6   7
ENDBRANCH   4   6
ENDBRANCH   2   4
TORSDOF 4
ENDMDL
MODEL      227
REMARK 921   NORMALIZED FREE ENERGY PREDICTED BY IDOCK:   -2.53 KCAL/MOL
REMARK 922        TOTAL FREE ENERGY PREDICTED BY IDOCK:   -3.36 KCAL/MOL
REMARK 923 INTER-LIGAND FREE ENERGY PREDICTED BY IDOCK:   -2.95 KCAL/MOL
REMARK 924 INTRA-LIGAND FREE ENERGY PREDICTED BY IDOCK:   -0.41 KCAL/MOL
REMARK 927      BINDING AFFINITY PREDICTED BY RF-SCORE:    0.00 PKD
ROOT
HETATM    1  C   UNL     1     -11.402  11.114  68.287  1.00  0.00    -0.297 C  
HETATM    2  N   UNL     1     -10.456  11.201  67.182  1.00  0.00    -0.219 NA 
HETATM    3  H   UNL     1      -9.501  11.071  67.516  1.00  0.00     0.000 HD 
ENDROOT
BRANCH   2   4
HETATM    4  C   UNL     1     -10.749  10.273  66.071  1.00  0.00     0.053 C  
HETATM    5  C   UNL     1     -10.767  10.996  64.720  1.00  0.00    -0.304 C  
BRANCH   4   6
HETATM    6  C   UNL     1      -9.695   9.130  65.999  1.00  0.00    -0.358 C  
BRANCH   6   7
HETATM    7  C   UNL     1      -9.759   8.112  67.119  1.00  0.00    -0.259 A  
HETATM    8  C   UNL     1     -10.799   7.159  67.040  1.00  0.00    -0.382 A  
HETATM    9  C   UNL     1     -11.000   6.207  68.038  1.00  0.00    -0.399 A  
HETATM   10  C   UNL     1     -10.166   6.193  69.147  1.00  0.00    -0.242 A  
HETATM   11  C   UNL     1      -9.141   7.136  69.250  1.00  0.00    -0.137 A  
HETATM   12  C   UNL     1      -8.923   8.093  68.245  1.00  0.00    -0.136 A  
BRANCH  12  13
HETATM   13  O   UNL     1      -7.973   9.020  68.577  1.00  0.00    -0.101 OA 
HETATM   14  C   UNL     1      -8.199   9.788  69.747  1.00  0.00    -0.173 C  
ENDBRANCH  12  13
ENDBRANCH   6   7
ENDBRANCH   4   6
ENDBRANCH   2   4
TORSDOF 4
ENDMDL
MODEL      228
REMARK 921   NORMALIZED FREE ENERGY PREDICTED BY IDOCK:   -2.53 KCAL/MOL
REMARK 922        TOTAL FREE ENERGY PREDICTED BY IDOCK:   -3.35 KCAL/MOL
REMARK 923 INTER-LIGAND FREE ENERGY PREDICTED BY IDOCK:   -3.62 KCAL/MOL
REMARK 924 INTRA-LIGAND FREE ENERGY PREDICTED BY IDOCK:    0.27 KCAL/MOL
REMARK 927      BINDING AFFINITY PREDICTED BY RF-SCORE:    0.00 PKD
ROOT
HETATM    1  C   UNL     1     -11.568   6.788  72.117  1.00  0.00    -0.288 C  
HETATM    2  N   UNL     1     -12.955   7.150  71.853  1.00  0.00    -0.505 NA 
HETATM    3  H   UNL     1     -13.531   6.990  72.679  1.00  0.00     0.000 HD 
ENDROOT
BRANCH   2   4
HETATM    4  C   UNL     1     -13.128   8.530  71.359  1.00  0.00    -0.230 C  
HETATM    5  C   UNL     1     -14.021   9.357  72.291  1.00  0.00    -0.367 C  
BRANCH   4   6
HETATM    6  C   UNL     1     -11.758   9.257  71.223  1.00  0.00    -0.416 C  
BRANCH   6   7
HETATM    7  C   UNL     1     -11.825  10.691  70.745  1.00  0.00    -0.459 A  
HETATM    8  C   UNL     1     -12.241  11.651  71.696  1.00  0.00     0.256 A  
HETATM    9  C   UNL     1     -12.399  12.994  71.363  1.00  0.00    -0.114 A  
HETATM   10  C   UNL     1     -12.152  13.410  70.062  1.00  0.00    -0.404 A  
HETATM   11  C   UNL     1     -11.755  12.475  69.104  1.00  0.00    -0.375 A  
HETATM   12  C   UNL     1     -11.582  11.120  69.431  1.00  0.00    -0.318 A  
BRANCH  12  13
HETATM   13  O   UNL     1     -11.329  10.329  68.344  1.00  0.00    -0.256 OA 
HETATM   14  C   UNL     1      -9.970  10.118  67.999  1.00  0.00    -0.148 C  
ENDBRANCH  12  13
ENDBRANCH   6   7
ENDBRANCH   4   6
ENDBRANCH   2   4
TORSDOF 4
ENDMDL
MODEL      229
REMARK 921   NORMALIZED FREE ENERGY PREDICTED BY IDOCK:   -2.52 KCAL/MOL
REMARK 922        TOTAL FREE ENERGY PREDICTED BY IDOCK:   -3.34 KCAL/MOL
REMARK 923 INTER-LIGAND FREE ENERGY PREDICTED BY IDOCK:   -2.91 KCAL/MOL
REMARK 924 INTRA-LIGAND FREE ENERGY PREDICTED BY IDOCK:   -0.43 KCAL/MOL
REMARK 927      BINDING AFFINITY PREDICTED BY RF-SCORE:    0.00 PKD
ROOT
HETATM    1  C   UNL     1     -11.048  10.116  68.927  1.00  0.00    -0.207 C  
HETATM    2  N   UNL     1     -10.810   9.833  70.337  1.00  0.00    -0.287 NA 
HETATM    3  H   UNL     1     -11.512   9.186  70.696  1.00  0.00     0.000 HD 
ENDROOT
BRANCH   2   4
HETATM    4  C   UNL     1      -9.450   9.337  70.626  1.00  0.00    -0.272 C  
HETATM    5  C   UNL     1      -9.368   8.688  72.012  1.00  0.00    -0.362 C  
BRANCH   4   6
HETATM    6  C   UNL     1      -8.996   8.288  69.568  1.00  0.00    -0.150 C  
BRANCH   6   7
HETATM    7  C   UNL     1      -9.203   6.840  69.956  1.00  0.00    -0.158 A  
HETATM    8  C   UNL     1      -8.040   6.039  70.030  1.00  0.00    -0.114 A  
HETATM    9  C   UNL     1      -8.103   4.678  70.319  1.00  0.00    -0.067 A  
HETATM   10  C   UNL     1      -9.338   4.081  70.533  1.00  0.00    -0.220 A  
HETATM   11  C   UNL     1     -10.499   4.852  70.450  1.00  0.00    -0.164 A  
HETATM   12  C   UNL     1     -10.446   6.227  70.170  1.00  0.00    -0.222 A  
BRANCH  12  13
HETATM   13  O   UNL     1     -11.680   6.790  69.988  1.00  0.00    -0.337 OA 
HETATM   14  C   UNL     1     -12.527   6.872  71.122  1.00  0.00    -0.349 C  
ENDBRANCH  12  13
ENDBRANCH   6   7
ENDBRANCH   4   6
ENDBRANCH   2   4
TORSDOF 4
ENDMDL
MODEL      230
REMARK 921   NORMALIZED FREE ENERGY PREDICTED BY IDOCK:   -2.51 KCAL/MOL
REMARK 922        TOTAL FREE ENERGY PREDICTED BY IDOCK:   -3.33 KCAL/MOL
REMARK 923 INTER-LIGAND FREE ENERGY PREDICTED BY IDOCK:   -3.39 KCAL/MOL
REMARK 924 INTRA-LIGAND FREE ENERGY PREDICTED BY IDOCK:    0.06 KCAL/MOL
REMARK 927      BINDING AFFINITY PREDICTED BY RF-SCORE:    0.00 PKD
ROOT
HETATM    1  C   UNL     1     -14.406   7.799  71.621  1.00  0.00    -0.481 C  
HETATM    2  N   UNL     1     -13.351   7.430  70.685  1.00  0.00    -0.350 NA 
HETATM    3  H   UNL     1     -13.507   7.870  69.778  1.00  0.00     0.000 HD 
ENDROOT
BRANCH   2   4
HETATM    4  C   UNL     1     -11.989   7.719  71.176  1.00  0.00    -0.291 C  
HETATM    5  C   UNL     1     -11.898   9.117  71.800  1.00  0.00    -0.453 C  
BRANCH   4   6
HETATM    6  C   UNL     1     -11.541   6.678  72.242  1.00  0.00    -0.313 C  
BRANCH   6   7
HETATM    7  C   UNL     1     -10.740   5.507  71.713  1.00  0.00    -0.289 A  
HETATM    8  C   UNL     1     -10.778   4.322  72.483  1.00  0.00    -0.129 A  
HETATM    9  C   UNL     1     -10.038   3.195  72.134  1.00  0.00    -0.200 A  
HETATM   10  C   UNL     1      -9.231   3.230  71.006  1.00  0.00    -0.199 A  
HETATM   11  C   UNL     1      -9.168   4.396  70.239  1.00  0.00    -0.193 A  
HETATM   12  C   UNL     1      -9.919   5.534  70.576  1.00  0.00    -0.212 A  
BRANCH  12  13
HETATM   13  O   UNL     1      -9.627   6.623  69.801  1.00  0.00    -0.150 OA 
HETATM   14  C   UNL     1      -8.339   7.196  69.948  1.00  0.00    -0.135 C  
ENDBRANCH  12  13
ENDBRANCH   6   7
ENDBRANCH   4   6
ENDBRANCH   2   4
TORSDOF 4
ENDMDL
MODEL      231
REMARK 921   NORMALIZED FREE ENERGY PREDICTED BY IDOCK:   -2.51 KCAL/MOL
REMARK 922        TOTAL FREE ENERGY PREDICTED BY IDOCK:   -3.33 KCAL/MOL
REMARK 923 INTER-LIGAND FREE ENERGY PREDICTED BY IDOCK:   -2.98 KCAL/MOL
REMARK 924 INTRA-LIGAND FREE ENERGY PREDICTED BY IDOCK:   -0.35 KCAL/MOL
REMARK 927      BINDING AFFINITY PREDICTED BY RF-SCORE:    0.00 PKD
ROOT
HETATM    1  C   UNL     1      -9.420   3.890  67.217  1.00  0.00    -0.199 C  
HETATM    2  N   UNL     1      -9.644   4.073  68.646  1.00  0.00    -0.148 NA 
HETATM    3  H   UNL     1      -8.804   3.838  69.174  1.00  0.00     0.000 HD 
ENDROOT
BRANCH   2   4
HETATM    4  C   UNL     1     -10.125   5.421  69.007  1.00  0.00    -0.213 C  
HETATM    5  C   UNL     1     -10.487   5.512  70.494  1.00  0.00    -0.347 C  
BRANCH   4   6
HETATM    6  C   UNL     1      -9.051   6.504  68.699  1.00  0.00    -0.128 C  
BRANCH   6   7
HETATM    7  C   UNL     1      -9.531   7.684  67.880  1.00  0.00    -0.156 A  
HETATM    8  C   UNL     1      -9.015   7.788  66.568  1.00  0.00    -0.191 A  
HETATM    9  C   UNL     1      -9.334   8.859  65.736  1.00  0.00    -0.286 A  
HETATM   10  C   UNL     1     -10.174   9.860  66.203  1.00  0.00    -0.277 A  
HETATM   11  C   UNL     1     -10.682   9.783  67.501  1.00  0.00    -0.327 A  
HETATM   12  C   UNL     1     -10.376   8.703  68.345  1.00  0.00    -0.201 A  
BRANCH  12  13
HETATM   13  O   UNL     1     -10.843   8.863  69.621  1.00  0.00    -0.233 OA 
HETATM   14  C   UNL     1     -10.062   9.654  70.501  1.00  0.00    -0.274 C  
ENDBRANCH  12  13
ENDBRANCH   6   7
ENDBRANCH   4   6
ENDBRANCH   2   4
TORSDOF 4
ENDMDL
MODEL      232
REMARK 921   NORMALIZED FREE ENERGY PREDICTED BY IDOCK:   -2.51 KCAL/MOL
REMARK 922        TOTAL FREE ENERGY PREDICTED BY IDOCK:   -3.33 KCAL/MOL
REMARK 923 INTER-LIGAND FREE ENERGY PREDICTED BY IDOCK:   -3.07 KCAL/MOL
REMARK 924 INTRA-LIGAND FREE ENERGY PREDICTED BY IDOCK:   -0.26 KCAL/MOL
REMARK 927      BINDING AFFINITY PREDICTED BY RF-SCORE:    0.00 PKD
ROOT
HETATM    1  C   UNL     1      -6.947  14.714  69.164  1.00  0.00    -0.134 C  
HETATM    2  N   UNL     1      -8.123  15.530  68.885  1.00  0.00    -0.176 NA 
HETATM    3  H   UNL     1      -8.348  16.120  69.686  1.00  0.00     0.000 HD 
ENDROOT
BRANCH   2   4
HETATM    4  C   UNL     1      -8.009  16.341  67.657  1.00  0.00    -0.144 C  
HETATM    5  C   UNL     1      -6.551  16.708  67.355  1.00  0.00    -0.199 C  
BRANCH   4   6
HETATM    6  C   UNL     1      -8.587  15.585  66.426  1.00  0.00    -0.292 C  
BRANCH   6   7
HETATM    7  C   UNL     1      -9.718  14.623  66.723  1.00  0.00    -0.267 A  
HETATM    8  C   UNL     1     -10.982  15.201  66.981  1.00  0.00    -0.322 A  
HETATM    9  C   UNL     1     -12.087  14.427  67.325  1.00  0.00    -0.358 A  
HETATM   10  C   UNL     1     -11.951  13.049  67.428  1.00  0.00    -0.372 A  
HETATM   11  C   UNL     1     -10.707  12.460  67.191  1.00  0.00    -0.264 A  
HETATM   12  C   UNL     1      -9.589  13.231  66.834  1.00  0.00    -0.249 A  
BRANCH  12  13
HETATM   13  O   UNL     1      -8.428  12.508  66.780  1.00  0.00    -0.163 OA 
HETATM   14  C   UNL     1      -8.364  11.328  67.564  1.00  0.00    -0.131 C  
ENDBRANCH  12  13
ENDBRANCH   6   7
ENDBRANCH   4   6
ENDBRANCH   2   4
TORSDOF 4
ENDMDL
MODEL      233
REMARK 921   NORMALIZED FREE ENERGY PREDICTED BY IDOCK:   -2.50 KCAL/MOL
REMARK 922        TOTAL FREE ENERGY PREDICTED BY IDOCK:   -3.33 KCAL/MOL
REMARK 923 INTER-LIGAND FREE ENERGY PREDICTED BY IDOCK:   -3.13 KCAL/MOL
REMARK 924 INTRA-LIGAND FREE ENERGY PREDICTED BY IDOCK:   -0.20 KCAL/MOL
REMARK 927      BINDING AFFINITY PREDICTED BY RF-SCORE:    0.00 PKD
ROOT
HETATM    1  C   UNL     1      -6.243  10.998  69.533  1.00  0.00    -0.085 C  
HETATM    2  N   UNL     1      -7.099  12.177  69.574  1.00  0.00    -0.339 NA 
HETATM    3  H   UNL     1      -6.606  12.964  69.994  1.00  0.00     0.000 HD 
ENDROOT
BRANCH   2   4
HETATM    4  C   UNL     1      -7.658  12.554  68.260  1.00  0.00    -0.129 C  
HETATM    5  C   UNL     1      -7.397  11.475  67.204  1.00  0.00    -0.139 C  
BRANCH   4   6
HETATM    6  C   UNL     1      -9.193  12.792  68.348  1.00  0.00    -0.136 C  
BRANCH   6   7
HETATM    7  C   UNL     1      -9.635  14.238  68.265  1.00  0.00    -0.221 A  
HETATM    8  C   UNL     1      -8.849  15.175  68.974  1.00  0.00    -0.219 A  
HETATM    9  C   UNL     1      -9.184  16.526  69.025  1.00  0.00    -0.237 A  
HETATM   10  C   UNL     1     -10.324  16.972  68.372  1.00  0.00    -0.351 A  
HETATM   11  C   UNL     1     -11.122  16.060  67.678  1.00  0.00    -0.243 A  
HETATM   12  C   UNL     1     -10.787  14.697  67.611  1.00  0.00    -0.284 A  
BRANCH  12  13
HETATM   13  O   UNL     1     -11.751  13.932  67.013  1.00  0.00    -0.353 OA 
HETATM   14  C   UNL     1     -12.064  14.227  65.662  1.00  0.00    -0.393 C  
ENDBRANCH  12  13
ENDBRANCH   6   7
ENDBRANCH   4   6
ENDBRANCH   2   4
TORSDOF 4
ENDMDL
MODEL      234
REMARK 921   NORMALIZED FREE ENERGY PREDICTED BY IDOCK:   -2.50 KCAL/MOL
REMARK 922        TOTAL FREE ENERGY PREDICTED BY IDOCK:   -3.32 KCAL/MOL
REMARK 923 INTER-LIGAND FREE ENERGY PREDICTED BY IDOCK:   -3.20 KCAL/MOL
REMARK 924 INTRA-LIGAND FREE ENERGY PREDICTED BY IDOCK:   -0.12 KCAL/MOL
REMARK 927      BINDING AFFINITY PREDICTED BY RF-SCORE:    0.00 PKD
ROOT
HETATM    1  C   UNL     1     -11.860  12.179  69.821  1.00  0.00    -0.327 C  
HETATM    2  N   UNL     1     -10.557  12.525  69.265  1.00  0.00    -0.437 NA 
HETATM    3  H   UNL     1      -9.868  12.635  70.008  1.00  0.00     0.000 HD 
ENDROOT
BRANCH   2   4
HETATM    4  C   UNL     1     -10.073  11.575  68.244  1.00  0.00    -0.199 C  
HETATM    5  C   UNL     1      -8.726  10.958  68.639  1.00  0.00    -0.154 C  
BRANCH   4   6
HETATM    6  C   UNL     1     -11.092  10.420  68.020  1.00  0.00    -0.359 C  
BRANCH   6   7
HETATM    7  C   UNL     1     -10.489   9.079  67.656  1.00  0.00    -0.324 A  
HETATM    8  C   UNL     1     -10.411   8.124  68.696  1.00  0.00    -0.224 A  
HETATM    9  C   UNL     1      -9.824   6.876  68.504  1.00  0.00    -0.144 A  
HETATM   10  C   UNL     1      -9.291   6.555  67.263  1.00  0.00    -0.129 A  
HETATM   11  C   UNL     1      -9.345   7.490  66.227  1.00  0.00    -0.176 A  
HETATM   12  C   UNL     1      -9.944   8.748  66.407  1.00  0.00    -0.275 A  
BRANCH  12  13
HETATM   13  O   UNL     1      -9.781   9.583  65.335  1.00  0.00    -0.294 OA 
HETATM   14  C   UNL     1      -8.460   9.996  65.032  1.00  0.00    -0.160 C  
ENDBRANCH  12  13
ENDBRANCH   6   7
ENDBRANCH   4   6
ENDBRANCH   2   4
TORSDOF 4
ENDMDL
MODEL      235
REMARK 921   NORMALIZED FREE ENERGY PREDICTED BY IDOCK:   -2.50 KCAL/MOL
REMARK 922        TOTAL FREE ENERGY PREDICTED BY IDOCK:   -3.32 KCAL/MOL
REMARK 923 INTER-LIGAND FREE ENERGY PREDICTED BY IDOCK:   -3.12 KCAL/MOL
REMARK 924 INTRA-LIGAND FREE ENERGY PREDICTED BY IDOCK:   -0.20 KCAL/MOL
REMARK 927      BINDING AFFINITY PREDICTED BY RF-SCORE:    0.00 PKD
ROOT
HETATM    1  C   UNL     1      -7.216   7.873  72.491  1.00  0.00    -0.090 C  
HETATM    2  N   UNL     1      -8.063   8.931  71.953  1.00  0.00    -0.362 NA 
HETATM    3  H   UNL     1      -7.988   9.774  72.523  1.00  0.00     0.000 HD 
ENDROOT
BRANCH   2   4
HETATM    4  C   UNL     1      -7.803   9.239  70.533  1.00  0.00    -0.153 C  
HETATM    5  C   UNL     1      -6.711   8.335  69.949  1.00  0.00    -0.043 C  
BRANCH   4   6
HETATM    6  C   UNL     1      -9.090   9.068  69.675  1.00  0.00    -0.155 C  
BRANCH   6   7
HETATM    7  C   UNL     1     -10.207   8.278  70.324  1.00  0.00    -0.199 A  
HETATM    8  C   UNL     1     -10.280   6.906  69.990  1.00  0.00    -0.211 A  
HETATM    9  C   UNL     1     -11.296   6.086  70.475  1.00  0.00    -0.310 A  
HETATM   10  C   UNL     1     -12.273   6.623  71.302  1.00  0.00    -0.369 A  
HETATM   11  C   UNL     1     -12.226   7.980  71.631  1.00  0.00    -0.340 A  
HETATM   12  C   UNL     1     -11.200   8.813  71.156  1.00  0.00    -0.277 A  
BRANCH  12  13
HETATM   13  O   UNL     1     -11.392  10.133  71.461  1.00  0.00    -0.233 OA 
HETATM   14  C   UNL     1     -12.311  10.856  70.658  1.00  0.00    -0.376 C  
ENDBRANCH  12  13
ENDBRANCH   6   7
ENDBRANCH   4   6
ENDBRANCH   2   4
TORSDOF 4
ENDMDL
MODEL      236
REMARK 921   NORMALIZED FREE ENERGY PREDICTED BY IDOCK:   -2.49 KCAL/MOL
REMARK 922        TOTAL FREE ENERGY PREDICTED BY IDOCK:   -3.31 KCAL/MOL
REMARK 923 INTER-LIGAND FREE ENERGY PREDICTED BY IDOCK:   -3.16 KCAL/MOL
REMARK 924 INTRA-LIGAND FREE ENERGY PREDICTED BY IDOCK:   -0.16 KCAL/MOL
REMARK 927      BINDING AFFINITY PREDICTED BY RF-SCORE:    0.00 PKD
ROOT
HETATM    1  C   UNL     1      -7.865   9.433  65.226  1.00  0.00    -0.109 C  
HETATM    2  N   UNL     1      -8.541  10.723  65.286  1.00  0.00    -0.255 NA 
HETATM    3  H   UNL     1      -8.961  10.949  64.384  1.00  0.00     0.000 HD 
ENDROOT
BRANCH   2   4
HETATM    4  C   UNL     1      -9.542  10.823  66.366  1.00  0.00    -0.189 C  
HETATM    5  C   UNL     1      -9.924   9.442  66.912  1.00  0.00    -0.293 C  
BRANCH   4   6
HETATM    6  C   UNL     1      -9.012  11.687  67.548  1.00  0.00    -0.165 C  
BRANCH   6   7
HETATM    7  C   UNL     1      -8.731  13.138  67.220  1.00  0.00    -0.210 A  
HETATM    8  C   UNL     1      -7.488  13.650  67.660  1.00  0.00    -0.191 A  
HETATM    9  C   UNL     1      -7.136  14.984  67.472  1.00  0.00    -0.224 A  
HETATM   10  C   UNL     1      -8.026  15.844  66.844  1.00  0.00    -0.287 A  
HETATM   11  C   UNL     1      -9.264  15.361  66.415  1.00  0.00    -0.339 A  
HETATM   12  C   UNL     1      -9.625  14.015  66.590  1.00  0.00    -0.289 A  
BRANCH  12  13
HETATM   13  O   UNL     1     -10.922  13.752  66.239  1.00  0.00    -0.295 OA 
HETATM   14  C   UNL     1     -11.902  14.698  66.632  1.00  0.00    -0.310 C  
ENDBRANCH  12  13
ENDBRANCH   6   7
ENDBRANCH   4   6
ENDBRANCH   2   4
TORSDOF 4
ENDMDL
MODEL      237
REMARK 921   NORMALIZED FREE ENERGY PREDICTED BY IDOCK:   -2.49 KCAL/MOL
REMARK 922        TOTAL FREE ENERGY PREDICTED BY IDOCK:   -3.31 KCAL/MOL
REMARK 923 INTER-LIGAND FREE ENERGY PREDICTED BY IDOCK:   -3.08 KCAL/MOL
REMARK 924 INTRA-LIGAND FREE ENERGY PREDICTED BY IDOCK:   -0.23 KCAL/MOL
REMARK 927      BINDING AFFINITY PREDICTED BY RF-SCORE:    0.00 PKD
ROOT
HETATM    1  C   UNL     1      -9.994   4.037  64.885  1.00  0.00    -0.205 C  
HETATM    2  N   UNL     1     -10.421   4.221  66.266  1.00  0.00    -0.364 NA 
HETATM    3  H   UNL     1     -10.203   3.393  66.822  1.00  0.00     0.000 HD 
ENDROOT
BRANCH   2   4
HETATM    4  C   UNL     1      -9.872   5.434  66.905  1.00  0.00    -0.166 C  
HETATM    5  C   UNL     1      -8.628   5.946  66.170  1.00  0.00    -0.137 C  
BRANCH   4   6
HETATM    6  C   UNL     1     -10.926   6.579  66.938  1.00  0.00    -0.408 C  
BRANCH   6   7
HETATM    7  C   UNL     1     -10.675   7.667  67.961  1.00  0.00    -0.152 A  
HETATM    8  C   UNL     1     -10.364   8.948  67.450  1.00  0.00    -0.337 A  
HETATM    9  C   UNL     1     -10.055  10.017  68.287  1.00  0.00    -0.182 A  
HETATM   10  C   UNL     1     -10.041   9.827  69.662  1.00  0.00    -0.250 A  
HETATM   11  C   UNL     1     -10.331   8.565  70.185  1.00  0.00    -0.214 A  
HETATM   12  C   UNL     1     -10.654   7.483  69.351  1.00  0.00    -0.223 A  
BRANCH  12  13
HETATM   13  O   UNL     1     -10.769   6.297  70.023  1.00  0.00    -0.231 OA 
HETATM   14  C   UNL     1     -10.308   6.266  71.364  1.00  0.00    -0.210 C  
ENDBRANCH  12  13
ENDBRANCH   6   7
ENDBRANCH   4   6
ENDBRANCH   2   4
TORSDOF 4
ENDMDL
MODEL      238
REMARK 921   NORMALIZED FREE ENERGY PREDICTED BY IDOCK:   -2.48 KCAL/MOL
REMARK 922        TOTAL FREE ENERGY PREDICTED BY IDOCK:   -3.30 KCAL/MOL
REMARK 923 INTER-LIGAND FREE ENERGY PREDICTED BY IDOCK:   -2.99 KCAL/MOL
REMARK 924 INTRA-LIGAND FREE ENERGY PREDICTED BY IDOCK:   -0.31 KCAL/MOL
REMARK 927      BINDING AFFINITY PREDICTED BY RF-SCORE:    0.00 PKD
ROOT
HETATM    1  C   UNL     1     -13.059   7.293  71.384  1.00  0.00    -0.361 C  
HETATM    2  N   UNL     1     -12.099   6.671  72.288  1.00  0.00    -0.497 NA 
HETATM    3  H   UNL     1     -12.539   5.917  72.815  1.00  0.00     0.000 HD 
ENDROOT
BRANCH   2   4
HETATM    4  C   UNL     1     -10.873   6.191  71.619  1.00  0.00    -0.258 C  
HETATM    5  C   UNL     1     -10.333   4.915  72.275  1.00  0.00    -0.267 C  
BRANCH   4   6
HETATM    6  C   UNL     1     -11.132   5.895  70.113  1.00  0.00    -0.395 C  
BRANCH   6   7
HETATM    7  C   UNL     1      -9.935   6.060  69.201  1.00  0.00    -0.205 A  
HETATM    8  C   UNL     1      -9.342   4.869  68.723  1.00  0.00    -0.184 A  
HETATM    9  C   UNL     1      -8.201   4.885  67.924  1.00  0.00    -0.100 A  
HETATM   10  C   UNL     1      -7.618   6.100  67.591  1.00  0.00    -0.097 A  
HETATM   11  C   UNL     1      -8.181   7.287  68.064  1.00  0.00    -0.120 A  
HETATM   12  C   UNL     1      -9.338   7.282  68.861  1.00  0.00    -0.144 A  
BRANCH  12  13
HETATM   13  O   UNL     1      -9.664   8.518  69.349  1.00  0.00    -0.172 OA 
HETATM   14  C   UNL     1     -10.635   9.261  68.631  1.00  0.00    -0.187 C  
ENDBRANCH  12  13
ENDBRANCH   6   7
ENDBRANCH   4   6
ENDBRANCH   2   4
TORSDOF 4
ENDMDL
MODEL      239
REMARK 921   NORMALIZED FREE ENERGY PREDICTED BY IDOCK:   -2.47 KCAL/MOL
REMARK 922        TOTAL FREE ENERGY PREDICTED BY IDOCK:   -3.28 KCAL/MOL
REMARK 923 INTER-LIGAND FREE ENERGY PREDICTED BY IDOCK:   -3.04 KCAL/MOL
REMARK 924 INTRA-LIGAND FREE ENERGY PREDICTED BY IDOCK:   -0.25 KCAL/MOL
REMARK 927      BINDING AFFINITY PREDICTED BY RF-SCORE:    0.00 PKD
ROOT
HETATM    1  C   UNL     1      -6.370  11.149  69.768  1.00  0.00    -0.130 C  
HETATM    2  N   UNL     1      -6.781  12.528  70.004  1.00  0.00    -0.329 NA 
HETATM    3  H   UNL     1      -6.038  13.050  70.467  1.00  0.00     0.000 HD 
ENDROOT
BRANCH   2   4
HETATM    4  C   UNL     1      -7.230  13.233  68.787  1.00  0.00    -0.088 C  
HETATM    5  C   UNL     1      -6.204  13.115  67.654  1.00  0.00    -0.156 C  
BRANCH   4   6
HETATM    6  C   UNL     1      -8.589  12.670  68.277  1.00  0.00    -0.167 C  
BRANCH   6   7
HETATM    7  C   UNL     1      -9.759  13.627  68.347  1.00  0.00    -0.217 A  
HETATM    8  C   UNL     1      -9.554  14.911  67.792  1.00  0.00    -0.208 A  
HETATM    9  C   UNL     1     -10.533  15.900  67.846  1.00  0.00    -0.288 A  
HETATM   10  C   UNL     1     -11.743  15.630  68.468  1.00  0.00    -0.339 A  
HETATM   11  C   UNL     1     -11.961  14.372  69.036  1.00  0.00    -0.342 A  
HETATM   12  C   UNL     1     -10.984  13.364  68.977  1.00  0.00    -0.224 A  
BRANCH  12  13
HETATM   13  O   UNL     1     -11.311  12.252  69.704  1.00  0.00    -0.225 OA 
HETATM   14  C   UNL     1     -12.004  11.217  69.027  1.00  0.00    -0.325 C  
ENDBRANCH  12  13
ENDBRANCH   6   7
ENDBRANCH   4   6
ENDBRANCH   2   4
TORSDOF 4
ENDMDL
MODEL      240
REMARK 921   NORMALIZED FREE ENERGY PREDICTED BY IDOCK:   -2.47 KCAL/MOL
REMARK 922        TOTAL FREE ENERGY PREDICTED BY IDOCK:   -3.28 KCAL/MOL
REMARK 923 INTER-LIGAND FREE ENERGY PREDICTED BY IDOCK:   -3.13 KCAL/MOL
REMARK 924 INTRA-LIGAND FREE ENERGY PREDICTED BY IDOCK:   -0.15 KCAL/MOL
REMARK 927      BINDING AFFINITY PREDICTED BY RF-SCORE:    0.00 PKD
ROOT
HETATM    1  C   UNL     1      -6.764   6.075  71.730  1.00  0.00    -0.063 C  
HETATM    2  N   UNL     1      -7.880   5.753  70.848  1.00  0.00    -0.103 NA 
HETATM    3  H   UNL     1      -7.596   5.823  69.871  1.00  0.00     0.000 HD 
ENDROOT
BRANCH   2   4
HETATM    4  C   UNL     1      -8.494   4.438  71.117  1.00  0.00    -0.094 C  
HETATM    5  C   UNL     1      -7.802   3.718  72.281  1.00  0.00    -0.068 C  
BRANCH   4   6
HETATM    6  C   UNL     1     -10.005   4.581  71.461  1.00  0.00    -0.259 C  
BRANCH   6   7
HETATM    7  C   UNL     1     -10.534   5.999  71.497  1.00  0.00    -0.278 A  
HETATM    8  C   UNL     1     -10.425   6.678  72.732  1.00  0.00    -0.243 A  
HETATM    9  C   UNL     1     -10.927   7.965  72.909  1.00  0.00    -0.452 A  
HETATM   10  C   UNL     1     -11.562   8.603  71.852  1.00  0.00    -0.420 A  
HETATM   11  C   UNL     1     -11.693   7.943  70.629  1.00  0.00    -0.169 A  
HETATM   12  C   UNL     1     -11.181   6.650  70.436  1.00  0.00    -0.344 A  
BRANCH  12  13
HETATM   13  O   UNL     1     -11.523   6.107  69.227  1.00  0.00    -0.404 OA 
HETATM   14  C   UNL     1     -10.492   5.972  68.263  1.00  0.00    -0.235 C  
ENDBRANCH  12  13
ENDBRANCH   6   7
ENDBRANCH   4   6
ENDBRANCH   2   4
TORSDOF 4
ENDMDL
MODEL      241
REMARK 921   NORMALIZED FREE ENERGY PREDICTED BY IDOCK:   -2.46 KCAL/MOL
REMARK 922        TOTAL FREE ENERGY PREDICTED BY IDOCK:   -3.27 KCAL/MOL
REMARK 923 INTER-LIGAND FREE ENERGY PREDICTED BY IDOCK:   -3.01 KCAL/MOL
REMARK 924 INTRA-LIGAND FREE ENERGY PREDICTED BY IDOCK:   -0.26 KCAL/MOL
REMARK 927      BINDING AFFINITY PREDICTED BY RF-SCORE:    0.00 PKD
ROOT
HETATM    1  C   UNL     1      -6.136  15.597  67.973  1.00  0.00    -0.138 C  
HETATM    2  N   UNL     1      -7.145  15.089  67.052  1.00  0.00    -0.323 NA 
HETATM    3  H   UNL     1      -6.819  15.160  66.088  1.00  0.00     0.000 HD 
ENDROOT
BRANCH   2   4
HETATM    4  C   UNL     1      -7.586  13.712  67.350  1.00  0.00    -0.130 C  
HETATM    5  C   UNL     1      -6.972  13.192  68.655  1.00  0.00    -0.102 C  
BRANCH   4   6
HETATM    6  C   UNL     1      -9.135  13.629  67.472  1.00  0.00    -0.213 C  
BRANCH   6   7
HETATM    7  C   UNL     1      -9.712  12.230  67.517  1.00  0.00    -0.190 A  
HETATM    8  C   UNL     1      -9.276  11.340  66.509  1.00  0.00    -0.200 A  
HETATM    9  C   UNL     1      -9.776  10.044  66.407  1.00  0.00    -0.266 A  
HETATM   10  C   UNL     1     -10.738   9.610  67.309  1.00  0.00    -0.284 A  
HETATM   11  C   UNL     1     -11.193  10.479  68.302  1.00  0.00    -0.354 A  
HETATM   12  C   UNL     1     -10.686  11.784  68.421  1.00  0.00    -0.219 A  
BRANCH  12  13
HETATM   13  O   UNL     1     -11.345  12.536  69.355  1.00  0.00    -0.252 OA 
HETATM   14  C   UNL     1     -12.131  11.841  70.309  1.00  0.00    -0.342 C  
ENDBRANCH  12  13
ENDBRANCH   6   7
ENDBRANCH   4   6
ENDBRANCH   2   4
TORSDOF 4
ENDMDL
MODEL      242
REMARK 921   NORMALIZED FREE ENERGY PREDICTED BY IDOCK:   -2.46 KCAL/MOL
REMARK 922        TOTAL FREE ENERGY PREDICTED BY IDOCK:   -3.27 KCAL/MOL
REMARK 923 INTER-LIGAND FREE ENERGY PREDICTED BY IDOCK:   -3.07 KCAL/MOL
REMARK 924 INTRA-LIGAND FREE ENERGY PREDICTED BY IDOCK:   -0.20 KCAL/MOL
REMARK 927      BINDING AFFINITY PREDICTED BY RF-SCORE:    0.00 PKD
ROOT
HETATM    1  C   UNL     1     -11.135   6.329  69.913  1.00  0.00    -0.401 C  
HETATM    2  N   UNL     1     -11.221   7.426  68.956  1.00  0.00    -0.431 NA 
HETATM    3  H   UNL     1     -11.031   8.317  69.414  1.00  0.00     0.000 HD 
ENDROOT
BRANCH   2   4
HETATM    4  C   UNL     1     -10.356   7.255  67.772  1.00  0.00    -0.209 C  
HETATM    5  C   UNL     1     -10.689   5.967  67.010  1.00  0.00    -0.396 C  
BRANCH   4   6
HETATM    6  C   UNL     1     -10.501   8.454  66.790  1.00  0.00    -0.315 C  
BRANCH   6   7
HETATM    7  C   UNL     1      -9.883   9.756  67.255  1.00  0.00    -0.228 A  
HETATM    8  C   UNL     1     -10.738  10.881  67.282  1.00  0.00    -0.317 A  
HETATM    9  C   UNL     1     -10.275  12.147  67.635  1.00  0.00    -0.206 A  
HETATM   10  C   UNL     1      -8.937  12.319  67.962  1.00  0.00    -0.190 A  
HETATM   11  C   UNL     1      -8.073  11.222  67.927  1.00  0.00    -0.121 A  
HETATM   12  C   UNL     1      -8.532   9.939  67.583  1.00  0.00    -0.114 A  
BRANCH  12  13
HETATM   13  O   UNL     1      -7.526   9.019  67.464  1.00  0.00    -0.081 OA 
HETATM   14  C   UNL     1      -6.611   8.918  68.542  1.00  0.00    -0.059 C  
ENDBRANCH  12  13
ENDBRANCH   6   7
ENDBRANCH   4   6
ENDBRANCH   2   4
TORSDOF 4
ENDMDL
MODEL      243
REMARK 921   NORMALIZED FREE ENERGY PREDICTED BY IDOCK:   -2.44 KCAL/MOL
REMARK 922        TOTAL FREE ENERGY PREDICTED BY IDOCK:   -3.25 KCAL/MOL
REMARK 923 INTER-LIGAND FREE ENERGY PREDICTED BY IDOCK:   -2.88 KCAL/MOL
REMARK 924 INTRA-LIGAND FREE ENERGY PREDICTED BY IDOCK:   -0.38 KCAL/MOL
REMARK 927      BINDING AFFINITY PREDICTED BY RF-SCORE:    0.00 PKD
ROOT
HETATM    1  C   UNL     1     -10.598   9.197  71.603  1.00  0.00    -0.357 C  
HETATM    2  N   UNL     1      -9.198   9.016  71.239  1.00  0.00    -0.252 NA 
HETATM    3  H   UNL     1      -8.589   9.490  71.906  1.00  0.00     0.000 HD 
ENDROOT
BRANCH   2   4
HETATM    4  C   UNL     1      -8.799   7.603  71.085  1.00  0.00    -0.137 C  
HETATM    5  C   UNL     1      -9.987   6.655  71.285  1.00  0.00    -0.196 C  
BRANCH   4   6
HETATM    6  C   UNL     1      -8.195   7.338  69.675  1.00  0.00    -0.131 C  
BRANCH   6   7
HETATM    7  C   UNL     1      -9.163   6.805  68.640  1.00  0.00    -0.132 A  
HETATM    8  C   UNL     1      -8.953   5.473  68.213  1.00  0.00    -0.109 A  
HETATM    9  C   UNL     1      -9.740   4.887  67.224  1.00  0.00    -0.194 A  
HETATM   10  C   UNL     1     -10.753   5.626  66.629  1.00  0.00    -0.339 A  
HETATM   11  C   UNL     1     -10.967   6.947  67.027  1.00  0.00    -0.404 A  
HETATM   12  C   UNL     1     -10.187   7.544  68.031  1.00  0.00    -0.195 A  
BRANCH  12  13
HETATM   13  O   UNL     1     -10.442   8.879  68.191  1.00  0.00    -0.219 OA 
HETATM   14  C   UNL     1     -10.138   9.731  67.099  1.00  0.00    -0.211 C  
ENDBRANCH  12  13
ENDBRANCH   6   7
ENDBRANCH   4   6
ENDBRANCH   2   4
TORSDOF 4
ENDMDL
MODEL      244
REMARK 921   NORMALIZED FREE ENERGY PREDICTED BY IDOCK:   -2.44 KCAL/MOL
REMARK 922        TOTAL FREE ENERGY PREDICTED BY IDOCK:   -3.24 KCAL/MOL
REMARK 923 INTER-LIGAND FREE ENERGY PREDICTED BY IDOCK:   -2.93 KCAL/MOL
REMARK 924 INTRA-LIGAND FREE ENERGY PREDICTED BY IDOCK:   -0.31 KCAL/MOL
REMARK 927      BINDING AFFINITY PREDICTED BY RF-SCORE:    0.00 PKD
ROOT
HETATM    1  C   UNL     1     -11.873  11.514  68.850  1.00  0.00    -0.341 C  
HETATM    2  N   UNL     1     -11.004  11.346  70.007  1.00  0.00    -0.454 NA 
HETATM    3  H   UNL     1     -10.997  12.192  70.577  1.00  0.00     0.000 HD 
ENDROOT
BRANCH   2   4
HETATM    4  C   UNL     1     -11.332  10.167  70.833  1.00  0.00    -0.340 C  
HETATM    5  C   UNL     1     -12.771  10.226  71.358  1.00  0.00    -0.547 C  
BRANCH   4   6
HETATM    6  C   UNL     1     -11.160   8.847  70.025  1.00  0.00    -0.180 C  
BRANCH   6   7
HETATM    7  C   UNL     1      -9.961   8.003  70.402  1.00  0.00    -0.188 A  
HETATM    8  C   UNL     1     -10.197   6.949  71.314  1.00  0.00    -0.213 A  
HETATM    9  C   UNL     1      -9.166   6.138  71.782  1.00  0.00    -0.149 A  
HETATM   10  C   UNL     1      -7.866   6.371  71.356  1.00  0.00    -0.104 A  
HETATM   11  C   UNL     1      -7.610   7.417  70.466  1.00  0.00    -0.087 A  
HETATM   12  C   UNL     1      -8.644   8.233  69.979  1.00  0.00    -0.128 A  
BRANCH  12  13
HETATM   13  O   UNL     1      -8.194   9.289  69.234  1.00  0.00    -0.101 OA 
HETATM   14  C   UNL     1      -7.953   9.053  67.857  1.00  0.00    -0.102 C  
ENDBRANCH  12  13
ENDBRANCH   6   7
ENDBRANCH   4   6
ENDBRANCH   2   4
TORSDOF 4
ENDMDL
MODEL      245
REMARK 921   NORMALIZED FREE ENERGY PREDICTED BY IDOCK:   -2.42 KCAL/MOL
REMARK 922        TOTAL FREE ENERGY PREDICTED BY IDOCK:   -3.23 KCAL/MOL
REMARK 923 INTER-LIGAND FREE ENERGY PREDICTED BY IDOCK:   -2.98 KCAL/MOL
REMARK 924 INTRA-LIGAND FREE ENERGY PREDICTED BY IDOCK:   -0.24 KCAL/MOL
REMARK 927      BINDING AFFINITY PREDICTED BY RF-SCORE:    0.00 PKD
ROOT
HETATM    1  C   UNL     1     -12.007   8.133  72.598  1.00  0.00    -0.292 C  
HETATM    2  N   UNL     1     -10.810   7.570  73.209  1.00  0.00    -0.442 NA 
HETATM    3  H   UNL     1     -10.739   6.573  73.005  1.00  0.00     0.000 HD 
ENDROOT
BRANCH   2   4
HETATM    4  C   UNL     1      -9.564   8.267  72.833  1.00  0.00    -0.249 C  
HETATM    5  C   UNL     1      -8.425   7.955  73.811  1.00  0.00    -0.309 C  
BRANCH   4   6
HETATM    6  C   UNL     1      -9.102   7.865  71.402  1.00  0.00    -0.163 C  
BRANCH   6   7
HETATM    7  C   UNL     1      -8.807   9.017  70.465  1.00  0.00    -0.242 A  
HETATM    8  C   UNL     1      -7.447   9.378  70.325  1.00  0.00    -0.131 A  
HETATM    9  C   UNL     1      -7.051  10.458  69.539  1.00  0.00    -0.113 A  
HETATM   10  C   UNL     1      -8.012  11.210  68.878  1.00  0.00    -0.126 A  
HETATM   11  C   UNL     1      -9.362  10.878  69.015  1.00  0.00    -0.144 A  
HETATM   12  C   UNL     1      -9.771   9.785  69.797  1.00  0.00    -0.229 A  
BRANCH  12  13
HETATM   13  O   UNL     1     -11.129   9.695  69.931  1.00  0.00    -0.236 OA 
HETATM   14  C   UNL     1     -11.897  10.806  69.499  1.00  0.00    -0.308 C  
ENDBRANCH  12  13
ENDBRANCH   6   7
ENDBRANCH   4   6
ENDBRANCH   2   4
TORSDOF 4
ENDMDL
MODEL      246
REMARK 921   NORMALIZED FREE ENERGY PREDICTED BY IDOCK:   -2.42 KCAL/MOL
REMARK 922        TOTAL FREE ENERGY PREDICTED BY IDOCK:   -3.22 KCAL/MOL
REMARK 923 INTER-LIGAND FREE ENERGY PREDICTED BY IDOCK:   -3.19 KCAL/MOL
REMARK 924 INTRA-LIGAND FREE ENERGY PREDICTED BY IDOCK:   -0.03 KCAL/MOL
REMARK 927      BINDING AFFINITY PREDICTED BY RF-SCORE:    0.00 PKD
ROOT
HETATM    1  C   UNL     1      -6.486   9.311  67.979  1.00  0.00    -0.059 C  
HETATM    2  N   UNL     1      -7.472   8.256  68.178  1.00  0.00    -0.095 NA 
HETATM    3  H   UNL     1      -7.074   7.345  67.948  1.00  0.00     0.000 HD 
ENDROOT
BRANCH   2   4
HETATM    4  C   UNL     1      -8.063   8.238  69.531  1.00  0.00    -0.114 C  
HETATM    5  C   UNL     1      -7.798   9.549  70.280  1.00  0.00    -0.180 C  
BRANCH   4   6
HETATM    6  C   UNL     1      -9.601   8.011  69.472  1.00  0.00    -0.164 C  
BRANCH   6   7
HETATM    7  C   UNL     1     -10.447   9.267  69.483  1.00  0.00    -0.229 A  
HETATM    8  C   UNL     1     -10.384  10.075  68.324  1.00  0.00    -0.224 A  
HETATM    9  C   UNL     1     -11.069  11.284  68.235  1.00  0.00    -0.297 A  
HETATM   10  C   UNL     1     -11.830  11.720  69.310  1.00  0.00    -0.389 A  
HETATM   11  C   UNL     1     -11.893  10.943  70.469  1.00  0.00    -0.457 A  
HETATM   12  C   UNL     1     -11.215   9.717  70.566  1.00  0.00    -0.297 A  
BRANCH  12  13
HETATM   13  O   UNL     1     -11.274   9.164  71.816  1.00  0.00    -0.355 OA 
HETATM   14  C   UNL     1     -12.559   9.003  72.392  1.00  0.00    -0.333 C  
ENDBRANCH  12  13
ENDBRANCH   6   7
ENDBRANCH   4   6
ENDBRANCH   2   4
TORSDOF 4
ENDMDL
MODEL      247
REMARK 921   NORMALIZED FREE ENERGY PREDICTED BY IDOCK:   -2.41 KCAL/MOL
REMARK 922        TOTAL FREE ENERGY PREDICTED BY IDOCK:   -3.21 KCAL/MOL
REMARK 923 INTER-LIGAND FREE ENERGY PREDICTED BY IDOCK:   -2.83 KCAL/MOL
REMARK 924 INTRA-LIGAND FREE ENERGY PREDICTED BY IDOCK:   -0.38 KCAL/MOL
REMARK 927      BINDING AFFINITY PREDICTED BY RF-SCORE:    0.00 PKD
ROOT
HETATM    1  C   UNL     1     -12.766   7.465  71.277  1.00  0.00    -0.331 C  
HETATM    2  N   UNL     1     -12.734   6.443  72.317  1.00  0.00    -0.540 NA 
HETATM    3  H   UNL     1     -13.360   5.673  72.081  1.00  0.00     0.000 HD 
ENDROOT
BRANCH   2   4
HETATM    4  C   UNL     1     -11.380   5.939  72.617  1.00  0.00    -0.292 C  
HETATM    5  C   UNL     1     -11.427   4.589  73.342  1.00  0.00    -0.322 C  
BRANCH   4   6
HETATM    6  C   UNL     1     -10.540   5.767  71.318  1.00  0.00    -0.319 C  
BRANCH   6   7
HETATM    7  C   UNL     1      -9.094   6.206  71.413  1.00  0.00    -0.146 A  
HETATM    8  C   UNL     1      -8.129   5.174  71.461  1.00  0.00    -0.115 A  
HETATM    9  C   UNL     1      -6.770   5.446  71.607  1.00  0.00    -0.056 A  
HETATM   10  C   UNL     1      -6.345   6.763  71.719  1.00  0.00    -0.042 A  
HETATM   11  C   UNL     1      -7.285   7.795  71.689  1.00  0.00    -0.065 A  
HETATM   12  C   UNL     1      -8.656   7.532  71.531  1.00  0.00    -0.116 A  
BRANCH  12  13
HETATM   13  O   UNL     1      -9.439   8.646  71.666  1.00  0.00    -0.218 OA 
HETATM   14  C   UNL     1      -9.603   9.464  70.519  1.00  0.00    -0.271 C  
ENDBRANCH  12  13
ENDBRANCH   6   7
ENDBRANCH   4   6
ENDBRANCH   2   4
TORSDOF 4
ENDMDL
MODEL      248
REMARK 921   NORMALIZED FREE ENERGY PREDICTED BY IDOCK:   -2.40 KCAL/MOL
REMARK 922        TOTAL FREE ENERGY PREDICTED BY IDOCK:   -3.20 KCAL/MOL
REMARK 923 INTER-LIGAND FREE ENERGY PREDICTED BY IDOCK:   -2.91 KCAL/MOL
REMARK 924 INTRA-LIGAND FREE ENERGY PREDICTED BY IDOCK:   -0.30 KCAL/MOL
REMARK 927      BINDING AFFINITY PREDICTED BY RF-SCORE:    0.00 PKD
ROOT
HETATM    1  C   UNL     1     -11.495  11.531  68.467  1.00  0.00    -0.292 C  
HETATM    2  N   UNL     1     -10.136  11.519  68.994  1.00  0.00    -0.395 NA 
HETATM    3  H   UNL     1     -10.114  11.089  69.918  1.00  0.00     0.000 HD 
ENDROOT
BRANCH   2   4
HETATM    4  C   UNL     1      -9.154  10.877  68.098  1.00  0.00    -0.155 C  
HETATM    5  C   UNL     1      -8.095  11.874  67.612  1.00  0.00    -0.148 C  
BRANCH   4   6
HETATM    6  C   UNL     1      -8.427   9.699  68.809  1.00  0.00    -0.123 C  
BRANCH   6   7
HETATM    7  C   UNL     1      -9.330   8.636  69.399  1.00  0.00    -0.150 A  
HETATM    8  C   UNL     1      -9.313   8.509  70.807  1.00  0.00    -0.206 A  
HETATM    9  C   UNL     1     -10.054   7.531  71.465  1.00  0.00    -0.201 A  
HETATM   10  C   UNL     1     -10.826   6.646  70.726  1.00  0.00    -0.299 A  
HETATM   11  C   UNL     1     -10.845   6.745  69.333  1.00  0.00    -0.312 A  
HETATM   12  C   UNL     1     -10.110   7.735  68.660  1.00  0.00    -0.199 A  
BRANCH  12  13
HETATM   13  O   UNL     1     -10.134   7.595  67.299  1.00  0.00    -0.188 OA 
HETATM   14  C   UNL     1     -10.947   6.561  66.769  1.00  0.00    -0.239 C  
ENDBRANCH  12  13
ENDBRANCH   6   7
ENDBRANCH   4   6
ENDBRANCH   2   4
TORSDOF 4
ENDMDL
MODEL      249
REMARK 921   NORMALIZED FREE ENERGY PREDICTED BY IDOCK:   -2.40 KCAL/MOL
REMARK 922        TOTAL FREE ENERGY PREDICTED BY IDOCK:   -3.19 KCAL/MOL
REMARK 923 INTER-LIGAND FREE ENERGY PREDICTED BY IDOCK:   -2.97 KCAL/MOL
REMARK 924 INTRA-LIGAND FREE ENERGY PREDICTED BY IDOCK:   -0.22 KCAL/MOL
REMARK 927      BINDING AFFINITY PREDICTED BY RF-SCORE:    0.00 PKD
ROOT
HETATM    1  C   UNL     1      -7.926   8.673  71.665  1.00  0.00    -0.119 C  
HETATM    2  N   UNL     1      -8.812   9.558  70.919  1.00  0.00    -0.335 NA 
HETATM    3  H   UNL     1      -9.036  10.387  71.468  1.00  0.00     0.000 HD 
ENDROOT
BRANCH   2   4
HETATM    4  C   UNL     1      -8.295   9.938  69.590  1.00  0.00    -0.172 C  
HETATM    5  C   UNL     1      -6.876   9.405  69.361  1.00  0.00    -0.049 C  
BRANCH   4   6
HETATM    6  C   UNL     1      -9.209   9.396  68.452  1.00  0.00    -0.127 C  
BRANCH   6   7
HETATM    7  C   UNL     1      -9.922  10.450  67.631  1.00  0.00    -0.205 A  
HETATM    8  C   UNL     1     -10.805  11.302  68.335  1.00  0.00    -0.248 A  
HETATM    9  C   UNL     1     -11.563  12.272  67.684  1.00  0.00    -0.421 A  
HETATM   10  C   UNL     1     -11.463  12.407  66.306  1.00  0.00    -0.423 A  
HETATM   11  C   UNL     1     -10.609  11.566  65.592  1.00  0.00    -0.326 A  
HETATM   12  C   UNL     1      -9.831  10.591  66.239  1.00  0.00    -0.217 A  
BRANCH  12  13
HETATM   13  O   UNL     1      -9.164   9.768  65.373  1.00  0.00    -0.191 OA 
HETATM   14  C   UNL     1      -8.351  10.387  64.390  1.00  0.00    -0.142 C  
ENDBRANCH  12  13
ENDBRANCH   6   7
ENDBRANCH   4   6
ENDBRANCH   2   4
TORSDOF 4
ENDMDL
MODEL      250
REMARK 921   NORMALIZED FREE ENERGY PREDICTED BY IDOCK:   -2.39 KCAL/MOL
REMARK 922        TOTAL FREE ENERGY PREDICTED BY IDOCK:   -3.19 KCAL/MOL
REMARK 923 INTER-LIGAND FREE ENERGY PREDICTED BY IDOCK:   -2.93 KCAL/MOL
REMARK 924 INTRA-LIGAND FREE ENERGY PREDICTED BY IDOCK:   -0.26 KCAL/MOL
REMARK 927      BINDING AFFINITY PREDICTED BY RF-SCORE:    0.00 PKD
ROOT
HETATM    1  C   UNL     1      -7.043   7.566  72.572  1.00  0.00    -0.070 C  
HETATM    2  N   UNL     1      -7.974   8.664  72.346  1.00  0.00    -0.361 NA 
HETATM    3  H   UNL     1      -7.822   9.409  73.026  1.00  0.00     0.000 HD 
ENDROOT
BRANCH   2   4
HETATM    4  C   UNL     1      -7.943   9.201  70.972  1.00  0.00    -0.125 C  
HETATM    5  C   UNL     1      -6.611   8.896  70.276  1.00  0.00    -0.042 C  
BRANCH   4   6
HETATM    6  C   UNL     1      -9.093   8.606  70.107  1.00  0.00    -0.163 C  
BRANCH   6   7
HETATM    7  C   UNL     1      -9.943   9.617  69.369  1.00  0.00    -0.207 A  
HETATM    8  C   UNL     1     -10.979  10.228  70.112  1.00  0.00    -0.377 A  
HETATM    9  C   UNL     1     -11.867  11.131  69.532  1.00  0.00    -0.423 A  
HETATM   10  C   UNL     1     -11.744  11.439  68.184  1.00  0.00    -0.355 A  
HETATM   11  C   UNL     1     -10.736  10.835  67.428  1.00  0.00    -0.317 A  
HETATM   12  C   UNL     1      -9.829   9.932  68.007  1.00  0.00    -0.147 A  
BRANCH  12  13
HETATM   13  O   UNL     1      -9.004   9.334  67.093  1.00  0.00    -0.126 OA 
HETATM   14  C   UNL     1      -9.512   8.202  66.407  1.00  0.00    -0.218 C  
ENDBRANCH  12  13
ENDBRANCH   6   7
ENDBRANCH   4   6
ENDBRANCH   2   4
TORSDOF 4
ENDMDL
MODEL      251
REMARK 921   NORMALIZED FREE ENERGY PREDICTED BY IDOCK:   -2.38 KCAL/MOL
REMARK 922        TOTAL FREE ENERGY PREDICTED BY IDOCK:   -3.17 KCAL/MOL
REMARK 923 INTER-LIGAND FREE ENERGY PREDICTED BY IDOCK:   -2.91 KCAL/MOL
REMARK 924 INTRA-LIGAND FREE ENERGY PREDICTED BY IDOCK:   -0.25 KCAL/MOL
REMARK 927      BINDING AFFINITY PREDICTED BY RF-SCORE:    0.00 PKD
ROOT
HETATM    1  C   UNL     1      -5.788   9.841  69.080  1.00  0.00    -0.035 C  
HETATM    2  N   UNL     1      -6.536   8.602  69.254  1.00  0.00    -0.042 NA 
HETATM    3  H   UNL     1      -6.062   7.987  69.916  1.00  0.00     0.000 HD 
ENDROOT
BRANCH   2   4
HETATM    4  C   UNL     1      -7.944   8.804  69.648  1.00  0.00    -0.096 C  
HETATM    5  C   UNL     1      -8.863   8.915  68.427  1.00  0.00    -0.134 C  
BRANCH   4   6
HETATM    6  C   UNL     1      -8.454   7.634  70.539  1.00  0.00    -0.128 C  
BRANCH   6   7
HETATM    7  C   UNL     1      -9.940   7.634  70.828  1.00  0.00    -0.181 A  
HETATM    8  C   UNL     1     -10.401   8.607  71.744  1.00  0.00    -0.386 A  
HETATM    9  C   UNL     1     -11.736   8.672  72.136  1.00  0.00    -0.442 A  
HETATM   10  C   UNL     1     -12.644   7.755  71.626  1.00  0.00    -0.357 A  
HETATM   11  C   UNL     1     -12.205   6.776  70.731  1.00  0.00    -0.353 A  
HETATM   12  C   UNL     1     -10.864   6.709  70.320  1.00  0.00    -0.271 A  
BRANCH  12  13
HETATM   13  O   UNL     1     -10.587   5.607  69.557  1.00  0.00    -0.273 OA 
HETATM   14  C   UNL     1     -10.630   5.769  68.149  1.00  0.00    -0.216 C  
ENDBRANCH  12  13
ENDBRANCH   6   7
ENDBRANCH   4   6
ENDBRANCH   2   4
TORSDOF 4
ENDMDL
MODEL      252
REMARK 921   NORMALIZED FREE ENERGY PREDICTED BY IDOCK:   -2.37 KCAL/MOL
REMARK 922        TOTAL FREE ENERGY PREDICTED BY IDOCK:   -3.17 KCAL/MOL
REMARK 923 INTER-LIGAND FREE ENERGY PREDICTED BY IDOCK:   -2.97 KCAL/MOL
REMARK 924 INTRA-LIGAND FREE ENERGY PREDICTED BY IDOCK:   -0.19 KCAL/MOL
REMARK 927      BINDING AFFINITY PREDICTED BY RF-SCORE:    0.00 PKD
ROOT
HETATM    1  C   UNL     1      -6.953   6.368  71.528  1.00  0.00    -0.076 C  
HETATM    2  N   UNL     1      -8.103   7.092  71.001  1.00  0.00    -0.103 NA 
HETATM    3  H   UNL     1      -7.968   8.099  71.098  1.00  0.00     0.000 HD 
ENDROOT
BRANCH   2   4
HETATM    4  C   UNL     1      -8.438   6.746  69.605  1.00  0.00    -0.133 C  
HETATM    5  C   UNL     1      -8.027   5.308  69.265  1.00  0.00    -0.088 C  
BRANCH   4   6
HETATM    6  C   UNL     1      -9.964   6.894  69.338  1.00  0.00    -0.166 C  
BRANCH   6   7
HETATM    7  C   UNL     1     -10.661   7.983  70.125  1.00  0.00    -0.237 A  
HETATM    8  C   UNL     1     -11.393   7.566  71.261  1.00  0.00    -0.284 A  
HETATM    9  C   UNL     1     -12.125   8.464  72.033  1.00  0.00    -0.417 A  
HETATM   10  C   UNL     1     -12.151   9.806  71.681  1.00  0.00    -0.475 A  
HETATM   11  C   UNL     1     -11.446  10.236  70.555  1.00  0.00    -0.427 A  
HETATM   12  C   UNL     1     -10.695   9.341  69.775  1.00  0.00    -0.231 A  
BRANCH  12  13
HETATM   13  O   UNL     1     -10.190   9.907  68.637  1.00  0.00    -0.165 OA 
HETATM   14  C   UNL     1      -8.977  10.631  68.758  1.00  0.00    -0.172 C  
ENDBRANCH  12  13
ENDBRANCH   6   7
ENDBRANCH   4   6
ENDBRANCH   2   4
TORSDOF 4
ENDMDL
MODEL      253
REMARK 921   NORMALIZED FREE ENERGY PREDICTED BY IDOCK:   -2.37 KCAL/MOL
REMARK 922        TOTAL FREE ENERGY PREDICTED BY IDOCK:   -3.16 KCAL/MOL
REMARK 923 INTER-LIGAND FREE ENERGY PREDICTED BY IDOCK:   -2.95 KCAL/MOL
REMARK 924 INTRA-LIGAND FREE ENERGY PREDICTED BY IDOCK:   -0.22 KCAL/MOL
REMARK 927      BINDING AFFINITY PREDICTED BY RF-SCORE:    0.00 PKD
ROOT
HETATM    1  C   UNL     1      -7.071   8.863  70.588  1.00  0.00    -0.071 C  
HETATM    2  N   UNL     1      -8.165   8.770  69.630  1.00  0.00    -0.110 NA 
HETATM    3  H   UNL     1      -7.920   8.139  68.867  1.00  0.00     0.000 HD 
ENDROOT
BRANCH   2   4
HETATM    4  C   UNL     1      -9.455   8.379  70.233  1.00  0.00    -0.164 C  
HETATM    5  C   UNL     1      -9.501   8.706  71.730  1.00  0.00    -0.354 C  
BRANCH   4   6
HETATM    6  C   UNL     1     -10.644   9.103  69.537  1.00  0.00    -0.233 C  
BRANCH   6   7
HETATM    7  C   UNL     1     -10.320   9.772  68.218  1.00  0.00    -0.231 A  
HETATM    8  C   UNL     1     -10.132  11.173  68.254  1.00  0.00    -0.196 A  
HETATM    9  C   UNL     1      -9.887  11.911  67.099  1.00  0.00    -0.206 A  
HETATM   10  C   UNL     1      -9.833  11.263  65.873  1.00  0.00    -0.272 A  
HETATM   11  C   UNL     1     -10.029   9.882  65.814  1.00  0.00    -0.347 A  
HETATM   12  C   UNL     1     -10.266   9.126  66.974  1.00  0.00    -0.263 A  
BRANCH  12  13
HETATM   13  O   UNL     1     -10.575   7.819  66.715  1.00  0.00    -0.331 OA 
HETATM   14  C   UNL     1      -9.494   6.910  66.592  1.00  0.00    -0.166 C  
ENDBRANCH  12  13
ENDBRANCH   6   7
ENDBRANCH   4   6
ENDBRANCH   2   4
TORSDOF 4
ENDMDL
MODEL      254
REMARK 921   NORMALIZED FREE ENERGY PREDICTED BY IDOCK:   -2.36 KCAL/MOL
REMARK 922        TOTAL FREE ENERGY PREDICTED BY IDOCK:   -3.15 KCAL/MOL
REMARK 923 INTER-LIGAND FREE ENERGY PREDICTED BY IDOCK:   -2.88 KCAL/MOL
REMARK 924 INTRA-LIGAND FREE ENERGY PREDICTED BY IDOCK:   -0.27 KCAL/MOL
REMARK 927      BINDING AFFINITY PREDICTED BY RF-SCORE:    0.00 PKD
ROOT
HETATM    1  C   UNL     1      -5.130  15.291  68.950  1.00  0.00    -0.096 C  
HETATM    2  N   UNL     1      -5.868  14.728  67.826  1.00  0.00    -0.279 NA 
HETATM    3  H   UNL     1      -5.226  14.359  67.124  1.00  0.00     0.000 HD 
ENDROOT
BRANCH   2   4
HETATM    4  C   UNL     1      -6.857  13.703  68.215  1.00  0.00    -0.108 C  
HETATM    5  C   UNL     1      -6.307  12.769  69.299  1.00  0.00    -0.108 C  
BRANCH   4   6
HETATM    6  C   UNL     1      -8.165  14.355  68.749  1.00  0.00    -0.126 C  
BRANCH   6   7
HETATM    7  C   UNL     1      -9.094  14.914  67.693  1.00  0.00    -0.183 A  
HETATM    8  C   UNL     1      -9.422  14.048  66.625  1.00  0.00    -0.300 A  
HETATM    9  C   UNL     1     -10.220  14.462  65.562  1.00  0.00    -0.386 A  
HETATM   10  C   UNL     1     -10.703  15.764  65.536  1.00  0.00    -0.397 A  
HETATM   11  C   UNL     1     -10.377  16.639  66.574  1.00  0.00    -0.300 A  
HETATM   12  C   UNL     1      -9.583  16.228  67.657  1.00  0.00    -0.227 A  
BRANCH  12  13
HETATM   13  O   UNL     1      -9.250  17.251  68.503  1.00  0.00    -0.260 OA 
HETATM   14  C   UNL     1     -10.311  17.893  69.190  1.00  0.00    -0.111 C  
ENDBRANCH  12  13
ENDBRANCH   6   7
ENDBRANCH   4   6
ENDBRANCH   2   4
TORSDOF 4
ENDMDL
MODEL      255
REMARK 921   NORMALIZED FREE ENERGY PREDICTED BY IDOCK:   -2.36 KCAL/MOL
REMARK 922        TOTAL FREE ENERGY PREDICTED BY IDOCK:   -3.14 KCAL/MOL
REMARK 923 INTER-LIGAND FREE ENERGY PREDICTED BY IDOCK:   -2.95 KCAL/MOL
REMARK 924 INTRA-LIGAND FREE ENERGY PREDICTED BY IDOCK:   -0.19 KCAL/MOL
REMARK 927      BINDING AFFINITY PREDICTED BY RF-SCORE:    0.00 PKD
ROOT
HETATM    1  C   UNL     1     -14.126   7.501  71.490  1.00  0.00    -0.427 C  
HETATM    2  N   UNL     1     -13.025   7.114  70.617  1.00  0.00    -0.549 NA 
HETATM    3  H   UNL     1     -13.064   7.632  69.739  1.00  0.00     0.000 HD 
ENDROOT
BRANCH   2   4
HETATM    4  C   UNL     1     -11.693   7.248  71.240  1.00  0.00    -0.296 C  
HETATM    5  C   UNL     1     -11.742   8.128  72.495  1.00  0.00    -0.457 C  
BRANCH   4   6
HETATM    6  C   UNL     1     -11.115   5.860  71.639  1.00  0.00    -0.319 C  
BRANCH   6   7
HETATM    7  C   UNL     1      -9.623   5.825  71.897  1.00  0.00    -0.172 A  
HETATM    8  C   UNL     1      -9.220   5.866  73.252  1.00  0.00    -0.132 A  
HETATM    9  C   UNL     1      -7.876   5.898  73.618  1.00  0.00    -0.104 A  
HETATM   10  C   UNL     1      -6.900   5.899  72.632  1.00  0.00    -0.075 A  
HETATM   11  C   UNL     1      -7.278   5.873  71.288  1.00  0.00    -0.078 A  
HETATM   12  C   UNL     1      -8.629   5.830  70.908  1.00  0.00    -0.130 A  
BRANCH  12  13
HETATM   13  O   UNL     1      -8.816   5.952  69.558  1.00  0.00    -0.121 OA 
HETATM   14  C   UNL     1      -8.587   4.798  68.766  1.00  0.00    -0.088 C  
ENDBRANCH  12  13
ENDBRANCH   6   7
ENDBRANCH   4   6
ENDBRANCH   2   4
TORSDOF 4
ENDMDL
MODEL      256
REMARK 921   NORMALIZED FREE ENERGY PREDICTED BY IDOCK:   -2.34 KCAL/MOL
REMARK 922        TOTAL FREE ENERGY PREDICTED BY IDOCK:   -3.13 KCAL/MOL
REMARK 923 INTER-LIGAND FREE ENERGY PREDICTED BY IDOCK:   -3.01 KCAL/MOL
REMARK 924 INTRA-LIGAND FREE ENERGY PREDICTED BY IDOCK:   -0.12 KCAL/MOL
REMARK 927      BINDING AFFINITY PREDICTED BY RF-SCORE:    0.00 PKD
ROOT
HETATM    1  C   UNL     1     -11.273   1.565  73.464  1.00  0.00    -0.169 C  
HETATM    2  N   UNL     1     -10.306   2.384  72.743  1.00  0.00    -0.153 NA 
HETATM    3  H   UNL     1     -10.102   1.978  71.830  1.00  0.00     0.000 HD 
ENDROOT
BRANCH   2   4
HETATM    4  C   UNL     1     -10.708   3.798  72.604  1.00  0.00    -0.013 C  
HETATM    5  C   UNL     1     -11.156   4.394  73.943  1.00  0.00    -0.264 C  
BRANCH   4   6
HETATM    6  C   UNL     1      -9.539   4.664  72.050  1.00  0.00    -0.205 C  
BRANCH   6   7
HETATM    7  C   UNL     1      -9.867   6.121  71.803  1.00  0.00    -0.185 A  
HETATM    8  C   UNL     1      -9.475   7.032  72.810  1.00  0.00    -0.170 A  
HETATM    9  C   UNL     1      -9.771   8.391  72.728  1.00  0.00    -0.298 A  
HETATM   10  C   UNL     1     -10.479   8.871  71.635  1.00  0.00    -0.408 A  
HETATM   11  C   UNL     1     -10.888   7.985  70.636  1.00  0.00    -0.240 A  
HETATM   12  C   UNL     1     -10.585   6.615  70.704  1.00  0.00    -0.227 A  
BRANCH  12  13
HETATM   13  O   UNL     1     -11.184   5.879  69.718  1.00  0.00    -0.389 OA 
HETATM   14  C   UNL     1     -11.090   6.376  68.393  1.00  0.00    -0.285 C  
ENDBRANCH  12  13
ENDBRANCH   6   7
ENDBRANCH   4   6
ENDBRANCH   2   4
TORSDOF 4
ENDMDL
MODEL      257
REMARK 921   NORMALIZED FREE ENERGY PREDICTED BY IDOCK:   -2.34 KCAL/MOL
REMARK 922        TOTAL FREE ENERGY PREDICTED BY IDOCK:   -3.12 KCAL/MOL
REMARK 923 INTER-LIGAND FREE ENERGY PREDICTED BY IDOCK:   -3.11 KCAL/MOL
REMARK 924 INTRA-LIGAND FREE ENERGY PREDICTED BY IDOCK:   -0.01 KCAL/MOL
REMARK 927      BINDING AFFINITY PREDICTED BY RF-SCORE:    0.00 PKD
ROOT
HETATM    1  C   UNL     1     -10.536   4.999  66.334  1.00  0.00    -0.300 C  
HETATM    2  N   UNL     1     -10.084   6.367  66.557  1.00  0.00    -0.361 NA 
HETATM    3  H   UNL     1     -10.068   6.887  65.680  1.00  0.00     0.000 HD 
ENDROOT
BRANCH   2   4
HETATM    4  C   UNL     1     -10.865   7.094  67.577  1.00  0.00    -0.241 C  
HETATM    5  C   UNL     1     -11.151   6.217  68.802  1.00  0.00    -0.424 C  
BRANCH   4   6
HETATM    6  C   UNL     1     -10.115   8.372  68.056  1.00  0.00    -0.245 C  
BRANCH   6   7
HETATM    7  C   UNL     1      -9.364   8.236  69.364  1.00  0.00    -0.155 A  
HETATM    8  C   UNL     1      -8.230   7.392  69.350  1.00  0.00    -0.131 A  
HETATM    9  C   UNL     1      -7.490   7.139  70.503  1.00  0.00    -0.087 A  
HETATM   10  C   UNL     1      -7.874   7.720  71.703  1.00  0.00    -0.094 A  
HETATM   11  C   UNL     1      -9.000   8.545  71.740  1.00  0.00    -0.288 A  
HETATM   12  C   UNL     1      -9.747   8.816  70.582  1.00  0.00    -0.197 A  
BRANCH  12  13
HETATM   13  O   UNL     1     -10.891   9.525  70.830  1.00  0.00    -0.266 OA 
HETATM   14  C   UNL     1     -11.958   8.833  71.456  1.00  0.00    -0.324 C  
ENDBRANCH  12  13
ENDBRANCH   6   7
ENDBRANCH   4   6
ENDBRANCH   2   4
TORSDOF 4
ENDMDL
MODEL      258
REMARK 921   NORMALIZED FREE ENERGY PREDICTED BY IDOCK:   -2.33 KCAL/MOL
REMARK 922        TOTAL FREE ENERGY PREDICTED BY IDOCK:   -3.11 KCAL/MOL
REMARK 923 INTER-LIGAND FREE ENERGY PREDICTED BY IDOCK:   -2.77 KCAL/MOL
REMARK 924 INTRA-LIGAND FREE ENERGY PREDICTED BY IDOCK:   -0.34 KCAL/MOL
REMARK 927      BINDING AFFINITY PREDICTED BY RF-SCORE:    0.00 PKD
ROOT
HETATM    1  C   UNL     1      -7.751   6.491  66.916  1.00  0.00    -0.100 C  
HETATM    2  N   UNL     1      -8.414   7.751  66.604  1.00  0.00    -0.124 NA 
HETATM    3  H   UNL     1      -9.051   7.635  65.815  1.00  0.00     0.000 HD 
ENDROOT
BRANCH   2   4
HETATM    4  C   UNL     1      -9.115   8.356  67.753  1.00  0.00    -0.135 C  
HETATM    5  C   UNL     1      -9.668   9.745  67.411  1.00  0.00    -0.202 C  
BRANCH   4   6
HETATM    6  C   UNL     1     -10.299   7.463  68.227  1.00  0.00    -0.231 C  
BRANCH   6   7
HETATM    7  C   UNL     1     -10.295   7.101  69.697  1.00  0.00    -0.224 A  
HETATM    8  C   UNL     1      -9.885   5.786  70.018  1.00  0.00    -0.235 A  
HETATM    9  C   UNL     1      -9.893   5.314  71.328  1.00  0.00    -0.232 A  
HETATM   10  C   UNL     1     -10.323   6.146  72.352  1.00  0.00    -0.219 A  
HETATM   11  C   UNL     1     -10.746   7.443  72.054  1.00  0.00    -0.254 A  
HETATM   12  C   UNL     1     -10.731   7.933  70.738  1.00  0.00    -0.223 A  
BRANCH  12  13
HETATM   13  O   UNL     1     -11.309   9.167  70.614  1.00  0.00    -0.260 OA 
HETATM   14  C   UNL     1     -12.536   9.378  71.293  1.00  0.00    -0.335 C  
ENDBRANCH  12  13
ENDBRANCH   6   7
ENDBRANCH   4   6
ENDBRANCH   2   4
TORSDOF 4
ENDMDL
MODEL      259
REMARK 921   NORMALIZED FREE ENERGY PREDICTED BY IDOCK:   -2.31 KCAL/MOL
REMARK 922        TOTAL FREE ENERGY PREDICTED BY IDOCK:   -3.09 KCAL/MOL
REMARK 923 INTER-LIGAND FREE ENERGY PREDICTED BY IDOCK:   -3.00 KCAL/MOL
REMARK 924 INTRA-LIGAND FREE ENERGY PREDICTED BY IDOCK:   -0.09 KCAL/MOL
REMARK 927      BINDING AFFINITY PREDICTED BY RF-SCORE:    0.00 PKD
ROOT
HETATM    1  C   UNL     1     -11.028   2.037  73.229  1.00  0.00    -0.172 C  
HETATM    2  N   UNL     1      -9.944   2.613  72.444  1.00  0.00    -0.156 NA 
HETATM    3  H   UNL     1      -9.822   2.099  71.571  1.00  0.00     0.000 HD 
ENDROOT
BRANCH   2   4
HETATM    4  C   UNL     1     -10.100   4.057  72.179  1.00  0.00    -0.163 C  
HETATM    5  C   UNL     1      -9.833   4.894  73.436  1.00  0.00    -0.166 C  
BRANCH   4   6
HETATM    6  C   UNL     1      -9.129   4.533  71.060  1.00  0.00    -0.185 C  
BRANCH   6   7
HETATM    7  C   UNL     1      -9.790   5.103  69.822  1.00  0.00    -0.283 A  
HETATM    8  C   UNL     1      -9.228   4.726  68.581  1.00  0.00    -0.168 A  
HETATM    9  C   UNL     1      -9.708   5.228  67.374  1.00  0.00    -0.162 A  
HETATM   10  C   UNL     1     -10.762   6.132  67.381  1.00  0.00    -0.403 A  
HETATM   11  C   UNL     1     -11.322   6.527  68.598  1.00  0.00    -0.203 A  
HETATM   12  C   UNL     1     -10.853   6.018  69.820  1.00  0.00    -0.363 A  
BRANCH  12  13
HETATM   13  O   UNL     1     -11.420   6.620  70.910  1.00  0.00    -0.306 OA 
HETATM   14  C   UNL     1     -11.286   8.028  71.014  1.00  0.00    -0.273 C  
ENDBRANCH  12  13
ENDBRANCH   6   7
ENDBRANCH   4   6
ENDBRANCH   2   4
TORSDOF 4
ENDMDL
MODEL      260
REMARK 921   NORMALIZED FREE ENERGY PREDICTED BY IDOCK:   -2.30 KCAL/MOL
REMARK 922        TOTAL FREE ENERGY PREDICTED BY IDOCK:   -3.07 KCAL/MOL
REMARK 923 INTER-LIGAND FREE ENERGY PREDICTED BY IDOCK:   -2.70 KCAL/MOL
REMARK 924 INTRA-LIGAND FREE ENERGY PREDICTED BY IDOCK:   -0.37 KCAL/MOL
REMARK 927      BINDING AFFINITY PREDICTED BY RF-SCORE:    0.00 PKD
ROOT
HETATM    1  C   UNL     1     -11.302   5.286  72.928  1.00  0.00    -0.301 C  
HETATM    2  N   UNL     1      -9.867   5.356  72.682  1.00  0.00    -0.158 NA 
HETATM    3  H   UNL     1      -9.579   4.625  72.032  1.00  0.00     0.000 HD 
ENDROOT
BRANCH   2   4
HETATM    4  C   UNL     1      -9.404   6.678  72.216  1.00  0.00    -0.136 C  
HETATM    5  C   UNL     1      -7.968   6.965  72.667  1.00  0.00    -0.104 C  
BRANCH   4   6
HETATM    6  C   UNL     1      -9.458   6.779  70.664  1.00  0.00    -0.171 C  
BRANCH   6   7
HETATM    7  C   UNL     1      -9.758   8.156  70.110  1.00  0.00    -0.175 A  
HETATM    8  C   UNL     1      -8.658   8.877  69.592  1.00  0.00    -0.131 A  
HETATM    9  C   UNL     1      -8.793  10.176  69.107  1.00  0.00    -0.179 A  
HETATM   10  C   UNL     1     -10.037  10.791  69.140  1.00  0.00    -0.224 A  
HETATM   11  C   UNL     1     -11.134  10.101  69.661  1.00  0.00    -0.308 A  
HETATM   12  C   UNL     1     -11.010   8.787  70.142  1.00  0.00    -0.223 A  
BRANCH  12  13
HETATM   13  O   UNL     1     -12.148   8.322  70.743  1.00  0.00    -0.206 OA 
HETATM   14  C   UNL     1     -12.460   8.839  72.026  1.00  0.00    -0.386 C  
ENDBRANCH  12  13
ENDBRANCH   6   7
ENDBRANCH   4   6
ENDBRANCH   2   4
TORSDOF 4
ENDMDL
MODEL      261
REMARK 921   NORMALIZED FREE ENERGY PREDICTED BY IDOCK:   -2.30 KCAL/MOL
REMARK 922        TOTAL FREE ENERGY PREDICTED BY IDOCK:   -3.07 KCAL/MOL
REMARK 923 INTER-LIGAND FREE ENERGY PREDICTED BY IDOCK:   -2.74 KCAL/MOL
REMARK 924 INTRA-LIGAND FREE ENERGY PREDICTED BY IDOCK:   -0.33 KCAL/MOL
REMARK 927      BINDING AFFINITY PREDICTED BY RF-SCORE:    0.00 PKD
ROOT
HETATM    1  C   UNL     1     -11.668  13.769  68.735  1.00  0.00    -0.356 C  
HETATM    2  N   UNL     1     -11.074  12.469  69.015  1.00  0.00    -0.319 NA 
HETATM    3  H   UNL     1     -11.795  11.789  69.258  1.00  0.00     0.000 HD 
ENDROOT
BRANCH   2   4
HETATM    4  C   UNL     1     -10.221  11.954  67.925  1.00  0.00    -0.193 C  
HETATM    5  C   UNL     1     -10.992  10.997  67.009  1.00  0.00    -0.333 C  
BRANCH   4   6
HETATM    6  C   UNL     1      -9.656  13.114  67.056  1.00  0.00    -0.241 C  
BRANCH   6   7
HETATM    7  C   UNL     1      -8.242  13.546  67.384  1.00  0.00    -0.187 A  
HETATM    8  C   UNL     1      -7.338  12.517  67.735  1.00  0.00    -0.124 A  
HETATM    9  C   UNL     1      -6.026  12.790  68.114  1.00  0.00    -0.086 A  
HETATM   10  C   UNL     1      -5.588  14.107  68.161  1.00  0.00    -0.123 A  
HETATM   11  C   UNL     1      -6.470  15.138  67.833  1.00  0.00    -0.176 A  
HETATM   12  C   UNL     1      -7.792  14.873  67.438  1.00  0.00    -0.199 A  
BRANCH  12  13
HETATM   13  O   UNL     1      -8.550  16.003  67.292  1.00  0.00    -0.171 OA 
HETATM   14  C   UNL     1      -8.910  16.697  68.474  1.00  0.00    -0.235 C  
ENDBRANCH  12  13
ENDBRANCH   6   7
ENDBRANCH   4   6
ENDBRANCH   2   4
TORSDOF 4
ENDMDL
MODEL      262
REMARK 921   NORMALIZED FREE ENERGY PREDICTED BY IDOCK:   -2.29 KCAL/MOL
REMARK 922        TOTAL FREE ENERGY PREDICTED BY IDOCK:   -3.06 KCAL/MOL
REMARK 923 INTER-LIGAND FREE ENERGY PREDICTED BY IDOCK:   -2.93 KCAL/MOL
REMARK 924 INTRA-LIGAND FREE ENERGY PREDICTED BY IDOCK:   -0.13 KCAL/MOL
REMARK 927      BINDING AFFINITY PREDICTED BY RF-SCORE:    0.00 PKD
ROOT
HETATM    1  C   UNL     1     -10.092   8.836  71.523  1.00  0.00    -0.301 C  
HETATM    2  N   UNL     1      -9.322   8.028  70.586  1.00  0.00    -0.157 NA 
HETATM    3  H   UNL     1      -9.030   7.154  71.022  1.00  0.00     0.000 HD 
ENDROOT
BRANCH   2   4
HETATM    4  C   UNL     1     -10.019   7.765  69.312  1.00  0.00    -0.182 C  
HETATM    5  C   UNL     1      -9.037   7.678  68.137  1.00  0.00    -0.132 C  
BRANCH   4   6
HETATM    6  C   UNL     1     -10.826   6.436  69.374  1.00  0.00    -0.381 C  
BRANCH   6   7
HETATM    7  C   UNL     1     -10.095   5.257  69.981  1.00  0.00    -0.336 A  
HETATM    8  C   UNL     1      -9.658   4.259  69.080  1.00  0.00    -0.249 A  
HETATM    9  C   UNL     1      -9.026   3.098  69.521  1.00  0.00    -0.174 A  
HETATM   10  C   UNL     1      -8.823   2.904  70.880  1.00  0.00    -0.144 A  
HETATM   11  C   UNL     1      -9.260   3.872  71.787  1.00  0.00    -0.184 A  
HETATM   12  C   UNL     1      -9.889   5.051  71.353  1.00  0.00    -0.182 A  
BRANCH  12  13
HETATM   13  O   UNL     1     -10.374   5.814  72.379  1.00  0.00    -0.189 OA 
HETATM   14  C   UNL     1     -11.091   5.143  73.402  1.00  0.00    -0.320 C  
ENDBRANCH  12  13
ENDBRANCH   6   7
ENDBRANCH   4   6
ENDBRANCH   2   4
TORSDOF 4
ENDMDL
MODEL      263
REMARK 921   NORMALIZED FREE ENERGY PREDICTED BY IDOCK:   -2.29 KCAL/MOL
REMARK 922        TOTAL FREE ENERGY PREDICTED BY IDOCK:   -3.06 KCAL/MOL
REMARK 923 INTER-LIGAND FREE ENERGY PREDICTED BY IDOCK:   -2.87 KCAL/MOL
REMARK 924 INTRA-LIGAND FREE ENERGY PREDICTED BY IDOCK:   -0.19 KCAL/MOL
REMARK 927      BINDING AFFINITY PREDICTED BY RF-SCORE:    0.00 PKD
ROOT
HETATM    1  C   UNL     1      -6.947   6.154  67.067  1.00  0.00    -0.072 C  
HETATM    2  N   UNL     1      -8.158   6.806  67.550  1.00  0.00    -0.114 NA 
HETATM    3  H   UNL     1      -8.026   7.817  67.597  1.00  0.00     0.000 HD 
ENDROOT
BRANCH   2   4
HETATM    4  C   UNL     1      -9.366   6.475  66.769  1.00  0.00    -0.156 C  
HETATM    5  C   UNL     1      -9.797   5.020  66.983  1.00  0.00    -0.205 C  
BRANCH   4   6
HETATM    6  C   UNL     1     -10.558   7.399  67.155  1.00  0.00    -0.413 C  
BRANCH   6   7
HETATM    7  C   UNL     1     -10.492   8.003  68.542  1.00  0.00    -0.200 A  
HETATM    8  C   UNL     1     -10.949   7.189  69.603  1.00  0.00    -0.236 A  
HETATM    9  C   UNL     1     -10.995   7.650  70.916  1.00  0.00    -0.261 A  
HETATM   10  C   UNL     1     -10.591   8.947  71.199  1.00  0.00    -0.335 A  
HETATM   11  C   UNL     1     -10.149   9.773  70.163  1.00  0.00    -0.317 A  
HETATM   12  C   UNL     1     -10.089   9.314  68.836  1.00  0.00    -0.195 A  
BRANCH  12  13
HETATM   13  O   UNL     1      -9.770  10.296  67.938  1.00  0.00    -0.144 OA 
HETATM   14  C   UNL     1     -10.763  11.271  67.666  1.00  0.00    -0.226 C  
ENDBRANCH  12  13
ENDBRANCH   6   7
ENDBRANCH   4   6
ENDBRANCH   2   4
TORSDOF 4
ENDMDL
MODEL      264
REMARK 921   NORMALIZED FREE ENERGY PREDICTED BY IDOCK:   -2.27 KCAL/MOL
REMARK 922        TOTAL FREE ENERGY PREDICTED BY IDOCK:   -3.04 KCAL/MOL
REMARK 923 INTER-LIGAND FREE ENERGY PREDICTED BY IDOCK:   -2.85 KCAL/MOL
REMARK 924 INTRA-LIGAND FREE ENERGY PREDICTED BY IDOCK:   -0.19 KCAL/MOL
REMARK 927      BINDING AFFINITY PREDICTED BY RF-SCORE:    0.00 PKD
ROOT
HETATM    1  C   UNL     1      -8.186   8.645  64.774  1.00  0.00    -0.160 C  
HETATM    2  N   UNL     1      -7.726   9.835  65.478  1.00  0.00    -0.116 NA 
HETATM    3  H   UNL     1      -6.836  10.156  65.098  1.00  0.00     0.000 HD 
ENDROOT
BRANCH   2   4
HETATM    4  C   UNL     1      -8.710  10.936  65.496  1.00  0.00    -0.171 C  
HETATM    5  C   UNL     1      -9.568  10.947  64.225  1.00  0.00    -0.318 C  
BRANCH   4   6
HETATM    6  C   UNL     1      -9.658  10.825  66.725  1.00  0.00    -0.201 C  
BRANCH   6   7
HETATM    7  C   UNL     1     -10.016  12.136  67.392  1.00  0.00    -0.206 A  
HETATM    8  C   UNL     1     -11.393  12.454  67.452  1.00  0.00    -0.381 A  
HETATM    9  C   UNL     1     -11.846  13.657  67.988  1.00  0.00    -0.397 A  
HETATM   10  C   UNL     1     -10.928  14.579  68.471  1.00  0.00    -0.261 A  
HETATM   11  C   UNL     1      -9.563  14.290  68.407  1.00  0.00    -0.221 A  
HETATM   12  C   UNL     1      -9.096  13.076  67.879  1.00  0.00    -0.207 A  
BRANCH  12  13
HETATM   13  O   UNL     1      -7.733  13.024  67.766  1.00  0.00    -0.122 OA 
HETATM   14  C   UNL     1      -7.015  12.463  68.853  1.00  0.00    -0.091 C  
ENDBRANCH  12  13
ENDBRANCH   6   7
ENDBRANCH   4   6
ENDBRANCH   2   4
TORSDOF 4
ENDMDL
MODEL      265
REMARK 921   NORMALIZED FREE ENERGY PREDICTED BY IDOCK:   -2.26 KCAL/MOL
REMARK 922        TOTAL FREE ENERGY PREDICTED BY IDOCK:   -3.02 KCAL/MOL
REMARK 923 INTER-LIGAND FREE ENERGY PREDICTED BY IDOCK:   -2.92 KCAL/MOL
REMARK 924 INTRA-LIGAND FREE ENERGY PREDICTED BY IDOCK:   -0.11 KCAL/MOL
REMARK 927      BINDING AFFINITY PREDICTED BY RF-SCORE:    0.00 PKD
ROOT
HETATM    1  C   UNL     1      -6.615   8.203  67.352  1.00  0.00    -0.058 C  
HETATM    2  N   UNL     1      -7.089   9.465  67.906  1.00  0.00    -0.080 NA 
HETATM    3  H   UNL     1      -7.028  10.208  67.209  1.00  0.00     0.000 HD 
ENDROOT
BRANCH   2   4
HETATM    4  C   UNL     1      -8.451   9.395  68.471  1.00  0.00    -0.119 C  
HETATM    5  C   UNL     1      -9.485   9.007  67.408  1.00  0.00    -0.179 C  
BRANCH   4   6
HETATM    6  C   UNL     1      -8.527   8.357  69.629  1.00  0.00    -0.127 C  
BRANCH   6   7
HETATM    7  C   UNL     1      -9.815   8.363  70.426  1.00  0.00    -0.194 A  
HETATM    8  C   UNL     1     -10.459   9.614  70.566  1.00  0.00    -0.367 A  
HETATM    9  C   UNL     1     -11.618   9.762  71.324  1.00  0.00    -0.465 A  
HETATM   10  C   UNL     1     -12.157   8.658  71.971  1.00  0.00    -0.442 A  
HETATM   11  C   UNL     1     -11.527   7.417  71.857  1.00  0.00    -0.300 A  
HETATM   12  C   UNL     1     -10.364   7.255  71.086  1.00  0.00    -0.198 A  
BRANCH  12  13
HETATM   13  O   UNL     1      -9.808   6.010  71.203  1.00  0.00    -0.174 OA 
HETATM   14  C   UNL     1     -10.298   5.177  72.240  1.00  0.00    -0.211 C  
ENDBRANCH  12  13
ENDBRANCH   6   7
ENDBRANCH   4   6
ENDBRANCH   2   4
TORSDOF 4
ENDMDL
MODEL      266
REMARK 921   NORMALIZED FREE ENERGY PREDICTED BY IDOCK:   -2.26 KCAL/MOL
REMARK 922        TOTAL FREE ENERGY PREDICTED BY IDOCK:   -3.02 KCAL/MOL
REMARK 923 INTER-LIGAND FREE ENERGY PREDICTED BY IDOCK:   -2.78 KCAL/MOL
REMARK 924 INTRA-LIGAND FREE ENERGY PREDICTED BY IDOCK:   -0.24 KCAL/MOL
REMARK 927      BINDING AFFINITY PREDICTED BY RF-SCORE:    0.00 PKD
ROOT
HETATM    1  C   UNL     1     -13.788   7.555  71.615  1.00  0.00    -0.387 C  
HETATM    2  N   UNL     1     -12.788   7.279  70.592  1.00  0.00    -0.587 NA 
HETATM    3  H   UNL     1     -12.850   7.962  69.837  1.00  0.00     0.000 HD 
ENDROOT
BRANCH   2   4
HETATM    4  C   UNL     1     -11.408   7.202  71.111  1.00  0.00    -0.275 C  
HETATM    5  C   UNL     1     -11.359   7.444  72.624  1.00  0.00    -0.360 C  
BRANCH   4   6
HETATM    6  C   UNL     1     -10.772   5.812  70.817  1.00  0.00    -0.342 C  
BRANCH   6   7
HETATM    7  C   UNL     1      -9.279   5.716  71.052  1.00  0.00    -0.173 A  
HETATM    8  C   UNL     1      -8.448   6.140  69.990  1.00  0.00    -0.129 A  
HETATM    9  C   UNL     1      -7.060   6.046  70.061  1.00  0.00    -0.071 A  
HETATM   10  C   UNL     1      -6.468   5.514  71.198  1.00  0.00    -0.036 A  
HETATM   11  C   UNL     1      -7.273   5.077  72.253  1.00  0.00    -0.089 A  
HETATM   12  C   UNL     1      -8.673   5.177  72.196  1.00  0.00    -0.129 A  
BRANCH  12  13
HETATM   13  O   UNL     1      -9.301   4.573  73.251  1.00  0.00    -0.117 OA 
HETATM   14  C   UNL     1      -8.610   3.517  73.897  1.00  0.00    -0.085 C  
ENDBRANCH  12  13
ENDBRANCH   6   7
ENDBRANCH   4   6
ENDBRANCH   2   4
TORSDOF 4
ENDMDL
MODEL      267
REMARK 921   NORMALIZED FREE ENERGY PREDICTED BY IDOCK:   -2.26 KCAL/MOL
REMARK 922        TOTAL FREE ENERGY PREDICTED BY IDOCK:   -3.02 KCAL/MOL
REMARK 923 INTER-LIGAND FREE ENERGY PREDICTED BY IDOCK:   -2.75 KCAL/MOL
REMARK 924 INTRA-LIGAND FREE ENERGY PREDICTED BY IDOCK:   -0.27 KCAL/MOL
REMARK 927      BINDING AFFINITY PREDICTED BY RF-SCORE:    0.00 PKD
ROOT
HETATM    1  C   UNL     1     -11.158   2.271  73.508  1.00  0.00    -0.205 C  
HETATM    2  N   UNL     1     -10.131   2.978  72.753  1.00  0.00    -0.144 NA 
HETATM    3  H   UNL     1      -9.866   2.446  71.924  1.00  0.00     0.000 HD 
ENDROOT
BRANCH   2   4
HETATM    4  C   UNL     1     -10.504   4.358  72.387  1.00  0.00    -0.149 C  
HETATM    5  C   UNL     1     -10.801   5.211  73.625  1.00  0.00    -0.363 C  
BRANCH   4   6
HETATM    6  C   UNL     1      -9.371   5.052  71.576  1.00  0.00    -0.191 C  
BRANCH   6   7
HETATM    7  C   UNL     1      -9.725   5.430  70.153  1.00  0.00    -0.252 A  
HETATM    8  C   UNL     1     -10.335   6.693  69.973  1.00  0.00    -0.232 A  
HETATM    9  C   UNL     1     -10.761   7.131  68.722  1.00  0.00    -0.199 A  
HETATM   10  C   UNL     1     -10.593   6.309  67.616  1.00  0.00    -0.339 A  
HETATM   11  C   UNL     1     -10.006   5.052  67.775  1.00  0.00    -0.198 A  
HETATM   12  C   UNL     1      -9.563   4.605  69.031  1.00  0.00    -0.172 A  
BRANCH  12  13
HETATM   13  O   UNL     1      -9.145   3.302  69.024  1.00  0.00    -0.117 OA 
HETATM   14  C   UNL     1      -9.379   2.553  67.843  1.00  0.00    -0.191 C  
ENDBRANCH  12  13
ENDBRANCH   6   7
ENDBRANCH   4   6
ENDBRANCH   2   4
TORSDOF 4
ENDMDL
MODEL      268
REMARK 921   NORMALIZED FREE ENERGY PREDICTED BY IDOCK:   -2.25 KCAL/MOL
REMARK 922        TOTAL FREE ENERGY PREDICTED BY IDOCK:   -3.02 KCAL/MOL
REMARK 923 INTER-LIGAND FREE ENERGY PREDICTED BY IDOCK:   -2.68 KCAL/MOL
REMARK 924 INTRA-LIGAND FREE ENERGY PREDICTED BY IDOCK:   -0.34 KCAL/MOL
REMARK 927      BINDING AFFINITY PREDICTED BY RF-SCORE:    0.00 PKD
ROOT
HETATM    1  C   UNL     1      -9.388   9.159  70.954  1.00  0.00    -0.269 C  
HETATM    2  N   UNL     1      -9.551  10.241  69.991  1.00  0.00    -0.397 NA 
HETATM    3  H   UNL     1      -8.700  10.363  69.442  1.00  0.00     0.000 HD 
ENDROOT
BRANCH   2   4
HETATM    4  C   UNL     1     -10.721  10.081  69.106  1.00  0.00    -0.220 C  
HETATM    5  C   UNL     1     -11.470  11.405  68.913  1.00  0.00    -0.363 C  
BRANCH   4   6
HETATM    6  C   UNL     1     -10.301   9.549  67.705  1.00  0.00    -0.299 C  
BRANCH   6   7
HETATM    7  C   UNL     1      -9.984   8.070  67.637  1.00  0.00    -0.234 A  
HETATM    8  C   UNL     1     -10.990   7.191  68.101  1.00  0.00    -0.114 A  
HETATM    9  C   UNL     1     -10.798   5.812  68.145  1.00  0.00    -0.249 A  
HETATM   10  C   UNL     1      -9.585   5.278  67.733  1.00  0.00    -0.157 A  
HETATM   11  C   UNL     1      -8.574   6.130  67.285  1.00  0.00    -0.103 A  
HETATM   12  C   UNL     1      -8.761   7.521  67.226  1.00  0.00    -0.121 A  
BRANCH  12  13
HETATM   13  O   UNL     1      -7.623   8.206  66.899  1.00  0.00    -0.092 OA 
HETATM   14  C   UNL     1      -6.690   8.446  67.940  1.00  0.00    -0.066 C  
ENDBRANCH  12  13
ENDBRANCH   6   7
ENDBRANCH   4   6
ENDBRANCH   2   4
TORSDOF 4
ENDMDL
MODEL      269
REMARK 921   NORMALIZED FREE ENERGY PREDICTED BY IDOCK:   -2.24 KCAL/MOL
REMARK 922        TOTAL FREE ENERGY PREDICTED BY IDOCK:   -3.00 KCAL/MOL
REMARK 923 INTER-LIGAND FREE ENERGY PREDICTED BY IDOCK:   -2.98 KCAL/MOL
REMARK 924 INTRA-LIGAND FREE ENERGY PREDICTED BY IDOCK:   -0.02 KCAL/MOL
REMARK 927      BINDING AFFINITY PREDICTED BY RF-SCORE:    0.00 PKD
ROOT
HETATM    1  C   UNL     1     -13.393   9.859  71.293  1.00  0.00    -0.342 C  
HETATM    2  N   UNL     1     -12.301   9.129  70.662  1.00  0.00    -0.490 NA 
HETATM    3  H   UNL     1     -12.398   9.145  69.646  1.00  0.00     0.000 HD 
ENDROOT
BRANCH   2   4
HETATM    4  C   UNL     1     -10.959   9.597  71.063  1.00  0.00    -0.361 C  
HETATM    5  C   UNL     1     -10.139   8.475  71.709  1.00  0.00    -0.351 C  
BRANCH   4   6
HETATM    6  C   UNL     1     -10.164  10.143  69.842  1.00  0.00    -0.284 C  
BRANCH   6   7
HETATM    7  C   UNL     1      -9.641   9.095  68.882  1.00  0.00    -0.152 A  
HETATM    8  C   UNL     1     -10.602   8.464  68.058  1.00  0.00    -0.191 A  
HETATM    9  C   UNL     1     -10.256   7.443  67.176  1.00  0.00    -0.347 A  
HETATM   10  C   UNL     1      -8.936   7.020  67.104  1.00  0.00    -0.123 A  
HETATM   11  C   UNL     1      -7.975   7.620  67.920  1.00  0.00    -0.118 A  
HETATM   12  C   UNL     1      -8.311   8.658  68.805  1.00  0.00    -0.121 A  
BRANCH  12  13
HETATM   13  O   UNL     1      -7.277   9.027  69.623  1.00  0.00    -0.056 OA 
HETATM   14  C   UNL     1      -6.316   9.921  69.087  1.00  0.00    -0.044 C  
ENDBRANCH  12  13
ENDBRANCH   6   7
ENDBRANCH   4   6
ENDBRANCH   2   4
TORSDOF 4
ENDMDL
MODEL      270
REMARK 921   NORMALIZED FREE ENERGY PREDICTED BY IDOCK:   -2.22 KCAL/MOL
REMARK 922        TOTAL FREE ENERGY PREDICTED BY IDOCK:   -2.98 KCAL/MOL
REMARK 923 INTER-LIGAND FREE ENERGY PREDICTED BY IDOCK:   -2.67 KCAL/MOL
REMARK 924 INTRA-LIGAND FREE ENERGY PREDICTED BY IDOCK:   -0.31 KCAL/MOL
REMARK 927      BINDING AFFINITY PREDICTED BY RF-SCORE:    0.00 PKD
ROOT
HETATM    1  C   UNL     1     -12.312   7.656  71.475  1.00  0.00    -0.330 C  
HETATM    2  N   UNL     1     -12.043   7.033  70.185  1.00  0.00    -0.623 NA 
HETATM    3  H   UNL     1     -11.669   7.717  69.527  1.00  0.00     0.000 HD 
ENDROOT
BRANCH   2   4
HETATM    4  C   UNL     1     -11.160   5.852  70.264  1.00  0.00    -0.298 C  
HETATM    5  C   UNL     1     -10.251   5.742  69.035  1.00  0.00    -0.282 C  
BRANCH   4   6
HETATM    6  C   UNL     1     -10.262   5.904  71.534  1.00  0.00    -0.254 C  
BRANCH   6   7
HETATM    7  C   UNL     1      -9.392   4.687  71.768  1.00  0.00    -0.190 A  
HETATM    8  C   UNL     1     -10.060   3.505  72.160  1.00  0.00    -0.205 A  
HETATM    9  C   UNL     1      -9.367   2.335  72.461  1.00  0.00    -0.133 A  
HETATM   10  C   UNL     1      -7.982   2.323  72.387  1.00  0.00    -0.054 A  
HETATM   11  C   UNL     1      -7.302   3.485  72.016  1.00  0.00    -0.055 A  
HETATM   12  C   UNL     1      -7.991   4.667  71.699  1.00  0.00    -0.101 A  
BRANCH  12  13
HETATM   13  O   UNL     1      -7.164   5.738  71.497  1.00  0.00    -0.077 OA 
HETATM   14  C   UNL     1      -6.729   6.445  72.647  1.00  0.00    -0.065 C  
ENDBRANCH  12  13
ENDBRANCH   6   7
ENDBRANCH   4   6
ENDBRANCH   2   4
TORSDOF 4
ENDMDL
MODEL      271
REMARK 921   NORMALIZED FREE ENERGY PREDICTED BY IDOCK:   -2.21 KCAL/MOL
REMARK 922        TOTAL FREE ENERGY PREDICTED BY IDOCK:   -2.96 KCAL/MOL
REMARK 923 INTER-LIGAND FREE ENERGY PREDICTED BY IDOCK:   -2.71 KCAL/MOL
REMARK 924 INTRA-LIGAND FREE ENERGY PREDICTED BY IDOCK:   -0.25 KCAL/MOL
REMARK 927      BINDING AFFINITY PREDICTED BY RF-SCORE:    0.00 PKD
ROOT
HETATM    1  C   UNL     1      -7.977  12.788  68.119  1.00  0.00    -0.156 C  
HETATM    2  N   UNL     1      -8.245  12.240  66.795  1.00  0.00    -0.365 NA 
HETATM    3  H   UNL     1      -7.681  12.714  66.090  1.00  0.00     0.000 HD 
ENDROOT
BRANCH   2   4
HETATM    4  C   UNL     1      -8.067  10.777  66.707  1.00  0.00    -0.137 C  
HETATM    5  C   UNL     1      -6.703  10.409  66.113  1.00  0.00    -0.117 C  
BRANCH   4   6
HETATM    6  C   UNL     1      -8.187  10.109  68.108  1.00  0.00    -0.113 C  
BRANCH   6   7
HETATM    7  C   UNL     1      -9.123   8.923  68.187  1.00  0.00    -0.142 A  
HETATM    8  C   UNL     1      -9.582   8.403  66.954  1.00  0.00    -0.264 A  
HETATM    9  C   UNL     1     -10.492   7.350  66.894  1.00  0.00    -0.379 A  
HETATM   10  C   UNL     1     -10.975   6.797  68.072  1.00  0.00    -0.289 A  
HETATM   11  C   UNL     1     -10.546   7.306  69.299  1.00  0.00    -0.230 A  
HETATM   12  C   UNL     1      -9.620   8.359  69.371  1.00  0.00    -0.170 A  
BRANCH  12  13
HETATM   13  O   UNL     1      -9.423   8.820  70.644  1.00  0.00    -0.170 OA 
HETATM   14  C   UNL     1      -9.846   7.984  71.708  1.00  0.00    -0.183 C  
ENDBRANCH  12  13
ENDBRANCH   6   7
ENDBRANCH   4   6
ENDBRANCH   2   4
TORSDOF 4
ENDMDL
MODEL      272
REMARK 921   NORMALIZED FREE ENERGY PREDICTED BY IDOCK:   -2.19 KCAL/MOL
REMARK 922        TOTAL FREE ENERGY PREDICTED BY IDOCK:   -2.94 KCAL/MOL
REMARK 923 INTER-LIGAND FREE ENERGY PREDICTED BY IDOCK:   -2.79 KCAL/MOL
REMARK 924 INTRA-LIGAND FREE ENERGY PREDICTED BY IDOCK:   -0.15 KCAL/MOL
REMARK 927      BINDING AFFINITY PREDICTED BY RF-SCORE:    0.00 PKD
ROOT
HETATM    1  C   UNL     1      -8.187   5.776  68.165  1.00  0.00    -0.104 C  
HETATM    2  N   UNL     1      -8.917   6.918  68.702  1.00  0.00    -0.130 NA 
HETATM    3  H   UNL     1      -9.333   6.686  69.604  1.00  0.00     0.000 HD 
ENDROOT
BRANCH   2   4
HETATM    4  C   UNL     1      -8.108   8.149  68.805  1.00  0.00    -0.120 C  
HETATM    5  C   UNL     1      -7.912   8.812  67.436  1.00  0.00    -0.098 C  
BRANCH   4   6
HETATM    6  C   UNL     1      -8.773   9.183  69.758  1.00  0.00    -0.155 C  
BRANCH   6   7
HETATM    7  C   UNL     1      -9.329   8.618  71.048  1.00  0.00    -0.254 A  
HETATM    8  C   UNL     1     -10.718   8.354  71.070  1.00  0.00    -0.267 A  
HETATM    9  C   UNL     1     -11.359   7.888  72.215  1.00  0.00    -0.393 A  
HETATM   10  C   UNL     1     -10.624   7.683  73.374  1.00  0.00    -0.353 A  
HETATM   11  C   UNL     1      -9.253   7.951  73.377  1.00  0.00    -0.351 A  
HETATM   12  C   UNL     1      -8.595   8.411  72.225  1.00  0.00    -0.197 A  
BRANCH  12  13
HETATM   13  O   UNL     1      -7.289   8.754  72.449  1.00  0.00    -0.314 OA 
HETATM   14  C   UNL     1      -6.342   7.700  72.494  1.00  0.00    -0.055 C  
ENDBRANCH  12  13
ENDBRANCH   6   7
ENDBRANCH   4   6
ENDBRANCH   2   4
TORSDOF 4
ENDMDL
MODEL      273
REMARK 921   NORMALIZED FREE ENERGY PREDICTED BY IDOCK:   -2.19 KCAL/MOL
REMARK 922        TOTAL FREE ENERGY PREDICTED BY IDOCK:   -2.93 KCAL/MOL
REMARK 923 INTER-LIGAND FREE ENERGY PREDICTED BY IDOCK:   -2.95 KCAL/MOL
REMARK 924 INTRA-LIGAND FREE ENERGY PREDICTED BY IDOCK:    0.02 KCAL/MOL
REMARK 927      BINDING AFFINITY PREDICTED BY RF-SCORE:    0.00 PKD
ROOT
HETATM    1  C   UNL     1      -6.147  12.343  69.582  1.00  0.00    -0.135 C  
HETATM    2  N   UNL     1      -7.065  11.901  68.540  1.00  0.00    -0.083 NA 
HETATM    3  H   UNL     1      -6.647  12.023  67.618  1.00  0.00     0.000 HD 
ENDROOT
BRANCH   2   4
HETATM    4  C   UNL     1      -7.543  10.515  68.714  1.00  0.00    -0.101 C  
HETATM    5  C   UNL     1      -7.506  10.084  70.185  1.00  0.00    -0.176 C  
BRANCH   4   6
HETATM    6  C   UNL     1      -9.001  10.351  68.193  1.00  0.00    -0.132 C  
BRANCH   6   7
HETATM    7  C   UNL     1     -10.088  10.802  69.146  1.00  0.00    -0.224 A  
HETATM    8  C   UNL     1     -10.588   9.823  70.035  1.00  0.00    -0.320 A  
HETATM    9  C   UNL     1     -11.628  10.096  70.919  1.00  0.00    -0.459 A  
HETATM   10  C   UNL     1     -12.202  11.360  70.929  1.00  0.00    -0.447 A  
HETATM   11  C   UNL     1     -11.733  12.337  70.049  1.00  0.00    -0.319 A  
HETATM   12  C   UNL     1     -10.677  12.074  69.160  1.00  0.00    -0.075 A  
BRANCH  12  13
HETATM   13  O   UNL     1     -10.445  13.096  68.280  1.00  0.00    -0.237 OA 
HETATM   14  C   UNL     1     -10.311  14.399  68.821  1.00  0.00    -0.241 C  
ENDBRANCH  12  13
ENDBRANCH   6   7
ENDBRANCH   4   6
ENDBRANCH   2   4
TORSDOF 4
ENDMDL
MODEL      274
REMARK 921   NORMALIZED FREE ENERGY PREDICTED BY IDOCK:   -2.19 KCAL/MOL
REMARK 922        TOTAL FREE ENERGY PREDICTED BY IDOCK:   -2.93 KCAL/MOL
REMARK 923 INTER-LIGAND FREE ENERGY PREDICTED BY IDOCK:   -2.73 KCAL/MOL
REMARK 924 INTRA-LIGAND FREE ENERGY PREDICTED BY IDOCK:   -0.21 KCAL/MOL
REMARK 927      BINDING AFFINITY PREDICTED BY RF-SCORE:    0.00 PKD
ROOT
HETATM    1  C   UNL     1      -6.909   8.351  72.292  1.00  0.00    -0.089 C  
HETATM    2  N   UNL     1      -8.198   8.910  71.905  1.00  0.00    -0.367 NA 
HETATM    3  H   UNL     1      -8.489   9.632  72.564  1.00  0.00     0.000 HD 
ENDROOT
BRANCH   2   4
HETATM    4  C   UNL     1      -8.234   9.425  70.522  1.00  0.00    -0.189 C  
HETATM    5  C   UNL     1      -6.823   9.625  69.956  1.00  0.00    -0.085 C  
BRANCH   4   6
HETATM    6  C   UNL     1      -9.006   8.456  69.579  1.00  0.00    -0.149 C  
BRANCH   6   7
HETATM    7  C   UNL     1      -9.506   9.065  68.286  1.00  0.00    -0.156 A  
HETATM    8  C   UNL     1      -8.986   8.516  67.092  1.00  0.00    -0.145 A  
HETATM    9  C   UNL     1      -9.323   9.027  65.841  1.00  0.00    -0.306 A  
HETATM   10  C   UNL     1     -10.185  10.111  65.755  1.00  0.00    -0.283 A  
HETATM   11  C   UNL     1     -10.698  10.677  66.924  1.00  0.00    -0.297 A  
HETATM   12  C   UNL     1     -10.373  10.163  68.190  1.00  0.00    -0.185 A  
BRANCH  12  13
HETATM   13  O   UNL     1     -10.850  10.925  69.222  1.00  0.00    -0.214 OA 
HETATM   14  C   UNL     1     -12.258  11.047  69.339  1.00  0.00    -0.259 C  
ENDBRANCH  12  13
ENDBRANCH   6   7
ENDBRANCH   4   6
ENDBRANCH   2   4
TORSDOF 4
ENDMDL
MODEL      275
REMARK 921   NORMALIZED FREE ENERGY PREDICTED BY IDOCK:   -2.14 KCAL/MOL
REMARK 922        TOTAL FREE ENERGY PREDICTED BY IDOCK:   -2.88 KCAL/MOL
REMARK 923 INTER-LIGAND FREE ENERGY PREDICTED BY IDOCK:   -2.40 KCAL/MOL
REMARK 924 INTRA-LIGAND FREE ENERGY PREDICTED BY IDOCK:   -0.48 KCAL/MOL
REMARK 927      BINDING AFFINITY PREDICTED BY RF-SCORE:    0.00 PKD
ROOT
HETATM    1  C   UNL     1      -6.901   9.264  70.862  1.00  0.00    -0.103 C  
HETATM    2  N   UNL     1      -6.586   7.845  70.972  1.00  0.00    -0.037 NA 
HETATM    3  H   UNL     1      -5.585   7.690  70.859  1.00  0.00     0.000 HD 
ENDROOT
BRANCH   2   4
HETATM    4  C   UNL     1      -7.072   7.220  72.219  1.00  0.00    -0.067 C  
HETATM    5  C   UNL     1      -7.810   8.229  73.106  1.00  0.00    -0.189 C  
BRANCH   4   6
HETATM    6  C   UNL     1      -8.036   6.036  71.918  1.00  0.00    -0.107 C  
BRANCH   6   7
HETATM    7  C   UNL     1      -9.457   6.425  71.569  1.00  0.00    -0.162 A  
HETATM    8  C   UNL     1     -10.442   6.142  72.543  1.00  0.00    -0.228 A  
HETATM    9  C   UNL     1     -11.793   6.398  72.317  1.00  0.00    -0.315 A  
HETATM   10  C   UNL     1     -12.193   6.938  71.103  1.00  0.00    -0.428 A  
HETATM   11  C   UNL     1     -11.237   7.211  70.122  1.00  0.00    -0.295 A  
HETATM   12  C   UNL     1      -9.871   6.967  70.343  1.00  0.00    -0.179 A  
BRANCH  12  13
HETATM   13  O   UNL     1      -9.100   7.161  69.230  1.00  0.00    -0.139 OA 
HETATM   14  C   UNL     1      -9.653   7.948  68.189  1.00  0.00    -0.152 C  
ENDBRANCH  12  13
ENDBRANCH   6   7
ENDBRANCH   4   6
ENDBRANCH   2   4
TORSDOF 4
ENDMDL
MODEL      276
REMARK 921   NORMALIZED FREE ENERGY PREDICTED BY IDOCK:   -2.14 KCAL/MOL
REMARK 922        TOTAL FREE ENERGY PREDICTED BY IDOCK:   -2.88 KCAL/MOL
REMARK 923 INTER-LIGAND FREE ENERGY PREDICTED BY IDOCK:   -2.92 KCAL/MOL
REMARK 924 INTRA-LIGAND FREE ENERGY PREDICTED BY IDOCK:    0.05 KCAL/MOL
REMARK 927      BINDING AFFINITY PREDICTED BY RF-SCORE:    0.00 PKD
ROOT
HETATM    1  C   UNL     1     -10.614   8.416  67.227  1.00  0.00    -0.257 C  
HETATM    2  N   UNL     1     -10.895   8.308  68.653  1.00  0.00    -0.428 NA 
HETATM    3  H   UNL     1     -10.956   7.329  68.933  1.00  0.00     0.000 HD 
ENDROOT
BRANCH   2   4
HETATM    4  C   UNL     1      -9.936   9.034  69.507  1.00  0.00    -0.191 C  
HETATM    5  C   UNL     1     -10.567   9.447  70.842  1.00  0.00    -0.390 C  
BRANCH   4   6
HETATM    6  C   UNL     1      -8.679   8.166  69.809  1.00  0.00    -0.135 C  
BRANCH   6   7
HETATM    7  C   UNL     1      -8.947   6.857  70.521  1.00  0.00    -0.155 A  
HETATM    8  C   UNL     1      -9.642   5.872  69.782  1.00  0.00    -0.189 A  
HETATM    9  C   UNL     1      -9.999   4.648  70.343  1.00  0.00    -0.300 A  
HETATM   10  C   UNL     1      -9.677   4.384  71.667  1.00  0.00    -0.238 A  
HETATM   11  C   UNL     1      -9.004   5.350  72.418  1.00  0.00    -0.139 A  
HETATM   12  C   UNL     1      -8.629   6.582  71.859  1.00  0.00    -0.129 A  
BRANCH  12  13
HETATM   13  O   UNL     1      -8.107   7.456  72.774  1.00  0.00    -0.099 OA 
HETATM   14  C   UNL     1      -8.888   7.728  73.926  1.00  0.00    -0.272 C  
ENDBRANCH  12  13
ENDBRANCH   6   7
ENDBRANCH   4   6
ENDBRANCH   2   4
TORSDOF 4
ENDMDL
MODEL      277
REMARK 921   NORMALIZED FREE ENERGY PREDICTED BY IDOCK:   -2.14 KCAL/MOL
REMARK 922        TOTAL FREE ENERGY PREDICTED BY IDOCK:   -2.87 KCAL/MOL
REMARK 923 INTER-LIGAND FREE ENERGY PREDICTED BY IDOCK:   -2.57 KCAL/MOL
REMARK 924 INTRA-LIGAND FREE ENERGY PREDICTED BY IDOCK:   -0.30 KCAL/MOL
REMARK 927      BINDING AFFINITY PREDICTED BY RF-SCORE:    0.00 PKD
ROOT
HETATM    1  C   UNL     1     -10.616   6.323  66.963  1.00  0.00    -0.318 C  
HETATM    2  N   UNL     1     -11.496   6.454  68.118  1.00  0.00    -0.551 NA 
HETATM    3  H   UNL     1     -12.141   5.665  68.169  1.00  0.00     0.000 HD 
ENDROOT
BRANCH   2   4
HETATM    4  C   UNL     1     -10.780   6.621  69.398  1.00  0.00    -0.259 C  
HETATM    5  C   UNL     1     -11.425   7.705  70.269  1.00  0.00    -0.144 C  
BRANCH   4   6
HETATM    6  C   UNL     1     -10.755   5.293  70.209  1.00  0.00    -0.221 C  
BRANCH   6   7
HETATM    7  C   UNL     1      -9.755   5.240  71.344  1.00  0.00    -0.219 A  
HETATM    8  C   UNL     1      -8.391   5.326  70.982  1.00  0.00    -0.121 A  
HETATM    9  C   UNL     1      -7.373   5.231  71.928  1.00  0.00    -0.087 A  
HETATM   10  C   UNL     1      -7.697   5.037  73.264  1.00  0.00    -0.093 A  
HETATM   11  C   UNL     1      -9.038   4.935  73.640  1.00  0.00    -0.119 A  
HETATM   12  C   UNL     1     -10.073   5.041  72.696  1.00  0.00    -0.182 A  
BRANCH  12  13
HETATM   13  O   UNL     1     -11.310   4.777  73.217  1.00  0.00    -0.319 OA 
HETATM   14  C   UNL     1     -11.636   3.417  73.452  1.00  0.00     0.064 C  
ENDBRANCH  12  13
ENDBRANCH   6   7
ENDBRANCH   4   6
ENDBRANCH   2   4
TORSDOF 4
ENDMDL
MODEL      278
REMARK 921   NORMALIZED FREE ENERGY PREDICTED BY IDOCK:   -2.13 KCAL/MOL
REMARK 922        TOTAL FREE ENERGY PREDICTED BY IDOCK:   -2.87 KCAL/MOL
REMARK 923 INTER-LIGAND FREE ENERGY PREDICTED BY IDOCK:   -2.78 KCAL/MOL
REMARK 924 INTRA-LIGAND FREE ENERGY PREDICTED BY IDOCK:   -0.09 KCAL/MOL
REMARK 927      BINDING AFFINITY PREDICTED BY RF-SCORE:    0.00 PKD
ROOT
HETATM    1  C   UNL     1      -9.568   5.200  71.010  1.00  0.00    -0.171 C  
HETATM    2  N   UNL     1     -10.509   5.861  70.114  1.00  0.00    -0.238 NA 
HETATM    3  H   UNL     1     -11.101   5.175  69.646  1.00  0.00     0.000 HD 
ENDROOT
BRANCH   2   4
HETATM    4  C   UNL     1     -11.333   6.895  70.771  1.00  0.00    -0.310 C  
HETATM    5  C   UNL     1     -12.095   6.330  71.976  1.00  0.00    -0.321 C  
BRANCH   4   6
HETATM    6  C   UNL     1     -10.458   8.086  71.261  1.00  0.00    -0.238 C  
BRANCH   6   7
HETATM    7  C   UNL     1      -9.924   8.994  70.174  1.00  0.00    -0.216 A  
HETATM    8  C   UNL     1      -8.771   8.543  69.491  1.00  0.00    -0.136 A  
HETATM    9  C   UNL     1      -8.150   9.314  68.511  1.00  0.00    -0.106 A  
HETATM   10  C   UNL     1      -8.665  10.563  68.195  1.00  0.00    -0.130 A  
HETATM   11  C   UNL     1      -9.795  11.033  68.869  1.00  0.00    -0.189 A  
HETATM   12  C   UNL     1     -10.435  10.259  69.851  1.00  0.00    -0.256 A  
BRANCH  12  13
HETATM   13  O   UNL     1     -11.435  10.931  70.502  1.00  0.00    -0.312 OA 
HETATM   14  C   UNL     1     -12.768  10.631  70.124  1.00  0.00    -0.159 C  
ENDBRANCH  12  13
ENDBRANCH   6   7
ENDBRANCH   4   6
ENDBRANCH   2   4
TORSDOF 4
ENDMDL
MODEL      279
REMARK 921   NORMALIZED FREE ENERGY PREDICTED BY IDOCK:   -2.12 KCAL/MOL
REMARK 922        TOTAL FREE ENERGY PREDICTED BY IDOCK:   -2.85 KCAL/MOL
REMARK 923 INTER-LIGAND FREE ENERGY PREDICTED BY IDOCK:   -2.72 KCAL/MOL
REMARK 924 INTRA-LIGAND FREE ENERGY PREDICTED BY IDOCK:   -0.13 KCAL/MOL
REMARK 927      BINDING AFFINITY PREDICTED BY RF-SCORE:    0.00 PKD
ROOT
HETATM    1  C   UNL     1      -9.472   4.219  71.443  1.00  0.00    -0.158 C  
HETATM    2  N   UNL     1     -10.339   5.329  71.067  1.00  0.00    -0.233 NA 
HETATM    3  H   UNL     1     -10.796   5.140  70.175  1.00  0.00     0.000 HD 
ENDROOT
BRANCH   2   4
HETATM    4  C   UNL     1     -11.336   5.682  72.097  1.00  0.00    -0.214 C  
HETATM    5  C   UNL     1     -11.281   4.722  73.291  1.00  0.00    -0.421 C  
BRANCH   4   6
HETATM    6  C   UNL     1     -11.115   7.130  72.623  1.00  0.00    -0.330 C  
BRANCH   6   7
HETATM    7  C   UNL     1      -9.679   7.610  72.626  1.00  0.00    -0.251 A  
HETATM    8  C   UNL     1      -8.857   7.122  73.666  1.00  0.00    -0.203 A  
HETATM    9  C   UNL     1      -7.534   7.534  73.812  1.00  0.00    -0.129 A  
HETATM   10  C   UNL     1      -7.004   8.457  72.922  1.00  0.00    -0.103 A  
HETATM   11  C   UNL     1      -7.805   8.963  71.896  1.00  0.00     0.022 A  
HETATM   12  C   UNL     1      -9.136   8.545  71.733  1.00  0.00    -0.235 A  
BRANCH  12  13
HETATM   13  O   UNL     1      -9.809   9.246  70.769  1.00  0.00    -0.243 OA 
HETATM   14  C   UNL     1      -9.028   9.963  69.827  1.00  0.00    -0.221 C  
ENDBRANCH  12  13
ENDBRANCH   6   7
ENDBRANCH   4   6
ENDBRANCH   2   4
TORSDOF 4
ENDMDL
MODEL      280
REMARK 921   NORMALIZED FREE ENERGY PREDICTED BY IDOCK:   -2.11 KCAL/MOL
REMARK 922        TOTAL FREE ENERGY PREDICTED BY IDOCK:   -2.84 KCAL/MOL
REMARK 923 INTER-LIGAND FREE ENERGY PREDICTED BY IDOCK:   -2.61 KCAL/MOL
REMARK 924 INTRA-LIGAND FREE ENERGY PREDICTED BY IDOCK:   -0.23 KCAL/MOL
REMARK 927      BINDING AFFINITY PREDICTED BY RF-SCORE:    0.00 PKD
ROOT
HETATM    1  C   UNL     1      -9.950   2.844  72.316  1.00  0.00    -0.168 C  
HETATM    2  N   UNL     1     -10.738   4.011  72.694  1.00  0.00    -0.107 NA 
HETATM    3  H   UNL     1     -11.712   3.751  72.847  1.00  0.00     0.000 HD 
ENDROOT
BRANCH   2   4
HETATM    4  C   UNL     1     -10.204   4.739  73.862  1.00  0.00    -0.207 C  
HETATM    5  C   UNL     1      -8.764   4.318  74.181  1.00  0.00    -0.096 C  
BRANCH   4   6
HETATM    6  C   UNL     1     -10.222   6.277  73.625  1.00  0.00    -0.267 C  
BRANCH   6   7
HETATM    7  C   UNL     1     -10.249   6.713  72.175  1.00  0.00    -0.209 A  
HETATM    8  C   UNL     1      -8.998   6.797  71.523  1.00  0.00    -0.137 A  
HETATM    9  C   UNL     1      -8.884   7.241  70.208  1.00  0.00    -0.147 A  
HETATM   10  C   UNL     1     -10.024   7.624  69.514  1.00  0.00    -0.182 A  
HETATM   11  C   UNL     1     -11.267   7.562  70.146  1.00  0.00    -0.213 A  
HETATM   12  C   UNL     1     -11.395   7.105  71.468  1.00  0.00    -0.255 A  
BRANCH  12  13
HETATM   13  O   UNL     1     -12.660   7.246  71.969  1.00  0.00    -0.288 OA 
HETATM   14  C   UNL     1     -13.085   8.559  72.295  1.00  0.00    -0.334 C  
ENDBRANCH  12  13
ENDBRANCH   6   7
ENDBRANCH   4   6
ENDBRANCH   2   4
TORSDOF 4
ENDMDL
MODEL      281
REMARK 921   NORMALIZED FREE ENERGY PREDICTED BY IDOCK:   -2.09 KCAL/MOL
REMARK 922        TOTAL FREE ENERGY PREDICTED BY IDOCK:   -2.82 KCAL/MOL
REMARK 923 INTER-LIGAND FREE ENERGY PREDICTED BY IDOCK:   -2.98 KCAL/MOL
REMARK 924 INTRA-LIGAND FREE ENERGY PREDICTED BY IDOCK:    0.17 KCAL/MOL
REMARK 927      BINDING AFFINITY PREDICTED BY RF-SCORE:    0.00 PKD
ROOT
HETATM    1  C   UNL     1     -10.274   1.507  72.863  1.00  0.00    -0.113 C  
HETATM    2  N   UNL     1      -8.869   1.891  72.912  1.00  0.00    -0.062 NA 
HETATM    3  H   UNL     1      -8.314   1.302  72.291  1.00  0.00     0.000 HD 
ENDROOT
BRANCH   2   4
HETATM    4  C   UNL     1      -8.630   3.319  72.624  1.00  0.00    -0.084 C  
HETATM    5  C   UNL     1      -7.158   3.697  72.820  1.00  0.00    -0.045 C  
BRANCH   4   6
HETATM    6  C   UNL     1      -9.036   3.675  71.164  1.00  0.00    -0.159 C  
BRANCH   6   7
HETATM    7  C   UNL     1     -10.102   4.741  71.025  1.00  0.00    -0.269 A  
HETATM    8  C   UNL     1     -10.405   5.157  69.708  1.00  0.00    -0.332 A  
HETATM    9  C   UNL     1     -11.324   6.171  69.451  1.00  0.00    -0.401 A  
HETATM   10  C   UNL     1     -11.959   6.803  70.511  1.00  0.00    -0.385 A  
HETATM   11  C   UNL     1     -11.663   6.417  71.820  1.00  0.00    -0.376 A  
HETATM   12  C   UNL     1     -10.745   5.388  72.090  1.00  0.00    -0.227 A  
BRANCH  12  13
HETATM   13  O   UNL     1     -10.474   5.241  73.423  1.00  0.00    -0.193 OA 
HETATM   14  C   UNL     1     -10.055   6.397  74.129  1.00  0.00    -0.335 C  
ENDBRANCH  12  13
ENDBRANCH   6   7
ENDBRANCH   4   6
ENDBRANCH   2   4
TORSDOF 4
ENDMDL
MODEL      282
REMARK 921   NORMALIZED FREE ENERGY PREDICTED BY IDOCK:   -2.08 KCAL/MOL
REMARK 922        TOTAL FREE ENERGY PREDICTED BY IDOCK:   -2.81 KCAL/MOL
REMARK 923 INTER-LIGAND FREE ENERGY PREDICTED BY IDOCK:   -2.58 KCAL/MOL
REMARK 924 INTRA-LIGAND FREE ENERGY PREDICTED BY IDOCK:   -0.22 KCAL/MOL
REMARK 927      BINDING AFFINITY PREDICTED BY RF-SCORE:    0.00 PKD
ROOT
HETATM    1  C   UNL     1     -11.739   6.597  72.030  1.00  0.00    -0.313 C  
HETATM    2  N   UNL     1     -11.088   5.858  70.955  1.00  0.00    -0.271 NA 
HETATM    3  H   UNL     1     -11.710   5.138  70.588  1.00  0.00     0.000 HD 
ENDROOT
BRANCH   2   4
HETATM    4  C   UNL     1     -10.584   6.714  69.863  1.00  0.00    -0.226 C  
HETATM    5  C   UNL     1     -11.149   6.288  68.503  1.00  0.00    -0.397 C  
BRANCH   4   6
HETATM    6  C   UNL     1     -10.953   8.207  70.100  1.00  0.00    -0.223 C  
BRANCH   6   7
HETATM    7  C   UNL     1      -9.878   9.210  69.740  1.00  0.00    -0.192 A  
HETATM    8  C   UNL     1     -10.211  10.159  68.746  1.00  0.00    -0.200 A  
HETATM    9  C   UNL     1      -9.290  11.097  68.287  1.00  0.00    -0.176 A  
HETATM   10  C   UNL     1      -8.003  11.102  68.807  1.00  0.00    -0.144 A  
HETATM   11  C   UNL     1      -7.649  10.164  69.779  1.00  0.00    -0.175 A  
HETATM   12  C   UNL     1      -8.574   9.221  70.257  1.00  0.00    -0.210 A  
BRANCH  12  13
HETATM   13  O   UNL     1      -8.018   8.296  71.098  1.00  0.00    -0.086 OA 
HETATM   14  C   UNL     1      -7.761   8.705  72.432  1.00  0.00     0.030 C  
ENDBRANCH  12  13
ENDBRANCH   6   7
ENDBRANCH   4   6
ENDBRANCH   2   4
TORSDOF 4
ENDMDL
MODEL      283
REMARK 921   NORMALIZED FREE ENERGY PREDICTED BY IDOCK:   -2.08 KCAL/MOL
REMARK 922        TOTAL FREE ENERGY PREDICTED BY IDOCK:   -2.80 KCAL/MOL
REMARK 923 INTER-LIGAND FREE ENERGY PREDICTED BY IDOCK:   -2.65 KCAL/MOL
REMARK 924 INTRA-LIGAND FREE ENERGY PREDICTED BY IDOCK:   -0.15 KCAL/MOL
REMARK 927      BINDING AFFINITY PREDICTED BY RF-SCORE:    0.00 PKD
ROOT
HETATM    1  C   UNL     1     -12.417  10.995  70.418  1.00  0.00    -0.313 C  
HETATM    2  N   UNL     1     -11.105  11.278  69.849  1.00  0.00    -0.460 NA 
HETATM    3  H   UNL     1     -10.493  10.467  69.939  1.00  0.00     0.000 HD 
ENDROOT
BRANCH   2   4
HETATM    4  C   UNL     1     -11.148  11.743  68.449  1.00  0.00    -0.237 C  
HETATM    5  C   UNL     1     -10.140  12.869  68.195  1.00  0.00    -0.240 C  
BRANCH   4   6
HETATM    6  C   UNL     1     -10.843  10.581  67.459  1.00  0.00    -0.357 C  
BRANCH   6   7
HETATM    7  C   UNL     1     -10.018   9.444  68.024  1.00  0.00    -0.209 A  
HETATM    8  C   UNL     1     -10.737   8.323  68.498  1.00  0.00    -0.065 A  
HETATM    9  C   UNL     1     -10.097   7.238  69.093  1.00  0.00    -0.183 A  
HETATM   10  C   UNL     1      -8.717   7.253  69.237  1.00  0.00    -0.137 A  
HETATM   11  C   UNL     1      -7.990   8.357  68.788  1.00  0.00    -0.120 A  
HETATM   12  C   UNL     1      -8.624   9.452  68.176  1.00  0.00    -0.120 A  
BRANCH  12  13
HETATM   13  O   UNL     1      -7.777  10.498  67.930  1.00  0.00    -0.091 OA 
HETATM   14  C   UNL     1      -7.206  11.147  69.053  1.00  0.00    -0.118 C  
ENDBRANCH  12  13
ENDBRANCH   6   7
ENDBRANCH   4   6
ENDBRANCH   2   4
TORSDOF 4
ENDMDL
MODEL      284
REMARK 921   NORMALIZED FREE ENERGY PREDICTED BY IDOCK:   -2.08 KCAL/MOL
REMARK 922        TOTAL FREE ENERGY PREDICTED BY IDOCK:   -2.80 KCAL/MOL
REMARK 923 INTER-LIGAND FREE ENERGY PREDICTED BY IDOCK:   -2.57 KCAL/MOL
REMARK 924 INTRA-LIGAND FREE ENERGY PREDICTED BY IDOCK:   -0.23 KCAL/MOL
REMARK 927      BINDING AFFINITY PREDICTED BY RF-SCORE:    0.00 PKD
ROOT
HETATM    1  C   UNL     1      -6.281   9.086  72.350  1.00  0.00     0.036 C  
HETATM    2  N   UNL     1      -7.695   8.838  72.605  1.00  0.00    -0.368 NA 
HETATM    3  H   UNL     1      -8.086   9.570  73.198  1.00  0.00     0.000 HD 
ENDROOT
BRANCH   2   4
HETATM    4  C   UNL     1      -8.503   8.677  71.379  1.00  0.00    -0.188 C  
HETATM    5  C   UNL     1      -8.063   9.651  70.280  1.00  0.00    -0.206 C  
BRANCH   4   6
HETATM    6  C   UNL     1      -8.397   7.229  70.820  1.00  0.00    -0.124 C  
BRANCH   6   7
HETATM    7  C   UNL     1      -9.289   6.919  69.637  1.00  0.00    -0.145 A  
HETATM    8  C   UNL     1      -8.638   6.511  68.450  1.00  0.00    -0.119 A  
HETATM    9  C   UNL     1      -9.343   6.254  67.277  1.00  0.00    -0.123 A  
HETATM   10  C   UNL     1     -10.722   6.410  67.260  1.00  0.00    -0.426 A  
HETATM   11  C   UNL     1     -11.383   6.826  68.418  1.00  0.00    -0.033 A  
HETATM   12  C   UNL     1     -10.683   7.077  69.610  1.00  0.00    -0.241 A  
BRANCH  12  13
HETATM   13  O   UNL     1     -11.467   7.610  70.596  1.00  0.00    -0.282 OA 
HETATM   14  C   UNL     1     -12.078   6.702  71.498  1.00  0.00    -0.355 C  
ENDBRANCH  12  13
ENDBRANCH   6   7
ENDBRANCH   4   6
ENDBRANCH   2   4
TORSDOF 4
ENDMDL
MODEL      285
REMARK 921   NORMALIZED FREE ENERGY PREDICTED BY IDOCK:   -2.06 KCAL/MOL
REMARK 922        TOTAL FREE ENERGY PREDICTED BY IDOCK:   -2.78 KCAL/MOL
REMARK 923 INTER-LIGAND FREE ENERGY PREDICTED BY IDOCK:   -2.65 KCAL/MOL
REMARK 924 INTRA-LIGAND FREE ENERGY PREDICTED BY IDOCK:   -0.13 KCAL/MOL
REMARK 927      BINDING AFFINITY PREDICTED BY RF-SCORE:    0.00 PKD
ROOT
HETATM    1  C   UNL     1      -6.600   8.551  72.468  1.00  0.00    -0.078 C  
HETATM    2  N   UNL     1      -8.026   8.590  72.766  1.00  0.00    -0.367 NA 
HETATM    3  H   UNL     1      -8.268   9.453  73.252  1.00  0.00     0.000 HD 
ENDROOT
BRANCH   2   4
HETATM    4  C   UNL     1      -8.889   8.400  71.583  1.00  0.00    -0.186 C  
HETATM    5  C   UNL     1     -10.345   8.779  71.878  1.00  0.00    -0.414 C  
BRANCH   4   6
HETATM    6  C   UNL     1      -8.395   9.258  70.382  1.00  0.00    -0.224 C  
BRANCH   6   7
HETATM    7  C   UNL     1      -8.940   8.859  69.027  1.00  0.00    -0.137 A  
HETATM    8  C   UNL     1      -9.312   7.503  68.876  1.00  0.00    -0.142 A  
HETATM    9  C   UNL     1      -9.772   6.999  67.662  1.00  0.00    -0.163 A  
HETATM   10  C   UNL     1      -9.862   7.841  66.562  1.00  0.00    -0.255 A  
HETATM   11  C   UNL     1      -9.486   9.180  66.687  1.00  0.00    -0.242 A  
HETATM   12  C   UNL     1      -9.031   9.701  67.910  1.00  0.00    -0.118 A  
BRANCH  12  13
HETATM   13  O   UNL     1      -8.574  10.987  67.813  1.00  0.00    -0.126 OA 
HETATM   14  C   UNL     1      -9.448  12.018  68.241  1.00  0.00    -0.199 C  
ENDBRANCH  12  13
ENDBRANCH   6   7
ENDBRANCH   4   6
ENDBRANCH   2   4
TORSDOF 4
ENDMDL
MODEL      286
REMARK 921   NORMALIZED FREE ENERGY PREDICTED BY IDOCK:   -2.06 KCAL/MOL
REMARK 922        TOTAL FREE ENERGY PREDICTED BY IDOCK:   -2.77 KCAL/MOL
REMARK 923 INTER-LIGAND FREE ENERGY PREDICTED BY IDOCK:   -2.48 KCAL/MOL
REMARK 924 INTRA-LIGAND FREE ENERGY PREDICTED BY IDOCK:   -0.29 KCAL/MOL
REMARK 927      BINDING AFFINITY PREDICTED BY RF-SCORE:    0.00 PKD
ROOT
HETATM    1  C   UNL     1      -7.559  12.923  68.762  1.00  0.00    -0.025 C  
HETATM    2  N   UNL     1      -8.133  12.237  67.611  1.00  0.00    -0.153 NA 
HETATM    3  H   UNL     1      -7.555  12.381  66.783  1.00  0.00     0.000 HD 
ENDROOT
BRANCH   2   4
HETATM    4  C   UNL     1      -8.373  10.797  67.833  1.00  0.00    -0.117 C  
HETATM    5  C   UNL     1      -7.734   9.942  66.733  1.00  0.00    -0.099 C  
BRANCH   4   6
HETATM    6  C   UNL     1      -7.803  10.335  69.205  1.00  0.00    -0.142 C  
BRANCH   6   7
HETATM    7  C   UNL     1      -8.815   9.754  70.169  1.00  0.00    -0.226 A  
HETATM    8  C   UNL     1     -10.139  10.238  70.056  1.00  0.00    -0.167 A  
HETATM    9  C   UNL     1     -11.148   9.825  70.922  1.00  0.00    -0.428 A  
HETATM   10  C   UNL     1     -10.854   8.921  71.934  1.00  0.00    -0.433 A  
HETATM   11  C   UNL     1      -9.550   8.442  72.071  1.00  0.00    -0.344 A  
HETATM   12  C   UNL     1      -8.526   8.843  71.196  1.00  0.00    -0.198 A  
BRANCH  12  13
HETATM   13  O   UNL     1      -7.290   8.387  71.565  1.00  0.00    -0.079 OA 
HETATM   14  C   UNL     1      -7.245   7.246  72.404  1.00  0.00    -0.071 C  
ENDBRANCH  12  13
ENDBRANCH   6   7
ENDBRANCH   4   6
ENDBRANCH   2   4
TORSDOF 4
ENDMDL
MODEL      287
REMARK 921   NORMALIZED FREE ENERGY PREDICTED BY IDOCK:   -2.04 KCAL/MOL
REMARK 922        TOTAL FREE ENERGY PREDICTED BY IDOCK:   -2.75 KCAL/MOL
REMARK 923 INTER-LIGAND FREE ENERGY PREDICTED BY IDOCK:   -2.58 KCAL/MOL
REMARK 924 INTRA-LIGAND FREE ENERGY PREDICTED BY IDOCK:   -0.17 KCAL/MOL
REMARK 927      BINDING AFFINITY PREDICTED BY RF-SCORE:    0.00 PKD
ROOT
HETATM    1  C   UNL     1     -12.679   8.196  71.706  1.00  0.00    -0.330 C  
HETATM    2  N   UNL     1     -12.710   6.831  72.214  1.00  0.00    -0.543 NA 
HETATM    3  H   UNL     1     -13.423   6.284  71.732  1.00  0.00     0.000 HD 
ENDROOT
BRANCH   2   4
HETATM    4  C   UNL     1     -11.405   6.143  72.161  1.00  0.00    -0.299 C  
HETATM    5  C   UNL     1     -10.252   7.134  71.963  1.00  0.00    -0.209 C  
BRANCH   4   6
HETATM    6  C   UNL     1     -11.138   5.337  73.465  1.00  0.00    -0.316 C  
BRANCH   6   7
HETATM    7  C   UNL     1      -9.788   4.656  73.546  1.00  0.00    -0.167 A  
HETATM    8  C   UNL     1      -8.830   5.261  74.392  1.00  0.00    -0.117 A  
HETATM    9  C   UNL     1      -7.534   4.764  74.507  1.00  0.00    -0.085 A  
HETATM   10  C   UNL     1      -7.161   3.650  73.768  1.00  0.00    -0.056 A  
HETATM   11  C   UNL     1      -8.089   3.046  72.916  1.00  0.00    -0.067 A  
HETATM   12  C   UNL     1      -9.402   3.533  72.801  1.00  0.00    -0.108 A  
BRANCH  12  13
HETATM   13  O   UNL     1     -10.125   2.910  71.821  1.00  0.00    -0.151 OA 
HETATM   14  C   UNL     1      -9.537   1.776  71.205  1.00  0.00    -0.136 C  
ENDBRANCH  12  13
ENDBRANCH   6   7
ENDBRANCH   4   6
ENDBRANCH   2   4
TORSDOF 4
ENDMDL
MODEL      288
REMARK 921   NORMALIZED FREE ENERGY PREDICTED BY IDOCK:   -2.03 KCAL/MOL
REMARK 922        TOTAL FREE ENERGY PREDICTED BY IDOCK:   -2.75 KCAL/MOL
REMARK 923 INTER-LIGAND FREE ENERGY PREDICTED BY IDOCK:   -2.39 KCAL/MOL
REMARK 924 INTRA-LIGAND FREE ENERGY PREDICTED BY IDOCK:   -0.36 KCAL/MOL
REMARK 927      BINDING AFFINITY PREDICTED BY RF-SCORE:    0.00 PKD
ROOT
HETATM    1  C   UNL     1      -8.343   2.913  67.554  1.00  0.00    -0.084 C  
HETATM    2  N   UNL     1      -8.689   4.191  68.165  1.00  0.00    -0.096 NA 
HETATM    3  H   UNL     1      -8.700   4.932  67.465  1.00  0.00     0.000 HD 
ENDROOT
BRANCH   2   4
HETATM    4  C   UNL     1      -9.958   4.168  68.918  1.00  0.00     0.099 C  
HETATM    5  C   UNL     1      -9.742   3.755  70.379  1.00  0.00    -0.225 C  
BRANCH   4   6
HETATM    6  C   UNL     1     -10.648   5.563  68.902  1.00  0.00    -0.258 C  
BRANCH   6   7
HETATM    7  C   UNL     1     -10.391   6.432  70.115  1.00  0.00    -0.245 A  
HETATM    8  C   UNL     1     -11.520   6.763  70.900  1.00  0.00    -0.384 A  
HETATM    9  C   UNL     1     -11.423   7.602  72.007  1.00  0.00    -0.327 A  
HETATM   10  C   UNL     1     -10.191   8.141  72.352  1.00  0.00    -0.368 A  
HETATM   11  C   UNL     1      -9.067   7.838  71.580  1.00  0.00    -0.163 A  
HETATM   12  C   UNL     1      -9.151   6.984  70.468  1.00  0.00    -0.156 A  
BRANCH  12  13
HETATM   13  O   UNL     1      -7.988   6.913  69.752  1.00  0.00    -0.119 OA 
HETATM   14  C   UNL     1      -6.826   6.488  70.445  1.00  0.00    -0.062 C  
ENDBRANCH  12  13
ENDBRANCH   6   7
ENDBRANCH   4   6
ENDBRANCH   2   4
TORSDOF 4
ENDMDL
MODEL      289
REMARK 921   NORMALIZED FREE ENERGY PREDICTED BY IDOCK:   -2.01 KCAL/MOL
REMARK 922        TOTAL FREE ENERGY PREDICTED BY IDOCK:   -2.71 KCAL/MOL
REMARK 923 INTER-LIGAND FREE ENERGY PREDICTED BY IDOCK:   -2.29 KCAL/MOL
REMARK 924 INTRA-LIGAND FREE ENERGY PREDICTED BY IDOCK:   -0.43 KCAL/MOL
REMARK 927      BINDING AFFINITY PREDICTED BY RF-SCORE:    0.00 PKD
ROOT
HETATM    1  C   UNL     1     -10.032   6.803  70.404  1.00  0.00    -0.179 C  
HETATM    2  N   UNL     1     -10.165   6.307  69.040  1.00  0.00    -0.170 NA 
HETATM    3  H   UNL     1     -10.808   6.892  68.506  1.00  0.00     0.000 HD 
ENDROOT
BRANCH   2   4
HETATM    4  C   UNL     1      -8.879   6.165  68.328  1.00  0.00    -0.112 C  
HETATM    5  C   UNL     1      -8.179   4.848  68.683  1.00  0.00    -0.084 C  
BRANCH   4   6
HETATM    6  C   UNL     1      -9.080   6.212  66.786  1.00  0.00    -0.137 C  
BRANCH   6   7
HETATM    7  C   UNL     1      -8.899   7.572  66.146  1.00  0.00    -0.185 A  
HETATM    8  C   UNL     1      -7.842   7.691  65.214  1.00  0.00    -0.122 A  
HETATM    9  C   UNL     1      -7.536   8.903  64.601  1.00  0.00    -0.108 A  
HETATM   10  C   UNL     1      -8.278  10.034  64.915  1.00  0.00    -0.154 A  
HETATM   11  C   UNL     1      -9.317   9.941  65.843  1.00  0.00    -0.245 A  
HETATM   12  C   UNL     1      -9.641   8.720  66.459  1.00  0.00    -0.237 A  
BRANCH  12  13
HETATM   13  O   UNL     1     -10.586   8.844  67.440  1.00  0.00    -0.277 OA 
HETATM   14  C   UNL     1     -10.946  10.159  67.830  1.00  0.00    -0.277 C  
ENDBRANCH  12  13
ENDBRANCH   6   7
ENDBRANCH   4   6
ENDBRANCH   2   4
TORSDOF 4
ENDMDL
MODEL      290
REMARK 921   NORMALIZED FREE ENERGY PREDICTED BY IDOCK:   -2.01 KCAL/MOL
REMARK 922        TOTAL FREE ENERGY PREDICTED BY IDOCK:   -2.71 KCAL/MOL
REMARK 923 INTER-LIGAND FREE ENERGY PREDICTED BY IDOCK:   -2.42 KCAL/MOL
REMARK 924 INTRA-LIGAND FREE ENERGY PREDICTED BY IDOCK:   -0.29 KCAL/MOL
REMARK 927      BINDING AFFINITY PREDICTED BY RF-SCORE:    0.00 PKD
ROOT
HETATM    1  C   UNL     1      -6.593  11.337  66.712  1.00  0.00    -0.140 C  
HETATM    2  N   UNL     1      -8.037  11.534  66.702  1.00  0.00    -0.212 NA 
HETATM    3  H   UNL     1      -8.291  12.295  66.072  1.00  0.00     0.000 HD 
ENDROOT
BRANCH   2   4
HETATM    4  C   UNL     1      -8.804  10.315  66.377  1.00  0.00    -0.145 C  
HETATM    5  C   UNL     1      -8.662   9.934  64.899  1.00  0.00    -0.198 C  
BRANCH   4   6
HETATM    6  C   UNL     1      -8.335   9.107  67.240  1.00  0.00    -0.121 C  
BRANCH   6   7
HETATM    7  C   UNL     1      -9.441   8.255  67.826  1.00  0.00    -0.171 A  
HETATM    8  C   UNL     1      -9.931   8.648  69.092  1.00  0.00    -0.193 A  
HETATM    9  C   UNL     1     -10.907   7.914  69.762  1.00  0.00    -0.202 A  
HETATM   10  C   UNL     1     -11.411   6.758  69.183  1.00  0.00    -0.188 A  
HETATM   11  C   UNL     1     -10.929   6.345  67.939  1.00  0.00    -0.416 A  
HETATM   12  C   UNL     1      -9.954   7.084  67.249  1.00  0.00    -0.181 A  
BRANCH  12  13
HETATM   13  O   UNL     1      -9.501   6.460  66.119  1.00  0.00    -0.136 OA 
HETATM   14  C   UNL     1      -8.734   5.280  66.295  1.00  0.00    -0.122 C  
ENDBRANCH  12  13
ENDBRANCH   6   7
ENDBRANCH   4   6
ENDBRANCH   2   4
TORSDOF 4
ENDMDL
MODEL      291
REMARK 921   NORMALIZED FREE ENERGY PREDICTED BY IDOCK:   -2.01 KCAL/MOL
REMARK 922        TOTAL FREE ENERGY PREDICTED BY IDOCK:   -2.71 KCAL/MOL
REMARK 923 INTER-LIGAND FREE ENERGY PREDICTED BY IDOCK:   -2.49 KCAL/MOL
REMARK 924 INTRA-LIGAND FREE ENERGY PREDICTED BY IDOCK:   -0.22 KCAL/MOL
REMARK 927      BINDING AFFINITY PREDICTED BY RF-SCORE:    0.00 PKD
ROOT
HETATM    1  C   UNL     1     -12.453  14.657  70.738  1.00  0.00    -0.340 C  
HETATM    2  N   UNL     1     -12.485  13.216  70.953  1.00  0.00    -0.359 NA 
HETATM    3  H   UNL     1     -13.326  12.948  71.465  1.00  0.00     0.000 HD 
ENDROOT
BRANCH   2   4
HETATM    4  C   UNL     1     -12.358  12.424  69.714  1.00  0.00    -0.012 C  
HETATM    5  C   UNL     1     -12.334  13.320  68.470  1.00  0.00     0.099 C  
BRANCH   4   6
HETATM    6  C   UNL     1     -11.059  11.567  69.723  1.00  0.00    -0.156 C  
BRANCH   6   7
HETATM    7  C   UNL     1     -11.265  10.072  69.851  1.00  0.00    -0.327 A  
HETATM    8  C   UNL     1     -11.761   9.611  71.092  1.00  0.00    -0.450 A  
HETATM    9  C   UNL     1     -11.938   8.255  71.355  1.00  0.00    -0.333 A  
HETATM   10  C   UNL     1     -11.612   7.322  70.380  1.00  0.00    -0.253 A  
HETATM   11  C   UNL     1     -11.107   7.756  69.153  1.00  0.00     0.139 A  
HETATM   12  C   UNL     1     -10.935   9.122  68.874  1.00  0.00     0.017 A  
BRANCH  12  13
HETATM   13  O   UNL     1     -10.300   9.356  67.684  1.00  0.00    -0.215 OA 
HETATM   14  C   UNL     1     -10.257   8.287  66.753  1.00  0.00    -0.304 C  
ENDBRANCH  12  13
ENDBRANCH   6   7
ENDBRANCH   4   6
ENDBRANCH   2   4
TORSDOF 4
ENDMDL
MODEL      292
REMARK 921   NORMALIZED FREE ENERGY PREDICTED BY IDOCK:   -2.00 KCAL/MOL
REMARK 922        TOTAL FREE ENERGY PREDICTED BY IDOCK:   -2.70 KCAL/MOL
REMARK 923 INTER-LIGAND FREE ENERGY PREDICTED BY IDOCK:   -2.46 KCAL/MOL
REMARK 924 INTRA-LIGAND FREE ENERGY PREDICTED BY IDOCK:   -0.25 KCAL/MOL
REMARK 927      BINDING AFFINITY PREDICTED BY RF-SCORE:    0.00 PKD
ROOT
HETATM    1  C   UNL     1      -6.346   1.769  69.089  1.00  0.00    -0.025 C  
HETATM    2  N   UNL     1      -7.452   2.704  68.931  1.00  0.00    -0.047 NA 
HETATM    3  H   UNL     1      -8.345   2.226  69.049  1.00  0.00     0.000 HD 
ENDROOT
BRANCH   2   4
HETATM    4  C   UNL     1      -7.371   3.880  69.819  1.00  0.00    -0.048 C  
HETATM    5  C   UNL     1      -5.917   4.261  70.121  1.00  0.00    -0.018 C  
BRANCH   4   6
HETATM    6  C   UNL     1      -8.078   5.115  69.187  1.00  0.00    -0.084 C  
BRANCH   6   7
HETATM    7  C   UNL     1      -9.284   5.632  69.942  1.00  0.00    -0.173 A  
HETATM    8  C   UNL     1      -9.152   5.726  71.346  1.00  0.00    -0.150 A  
HETATM    9  C   UNL     1     -10.209   6.132  72.158  1.00  0.00    -0.213 A  
HETATM   10  C   UNL     1     -11.432   6.446  71.581  1.00  0.00    -0.354 A  
HETATM   11  C   UNL     1     -11.587   6.345  70.197  1.00  0.00    -0.449 A  
HETATM   12  C   UNL     1     -10.525   5.948  69.369  1.00  0.00    -0.275 A  
BRANCH  12  13
HETATM   13  O   UNL     1     -10.895   5.769  68.063  1.00  0.00    -0.242 OA 
HETATM   14  C   UNL     1     -10.800   6.893  67.204  1.00  0.00    -0.377 C  
ENDBRANCH  12  13
ENDBRANCH   6   7
ENDBRANCH   4   6
ENDBRANCH   2   4
TORSDOF 4
ENDMDL
MODEL      293
REMARK 921   NORMALIZED FREE ENERGY PREDICTED BY IDOCK:   -1.99 KCAL/MOL
REMARK 922        TOTAL FREE ENERGY PREDICTED BY IDOCK:   -2.69 KCAL/MOL
REMARK 923 INTER-LIGAND FREE ENERGY PREDICTED BY IDOCK:   -2.50 KCAL/MOL
REMARK 924 INTRA-LIGAND FREE ENERGY PREDICTED BY IDOCK:   -0.19 KCAL/MOL
REMARK 927      BINDING AFFINITY PREDICTED BY RF-SCORE:    0.00 PKD
ROOT
HETATM    1  C   UNL     1     -12.665   8.246  71.693  1.00  0.00    -0.327 C  
HETATM    2  N   UNL     1     -12.440   6.867  72.109  1.00  0.00    -0.524 NA 
HETATM    3  H   UNL     1     -13.018   6.229  71.563  1.00  0.00     0.000 HD 
ENDROOT
BRANCH   2   4
HETATM    4  C   UNL     1     -11.024   6.453  72.064  1.00  0.00    -0.250 C  
HETATM    5  C   UNL     1     -10.628   5.656  73.312  1.00  0.00    -0.280 C  
BRANCH   4   6
HETATM    6  C   UNL     1     -10.732   5.577  70.811  1.00  0.00    -0.294 C  
BRANCH   6   7
HETATM    7  C   UNL     1      -9.309   5.075  70.684  1.00  0.00    -0.216 A  
HETATM    8  C   UNL     1      -9.105   3.699  70.935  1.00  0.00    -0.180 A  
HETATM    9  C   UNL     1      -7.835   3.128  70.907  1.00  0.00    -0.046 A  
HETATM   10  C   UNL     1      -6.732   3.927  70.635  1.00  0.00    -0.032 A  
HETATM   11  C   UNL     1      -6.912   5.291  70.398  1.00  0.00    -0.056 A  
HETATM   12  C   UNL     1      -8.189   5.875  70.413  1.00  0.00    -0.111 A  
BRANCH  12  13
HETATM   13  O   UNL     1      -8.162   7.238  70.302  1.00  0.00    -0.128 OA 
HETATM   14  C   UNL     1      -6.911   7.839  70.013  1.00  0.00    -0.049 C  
ENDBRANCH  12  13
ENDBRANCH   6   7
ENDBRANCH   4   6
ENDBRANCH   2   4
TORSDOF 4
ENDMDL
MODEL      294
REMARK 921   NORMALIZED FREE ENERGY PREDICTED BY IDOCK:   -1.98 KCAL/MOL
REMARK 922        TOTAL FREE ENERGY PREDICTED BY IDOCK:   -2.68 KCAL/MOL
REMARK 923 INTER-LIGAND FREE ENERGY PREDICTED BY IDOCK:   -2.53 KCAL/MOL
REMARK 924 INTRA-LIGAND FREE ENERGY PREDICTED BY IDOCK:   -0.14 KCAL/MOL
REMARK 927      BINDING AFFINITY PREDICTED BY RF-SCORE:    0.00 PKD
ROOT
HETATM    1  C   UNL     1      -9.568   3.203  64.276  1.00  0.00    -0.150 C  
HETATM    2  N   UNL     1     -10.521   3.818  65.190  1.00  0.00    -0.459 NA 
HETATM    3  H   UNL     1     -11.067   3.105  65.673  1.00  0.00     0.000 HD 
ENDROOT
BRANCH   2   4
HETATM    4  C   UNL     1      -9.906   4.746  66.160  1.00  0.00    -0.219 C  
HETATM    5  C   UNL     1     -10.900   5.816  66.628  1.00  0.00    -0.290 C  
BRANCH   4   6
HETATM    6  C   UNL     1      -9.380   3.986  67.412  1.00  0.00    -0.215 C  
BRANCH   6   7
HETATM    7  C   UNL     1      -9.090   4.847  68.623  1.00  0.00    -0.145 A  
HETATM    8  C   UNL     1      -9.950   4.680  69.732  1.00  0.00    -0.295 A  
HETATM    9  C   UNL     1      -9.824   5.454  70.883  1.00  0.00    -0.249 A  
HETATM   10  C   UNL     1      -8.834   6.425  70.949  1.00  0.00    -0.136 A  
HETATM   11  C   UNL     1      -7.983   6.615  69.858  1.00  0.00    -0.117 A  
HETATM   12  C   UNL     1      -8.095   5.833  68.697  1.00  0.00    -0.101 A  
BRANCH  12  13
HETATM   13  O   UNL     1      -7.277   6.251  67.683  1.00  0.00    -0.078 OA 
HETATM   14  C   UNL     1      -6.934   7.626  67.653  1.00  0.00    -0.081 C  
ENDBRANCH  12  13
ENDBRANCH   6   7
ENDBRANCH   4   6
ENDBRANCH   2   4
TORSDOF 4
ENDMDL
MODEL      295
REMARK 921   NORMALIZED FREE ENERGY PREDICTED BY IDOCK:   -1.98 KCAL/MOL
REMARK 922        TOTAL FREE ENERGY PREDICTED BY IDOCK:   -2.68 KCAL/MOL
REMARK 923 INTER-LIGAND FREE ENERGY PREDICTED BY IDOCK:   -2.60 KCAL/MOL
REMARK 924 INTRA-LIGAND FREE ENERGY PREDICTED BY IDOCK:   -0.08 KCAL/MOL
REMARK 927      BINDING AFFINITY PREDICTED BY RF-SCORE:    0.00 PKD
ROOT
HETATM    1  C   UNL     1     -10.138   1.477  72.811  1.00  0.00    -0.112 C  
HETATM    2  N   UNL     1      -9.302   2.643  73.069  1.00  0.00    -0.088 NA 
HETATM    3  H   UNL     1      -8.715   2.488  73.889  1.00  0.00     0.000 HD 
ENDROOT
BRANCH   2   4
HETATM    4  C   UNL     1      -8.483   3.059  71.914  1.00  0.00    -0.069 C  
HETATM    5  C   UNL     1      -9.118   2.628  70.587  1.00  0.00    -0.187 C  
BRANCH   4   6
HETATM    6  C   UNL     1      -8.292   4.603  71.885  1.00  0.00    -0.109 C  
BRANCH   6   7
HETATM    7  C   UNL     1      -9.507   5.404  71.468  1.00  0.00    -0.185 A  
HETATM    8  C   UNL     1     -10.546   5.509  72.422  1.00  0.00    -0.272 A  
HETATM    9  C   UNL     1     -11.739   6.168  72.138  1.00  0.00    -0.361 A  
HETATM   10  C   UNL     1     -11.927   6.733  70.884  1.00  0.00    -0.437 A  
HETATM   11  C   UNL     1     -10.919   6.628  69.923  1.00  0.00    -0.373 A  
HETATM   12  C   UNL     1      -9.707   5.974  70.203  1.00  0.00    -0.167 A  
BRANCH  12  13
HETATM   13  O   UNL     1      -8.898   5.844  69.107  1.00  0.00    -0.117 OA 
HETATM   14  C   UNL     1      -9.445   5.191  67.973  1.00  0.00    -0.127 C  
ENDBRANCH  12  13
ENDBRANCH   6   7
ENDBRANCH   4   6
ENDBRANCH   2   4
TORSDOF 4
ENDMDL
MODEL      296
REMARK 921   NORMALIZED FREE ENERGY PREDICTED BY IDOCK:   -1.96 KCAL/MOL
REMARK 922        TOTAL FREE ENERGY PREDICTED BY IDOCK:   -2.65 KCAL/MOL
REMARK 923 INTER-LIGAND FREE ENERGY PREDICTED BY IDOCK:   -2.37 KCAL/MOL
REMARK 924 INTRA-LIGAND FREE ENERGY PREDICTED BY IDOCK:   -0.28 KCAL/MOL
REMARK 927      BINDING AFFINITY PREDICTED BY RF-SCORE:    0.00 PKD
ROOT
HETATM    1  C   UNL     1     -10.473  10.768  67.496  1.00  0.00    -0.220 C  
HETATM    2  N   UNL     1      -9.856  11.259  66.270  1.00  0.00    -0.207 NA 
HETATM    3  H   UNL     1      -8.853  11.392  66.402  1.00  0.00     0.000 HD 
ENDROOT
BRANCH   2   4
HETATM    4  C   UNL     1     -10.117  10.413  65.089  1.00  0.00    -0.308 C  
HETATM    5  C   UNL     1     -10.734  11.220  63.941  1.00  0.00    -0.451 C  
BRANCH   4   6
HETATM    6  C   UNL     1      -8.809   9.748  64.572  1.00  0.00    -0.248 C  
BRANCH   6   7
HETATM    7  C   UNL     1      -8.043   8.933  65.592  1.00  0.00    -0.113 A  
HETATM    8  C   UNL     1      -6.688   9.285  65.788  1.00  0.00    -0.076 A  
HETATM    9  C   UNL     1      -5.863   8.575  66.656  1.00  0.00    -0.048 A  
HETATM   10  C   UNL     1      -6.373   7.483  67.345  1.00  0.00    -0.053 A  
HETATM   11  C   UNL     1      -7.705   7.110  67.154  1.00  0.00    -0.108 A  
HETATM   12  C   UNL     1      -8.550   7.826  66.290  1.00  0.00    -0.150 A  
BRANCH  12  13
HETATM   13  O   UNL     1      -9.773   7.238  66.119  1.00  0.00    -0.060 OA 
HETATM   14  C   UNL     1     -10.617   7.158  67.255  1.00  0.00    -0.327 C  
ENDBRANCH  12  13
ENDBRANCH   6   7
ENDBRANCH   4   6
ENDBRANCH   2   4
TORSDOF 4
ENDMDL
MODEL      297
REMARK 921   NORMALIZED FREE ENERGY PREDICTED BY IDOCK:   -1.95 KCAL/MOL
REMARK 922        TOTAL FREE ENERGY PREDICTED BY IDOCK:   -2.64 KCAL/MOL
REMARK 923 INTER-LIGAND FREE ENERGY PREDICTED BY IDOCK:   -2.36 KCAL/MOL
REMARK 924 INTRA-LIGAND FREE ENERGY PREDICTED BY IDOCK:   -0.28 KCAL/MOL
REMARK 927      BINDING AFFINITY PREDICTED BY RF-SCORE:    0.00 PKD
ROOT
HETATM    1  C   UNL     1     -10.210   4.045  64.601  1.00  0.00    -0.214 C  
HETATM    2  N   UNL     1     -10.976   4.652  65.683  1.00  0.00    -0.868 NA 
HETATM    3  H   UNL     1     -11.595   3.965  66.114  1.00  0.00     0.000 HD 
ENDROOT
BRANCH   2   4
HETATM    4  C   UNL     1     -10.142   5.313  66.707  1.00  0.00    -0.224 C  
HETATM    5  C   UNL     1     -10.967   6.268  67.578  1.00  0.00    -0.444 C  
BRANCH   4   6
HETATM    6  C   UNL     1      -9.459   4.270  67.637  1.00  0.00    -0.217 C  
BRANCH   6   7
HETATM    7  C   UNL     1      -8.144   4.704  68.249  1.00  0.00    -0.084 A  
HETATM    8  C   UNL     1      -7.285   5.461  67.419  1.00  0.00    -0.075 A  
HETATM    9  C   UNL     1      -6.024   5.870  67.845  1.00  0.00    -0.020 A  
HETATM   10  C   UNL     1      -5.585   5.522  69.115  1.00  0.00    -0.008 A  
HETATM   11  C   UNL     1      -6.413   4.763  69.945  1.00  0.00    -0.035 A  
HETATM   12  C   UNL     1      -7.691   4.354  69.530  1.00  0.00    -0.054 A  
BRANCH  12  13
HETATM   13  O   UNL     1      -8.300   3.504  70.411  1.00  0.00    -0.055 OA 
HETATM   14  C   UNL     1      -7.718   3.380  71.698  1.00  0.00    -0.057 C  
ENDBRANCH  12  13
ENDBRANCH   6   7
ENDBRANCH   4   6
ENDBRANCH   2   4
TORSDOF 4
ENDMDL
MODEL      298
REMARK 921   NORMALIZED FREE ENERGY PREDICTED BY IDOCK:   -1.94 KCAL/MOL
REMARK 922        TOTAL FREE ENERGY PREDICTED BY IDOCK:   -2.64 KCAL/MOL
REMARK 923 INTER-LIGAND FREE ENERGY PREDICTED BY IDOCK:   -2.32 KCAL/MOL
REMARK 924 INTRA-LIGAND FREE ENERGY PREDICTED BY IDOCK:   -0.32 KCAL/MOL
REMARK 927      BINDING AFFINITY PREDICTED BY RF-SCORE:    0.00 PKD
ROOT
HETATM    1  C   UNL     1      -5.816   9.328  68.925  1.00  0.00    -0.040 C  
HETATM    2  N   UNL     1      -5.851   7.914  69.277  1.00  0.00    -0.030 NA 
HETATM    3  H   UNL     1      -4.934   7.602  69.597  1.00  0.00     0.000 HD 
ENDROOT
BRANCH   2   4
HETATM    4  C   UNL     1      -6.892   7.570  70.266  1.00  0.00    -0.047 C  
HETATM    5  C   UNL     1      -7.161   8.731  71.230  1.00  0.00    -0.105 C  
BRANCH   4   6
HETATM    6  C   UNL     1      -8.231   7.194  69.568  1.00  0.00    -0.132 C  
BRANCH   6   7
HETATM    7  C   UNL     1      -9.339   6.731  70.490  1.00  0.00    -0.162 A  
HETATM    8  C   UNL     1      -9.187   5.444  71.055  1.00  0.00    -0.179 A  
HETATM    9  C   UNL     1     -10.165   4.881  71.872  1.00  0.00    -0.267 A  
HETATM   10  C   UNL     1     -11.328   5.592  72.136  1.00  0.00    -0.277 A  
HETATM   11  C   UNL     1     -11.503   6.859  71.575  1.00  0.00    -0.315 A  
HETATM   12  C   UNL     1     -10.519   7.440  70.759  1.00  0.00    -0.212 A  
BRANCH  12  13
HETATM   13  O   UNL     1     -10.918   8.616  70.185  1.00  0.00    -0.246 OA 
HETATM   14  C   UNL     1     -10.858   9.782  70.990  1.00  0.00    -0.308 C  
ENDBRANCH  12  13
ENDBRANCH   6   7
ENDBRANCH   4   6
ENDBRANCH   2   4
TORSDOF 4
ENDMDL
MODEL      299
REMARK 921   NORMALIZED FREE ENERGY PREDICTED BY IDOCK:   -1.91 KCAL/MOL
REMARK 922        TOTAL FREE ENERGY PREDICTED BY IDOCK:   -2.59 KCAL/MOL
REMARK 923 INTER-LIGAND FREE ENERGY PREDICTED BY IDOCK:   -2.37 KCAL/MOL
REMARK 924 INTRA-LIGAND FREE ENERGY PREDICTED BY IDOCK:   -0.22 KCAL/MOL
REMARK 927      BINDING AFFINITY PREDICTED BY RF-SCORE:    0.00 PKD
ROOT
HETATM    1  C   UNL     1      -5.705   6.613  66.951  1.00  0.00    -0.014 C  
HETATM    2  N   UNL     1      -6.940   7.306  67.296  1.00  0.00    -0.076 NA 
HETATM    3  H   UNL     1      -6.739   8.158  67.819  1.00  0.00     0.000 HD 
ENDROOT
BRANCH   2   4
HETATM    4  C   UNL     1      -7.803   7.602  66.135  1.00  0.00    -0.096 C  
HETATM    5  C   UNL     1      -8.061   6.350  65.289  1.00  0.00    -0.133 C  
BRANCH   4   6
HETATM    6  C   UNL     1      -9.176   8.179  66.585  1.00  0.00    -0.225 C  
BRANCH   6   7
HETATM    7  C   UNL     1      -9.699   7.661  67.908  1.00  0.00    -0.174 A  
HETATM    8  C   UNL     1     -10.666   6.632  67.840  1.00  0.00    -0.341 A  
HETATM    9  C   UNL     1     -11.267   6.112  68.984  1.00  0.00    -0.375 A  
HETATM   10  C   UNL     1     -10.920   6.618  70.228  1.00  0.00    -0.355 A  
HETATM   11  C   UNL     1      -9.977   7.645  70.316  1.00  0.00    -0.189 A  
HETATM   12  C   UNL     1      -9.357   8.169  69.169  1.00  0.00    -0.151 A  
BRANCH  12  13
HETATM   13  O   UNL     1      -8.572   9.258  69.430  1.00  0.00    -0.129 OA 
HETATM   14  C   UNL     1      -8.088   9.405  70.755  1.00  0.00    -0.116 C  
ENDBRANCH  12  13
ENDBRANCH   6   7
ENDBRANCH   4   6
ENDBRANCH   2   4
TORSDOF 4
ENDMDL
MODEL      300
REMARK 921   NORMALIZED FREE ENERGY PREDICTED BY IDOCK:   -1.89 KCAL/MOL
REMARK 922        TOTAL FREE ENERGY PREDICTED BY IDOCK:   -2.57 KCAL/MOL
REMARK 923 INTER-LIGAND FREE ENERGY PREDICTED BY IDOCK:   -2.46 KCAL/MOL
REMARK 924 INTRA-LIGAND FREE ENERGY PREDICTED BY IDOCK:   -0.11 KCAL/MOL
REMARK 927      BINDING AFFINITY PREDICTED BY RF-SCORE:    0.00 PKD
ROOT
HETATM    1  C   UNL     1      -6.592   8.576  72.489  1.00  0.00    -0.078 C  
HETATM    2  N   UNL     1      -7.998   8.706  72.847  1.00  0.00    -0.400 NA 
HETATM    3  H   UNL     1      -8.156   9.564  73.377  1.00  0.00     0.000 HD 
ENDROOT
BRANCH   2   4
HETATM    4  C   UNL     1      -8.918   8.631  71.695  1.00  0.00    -0.235 C  
HETATM    5  C   UNL     1     -10.327   9.107  72.064  1.00  0.00    -0.137 C  
BRANCH   4   6
HETATM    6  C   UNL     1      -8.405   9.496  70.507  1.00  0.00    -0.203 C  
BRANCH   6   7
HETATM    7  C   UNL     1      -9.035   9.198  69.163  1.00  0.00    -0.144 A  
HETATM    8  C   UNL     1     -10.177   9.959  68.824  1.00  0.00    -0.205 A  
HETATM    9  C   UNL     1     -10.882   9.740  67.642  1.00  0.00    -0.301 A  
HETATM   10  C   UNL     1     -10.464   8.742  66.773  1.00  0.00    -0.283 A  
HETATM   11  C   UNL     1      -9.347   7.969  67.097  1.00  0.00    -0.186 A  
HETATM   12  C   UNL     1      -8.623   8.189  68.280  1.00  0.00    -0.130 A  
BRANCH  12  13
HETATM   13  O   UNL     1      -7.651   7.252  68.501  1.00  0.00    -0.111 OA 
HETATM   14  C   UNL     1      -6.317   7.619  68.193  1.00  0.00    -0.049 C  
ENDBRANCH  12  13
ENDBRANCH   6   7
ENDBRANCH   4   6
ENDBRANCH   2   4
TORSDOF 4
ENDMDL
MODEL      301
REMARK 921   NORMALIZED FREE ENERGY PREDICTED BY IDOCK:   -1.89 KCAL/MOL
REMARK 922        TOTAL FREE ENERGY PREDICTED BY IDOCK:   -2.57 KCAL/MOL
REMARK 923 INTER-LIGAND FREE ENERGY PREDICTED BY IDOCK:   -2.49 KCAL/MOL
REMARK 924 INTRA-LIGAND FREE ENERGY PREDICTED BY IDOCK:   -0.08 KCAL/MOL
REMARK 927      BINDING AFFINITY PREDICTED BY RF-SCORE:    0.00 PKD
ROOT
HETATM    1  C   UNL     1      -6.724   8.681  70.683  1.00  0.00    -0.043 C  
HETATM    2  N   UNL     1      -7.012   7.821  69.542  1.00  0.00    -0.057 NA 
HETATM    3  H   UNL     1      -7.623   7.053  69.818  1.00  0.00     0.000 HD 
ENDROOT
BRANCH   2   4
HETATM    4  C   UNL     1      -7.572   8.539  68.380  1.00  0.00    -0.096 C  
HETATM    5  C   UNL     1      -8.877   7.897  67.894  1.00  0.00    -0.123 C  
BRANCH   4   6
HETATM    6  C   UNL     1      -7.859  10.030  68.722  1.00  0.00    -0.094 C  
BRANCH   6   7
HETATM    7  C   UNL     1      -9.183  10.570  68.225  1.00  0.00    -0.152 A  
HETATM    8  C   UNL     1      -9.173  11.175  66.947  1.00  0.00    -0.179 A  
HETATM    9  C   UNL     1     -10.314  11.762  66.404  1.00  0.00    -0.257 A  
HETATM   10  C   UNL     1     -11.494  11.765  67.133  1.00  0.00    -0.366 A  
HETATM   11  C   UNL     1     -11.521  11.185  68.403  1.00  0.00    -0.377 A  
HETATM   12  C   UNL     1     -10.380  10.581  68.956  1.00  0.00    -0.213 A  
BRANCH  12  13
HETATM   13  O   UNL     1     -10.550  10.194  70.257  1.00  0.00    -0.285 OA 
HETATM   14  C   UNL     1     -11.375   9.065  70.494  1.00  0.00    -0.243 C  
ENDBRANCH  12  13
ENDBRANCH   6   7
ENDBRANCH   4   6
ENDBRANCH   2   4
TORSDOF 4
ENDMDL
MODEL      302
REMARK 921   NORMALIZED FREE ENERGY PREDICTED BY IDOCK:   -1.87 KCAL/MOL
REMARK 922        TOTAL FREE ENERGY PREDICTED BY IDOCK:   -2.55 KCAL/MOL
REMARK 923 INTER-LIGAND FREE ENERGY PREDICTED BY IDOCK:   -2.16 KCAL/MOL
REMARK 924 INTRA-LIGAND FREE ENERGY PREDICTED BY IDOCK:   -0.38 KCAL/MOL
REMARK 927      BINDING AFFINITY PREDICTED BY RF-SCORE:    0.00 PKD
ROOT
HETATM    1  C   UNL     1      -5.833   3.316  64.584  1.00  0.00    -0.014 C  
HETATM    2  N   UNL     1      -6.382   4.159  65.639  1.00  0.00    -0.031 NA 
HETATM    3  H   UNL     1      -6.577   5.095  65.285  1.00  0.00     0.000 HD 
ENDROOT
BRANCH   2   4
HETATM    4  C   UNL     1      -7.577   3.592  66.295  1.00  0.00    -0.081 C  
HETATM    5  C   UNL     1      -7.603   3.910  67.794  1.00  0.00    -0.067 C  
BRANCH   4   6
HETATM    6  C   UNL     1      -8.885   4.141  65.655  1.00  0.00    -0.122 C  
BRANCH   6   7
HETATM    7  C   UNL     1      -9.293   5.531  66.097  1.00  0.00    -0.169 A  
HETATM    8  C   UNL     1     -10.562   5.646  66.710  1.00  0.00    -0.372 A  
HETATM    9  C   UNL     1     -11.077   6.878  67.108  1.00  0.00    -0.362 A  
HETATM   10  C   UNL     1     -10.334   8.030  66.892  1.00  0.00    -0.408 A  
HETATM   11  C   UNL     1      -9.085   7.939  66.275  1.00  0.00    -0.224 A  
HETATM   12  C   UNL     1      -8.552   6.701  65.880  1.00  0.00    -0.148 A  
BRANCH  12  13
HETATM   13  O   UNL     1      -7.389   6.815  65.168  1.00  0.00    -0.076 OA 
HETATM   14  C   UNL     1      -7.375   7.743  64.096  1.00  0.00    -0.090 C  
ENDBRANCH  12  13
ENDBRANCH   6   7
ENDBRANCH   4   6
ENDBRANCH   2   4
TORSDOF 4
ENDMDL
MODEL      303
REMARK 921   NORMALIZED FREE ENERGY PREDICTED BY IDOCK:   -1.87 KCAL/MOL
REMARK 922        TOTAL FREE ENERGY PREDICTED BY IDOCK:   -2.54 KCAL/MOL
REMARK 923 INTER-LIGAND FREE ENERGY PREDICTED BY IDOCK:   -2.83 KCAL/MOL
REMARK 924 INTRA-LIGAND FREE ENERGY PREDICTED BY IDOCK:    0.29 KCAL/MOL
REMARK 927      BINDING AFFINITY PREDICTED BY RF-SCORE:    0.00 PKD
ROOT
HETATM    1  C   UNL     1     -10.419   8.393  69.058  1.00  0.00    -0.201 C  
HETATM    2  N   UNL     1     -10.435   9.847  69.157  1.00  0.00    -0.205 NA 
HETATM    3  H   UNL     1     -10.073  10.268  68.302  1.00  0.00     0.000 HD 
ENDROOT
BRANCH   2   4
HETATM    4  C   UNL     1     -11.759  10.408  69.493  1.00  0.00    -0.188 C  
HETATM    5  C   UNL     1     -11.877  10.721  70.989  1.00  0.00    -0.349 C  
BRANCH   4   6
HETATM    6  C   UNL     1     -12.035  11.716  68.697  1.00  0.00    -0.311 C  
BRANCH   6   7
HETATM    7  C   UNL     1     -10.862  12.666  68.576  1.00  0.00    -0.279 A  
HETATM    8  C   UNL     1      -9.774  12.221  67.791  1.00  0.00    -0.199 A  
HETATM    9  C   UNL     1      -8.613  12.977  67.650  1.00  0.00    -0.190 A  
HETATM   10  C   UNL     1      -8.509  14.198  68.302  1.00  0.00    -0.169 A  
HETATM   11  C   UNL     1      -9.568  14.649  69.093  1.00  0.00    -0.091 A  
HETATM   12  C   UNL     1     -10.747  13.899  69.233  1.00  0.00    -0.085 A  
BRANCH  12  13
HETATM   13  O   UNL     1     -11.614  14.423  70.153  1.00  0.00    -0.271 OA 
HETATM   14  C   UNL     1     -12.182  15.689  69.860  1.00  0.00    -0.294 C  
ENDBRANCH  12  13
ENDBRANCH   6   7
ENDBRANCH   4   6
ENDBRANCH   2   4
TORSDOF 4
ENDMDL
MODEL      304
REMARK 921   NORMALIZED FREE ENERGY PREDICTED BY IDOCK:   -1.87 KCAL/MOL
REMARK 922        TOTAL FREE ENERGY PREDICTED BY IDOCK:   -2.54 KCAL/MOL
REMARK 923 INTER-LIGAND FREE ENERGY PREDICTED BY IDOCK:   -2.28 KCAL/MOL
REMARK 924 INTRA-LIGAND FREE ENERGY PREDICTED BY IDOCK:   -0.26 KCAL/MOL
REMARK 927      BINDING AFFINITY PREDICTED BY RF-SCORE:    0.00 PKD
ROOT
HETATM    1  C   UNL     1     -13.087   7.357  71.456  1.00  0.00    -0.374 C  
HETATM    2  N   UNL     1     -11.884   6.669  71.908  1.00  0.00    -0.318 NA 
HETATM    3  H   UNL     1     -12.115   5.742  72.265  1.00  0.00     0.000 HD 
ENDROOT
BRANCH   2   4
HETATM    4  C   UNL     1     -10.825   6.582  70.884  1.00  0.00    -0.253 C  
HETATM    5  C   UNL     1     -11.399   6.245  69.503  1.00  0.00    -0.475 C  
BRANCH   4   6
HETATM    6  C   UNL     1     -10.038   7.920  70.772  1.00  0.00    -0.201 C  
BRANCH   6   7
HETATM    7  C   UNL     1      -8.567   7.786  70.440  1.00  0.00    -0.137 A  
HETATM    8  C   UNL     1      -8.183   8.155  69.130  1.00  0.00    -0.123 A  
HETATM    9  C   UNL     1      -6.870   8.022  68.685  1.00  0.00    -0.067 A  
HETATM   10  C   UNL     1      -5.907   7.505  69.540  1.00  0.00    -0.023 A  
HETATM   11  C   UNL     1      -6.269   7.122  70.833  1.00  0.00    -0.036 A  
HETATM   12  C   UNL     1      -7.587   7.262  71.296  1.00  0.00    -0.083 A  
BRANCH  12  13
HETATM   13  O   UNL     1      -7.789   6.706  72.531  1.00  0.00    -0.101 OA 
HETATM   14  C   UNL     1      -7.226   7.381  73.643  1.00  0.00    -0.091 C  
ENDBRANCH  12  13
ENDBRANCH   6   7
ENDBRANCH   4   6
ENDBRANCH   2   4
TORSDOF 4
ENDMDL
MODEL      305
REMARK 921   NORMALIZED FREE ENERGY PREDICTED BY IDOCK:   -1.85 KCAL/MOL
REMARK 922        TOTAL FREE ENERGY PREDICTED BY IDOCK:   -2.52 KCAL/MOL
REMARK 923 INTER-LIGAND FREE ENERGY PREDICTED BY IDOCK:   -2.26 KCAL/MOL
REMARK 924 INTRA-LIGAND FREE ENERGY PREDICTED BY IDOCK:   -0.26 KCAL/MOL
REMARK 927      BINDING AFFINITY PREDICTED BY RF-SCORE:    0.00 PKD
ROOT
HETATM    1  C   UNL     1      -7.165   8.815  71.600  1.00  0.00    -0.071 C  
HETATM    2  N   UNL     1      -8.498   8.491  72.093  1.00  0.00    -0.278 NA 
HETATM    3  H   UNL     1      -9.035   9.342  72.262  1.00  0.00     0.000 HD 
ENDROOT
BRANCH   2   4
HETATM    4  C   UNL     1      -9.249   7.567  71.221  1.00  0.00    -0.149 C  
HETATM    5  C   UNL     1     -10.761   7.680  71.446  1.00  0.00    -0.247 C  
BRANCH   4   6
HETATM    6  C   UNL     1      -8.956   7.847  69.718  1.00  0.00    -0.146 C  
BRANCH   6   7
HETATM    7  C   UNL     1      -9.320   6.730  68.763  1.00  0.00    -0.132 A  
HETATM    8  C   UNL     1     -10.331   7.017  67.818  1.00  0.00    -0.255 A  
HETATM    9  C   UNL     1     -10.796   6.056  66.924  1.00  0.00    -0.396 A  
HETATM   10  C   UNL     1     -10.264   4.774  66.962  1.00  0.00    -0.205 A  
HETATM   11  C   UNL     1      -9.275   4.466  67.898  1.00  0.00    -0.170 A  
HETATM   12  C   UNL     1      -8.791   5.432  68.796  1.00  0.00    -0.103 A  
BRANCH  12  13
HETATM   13  O   UNL     1      -7.931   4.920  69.729  1.00  0.00    -0.068 OA 
HETATM   14  C   UNL     1      -6.544   5.086  69.491  1.00  0.00    -0.040 C  
ENDBRANCH  12  13
ENDBRANCH   6   7
ENDBRANCH   4   6
ENDBRANCH   2   4
TORSDOF 4
ENDMDL
MODEL      306
REMARK 921   NORMALIZED FREE ENERGY PREDICTED BY IDOCK:   -1.81 KCAL/MOL
REMARK 922        TOTAL FREE ENERGY PREDICTED BY IDOCK:   -2.47 KCAL/MOL
REMARK 923 INTER-LIGAND FREE ENERGY PREDICTED BY IDOCK:   -2.27 KCAL/MOL
REMARK 924 INTRA-LIGAND FREE ENERGY PREDICTED BY IDOCK:   -0.20 KCAL/MOL
REMARK 927      BINDING AFFINITY PREDICTED BY RF-SCORE:    0.00 PKD
ROOT
HETATM    1  C   UNL     1     -12.028   6.586  71.853  1.00  0.00    -0.341 C  
HETATM    2  N   UNL     1     -10.764   6.377  71.159  1.00  0.00    -0.235 NA 
HETATM    3  H   UNL     1     -10.903   5.811  70.322  1.00  0.00     0.000 HD 
ENDROOT
BRANCH   2   4
HETATM    4  C   UNL     1     -10.051   7.627  70.828  1.00  0.00    -0.189 C  
HETATM    5  C   UNL     1      -9.756   8.459  72.081  1.00  0.00    -0.370 C  
BRANCH   4   6
HETATM    6  C   UNL     1      -8.703   7.334  70.107  1.00  0.00    -0.140 C  
BRANCH   6   7
HETATM    7  C   UNL     1      -8.132   8.482  69.302  1.00  0.00    -0.113 A  
HETATM    8  C   UNL     1      -6.842   8.927  69.673  1.00  0.00    -0.050 A  
HETATM    9  C   UNL     1      -6.231  10.011  69.048  1.00  0.00    -0.044 A  
HETATM   10  C   UNL     1      -6.904  10.686  68.039  1.00  0.00    -0.072 A  
HETATM   11  C   UNL     1      -8.184  10.271  67.667  1.00  0.00    -0.114 A  
HETATM   12  C   UNL     1      -8.805   9.172  68.283  1.00  0.00    -0.129 A  
BRANCH  12  13
HETATM   13  O   UNL     1     -10.105   8.997  67.895  1.00  0.00    -0.176 OA 
HETATM   14  C   UNL     1     -10.889  10.165  67.716  1.00  0.00    -0.292 C  
ENDBRANCH  12  13
ENDBRANCH   6   7
ENDBRANCH   4   6
ENDBRANCH   2   4
TORSDOF 4
ENDMDL
MODEL      307
REMARK 921   NORMALIZED FREE ENERGY PREDICTED BY IDOCK:   -1.81 KCAL/MOL
REMARK 922        TOTAL FREE ENERGY PREDICTED BY IDOCK:   -2.46 KCAL/MOL
REMARK 923 INTER-LIGAND FREE ENERGY PREDICTED BY IDOCK:   -2.08 KCAL/MOL
REMARK 924 INTRA-LIGAND FREE ENERGY PREDICTED BY IDOCK:   -0.39 KCAL/MOL
REMARK 927      BINDING AFFINITY PREDICTED BY RF-SCORE:    0.00 PKD
ROOT
HETATM    1  C   UNL     1      -7.134   2.265  65.415  1.00  0.00    -0.056 C  
HETATM    2  N   UNL     1      -7.667   3.343  66.238  1.00  0.00    -0.077 NA 
HETATM    3  H   UNL     1      -7.507   4.247  65.792  1.00  0.00     0.000 HD 
ENDROOT
BRANCH   2   4
HETATM    4  C   UNL     1      -9.092   3.181  66.587  1.00  0.00    -0.162 C  
HETATM    5  C   UNL     1      -9.272   2.772  68.053  1.00  0.00    -0.253 C  
BRANCH   4   6
HETATM    6  C   UNL     1      -9.885   4.498  66.346  1.00  0.00    -0.245 C  
BRANCH   6   7
HETATM    7  C   UNL     1      -9.707   5.569  67.401  1.00  0.00    -0.147 A  
HETATM    8  C   UNL     1     -10.857   5.906  68.152  1.00  0.00    -0.323 A  
HETATM    9  C   UNL     1     -10.837   6.916  69.111  1.00  0.00    -0.262 A  
HETATM   10  C   UNL     1      -9.664   7.622  69.337  1.00  0.00    -0.165 A  
HETATM   11  C   UNL     1      -8.521   7.313  68.595  1.00  0.00    -0.129 A  
HETATM   12  C   UNL     1      -8.527   6.290  67.633  1.00  0.00    -0.116 A  
BRANCH  12  13
HETATM   13  O   UNL     1      -7.369   6.222  66.909  1.00  0.00    -0.079 OA 
HETATM   14  C   UNL     1      -6.691   7.441  66.657  1.00  0.00    -0.061 C  
ENDBRANCH  12  13
ENDBRANCH   6   7
ENDBRANCH   4   6
ENDBRANCH   2   4
TORSDOF 4
ENDMDL
MODEL      308
REMARK 921   NORMALIZED FREE ENERGY PREDICTED BY IDOCK:   -1.80 KCAL/MOL
REMARK 922        TOTAL FREE ENERGY PREDICTED BY IDOCK:   -2.45 KCAL/MOL
REMARK 923 INTER-LIGAND FREE ENERGY PREDICTED BY IDOCK:   -2.14 KCAL/MOL
REMARK 924 INTRA-LIGAND FREE ENERGY PREDICTED BY IDOCK:   -0.31 KCAL/MOL
REMARK 927      BINDING AFFINITY PREDICTED BY RF-SCORE:    0.00 PKD
ROOT
HETATM    1  C   UNL     1      -9.143   5.178  65.661  1.00  0.00    -0.157 C  
HETATM    2  N   UNL     1      -7.862   5.521  66.266  1.00  0.00    -0.099 NA 
HETATM    3  H   UNL     1      -7.098   5.058  65.774  1.00  0.00     0.000 HD 
ENDROOT
BRANCH   2   4
HETATM    4  C   UNL     1      -7.616   6.974  66.358  1.00  0.00    -0.088 C  
HETATM    5  C   UNL     1      -6.163   7.277  66.741  1.00  0.00    -0.043 C  
BRANCH   4   6
HETATM    6  C   UNL     1      -7.924   7.685  65.008  1.00  0.00    -0.131 C  
BRANCH   6   7
HETATM    7  C   UNL     1      -8.734   8.960  65.113  1.00  0.00    -0.213 A  
HETATM    8  C   UNL     1      -9.603   9.061  66.223  1.00  0.00    -0.327 A  
HETATM    9  C   UNL     1     -10.444  10.157  66.401  1.00  0.00    -0.210 A  
HETATM   10  C   UNL     1     -10.441  11.179  65.461  1.00  0.00    -0.317 A  
HETATM   11  C   UNL     1      -9.600  11.091  64.350  1.00  0.00    -0.301 A  
HETATM   12  C   UNL     1      -8.741   9.995  64.167  1.00  0.00    -0.205 A  
BRANCH  12  13
HETATM   13  O   UNL     1      -8.098  10.008  62.960  1.00  0.00    -0.136 OA 
HETATM   14  C   UNL     1      -7.841  11.274  62.376  1.00  0.00     0.089 C  
ENDBRANCH  12  13
ENDBRANCH   6   7
ENDBRANCH   4   6
ENDBRANCH   2   4
TORSDOF 4
ENDMDL
MODEL      309
REMARK 921   NORMALIZED FREE ENERGY PREDICTED BY IDOCK:   -1.78 KCAL/MOL
REMARK 922        TOTAL FREE ENERGY PREDICTED BY IDOCK:   -2.44 KCAL/MOL
REMARK 923 INTER-LIGAND FREE ENERGY PREDICTED BY IDOCK:   -2.18 KCAL/MOL
REMARK 924 INTRA-LIGAND FREE ENERGY PREDICTED BY IDOCK:   -0.26 KCAL/MOL
REMARK 927      BINDING AFFINITY PREDICTED BY RF-SCORE:    0.00 PKD
ROOT
HETATM    1  C   UNL     1      -9.612   5.577  71.353  1.00  0.00    -0.154 C  
HETATM    2  N   UNL     1      -9.954   5.899  69.974  1.00  0.00    -0.173 NA 
HETATM    3  H   UNL     1     -10.434   5.116  69.531  1.00  0.00     0.000 HD 
ENDROOT
BRANCH   2   4
HETATM    4  C   UNL     1     -10.741   7.140  69.828  1.00  0.00    -0.239 C  
HETATM    5  C   UNL     1     -11.906   7.191  70.823  1.00  0.00    -0.367 C  
BRANCH   4   6
HETATM    6  C   UNL     1      -9.854   8.400  70.050  1.00  0.00    -0.182 C  
BRANCH   6   7
HETATM    7  C   UNL     1      -9.308   9.042  68.793  1.00  0.00    -0.140 A  
HETATM    8  C   UNL     1     -10.262   9.574  67.895  1.00  0.00    -0.251 A  
HETATM    9  C   UNL     1      -9.890  10.139  66.677  1.00  0.00    -0.253 A  
HETATM   10  C   UNL     1      -8.548  10.176  66.323  1.00  0.00    -0.138 A  
HETATM   11  C   UNL     1      -7.592   9.643  67.189  1.00  0.00    -0.091 A  
HETATM   12  C   UNL     1      -7.955   9.081  68.424  1.00  0.00    -0.104 A  
BRANCH  12  13
HETATM   13  O   UNL     1      -6.910   8.483  69.075  1.00  0.00    -0.054 OA 
HETATM   14  C   UNL     1      -5.777   8.136  68.297  1.00  0.00    -0.034 C  
ENDBRANCH  12  13
ENDBRANCH   6   7
ENDBRANCH   4   6
ENDBRANCH   2   4
TORSDOF 4
ENDMDL
MODEL      310
REMARK 921   NORMALIZED FREE ENERGY PREDICTED BY IDOCK:   -1.78 KCAL/MOL
REMARK 922        TOTAL FREE ENERGY PREDICTED BY IDOCK:   -2.44 KCAL/MOL
REMARK 923 INTER-LIGAND FREE ENERGY PREDICTED BY IDOCK:   -3.15 KCAL/MOL
REMARK 924 INTRA-LIGAND FREE ENERGY PREDICTED BY IDOCK:    0.71 KCAL/MOL
REMARK 927      BINDING AFFINITY PREDICTED BY RF-SCORE:    0.00 PKD
ROOT
HETATM    1  C   UNL     1      -9.499   9.262  70.573  1.00  0.00    -0.264 C  
HETATM    2  N   UNL     1      -9.542   9.997  69.315  1.00  0.00    -0.204 NA 
HETATM    3  H   UNL     1      -8.929  10.811  69.355  1.00  0.00     0.000 HD 
ENDROOT
BRANCH   2   4
HETATM    4  C   UNL     1      -9.235   9.172  68.131  1.00  0.00    -0.131 C  
HETATM    5  C   UNL     1      -9.977   7.830  68.168  1.00  0.00    -0.207 C  
BRANCH   4   6
HETATM    6  C   UNL     1      -9.623   9.907  66.815  1.00  0.00    -0.231 C  
BRANCH   6   7
HETATM    7  C   UNL     1      -9.651  11.419  66.897  1.00  0.00    -0.203 A  
HETATM    8  C   UNL     1      -8.784  12.011  67.843  1.00  0.00    -0.170 A  
HETATM    9  C   UNL     1      -8.758  13.388  68.055  1.00  0.00    -0.178 A  
HETATM   10  C   UNL     1      -9.611  14.207  67.328  1.00  0.00    -0.234 A  
HETATM   11  C   UNL     1     -10.485  13.640  66.399  1.00  0.00    -0.288 A  
HETATM   12  C   UNL     1     -10.511  12.254  66.169  1.00  0.00    -0.240 A  
BRANCH  12  13
HETATM   13  O   UNL     1     -11.521  11.863  65.333  1.00  0.00    -0.320 OA 
HETATM   14  C   UNL     1     -12.417  12.867  64.888  1.00  0.00    -0.478 C  
ENDBRANCH  12  13
ENDBRANCH   6   7
ENDBRANCH   4   6
ENDBRANCH   2   4
TORSDOF 4
ENDMDL
MODEL      311
REMARK 921   NORMALIZED FREE ENERGY PREDICTED BY IDOCK:   -1.78 KCAL/MOL
REMARK 922        TOTAL FREE ENERGY PREDICTED BY IDOCK:   -2.44 KCAL/MOL
REMARK 923 INTER-LIGAND FREE ENERGY PREDICTED BY IDOCK:   -2.18 KCAL/MOL
REMARK 924 INTRA-LIGAND FREE ENERGY PREDICTED BY IDOCK:   -0.26 KCAL/MOL
REMARK 927      BINDING AFFINITY PREDICTED BY RF-SCORE:    0.00 PKD
ROOT
HETATM    1  C   UNL     1      -9.223   3.566  66.207  1.00  0.00    -0.171 C  
HETATM    2  N   UNL     1      -9.150   5.012  66.372  1.00  0.00    -0.125 NA 
HETATM    3  H   UNL     1     -10.029   5.450  66.095  1.00  0.00     0.000 HD 
ENDROOT
BRANCH   2   4
HETATM    4  C   UNL     1      -8.761   5.439  67.730  1.00  0.00    -0.106 C  
HETATM    5  C   UNL     1      -7.891   6.701  67.700  1.00  0.00    -0.111 C  
BRANCH   4   6
HETATM    6  C   UNL     1     -10.013   5.730  68.609  1.00  0.00    -0.201 C  
BRANCH   6   7
HETATM    7  C   UNL     1      -9.732   6.020  70.069  1.00  0.00    -0.202 A  
HETATM    8  C   UNL     1      -9.565   4.896  70.910  1.00  0.00    -0.241 A  
HETATM    9  C   UNL     1      -9.360   5.029  72.281  1.00  0.00    -0.161 A  
HETATM   10  C   UNL     1      -9.326   6.296  72.847  1.00  0.00    -0.140 A  
HETATM   11  C   UNL     1      -9.503   7.418  72.035  1.00  0.00    -0.162 A  
HETATM   12  C   UNL     1      -9.700   7.296  70.650  1.00  0.00    -0.175 A  
BRANCH  12  13
HETATM   13  O   UNL     1      -9.995   8.484  70.038  1.00  0.00    -0.183 OA 
HETATM   14  C   UNL     1      -8.945   9.429  69.920  1.00  0.00    -0.200 C  
ENDBRANCH  12  13
ENDBRANCH   6   7
ENDBRANCH   4   6
ENDBRANCH   2   4
TORSDOF 4
ENDMDL
MODEL      312
REMARK 921   NORMALIZED FREE ENERGY PREDICTED BY IDOCK:   -1.75 KCAL/MOL
REMARK 922        TOTAL FREE ENERGY PREDICTED BY IDOCK:   -2.40 KCAL/MOL
REMARK 923 INTER-LIGAND FREE ENERGY PREDICTED BY IDOCK:   -2.20 KCAL/MOL
REMARK 924 INTRA-LIGAND FREE ENERGY PREDICTED BY IDOCK:   -0.20 KCAL/MOL
REMARK 927      BINDING AFFINITY PREDICTED BY RF-SCORE:    0.00 PKD
ROOT
HETATM    1  C   UNL     1     -10.490   1.799  72.701  1.00  0.00    -0.154 C  
HETATM    2  N   UNL     1      -9.512   2.509  71.885  1.00  0.00    -0.113 NA 
HETATM    3  H   UNL     1      -9.123   1.891  71.173  1.00  0.00     0.000 HD 
ENDROOT
BRANCH   2   4
HETATM    4  C   UNL     1     -10.033   3.746  71.270  1.00  0.00    -0.094 C  
HETATM    5  C   UNL     1     -10.355   4.810  72.326  1.00  0.00    -0.264 C  
BRANCH   4   6
HETATM    6  C   UNL     1      -9.010   4.350  70.265  1.00  0.00    -0.142 C  
BRANCH   6   7
HETATM    7  C   UNL     1      -9.250   4.011  68.809  1.00  0.00    -0.211 A  
HETATM    8  C   UNL     1      -8.821   2.732  68.384  1.00  0.00    -0.165 A  
HETATM    9  C   UNL     1      -8.932   2.324  67.057  1.00  0.00    -0.155 A  
HETATM   10  C   UNL     1      -9.468   3.193  66.117  1.00  0.00    -0.048 A  
HETATM   11  C   UNL     1      -9.884   4.466  66.514  1.00  0.00    -0.247 A  
HETATM   12  C   UNL     1      -9.787   4.884  67.851  1.00  0.00    -0.143 A  
BRANCH  12  13
HETATM   13  O   UNL     1     -10.107   6.202  68.031  1.00  0.00    -0.133 OA 
HETATM   14  C   UNL     1     -11.101   6.748  67.180  1.00  0.00    -0.333 C  
ENDBRANCH  12  13
ENDBRANCH   6   7
ENDBRANCH   4   6
ENDBRANCH   2   4
TORSDOF 4
ENDMDL
MODEL      313
REMARK 921   NORMALIZED FREE ENERGY PREDICTED BY IDOCK:   -1.75 KCAL/MOL
REMARK 922        TOTAL FREE ENERGY PREDICTED BY IDOCK:   -2.39 KCAL/MOL
REMARK 923 INTER-LIGAND FREE ENERGY PREDICTED BY IDOCK:   -2.43 KCAL/MOL
REMARK 924 INTRA-LIGAND FREE ENERGY PREDICTED BY IDOCK:    0.04 KCAL/MOL
REMARK 927      BINDING AFFINITY PREDICTED BY RF-SCORE:    0.00 PKD
ROOT
HETATM    1  C   UNL     1      -6.555   3.548  69.274  1.00  0.00    -0.034 C  
HETATM    2  N   UNL     1      -7.621   4.543  69.277  1.00  0.00    -0.055 NA 
HETATM    3  H   UNL     1      -8.532   4.093  69.369  1.00  0.00     0.000 HD 
ENDROOT
BRANCH   2   4
HETATM    4  C   UNL     1      -7.455   5.593  70.302  1.00  0.00    -0.080 C  
HETATM    5  C   UNL     1      -5.980   5.960  70.501  1.00  0.00    -0.029 C  
BRANCH   4   6
HETATM    6  C   UNL     1      -8.233   6.885  69.917  1.00  0.00    -0.127 C  
BRANCH   6   7
HETATM    7  C   UNL     1      -9.462   7.179  70.750  1.00  0.00    -0.164 A  
HETATM    8  C   UNL     1      -9.779   8.543  70.941  1.00  0.00    -0.231 A  
HETATM    9  C   UNL     1     -10.850   8.944  71.735  1.00  0.00    -0.436 A  
HETATM   10  C   UNL     1     -11.628   7.985  72.369  1.00  0.00    -0.450 A  
HETATM   11  C   UNL     1     -11.323   6.633  72.205  1.00  0.00    -0.309 A  
HETATM   12  C   UNL     1     -10.251   6.217  71.397  1.00  0.00    -0.205 A  
BRANCH  12  13
HETATM   13  O   UNL     1     -10.013   4.871  71.466  1.00  0.00    -0.178 OA 
HETATM   14  C   UNL     1      -9.624   4.346  72.724  1.00  0.00    -0.134 C  
ENDBRANCH  12  13
ENDBRANCH   6   7
ENDBRANCH   4   6
ENDBRANCH   2   4
TORSDOF 4
ENDMDL
MODEL      314
REMARK 921   NORMALIZED FREE ENERGY PREDICTED BY IDOCK:   -1.70 KCAL/MOL
REMARK 922        TOTAL FREE ENERGY PREDICTED BY IDOCK:   -2.34 KCAL/MOL
REMARK 923 INTER-LIGAND FREE ENERGY PREDICTED BY IDOCK:   -2.02 KCAL/MOL
REMARK 924 INTRA-LIGAND FREE ENERGY PREDICTED BY IDOCK:   -0.32 KCAL/MOL
REMARK 927      BINDING AFFINITY PREDICTED BY RF-SCORE:    0.00 PKD
ROOT
HETATM    1  C   UNL     1      -9.676   5.013  71.005  1.00  0.00    -0.184 C  
HETATM    2  N   UNL     1     -10.202   5.092  69.648  1.00  0.00    -0.262 NA 
HETATM    3  H   UNL     1     -10.861   4.333  69.474  1.00  0.00     0.000 HD 
ENDROOT
BRANCH   2   4
HETATM    4  C   UNL     1     -10.813   6.395  69.319  1.00  0.00    -0.327 C  
HETATM    5  C   UNL     1     -11.884   6.792  70.342  1.00  0.00    -0.395 C  
BRANCH   4   6
HETATM    6  C   UNL     1      -9.742   7.524  69.270  1.00  0.00    -0.163 C  
BRANCH   6   7
HETATM    7  C   UNL     1      -8.662   7.353  68.223  1.00  0.00    -0.122 A  
HETATM    8  C   UNL     1      -9.103   7.179  66.891  1.00  0.00    -0.159 A  
HETATM    9  C   UNL     1      -8.210   6.953  65.845  1.00  0.00    -0.129 A  
HETATM   10  C   UNL     1      -6.849   6.888  66.111  1.00  0.00    -0.064 A  
HETATM   11  C   UNL     1      -6.395   7.043  67.422  1.00  0.00    -0.042 A  
HETATM   12  C   UNL     1      -7.286   7.281  68.482  1.00  0.00    -0.094 A  
BRANCH  12  13
HETATM   13  O   UNL     1      -6.682   7.266  69.710  1.00  0.00    -0.043 OA 
HETATM   14  C   UNL     1      -6.181   8.499  70.199  1.00  0.00    -0.034 C  
ENDBRANCH  12  13
ENDBRANCH   6   7
ENDBRANCH   4   6
ENDBRANCH   2   4
TORSDOF 4
ENDMDL
MODEL      315
REMARK 921   NORMALIZED FREE ENERGY PREDICTED BY IDOCK:   -1.70 KCAL/MOL
REMARK 922        TOTAL FREE ENERGY PREDICTED BY IDOCK:   -2.33 KCAL/MOL
REMARK 923 INTER-LIGAND FREE ENERGY PREDICTED BY IDOCK:   -2.09 KCAL/MOL
REMARK 924 INTRA-LIGAND FREE ENERGY PREDICTED BY IDOCK:   -0.24 KCAL/MOL
REMARK 927      BINDING AFFINITY PREDICTED BY RF-SCORE:    0.00 PKD
ROOT
HETATM    1  C   UNL     1      -6.994   5.542  69.237  1.00  0.00    -0.063 C  
HETATM    2  N   UNL     1      -7.039   6.990  69.069  1.00  0.00    -0.082 NA 
HETATM    3  H   UNL     1      -7.038   7.236  68.080  1.00  0.00     0.000 HD 
ENDROOT
BRANCH   2   4
HETATM    4  C   UNL     1      -8.169   7.637  69.765  1.00  0.00    -0.131 C  
HETATM    5  C   UNL     1      -8.641   6.811  70.967  1.00  0.00    -0.136 C  
BRANCH   4   6
HETATM    6  C   UNL     1      -7.782   9.057  70.270  1.00  0.00    -0.098 C  
BRANCH   6   7
HETATM    7  C   UNL     1      -8.400  10.211  69.509  1.00  0.00    -0.178 A  
HETATM    8  C   UNL     1      -7.505  11.054  68.811  1.00  0.00    -0.116 A  
HETATM    9  C   UNL     1      -7.944  12.182  68.122  1.00  0.00    -0.151 A  
HETATM   10  C   UNL     1      -9.295  12.500  68.123  1.00  0.00    -0.210 A  
HETATM   11  C   UNL     1     -10.194  11.688  68.818  1.00  0.00    -0.190 A  
HETATM   12  C   UNL     1      -9.763  10.543  69.507  1.00  0.00    -0.119 A  
BRANCH  12  13
HETATM   13  O   UNL     1     -10.752   9.951  70.244  1.00  0.00    -0.268 OA 
HETATM   14  C   UNL     1     -11.984  10.645  70.349  1.00  0.00    -0.346 C  
ENDBRANCH  12  13
ENDBRANCH   6   7
ENDBRANCH   4   6
ENDBRANCH   2   4
TORSDOF 4
ENDMDL
MODEL      316
REMARK 921   NORMALIZED FREE ENERGY PREDICTED BY IDOCK:   -1.69 KCAL/MOL
REMARK 922        TOTAL FREE ENERGY PREDICTED BY IDOCK:   -2.32 KCAL/MOL
REMARK 923 INTER-LIGAND FREE ENERGY PREDICTED BY IDOCK:   -2.07 KCAL/MOL
REMARK 924 INTRA-LIGAND FREE ENERGY PREDICTED BY IDOCK:   -0.25 KCAL/MOL
REMARK 927      BINDING AFFINITY PREDICTED BY RF-SCORE:    0.00 PKD
ROOT
HETATM    1  C   UNL     1      -9.564   5.919  72.194  1.00  0.00    -0.148 C  
HETATM    2  N   UNL     1      -9.517   6.607  70.910  1.00  0.00    -0.165 NA 
HETATM    3  H   UNL     1      -9.106   6.005  70.196  1.00  0.00     0.000 HD 
ENDROOT
BRANCH   2   4
HETATM    4  C   UNL     1     -10.824   7.125  70.462  1.00  0.00    -0.246 C  
HETATM    5  C   UNL     1     -10.895   8.652  70.574  1.00  0.00    -0.257 C  
BRANCH   4   6
HETATM    6  C   UNL     1     -11.112   6.730  68.984  1.00  0.00    -0.254 C  
BRANCH   6   7
HETATM    7  C   UNL     1      -9.935   6.159  68.221  1.00  0.00    -0.162 A  
HETATM    8  C   UNL     1      -9.843   4.749  68.174  1.00  0.00    -0.182 A  
HETATM    9  C   UNL     1      -8.777   4.102  67.554  1.00  0.00    -0.117 A  
HETATM   10  C   UNL     1      -7.767   4.855  66.971  1.00  0.00    -0.092 A  
HETATM   11  C   UNL     1      -7.832   6.250  67.019  1.00  0.00    -0.104 A  
HETATM   12  C   UNL     1      -8.909   6.911  67.633  1.00  0.00    -0.118 A  
BRANCH  12  13
HETATM   13  O   UNL     1      -8.737   8.267  67.711  1.00  0.00    -0.133 OA 
HETATM   14  C   UNL     1      -7.625   8.736  68.455  1.00  0.00    -0.095 C  
ENDBRANCH  12  13
ENDBRANCH   6   7
ENDBRANCH   4   6
ENDBRANCH   2   4
TORSDOF 4
ENDMDL
MODEL      317
REMARK 921   NORMALIZED FREE ENERGY PREDICTED BY IDOCK:   -1.68 KCAL/MOL
REMARK 922        TOTAL FREE ENERGY PREDICTED BY IDOCK:   -2.30 KCAL/MOL
REMARK 923 INTER-LIGAND FREE ENERGY PREDICTED BY IDOCK:   -2.80 KCAL/MOL
REMARK 924 INTRA-LIGAND FREE ENERGY PREDICTED BY IDOCK:    0.50 KCAL/MOL
REMARK 927      BINDING AFFINITY PREDICTED BY RF-SCORE:    0.00 PKD
ROOT
HETATM    1  C   UNL     1     -11.318  16.304  69.493  1.00  0.00    -0.276 C  
HETATM    2  N   UNL     1     -10.448  15.929  68.386  1.00  0.00    -0.246 NA 
HETATM    3  H   UNL     1     -10.925  15.281  67.759  1.00  0.00     0.000 HD 
ENDROOT
BRANCH   2   4
HETATM    4  C   UNL     1      -9.911  17.079  67.633  1.00  0.00    -0.257 C  
HETATM    5  C   UNL     1     -10.912  18.239  67.581  1.00  0.00    -0.134 C  
BRANCH   4   6
HETATM    6  C   UNL     1      -8.589  17.601  68.268  1.00  0.00    -0.268 C  
BRANCH   6   7
HETATM    7  C   UNL     1      -7.463  17.877  67.295  1.00  0.00    -0.213 A  
HETATM    8  C   UNL     1      -6.432  16.911  67.239  1.00  0.00    -0.201 A  
HETATM    9  C   UNL     1      -5.312  17.078  66.428  1.00  0.00    -0.045 A  
HETATM   10  C   UNL     1      -5.192  18.225  65.656  1.00  0.00    -0.213 A  
HETATM   11  C   UNL     1      -6.192  19.198  65.708  1.00  0.00    -0.245 A  
HETATM   12  C   UNL     1      -7.331  19.035  66.514  1.00  0.00    -0.233 A  
BRANCH  12  13
HETATM   13  O   UNL     1      -8.132  20.143  66.549  1.00  0.00    -0.305 OA 
HETATM   14  C   UNL     1      -9.378  20.063  65.877  1.00  0.00    -0.164 C  
ENDBRANCH  12  13
ENDBRANCH   6   7
ENDBRANCH   4   6
ENDBRANCH   2   4
TORSDOF 4
ENDMDL
MODEL      318
REMARK 921   NORMALIZED FREE ENERGY PREDICTED BY IDOCK:   -1.65 KCAL/MOL
REMARK 922        TOTAL FREE ENERGY PREDICTED BY IDOCK:   -2.28 KCAL/MOL
REMARK 923 INTER-LIGAND FREE ENERGY PREDICTED BY IDOCK:   -2.04 KCAL/MOL
REMARK 924 INTRA-LIGAND FREE ENERGY PREDICTED BY IDOCK:   -0.24 KCAL/MOL
REMARK 927      BINDING AFFINITY PREDICTED BY RF-SCORE:    0.00 PKD
ROOT
HETATM    1  C   UNL     1      -6.941   2.886  69.259  1.00  0.00    -0.041 C  
HETATM    2  N   UNL     1      -7.689   4.134  69.345  1.00  0.00    -0.054 NA 
HETATM    3  H   UNL     1      -8.684   3.949  69.471  1.00  0.00     0.000 HD 
ENDROOT
BRANCH   2   4
HETATM    4  C   UNL     1      -7.196   5.055  70.388  1.00  0.00    -0.054 C  
HETATM    5  C   UNL     1      -5.744   4.748  70.773  1.00  0.00    -0.016 C  
BRANCH   4   6
HETATM    6  C   UNL     1      -7.273   6.536  69.916  1.00  0.00    -0.077 C  
BRANCH   6   7
HETATM    7  C   UNL     1      -8.388   7.358  70.527  1.00  0.00    -0.132 A  
HETATM    8  C   UNL     1      -8.417   7.423  71.939  1.00  0.00    -0.117 A  
HETATM    9  C   UNL     1      -9.426   8.099  72.622  1.00  0.00    -0.346 A  
HETATM   10  C   UNL     1     -10.439   8.720  71.905  1.00  0.00    -0.423 A  
HETATM   11  C   UNL     1     -10.435   8.655  70.510  1.00  0.00    -0.237 A  
HETATM   12  C   UNL     1      -9.417   7.986  69.811  1.00  0.00    -0.159 A  
BRANCH  12  13
HETATM   13  O   UNL     1      -9.650   7.903  68.465  1.00  0.00    -0.148 OA 
HETATM   14  C   UNL     1     -10.320   8.993  67.856  1.00  0.00    -0.235 C  
ENDBRANCH  12  13
ENDBRANCH   6   7
ENDBRANCH   4   6
ENDBRANCH   2   4
TORSDOF 4
ENDMDL
MODEL      319
REMARK 921   NORMALIZED FREE ENERGY PREDICTED BY IDOCK:   -1.62 KCAL/MOL
REMARK 922        TOTAL FREE ENERGY PREDICTED BY IDOCK:   -2.24 KCAL/MOL
REMARK 923 INTER-LIGAND FREE ENERGY PREDICTED BY IDOCK:   -1.71 KCAL/MOL
REMARK 924 INTRA-LIGAND FREE ENERGY PREDICTED BY IDOCK:   -0.53 KCAL/MOL
REMARK 927      BINDING AFFINITY PREDICTED BY RF-SCORE:    0.00 PKD
ROOT
HETATM    1  C   UNL     1     -10.698   4.172  64.958  1.00  0.00    -0.095 C  
HETATM    2  N   UNL     1     -10.089   3.975  66.268  1.00  0.00    -0.415 NA 
HETATM    3  H   UNL     1     -10.368   3.076  66.661  1.00  0.00     0.000 HD 
ENDROOT
BRANCH   2   4
HETATM    4  C   UNL     1      -8.618   4.108  66.268  1.00  0.00    -0.113 C  
HETATM    5  C   UNL     1      -7.931   2.787  65.905  1.00  0.00    -0.082 C  
BRANCH   4   6
HETATM    6  C   UNL     1      -8.150   5.197  65.259  1.00  0.00    -0.120 C  
BRANCH   6   7
HETATM    7  C   UNL     1      -7.769   6.530  65.868  1.00  0.00    -0.090 A  
HETATM    8  C   UNL     1      -6.396   6.865  65.835  1.00  0.00    -0.050 A  
HETATM    9  C   UNL     1      -5.912   8.035  66.413  1.00  0.00    -0.041 A  
HETATM   10  C   UNL     1      -6.793   8.898  67.050  1.00  0.00    -0.073 A  
HETATM   11  C   UNL     1      -8.151   8.578  67.107  1.00  0.00    -0.104 A  
HETATM   12  C   UNL     1      -8.652   7.406  66.517  1.00  0.00    -0.132 A  
BRANCH  12  13
HETATM   13  O   UNL     1      -9.974   7.185  66.791  1.00  0.00    -0.204 OA 
HETATM   14  C   UNL     1     -10.407   7.417  68.121  1.00  0.00    -0.192 C  
ENDBRANCH  12  13
ENDBRANCH   6   7
ENDBRANCH   4   6
ENDBRANCH   2   4
TORSDOF 4
ENDMDL
MODEL      320
REMARK 921   NORMALIZED FREE ENERGY PREDICTED BY IDOCK:   -1.61 KCAL/MOL
REMARK 922        TOTAL FREE ENERGY PREDICTED BY IDOCK:   -2.22 KCAL/MOL
REMARK 923 INTER-LIGAND FREE ENERGY PREDICTED BY IDOCK:   -2.15 KCAL/MOL
REMARK 924 INTRA-LIGAND FREE ENERGY PREDICTED BY IDOCK:   -0.08 KCAL/MOL
REMARK 927      BINDING AFFINITY PREDICTED BY RF-SCORE:    0.00 PKD
ROOT
HETATM    1  C   UNL     1      -9.625   5.296  73.088  1.00  0.00    -0.145 C  
HETATM    2  N   UNL     1      -9.332   5.993  71.843  1.00  0.00    -0.151 NA 
HETATM    3  H   UNL     1      -8.341   6.231  71.789  1.00  0.00     0.000 HD 
ENDROOT
BRANCH   2   4
HETATM    4  C   UNL     1      -9.756   5.260  70.634  1.00  0.00    -0.186 C  
HETATM    5  C   UNL     1     -10.871   5.999  69.885  1.00  0.00    -0.434 C  
BRANCH   4   6
HETATM    6  C   UNL     1      -8.564   5.051  69.654  1.00  0.00    -0.099 C  
BRANCH   6   7
HETATM    7  C   UNL     1      -8.937   4.925  68.192  1.00  0.00    -0.123 A  
HETATM    8  C   UNL     1      -9.232   3.621  67.731  1.00  0.00    -0.228 A  
HETATM    9  C   UNL     1      -9.532   3.366  66.395  1.00  0.00    -0.135 A  
HETATM   10  C   UNL     1      -9.533   4.411  65.482  1.00  0.00    -0.175 A  
HETATM   11  C   UNL     1      -9.230   5.704  65.915  1.00  0.00    -0.145 A  
HETATM   12  C   UNL     1      -8.937   5.975  67.262  1.00  0.00    -0.109 A  
BRANCH  12  13
HETATM   13  O   UNL     1      -8.527   7.262  67.478  1.00  0.00    -0.119 OA 
HETATM   14  C   UNL     1      -7.826   7.903  66.426  1.00  0.00    -0.097 C  
ENDBRANCH  12  13
ENDBRANCH   6   7
ENDBRANCH   4   6
ENDBRANCH   2   4
TORSDOF 4
ENDMDL
MODEL      321
REMARK 921   NORMALIZED FREE ENERGY PREDICTED BY IDOCK:   -1.61 KCAL/MOL
REMARK 922        TOTAL FREE ENERGY PREDICTED BY IDOCK:   -2.22 KCAL/MOL
REMARK 923 INTER-LIGAND FREE ENERGY PREDICTED BY IDOCK:   -2.28 KCAL/MOL
REMARK 924 INTRA-LIGAND FREE ENERGY PREDICTED BY IDOCK:    0.06 KCAL/MOL
REMARK 927      BINDING AFFINITY PREDICTED BY RF-SCORE:    0.00 PKD
ROOT
HETATM    1  C   UNL     1      -8.686   6.332  73.081  1.00  0.00    -0.123 C  
HETATM    2  N   UNL     1      -8.282   7.465  72.257  1.00  0.00    -0.100 NA 
HETATM    3  H   UNL     1      -7.320   7.350  71.937  1.00  0.00     0.000 HD 
ENDROOT
BRANCH   2   4
HETATM    4  C   UNL     1      -9.182   7.724  71.116  1.00  0.00    -0.146 C  
HETATM    5  C   UNL     1      -9.829   9.111  71.209  1.00  0.00    -0.363 C  
BRANCH   4   6
HETATM    6  C   UNL     1      -8.418   7.631  69.763  1.00  0.00    -0.134 C  
BRANCH   6   7
HETATM    7  C   UNL     1      -8.739   8.716  68.757  1.00  0.00    -0.135 A  
HETATM    8  C   UNL     1      -7.885   9.843  68.756  1.00  0.00    -0.091 A  
HETATM    9  C   UNL     1      -8.109  10.934  67.919  1.00  0.00    -0.113 A  
HETATM   10  C   UNL     1      -9.203  10.927  67.065  1.00  0.00    -0.165 A  
HETATM   11  C   UNL     1     -10.067   9.829  67.061  1.00  0.00    -0.277 A  
HETATM   12  C   UNL     1      -9.844   8.719  67.893  1.00  0.00    -0.169 A  
BRANCH  12  13
HETATM   13  O   UNL     1     -10.862   7.805  67.860  1.00  0.00    -0.138 OA 
HETATM   14  C   UNL     1     -10.786   6.788  66.875  1.00  0.00    -0.324 C  
ENDBRANCH  12  13
ENDBRANCH   6   7
ENDBRANCH   4   6
ENDBRANCH   2   4
TORSDOF 4
ENDMDL
MODEL      322
REMARK 921   NORMALIZED FREE ENERGY PREDICTED BY IDOCK:   -1.60 KCAL/MOL
REMARK 922        TOTAL FREE ENERGY PREDICTED BY IDOCK:   -2.21 KCAL/MOL
REMARK 923 INTER-LIGAND FREE ENERGY PREDICTED BY IDOCK:   -1.91 KCAL/MOL
REMARK 924 INTRA-LIGAND FREE ENERGY PREDICTED BY IDOCK:   -0.30 KCAL/MOL
REMARK 927      BINDING AFFINITY PREDICTED BY RF-SCORE:    0.00 PKD
ROOT
HETATM    1  C   UNL     1      -8.588   8.191  65.621  1.00  0.00    -0.158 C  
HETATM    2  N   UNL     1      -9.890   7.934  66.222  1.00  0.00    -0.459 NA 
HETATM    3  H   UNL     1     -10.602   7.818  65.501  1.00  0.00     0.000 HD 
ENDROOT
BRANCH   2   4
HETATM    4  C   UNL     1      -9.903   6.787  67.152  1.00  0.00    -0.161 C  
HETATM    5  C   UNL     1     -10.660   5.590  66.564  1.00  0.00    -0.343 C  
BRANCH   4   6
HETATM    6  C   UNL     1      -8.457   6.327  67.500  1.00  0.00    -0.108 C  
BRANCH   6   7
HETATM    7  C   UNL     1      -8.268   5.770  68.895  1.00  0.00    -0.101 A  
HETATM    8  C   UNL     1      -7.970   6.709  69.909  1.00  0.00    -0.117 A  
HETATM    9  C   UNL     1      -7.716   6.316  71.222  1.00  0.00    -0.103 A  
HETATM   10  C   UNL     1      -7.745   4.968  71.549  1.00  0.00    -0.105 A  
HETATM   11  C   UNL     1      -8.023   4.024  70.558  1.00  0.00    -0.055 A  
HETATM   12  C   UNL     1      -8.291   4.410  69.234  1.00  0.00    -0.074 A  
BRANCH  12  13
HETATM   13  O   UNL     1      -8.400   3.351  68.374  1.00  0.00    -0.078 OA 
HETATM   14  C   UNL     1      -8.079   2.068  68.884  1.00  0.00    -0.048 C  
ENDBRANCH  12  13
ENDBRANCH   6   7
ENDBRANCH   4   6
ENDBRANCH   2   4
TORSDOF 4
ENDMDL
MODEL      323
REMARK 921   NORMALIZED FREE ENERGY PREDICTED BY IDOCK:   -1.56 KCAL/MOL
REMARK 922        TOTAL FREE ENERGY PREDICTED BY IDOCK:   -2.16 KCAL/MOL
REMARK 923 INTER-LIGAND FREE ENERGY PREDICTED BY IDOCK:   -1.79 KCAL/MOL
REMARK 924 INTRA-LIGAND FREE ENERGY PREDICTED BY IDOCK:   -0.37 KCAL/MOL
REMARK 927      BINDING AFFINITY PREDICTED BY RF-SCORE:    0.00 PKD
ROOT
HETATM    1  C   UNL     1      -9.583   3.108  64.136  1.00  0.00    -0.143 C  
HETATM    2  N   UNL     1     -10.502   3.724  65.086  1.00  0.00    -0.459 NA 
HETATM    3  H   UNL     1     -11.103   3.018  65.511  1.00  0.00     0.000 HD 
ENDROOT
BRANCH   2   4
HETATM    4  C   UNL     1      -9.833   4.532  66.125  1.00  0.00    -0.230 C  
HETATM    5  C   UNL     1     -10.734   5.667  66.625  1.00  0.00    -0.339 C  
BRANCH   4   6
HETATM    6  C   UNL     1      -9.427   3.656  67.346  1.00  0.00    -0.238 C  
BRANCH   6   7
HETATM    7  C   UNL     1      -8.128   4.042  68.022  1.00  0.00    -0.088 A  
HETATM    8  C   UNL     1      -8.240   4.830  69.190  1.00  0.00    -0.081 A  
HETATM    9  C   UNL     1      -7.118   5.298  69.870  1.00  0.00    -0.062 A  
HETATM   10  C   UNL     1      -5.852   4.995  69.390  1.00  0.00    -0.017 A  
HETATM   11  C   UNL     1      -5.721   4.230  68.229  1.00  0.00    -0.021 A  
HETATM   12  C   UNL     1      -6.845   3.744  67.542  1.00  0.00    -0.054 A  
BRANCH  12  13
HETATM   13  O   UNL     1      -6.533   3.138  66.355  1.00  0.00    -0.031 OA 
HETATM   14  C   UNL     1      -6.207   3.982  65.264  1.00  0.00    -0.027 C  
ENDBRANCH  12  13
ENDBRANCH   6   7
ENDBRANCH   4   6
ENDBRANCH   2   4
TORSDOF 4
ENDMDL
MODEL      324
REMARK 921   NORMALIZED FREE ENERGY PREDICTED BY IDOCK:   -1.56 KCAL/MOL
REMARK 922        TOTAL FREE ENERGY PREDICTED BY IDOCK:   -2.16 KCAL/MOL
REMARK 923 INTER-LIGAND FREE ENERGY PREDICTED BY IDOCK:   -1.82 KCAL/MOL
REMARK 924 INTRA-LIGAND FREE ENERGY PREDICTED BY IDOCK:   -0.34 KCAL/MOL
REMARK 927      BINDING AFFINITY PREDICTED BY RF-SCORE:    0.00 PKD
ROOT
HETATM    1  C   UNL     1     -10.270   8.899  71.603  1.00  0.00    -0.345 C  
HETATM    2  N   UNL     1      -8.891   9.312  71.372  1.00  0.00    -0.303 NA 
HETATM    3  H   UNL     1      -8.267   8.872  72.048  1.00  0.00     0.000 HD 
ENDROOT
BRANCH   2   4
HETATM    4  C   UNL     1      -8.418   9.072  69.995  1.00  0.00    -0.145 C  
HETATM    5  C   UNL     1      -8.069  10.382  69.280  1.00  0.00    -0.159 C  
BRANCH   4   6
HETATM    6  C   UNL     1      -7.159   8.158  69.982  1.00  0.00    -0.048 C  
BRANCH   6   7
HETATM    7  C   UNL     1      -7.319   6.837  69.259  1.00  0.00    -0.093 A  
HETATM    8  C   UNL     1      -6.770   6.765  67.958  1.00  0.00    -0.068 A  
HETATM    9  C   UNL     1      -6.902   5.625  67.168  1.00  0.00    -0.064 A  
HETATM   10  C   UNL     1      -7.598   4.529  67.660  1.00  0.00    -0.078 A  
HETATM   11  C   UNL     1      -8.159   4.587  68.937  1.00  0.00    -0.077 A  
HETATM   12  C   UNL     1      -8.023   5.727  69.746  1.00  0.00    -0.100 A  
BRANCH  12  13
HETATM   13  O   UNL     1      -8.753   5.660  70.901  1.00  0.00    -0.129 OA 
HETATM   14  C   UNL     1     -10.156   5.498  70.772  1.00  0.00    -0.212 C  
ENDBRANCH  12  13
ENDBRANCH   6   7
ENDBRANCH   4   6
ENDBRANCH   2   4
TORSDOF 4
ENDMDL
MODEL      325
REMARK 921   NORMALIZED FREE ENERGY PREDICTED BY IDOCK:   -1.55 KCAL/MOL
REMARK 922        TOTAL FREE ENERGY PREDICTED BY IDOCK:   -2.15 KCAL/MOL
REMARK 923 INTER-LIGAND FREE ENERGY PREDICTED BY IDOCK:   -1.95 KCAL/MOL
REMARK 924 INTRA-LIGAND FREE ENERGY PREDICTED BY IDOCK:   -0.20 KCAL/MOL
REMARK 927      BINDING AFFINITY PREDICTED BY RF-SCORE:    0.00 PKD
ROOT
HETATM    1  C   UNL     1     -11.494   6.342  71.892  1.00  0.00    -0.309 C  
HETATM    2  N   UNL     1     -10.383   5.716  71.187  1.00  0.00    -0.222 NA 
HETATM    3  H   UNL     1     -10.547   5.722  70.181  1.00  0.00     0.000 HD 
ENDROOT
BRANCH   2   4
HETATM    4  C   UNL     1      -9.067   6.307  71.502  1.00  0.00    -0.145 C  
HETATM    5  C   UNL     1      -8.493   5.746  72.808  1.00  0.00    -0.119 C  
BRANCH   4   6
HETATM    6  C   UNL     1      -8.041   6.039  70.362  1.00  0.00    -0.111 C  
BRANCH   6   7
HETATM    7  C   UNL     1      -8.516   5.115  69.261  1.00  0.00    -0.093 A  
HETATM    8  C   UNL     1      -8.917   5.733  68.054  1.00  0.00    -0.111 A  
HETATM    9  C   UNL     1      -9.429   4.998  66.987  1.00  0.00    -0.150 A  
HETATM   10  C   UNL     1      -9.560   3.621  67.107  1.00  0.00    -0.194 A  
HETATM   11  C   UNL     1      -9.183   2.994  68.296  1.00  0.00    -0.244 A  
HETATM   12  C   UNL     1      -8.656   3.725  69.374  1.00  0.00    -0.074 A  
BRANCH  12  13
HETATM   13  O   UNL     1      -8.476   2.971  70.502  1.00  0.00    -0.054 OA 
HETATM   14  C   UNL     1      -9.447   1.976  70.777  1.00  0.00    -0.122 C  
ENDBRANCH  12  13
ENDBRANCH   6   7
ENDBRANCH   4   6
ENDBRANCH   2   4
TORSDOF 4
ENDMDL
MODEL      326
REMARK 921   NORMALIZED FREE ENERGY PREDICTED BY IDOCK:   -1.51 KCAL/MOL
REMARK 922        TOTAL FREE ENERGY PREDICTED BY IDOCK:   -2.10 KCAL/MOL
REMARK 923 INTER-LIGAND FREE ENERGY PREDICTED BY IDOCK:   -1.91 KCAL/MOL
REMARK 924 INTRA-LIGAND FREE ENERGY PREDICTED BY IDOCK:   -0.18 KCAL/MOL
REMARK 927      BINDING AFFINITY PREDICTED BY RF-SCORE:    0.00 PKD
ROOT
HETATM    1  C   UNL     1      -6.954   8.910  67.664  1.00  0.00    -0.075 C  
HETATM    2  N   UNL     1      -7.923   9.505  68.577  1.00  0.00    -0.092 NA 
HETATM    3  H   UNL     1      -7.942  10.519  68.468  1.00  0.00     0.000 HD 
ENDROOT
BRANCH   2   4
HETATM    4  C   UNL     1      -9.283   8.944  68.452  1.00  0.00    -0.140 C  
HETATM    5  C   UNL     1     -10.358   9.993  68.759  1.00  0.00    -0.216 C  
BRANCH   4   6
HETATM    6  C   UNL     1      -9.536   8.390  67.020  1.00  0.00    -0.225 C  
BRANCH   6   7
HETATM    7  C   UNL     1      -9.483   6.883  66.884  1.00  0.00    -0.194 A  
HETATM    8  C   UNL     1     -10.039   6.139  67.950  1.00  0.00    -0.179 A  
HETATM    9  C   UNL     1     -10.000   4.746  67.971  1.00  0.00    -0.154 A  
HETATM   10  C   UNL     1      -9.392   4.063  66.927  1.00  0.00    -0.200 A  
HETATM   11  C   UNL     1      -8.824   4.781  65.873  1.00  0.00    -0.127 A  
HETATM   12  C   UNL     1      -8.868   6.185  65.835  1.00  0.00    -0.143 A  
BRANCH  12  13
HETATM   13  O   UNL     1      -8.142   6.721  64.807  1.00  0.00    -0.125 OA 
HETATM   14  C   UNL     1      -6.740   6.509  64.824  1.00  0.00    -0.042 C  
ENDBRANCH  12  13
ENDBRANCH   6   7
ENDBRANCH   4   6
ENDBRANCH   2   4
TORSDOF 4
ENDMDL
MODEL      327
REMARK 921   NORMALIZED FREE ENERGY PREDICTED BY IDOCK:   -1.46 KCAL/MOL
REMARK 922        TOTAL FREE ENERGY PREDICTED BY IDOCK:   -2.04 KCAL/MOL
REMARK 923 INTER-LIGAND FREE ENERGY PREDICTED BY IDOCK:   -2.12 KCAL/MOL
REMARK 924 INTRA-LIGAND FREE ENERGY PREDICTED BY IDOCK:    0.08 KCAL/MOL
REMARK 927      BINDING AFFINITY PREDICTED BY RF-SCORE:    0.00 PKD
ROOT
HETATM    1  C   UNL     1      -9.015   8.678  71.748  1.00  0.00    -0.237 C  
HETATM    2  N   UNL     1      -8.484   9.576  70.731  1.00  0.00    -0.308 NA 
HETATM    3  H   UNL     1      -7.643   9.183  70.309  1.00  0.00     0.000 HD 
ENDROOT
BRANCH   2   4
HETATM    4  C   UNL     1      -9.464   9.945  69.689  1.00  0.00    -0.231 C  
HETATM    5  C   UNL     1      -8.820  10.781  68.578  1.00  0.00    -0.149 C  
BRANCH   4   6
HETATM    6  C   UNL     1     -10.102   8.681  69.043  1.00  0.00    -0.207 C  
BRANCH   6   7
HETATM    7  C   UNL     1      -9.197   7.894  68.118  1.00  0.00    -0.136 A  
HETATM    8  C   UNL     1      -9.085   8.374  66.793  1.00  0.00    -0.192 A  
HETATM    9  C   UNL     1      -8.331   7.707  65.831  1.00  0.00    -0.140 A  
HETATM   10  C   UNL     1      -7.675   6.532  66.171  1.00  0.00    -0.092 A  
HETATM   11  C   UNL     1      -7.785   6.033  67.471  1.00  0.00    -0.097 A  
HETATM   12  C   UNL     1      -8.534   6.705  68.452  1.00  0.00    -0.125 A  
BRANCH  12  13
HETATM   13  O   UNL     1      -8.647   6.003  69.621  1.00  0.00    -0.123 OA 
HETATM   14  C   UNL     1      -7.446   5.691  70.307  1.00  0.00    -0.080 C  
ENDBRANCH  12  13
ENDBRANCH   6   7
ENDBRANCH   4   6
ENDBRANCH   2   4
TORSDOF 4
ENDMDL
MODEL      328
REMARK 921   NORMALIZED FREE ENERGY PREDICTED BY IDOCK:   -1.45 KCAL/MOL
REMARK 922        TOTAL FREE ENERGY PREDICTED BY IDOCK:   -2.03 KCAL/MOL
REMARK 923 INTER-LIGAND FREE ENERGY PREDICTED BY IDOCK:   -1.76 KCAL/MOL
REMARK 924 INTRA-LIGAND FREE ENERGY PREDICTED BY IDOCK:   -0.28 KCAL/MOL
REMARK 927      BINDING AFFINITY PREDICTED BY RF-SCORE:    0.00 PKD
ROOT
HETATM    1  C   UNL     1      -6.351   8.069  66.776  1.00  0.00    -0.055 C  
HETATM    2  N   UNL     1      -7.546   8.846  67.080  1.00  0.00    -0.091 NA 
HETATM    3  H   UNL     1      -7.800   9.438  66.289  1.00  0.00     0.000 HD 
ENDROOT
BRANCH   2   4
HETATM    4  C   UNL     1      -8.698   8.028  67.508  1.00  0.00    -0.125 C  
HETATM    5  C   UNL     1      -9.470   7.468  66.307  1.00  0.00    -0.161 C  
BRANCH   4   6
HETATM    6  C   UNL     1      -8.243   6.833  68.396  1.00  0.00    -0.119 C  
BRANCH   6   7
HETATM    7  C   UNL     1      -8.838   6.792  69.788  1.00  0.00    -0.141 A  
HETATM    8  C   UNL     1      -8.940   8.030  70.463  1.00  0.00    -0.152 A  
HETATM    9  C   UNL     1      -9.415   8.118  71.769  1.00  0.00    -0.249 A  
HETATM   10  C   UNL     1      -9.792   6.961  72.438  1.00  0.00    -0.172 A  
HETATM   11  C   UNL     1      -9.685   5.727  71.793  1.00  0.00    -0.185 A  
HETATM   12  C   UNL     1      -9.217   5.629  70.472  1.00  0.00    -0.150 A  
BRANCH  12  13
HETATM   13  O   UNL     1      -9.045   4.338  70.054  1.00  0.00    -0.091 OA 
HETATM   14  C   UNL     1      -8.198   3.512  70.835  1.00  0.00    -0.065 C  
ENDBRANCH  12  13
ENDBRANCH   6   7
ENDBRANCH   4   6
ENDBRANCH   2   4
TORSDOF 4
ENDMDL
MODEL      329
REMARK 921   NORMALIZED FREE ENERGY PREDICTED BY IDOCK:   -1.43 KCAL/MOL
REMARK 922        TOTAL FREE ENERGY PREDICTED BY IDOCK:   -2.00 KCAL/MOL
REMARK 923 INTER-LIGAND FREE ENERGY PREDICTED BY IDOCK:   -1.81 KCAL/MOL
REMARK 924 INTRA-LIGAND FREE ENERGY PREDICTED BY IDOCK:   -0.19 KCAL/MOL
REMARK 927      BINDING AFFINITY PREDICTED BY RF-SCORE:    0.00 PKD
ROOT
HETATM    1  C   UNL     1     -10.135   6.407  69.834  1.00  0.00    -0.171 C  
HETATM    2  N   UNL     1     -10.492   5.245  69.029  1.00  0.00    -0.180 NA 
HETATM    3  H   UNL     1     -11.450   5.326  68.688  1.00  0.00     0.000 HD 
ENDROOT
BRANCH   2   4
HETATM    4  C   UNL     1      -9.563   4.984  67.912  1.00  0.00    -0.140 C  
HETATM    5  C   UNL     1      -8.787   3.678  68.115  1.00  0.00    -0.149 C  
BRANCH   4   6
HETATM    6  C   UNL     1     -10.322   4.896  66.556  1.00  0.00    -0.311 C  
BRANCH   6   7
HETATM    7  C   UNL     1      -9.468   4.560  65.352  1.00  0.00    -0.175 A  
HETATM    8  C   UNL     1      -9.586   3.245  64.846  1.00  0.00    -0.140 A  
HETATM    9  C   UNL     1      -8.812   2.796  63.779  1.00  0.00    -0.092 A  
HETATM   10  C   UNL     1      -7.890   3.654  63.195  1.00  0.00    -0.071 A  
HETATM   11  C   UNL     1      -7.748   4.952  63.689  1.00  0.00    -0.073 A  
HETATM   12  C   UNL     1      -8.531   5.418  64.758  1.00  0.00    -0.138 A  
BRANCH  12  13
HETATM   13  O   UNL     1      -8.160   6.659  65.199  1.00  0.00    -0.126 OA 
HETATM   14  C   UNL     1      -6.778   6.972  65.165  1.00  0.00    -0.047 C  
ENDBRANCH  12  13
ENDBRANCH   6   7
ENDBRANCH   4   6
ENDBRANCH   2   4
TORSDOF 4
ENDMDL
MODEL      330
REMARK 921   NORMALIZED FREE ENERGY PREDICTED BY IDOCK:   -1.43 KCAL/MOL
REMARK 922        TOTAL FREE ENERGY PREDICTED BY IDOCK:   -2.00 KCAL/MOL
REMARK 923 INTER-LIGAND FREE ENERGY PREDICTED BY IDOCK:   -1.63 KCAL/MOL
REMARK 924 INTRA-LIGAND FREE ENERGY PREDICTED BY IDOCK:   -0.37 KCAL/MOL
REMARK 927      BINDING AFFINITY PREDICTED BY RF-SCORE:    0.00 PKD
ROOT
HETATM    1  C   UNL     1     -10.122   8.878  71.492  1.00  0.00    -0.324 C  
HETATM    2  N   UNL     1      -8.677   8.939  71.308  1.00  0.00    -0.213 NA 
HETATM    3  H   UNL     1      -8.197   8.486  72.086  1.00  0.00     0.000 HD 
ENDROOT
BRANCH   2   4
HETATM    4  C   UNL     1      -8.215   8.384  70.020  1.00  0.00    -0.121 C  
HETATM    5  C   UNL     1      -7.647   9.476  69.106  1.00  0.00    -0.075 C  
BRANCH   4   6
HETATM    6  C   UNL     1      -7.114   7.305  70.234  1.00  0.00    -0.065 C  
BRANCH   6   7
HETATM    7  C   UNL     1      -7.513   6.128  71.099  1.00  0.00    -0.085 A  
HETATM    8  C   UNL     1      -8.037   5.002  70.423  1.00  0.00    -0.085 A  
HETATM    9  C   UNL     1      -8.494   3.881  71.111  1.00  0.00    -0.099 A  
HETATM   10  C   UNL     1      -8.447   3.863  72.498  1.00  0.00    -0.100 A  
HETATM   11  C   UNL     1      -7.947   4.971  73.184  1.00  0.00    -0.104 A  
HETATM   12  C   UNL     1      -7.473   6.103  72.500  1.00  0.00    -0.097 A  
BRANCH  12  13
HETATM   13  O   UNL     1      -7.154   7.142  73.331  1.00  0.00    -0.072 OA 
HETATM   14  C   UNL     1      -8.111   7.503  74.313  1.00  0.00    -0.185 C  
ENDBRANCH  12  13
ENDBRANCH   6   7
ENDBRANCH   4   6
ENDBRANCH   2   4
TORSDOF 4
ENDMDL
MODEL      331
REMARK 921   NORMALIZED FREE ENERGY PREDICTED BY IDOCK:   -1.38 KCAL/MOL
REMARK 922        TOTAL FREE ENERGY PREDICTED BY IDOCK:   -1.94 KCAL/MOL
REMARK 923 INTER-LIGAND FREE ENERGY PREDICTED BY IDOCK:   -1.67 KCAL/MOL
REMARK 924 INTRA-LIGAND FREE ENERGY PREDICTED BY IDOCK:   -0.27 KCAL/MOL
REMARK 927      BINDING AFFINITY PREDICTED BY RF-SCORE:    0.00 PKD
ROOT
HETATM    1  C   UNL     1     -11.830   1.690  73.593  1.00  0.00    -0.185 C  
HETATM    2  N   UNL     1     -10.664   1.971  72.765  1.00  0.00    -0.147 NA 
HETATM    3  H   UNL     1     -10.822   1.661  71.806  1.00  0.00     0.000 HD 
ENDROOT
BRANCH   2   4
HETATM    4  C   UNL     1     -10.241   3.386  72.790  1.00  0.00    -0.168 C  
HETATM    5  C   UNL     1     -11.271   4.272  73.499  1.00  0.00    -0.361 C  
BRANCH   4   6
HETATM    6  C   UNL     1      -8.873   3.552  73.513  1.00  0.00    -0.088 C  
BRANCH   6   7
HETATM    7  C   UNL     1      -7.928   4.561  72.896  1.00  0.00    -0.092 A  
HETATM    8  C   UNL     1      -7.051   4.073  71.900  1.00  0.00    -0.049 A  
HETATM    9  C   UNL     1      -6.095   4.887  71.299  1.00  0.00    -0.018 A  
HETATM   10  C   UNL     1      -5.986   6.215  71.688  1.00  0.00    -0.035 A  
HETATM   11  C   UNL     1      -6.833   6.713  72.681  1.00  0.00    -0.064 A  
HETATM   12  C   UNL     1      -7.808   5.903  73.286  1.00  0.00    -0.105 A  
BRANCH  12  13
HETATM   13  O   UNL     1      -8.446   6.514  74.331  1.00  0.00    -0.129 OA 
HETATM   14  C   UNL     1      -8.146   7.881  74.562  1.00  0.00    -0.226 C  
ENDBRANCH  12  13
ENDBRANCH   6   7
ENDBRANCH   4   6
ENDBRANCH   2   4
TORSDOF 4
ENDMDL
MODEL      332
REMARK 921   NORMALIZED FREE ENERGY PREDICTED BY IDOCK:   -1.38 KCAL/MOL
REMARK 922        TOTAL FREE ENERGY PREDICTED BY IDOCK:   -1.94 KCAL/MOL
REMARK 923 INTER-LIGAND FREE ENERGY PREDICTED BY IDOCK:   -1.97 KCAL/MOL
REMARK 924 INTRA-LIGAND FREE ENERGY PREDICTED BY IDOCK:    0.03 KCAL/MOL
REMARK 927      BINDING AFFINITY PREDICTED BY RF-SCORE:    0.00 PKD
ROOT
HETATM    1  C   UNL     1      -6.528   8.701  71.145  1.00  0.00    -0.055 C  
HETATM    2  N   UNL     1      -6.913   7.467  70.472  1.00  0.00    -0.052 NA 
HETATM    3  H   UNL     1      -7.659   6.996  70.985  1.00  0.00     0.000 HD 
ENDROOT
BRANCH   2   4
HETATM    4  C   UNL     1      -7.293   7.652  69.058  1.00  0.00    -0.086 C  
HETATM    5  C   UNL     1      -8.731   7.190  68.793  1.00  0.00    -0.124 C  
BRANCH   4   6
HETATM    6  C   UNL     1      -7.173   9.144  68.632  1.00  0.00    -0.075 C  
BRANCH   6   7
HETATM    7  C   UNL     1      -8.469   9.812  68.223  1.00  0.00    -0.114 A  
HETATM    8  C   UNL     1      -9.251  10.355  69.269  1.00  0.00    -0.198 A  
HETATM    9  C   UNL     1     -10.490  10.943  69.029  1.00  0.00    -0.244 A  
HETATM   10  C   UNL     1     -10.984  10.993  67.733  1.00  0.00    -0.323 A  
HETATM   11  C   UNL     1     -10.233  10.449  66.688  1.00  0.00    -0.292 A  
HETATM   12  C   UNL     1      -8.977   9.864  66.917  1.00  0.00    -0.138 A  
BRANCH  12  13
HETATM   13  O   UNL     1      -8.452   9.260  65.808  1.00  0.00    -0.124 OA 
HETATM   14  C   UNL     1      -7.786  10.092  64.872  1.00  0.00    -0.141 C  
ENDBRANCH  12  13
ENDBRANCH   6   7
ENDBRANCH   4   6
ENDBRANCH   2   4
TORSDOF 4
ENDMDL
MODEL      333
REMARK 921   NORMALIZED FREE ENERGY PREDICTED BY IDOCK:   -1.26 KCAL/MOL
REMARK 922        TOTAL FREE ENERGY PREDICTED BY IDOCK:   -1.79 KCAL/MOL
REMARK 923 INTER-LIGAND FREE ENERGY PREDICTED BY IDOCK:   -1.52 KCAL/MOL
REMARK 924 INTRA-LIGAND FREE ENERGY PREDICTED BY IDOCK:   -0.27 KCAL/MOL
REMARK 927      BINDING AFFINITY PREDICTED BY RF-SCORE:    0.00 PKD
ROOT
HETATM    1  C   UNL     1      -6.064  12.392  69.663  1.00  0.00    -0.135 C  
HETATM    2  N   UNL     1      -6.781  11.945  68.475  1.00  0.00    -0.063 NA 
HETATM    3  H   UNL     1      -6.212  12.083  67.640  1.00  0.00     0.000 HD 
ENDROOT
BRANCH   2   4
HETATM    4  C   UNL     1      -7.257  10.550  68.555  1.00  0.00    -0.085 C  
HETATM    5  C   UNL     1      -7.720  10.190  69.971  1.00  0.00    -0.150 C  
BRANCH   4   6
HETATM    6  C   UNL     1      -8.441  10.301  67.576  1.00  0.00    -0.118 C  
BRANCH   6   7
HETATM    7  C   UNL     1      -8.206   9.238  66.524  1.00  0.00    -0.107 A  
HETATM    8  C   UNL     1      -7.860   9.699  65.233  1.00  0.00    -0.115 A  
HETATM    9  C   UNL     1      -7.675   8.823  64.165  1.00  0.00    -0.130 A  
HETATM   10  C   UNL     1      -7.842   7.460  64.363  1.00  0.00    -0.127 A  
HETATM   11  C   UNL     1      -8.197   6.986  65.628  1.00  0.00    -0.134 A  
HETATM   12  C   UNL     1      -8.376   7.859  66.714  1.00  0.00    -0.120 A  
BRANCH  12  13
HETATM   13  O   UNL     1      -8.858   7.238  67.834  1.00  0.00    -0.129 OA 
HETATM   14  C   UNL     1      -8.158   6.093  68.290  1.00  0.00    -0.111 C  
ENDBRANCH  12  13
ENDBRANCH   6   7
ENDBRANCH   4   6
ENDBRANCH   2   4
TORSDOF 4
ENDMDL
MODEL      334
REMARK 921   NORMALIZED FREE ENERGY PREDICTED BY IDOCK:   -1.18 KCAL/MOL
REMARK 922        TOTAL FREE ENERGY PREDICTED BY IDOCK:   -1.70 KCAL/MOL
REMARK 923 INTER-LIGAND FREE ENERGY PREDICTED BY IDOCK:   -1.54 KCAL/MOL
REMARK 924 INTRA-LIGAND FREE ENERGY PREDICTED BY IDOCK:   -0.16 KCAL/MOL
REMARK 927      BINDING AFFINITY PREDICTED BY RF-SCORE:    0.00 PKD
ROOT
HETATM    1  C   UNL     1      -9.540   3.668  64.478  1.00  0.00    -0.168 C  
HETATM    2  N   UNL     1     -10.509   4.413  65.271  1.00  0.00    -0.517 NA 
HETATM    3  H   UNL     1     -11.336   3.845  65.453  1.00  0.00     0.000 HD 
ENDROOT
BRANCH   2   4
HETATM    4  C   UNL     1      -9.961   4.951  66.532  1.00  0.00    -0.232 C  
HETATM    5  C   UNL     1     -10.333   6.426  66.726  1.00  0.00    -0.279 C  
BRANCH   4   6
HETATM    6  C   UNL     1     -10.482   4.151  67.761  1.00  0.00     0.772 C  
BRANCH   6   7
HETATM    7  C   UNL     1      -9.720   4.367  69.051  1.00  0.00    -0.223 A  
HETATM    8  C   UNL     1     -10.276   5.298  69.959  1.00  0.00    -0.358 A  
HETATM    9  C   UNL     1      -9.641   5.628  71.154  1.00  0.00    -0.208 A  
HETATM   10  C   UNL     1      -8.423   5.039  71.465  1.00  0.00    -0.124 A  
HETATM   11  C   UNL     1      -7.850   4.129  70.575  1.00  0.00    -0.051 A  
HETATM   12  C   UNL     1      -8.488   3.780  69.373  1.00  0.00    -0.064 A  
BRANCH  12  13
HETATM   13  O   UNL     1      -7.720   2.988  68.563  1.00  0.00    -0.055 OA 
HETATM   14  C   UNL     1      -6.623   2.320  69.164  1.00  0.00    -0.029 C  
ENDBRANCH  12  13
ENDBRANCH   6   7
ENDBRANCH   4   6
ENDBRANCH   2   4
TORSDOF 4
ENDMDL
MODEL      335
REMARK 921   NORMALIZED FREE ENERGY PREDICTED BY IDOCK:   -1.16 KCAL/MOL
REMARK 922        TOTAL FREE ENERGY PREDICTED BY IDOCK:   -1.67 KCAL/MOL
REMARK 923 INTER-LIGAND FREE ENERGY PREDICTED BY IDOCK:   -1.46 KCAL/MOL
REMARK 924 INTRA-LIGAND FREE ENERGY PREDICTED BY IDOCK:   -0.21 KCAL/MOL
REMARK 927      BINDING AFFINITY PREDICTED BY RF-SCORE:    0.00 PKD
ROOT
HETATM    1  C   UNL     1     -10.057   6.879  70.808  1.00  0.00    -0.194 C  
HETATM    2  N   UNL     1      -8.907   6.572  69.968  1.00  0.00    -0.143 NA 
HETATM    3  H   UNL     1      -8.951   7.096  69.094  1.00  0.00     0.000 HD 
ENDROOT
BRANCH   2   4
HETATM    4  C   UNL     1      -7.607   6.781  70.635  1.00  0.00    -0.095 C  
HETATM    5  C   UNL     1      -6.801   5.480  70.726  1.00  0.00    -0.052 C  
BRANCH   4   6
HETATM    6  C   UNL     1      -6.748   7.836  69.877  1.00  0.00    -0.042 C  
BRANCH   6   7
HETATM    7  C   UNL     1      -7.511   8.747  68.940  1.00  0.00    -0.083 A  
HETATM    8  C   UNL     1      -7.816  10.038  69.430  1.00  0.00    -0.141 A  
HETATM    9  C   UNL     1      -8.563  10.948  68.687  1.00  0.00    -0.153 A  
HETATM   10  C   UNL     1      -9.035  10.584  67.434  1.00  0.00    -0.139 A  
HETATM   11  C   UNL     1      -8.757   9.308  66.938  1.00  0.00    -0.136 A  
HETATM   12  C   UNL     1      -7.995   8.386  67.674  1.00  0.00    -0.110 A  
BRANCH  12  13
HETATM   13  O   UNL     1      -7.943   7.146  67.099  1.00  0.00    -0.107 OA 
HETATM   14  C   UNL     1      -6.836   6.869  66.257  1.00  0.00    -0.064 C  
ENDBRANCH  12  13
ENDBRANCH   6   7
ENDBRANCH   4   6
ENDBRANCH   2   4
TORSDOF 4
ENDMDL
MODEL      336
REMARK 921   NORMALIZED FREE ENERGY PREDICTED BY IDOCK:   -1.08 KCAL/MOL
REMARK 922        TOTAL FREE ENERGY PREDICTED BY IDOCK:   -1.57 KCAL/MOL
REMARK 923 INTER-LIGAND FREE ENERGY PREDICTED BY IDOCK:   -1.43 KCAL/MOL
REMARK 924 INTRA-LIGAND FREE ENERGY PREDICTED BY IDOCK:   -0.14 KCAL/MOL
REMARK 927      BINDING AFFINITY PREDICTED BY RF-SCORE:    0.00 PKD
ROOT
HETATM    1  C   UNL     1     -10.300   6.871  70.768  1.00  0.00    -0.203 C  
HETATM    2  N   UNL     1      -9.237   6.349  69.918  1.00  0.00    -0.151 NA 
HETATM    3  H   UNL     1      -9.376   6.639  68.950  1.00  0.00     0.000 HD 
ENDROOT
BRANCH   2   4
HETATM    4  C   UNL     1      -7.879   6.703  70.376  1.00  0.00    -0.106 C  
HETATM    5  C   UNL     1      -7.428   5.819  71.544  1.00  0.00    -0.093 C  
BRANCH   4   6
HETATM    6  C   UNL     1      -6.840   6.559  69.225  1.00  0.00    -0.065 C  
BRANCH   6   7
HETATM    7  C   UNL     1      -7.416   6.225  67.865  1.00  0.00    -0.093 A  
HETATM    8  C   UNL     1      -7.903   7.313  67.106  1.00  0.00    -0.110 A  
HETATM    9  C   UNL     1      -8.509   7.130  65.865  1.00  0.00    -0.151 A  
HETATM   10  C   UNL     1      -8.651   5.847  65.356  1.00  0.00    -0.138 A  
HETATM   11  C   UNL     1      -8.189   4.757  66.098  1.00  0.00    -0.107 A  
HETATM   12  C   UNL     1      -7.567   4.931  67.345  1.00  0.00    -0.090 A  
BRANCH  12  13
HETATM   13  O   UNL     1      -7.308   3.752  67.989  1.00  0.00    -0.061 OA 
HETATM   14  C   UNL     1      -8.396   3.119  68.642  1.00  0.00    -0.065 C  
ENDBRANCH  12  13
ENDBRANCH   6   7
ENDBRANCH   4   6
ENDBRANCH   2   4
TORSDOF 4
ENDMDL
MODEL      337
REMARK 921   NORMALIZED FREE ENERGY PREDICTED BY IDOCK:   -1.04 KCAL/MOL
REMARK 922        TOTAL FREE ENERGY PREDICTED BY IDOCK:   -1.51 KCAL/MOL
REMARK 923 INTER-LIGAND FREE ENERGY PREDICTED BY IDOCK:   -1.78 KCAL/MOL
REMARK 924 INTRA-LIGAND FREE ENERGY PREDICTED BY IDOCK:    0.27 KCAL/MOL
REMARK 927      BINDING AFFINITY PREDICTED BY RF-SCORE:    0.00 PKD
ROOT
HETATM    1  C   UNL     1      -7.689  13.464  69.250  1.00  0.00     0.388 C  
HETATM    2  N   UNL     1      -7.535  13.521  67.802  1.00  0.00    -0.149 NA 
HETATM    3  H   UNL     1      -6.743  14.112  67.548  1.00  0.00     0.000 HD 
ENDROOT
BRANCH   2   4
HETATM    4  C   UNL     1      -7.420  12.196  67.161  1.00  0.00    -0.129 C  
HETATM    5  C   UNL     1      -5.977  11.895  66.741  1.00  0.00    -0.054 C  
BRANCH   4   6
HETATM    6  C   UNL     1      -7.897  11.064  68.116  1.00  0.00    -0.116 C  
BRANCH   6   7
HETATM    7  C   UNL     1      -9.391  10.997  68.352  1.00  0.00    -0.179 A  
HETATM    8  C   UNL     1     -10.206  11.656  67.404  1.00  0.00    -0.226 A  
HETATM    9  C   UNL     1     -11.591  11.717  67.541  1.00  0.00    -0.345 A  
HETATM   10  C   UNL     1     -12.195  11.123  68.641  1.00  0.00    -0.012 A  
HETATM   11  C   UNL     1     -11.406  10.480  69.596  1.00  0.00    -0.345 A  
HETATM   12  C   UNL     1     -10.010  10.404  69.462  1.00  0.00    -0.202 A  
BRANCH  12  13
HETATM   13  O   UNL     1      -9.390   9.864  70.556  1.00  0.00    -0.144 OA 
HETATM   14  C   UNL     1     -10.222   9.331  71.573  1.00  0.00    -0.268 C  
ENDBRANCH  12  13
ENDBRANCH   6   7
ENDBRANCH   4   6
ENDBRANCH   2   4
TORSDOF 4
ENDMDL
MODEL      338
REMARK 921   NORMALIZED FREE ENERGY PREDICTED BY IDOCK:   -0.74 KCAL/MOL
REMARK 922        TOTAL FREE ENERGY PREDICTED BY IDOCK:   -1.15 KCAL/MOL
REMARK 923 INTER-LIGAND FREE ENERGY PREDICTED BY IDOCK:   -1.85 KCAL/MOL
REMARK 924 INTRA-LIGAND FREE ENERGY PREDICTED BY IDOCK:    0.70 KCAL/MOL
REMARK 927      BINDING AFFINITY PREDICTED BY RF-SCORE:    0.00 PKD
ROOT
HETATM    1  C   UNL     1     -12.423  14.713  70.684  1.00  0.00    -0.344 C  
HETATM    2  N   UNL     1     -11.956  13.380  70.322  1.00  0.00    -0.456 NA 
HETATM    3  H   UNL     1     -12.643  12.675  70.588  1.00  0.00     0.000 HD 
ENDROOT
BRANCH   2   4
HETATM    4  C   UNL     1     -11.595  13.241  68.897  1.00  0.00    -0.314 C  
HETATM    5  C   UNL     1     -12.170  14.385  68.054  1.00  0.00    -0.162 C  
BRANCH   4   6
HETATM    6  C   UNL     1     -10.050  13.223  68.706  1.00  0.00    -0.083 C  
BRANCH   6   7
HETATM    7  C   UNL     1      -9.493  11.993  68.020  1.00  0.00    -0.199 A  
HETATM    8  C   UNL     1      -9.681  10.762  68.690  1.00  0.00    -0.187 A  
HETATM    9  C   UNL     1      -9.164   9.569  68.191  1.00  0.00    -0.134 A  
HETATM   10  C   UNL     1      -8.436   9.580  67.010  1.00  0.00    -0.128 A  
HETATM   11  C   UNL     1      -8.228  10.787  66.340  1.00  0.00    -0.155 A  
HETATM   12  C   UNL     1      -8.754  11.995  66.828  1.00  0.00    -0.192 A  
BRANCH  12  13
HETATM   13  O   UNL     1      -8.333  13.091  66.125  1.00  0.00     0.523 OA 
HETATM   14  C   UNL     1      -8.655  14.365  66.659  1.00  0.00    -0.019 C  
ENDBRANCH  12  13
ENDBRANCH   6   7
ENDBRANCH   4   6
ENDBRANCH   2   4
TORSDOF 4
ENDMDL
MODEL      339
REMARK 921   NORMALIZED FREE ENERGY PREDICTED BY IDOCK:   -0.70 KCAL/MOL
REMARK 922        TOTAL FREE ENERGY PREDICTED BY IDOCK:   -1.10 KCAL/MOL
REMARK 923 INTER-LIGAND FREE ENERGY PREDICTED BY IDOCK:   -0.90 KCAL/MOL
REMARK 924 INTRA-LIGAND FREE ENERGY PREDICTED BY IDOCK:   -0.21 KCAL/MOL
REMARK 927      BINDING AFFINITY PREDICTED BY RF-SCORE:    0.00 PKD
ROOT
HETATM    1  C   UNL     1     -11.272   1.691  73.379  1.00  0.00    -0.179 C  
HETATM    2  N   UNL     1     -10.323   2.539  72.668  1.00  0.00    -0.159 NA 
HETATM    3  H   UNL     1     -10.202   2.215  71.709  1.00  0.00     0.000 HD 
ENDROOT
BRANCH   2   4
HETATM    4  C   UNL     1     -10.671   3.973  72.692  1.00  0.00    -0.052 C  
HETATM    5  C   UNL     1     -10.974   4.458  74.115  1.00  0.00    -0.188 C  
BRANCH   4   6
HETATM    6  C   UNL     1      -9.516   4.843  72.116  1.00  0.00    -0.182 C  
BRANCH   6   7
HETATM    7  C   UNL     1      -9.236   4.659  70.639  1.00  0.00    -0.197 A  
HETATM    8  C   UNL     1     -10.364   4.515  69.800  1.00  0.00     0.150 A  
HETATM    9  C   UNL     1     -10.238   4.282  68.433  1.00  0.00     0.243 A  
HETATM   10  C   UNL     1      -8.973   4.177  67.871  1.00  0.00    -0.146 A  
HETATM   11  C   UNL     1      -7.846   4.302  68.686  1.00  0.00    -0.073 A  
HETATM   12  C   UNL     1      -7.962   4.548  70.064  1.00  0.00    -0.063 A  
BRANCH  12  13
HETATM   13  O   UNL     1      -6.765   4.500  70.725  1.00  0.00    -0.033 OA 
HETATM   14  C   UNL     1      -5.640   4.040  69.993  1.00  0.00    -0.016 C  
ENDBRANCH  12  13
ENDBRANCH   6   7
ENDBRANCH   4   6
ENDBRANCH   2   4
TORSDOF 4
ENDMDL
MODEL      340
REMARK 921   NORMALIZED FREE ENERGY PREDICTED BY IDOCK:   -0.48 KCAL/MOL
REMARK 922        TOTAL FREE ENERGY PREDICTED BY IDOCK:   -0.83 KCAL/MOL
REMARK 923 INTER-LIGAND FREE ENERGY PREDICTED BY IDOCK:   -0.77 KCAL/MOL
REMARK 924 INTRA-LIGAND FREE ENERGY PREDICTED BY IDOCK:   -0.06 KCAL/MOL
REMARK 927      BINDING AFFINITY PREDICTED BY RF-SCORE:    0.00 PKD
ROOT
HETATM    1  C   UNL     1     -10.982  12.342  64.311  1.00  0.00    -0.351 C  
HETATM    2  N   UNL     1      -9.827  11.469  64.478  1.00  0.00    -0.249 NA 
HETATM    3  H   UNL     1      -8.963  12.011  64.460  1.00  0.00     0.000 HD 
ENDROOT
BRANCH   2   4
HETATM    4  C   UNL     1      -9.887  10.625  65.687  1.00  0.00    -0.251 C  
HETATM    5  C   UNL     1      -8.683   9.680  65.777  1.00  0.00    -0.168 C  
BRANCH   4   6
HETATM    6  C   UNL     1      -9.925  11.492  66.979  1.00  0.00    -0.225 C  
BRANCH   6   7
HETATM    7  C   UNL     1      -9.532  10.778  68.255  1.00  0.00    -0.164 A  
HETATM    8  C   UNL     1      -8.205  10.978  68.702  1.00  0.00    -0.151 A  
HETATM    9  C   UNL     1      -7.705  10.331  69.830  1.00  0.00    -0.159 A  
HETATM   10  C   UNL     1      -8.521   9.458  70.535  1.00  0.00    -0.251 A  
HETATM   11  C   UNL     1      -9.830   9.236  70.102  1.00  0.00    -0.250 A  
HETATM   12  C   UNL     1     -10.348   9.892  68.972  1.00  0.00    -0.209 A  
BRANCH  12  13
HETATM   13  O   UNL     1     -11.592   9.449  68.614  1.00  0.00     0.347 OA 
HETATM   14  C   UNL     1     -12.609   9.511  69.599  1.00  0.00     1.308 C  
ENDBRANCH  12  13
ENDBRANCH   6   7
ENDBRANCH   4   6
ENDBRANCH   2   4
TORSDOF 4
ENDMDL
MODEL      341
REMARK 921   NORMALIZED FREE ENERGY PREDICTED BY IDOCK:   -0.44 KCAL/MOL
REMARK 922        TOTAL FREE ENERGY PREDICTED BY IDOCK:   -0.78 KCAL/MOL
REMARK 923 INTER-LIGAND FREE ENERGY PREDICTED BY IDOCK:   -1.27 KCAL/MOL
REMARK 924 INTRA-LIGAND FREE ENERGY PREDICTED BY IDOCK:    0.49 KCAL/MOL
REMARK 927      BINDING AFFINITY PREDICTED BY RF-SCORE:    0.00 PKD
ROOT
HETATM    1  C   UNL     1      -5.917  12.335  69.505  1.00  0.00    -0.110 C  
HETATM    2  N   UNL     1      -6.093  12.436  68.062  1.00  0.00    -0.066 NA 
HETATM    3  H   UNL     1      -5.296  12.909  67.636  1.00  0.00     0.000 HD 
ENDROOT
BRANCH   2   4
HETATM    4  C   UNL     1      -6.343  11.141  67.399  1.00  0.00    -0.067 C  
HETATM    5  C   UNL     1      -7.351  10.291  68.181  1.00  0.00    -0.085 C  
BRANCH   4   6
HETATM    6  C   UNL     1      -6.889  11.342  65.955  1.00  0.00     0.138 C  
BRANCH   6   7
HETATM    7  C   UNL     1      -7.031  10.081  65.130  1.00  0.00    -0.134 A  
HETATM    8  C   UNL     1      -5.843   9.353  64.888  1.00  0.00    -0.065 A  
HETATM    9  C   UNL     1      -5.832   8.208  64.094  1.00  0.00    -0.057 A  
HETATM   10  C   UNL     1      -7.013   7.768  63.514  1.00  0.00    -0.072 A  
HETATM   11  C   UNL     1      -8.195   8.480  63.730  1.00  0.00    -0.126 A  
HETATM   12  C   UNL     1      -8.219   9.630  64.537  1.00  0.00    -0.151 A  
BRANCH  12  13
HETATM   13  O   UNL     1      -9.425  10.276  64.522  1.00  0.00    -0.249 OA 
HETATM   14  C   UNL     1      -9.698  11.163  65.594  1.00  0.00    -0.225 C  
ENDBRANCH  12  13
ENDBRANCH   6   7
ENDBRANCH   4   6
ENDBRANCH   2   4
TORSDOF 4
ENDMDL
MODEL      342
REMARK 921   NORMALIZED FREE ENERGY PREDICTED BY IDOCK:    0.23 KCAL/MOL
REMARK 922        TOTAL FREE ENERGY PREDICTED BY IDOCK:    0.04 KCAL/MOL
REMARK 923 INTER-LIGAND FREE ENERGY PREDICTED BY IDOCK:    0.33 KCAL/MOL
REMARK 924 INTRA-LIGAND FREE ENERGY PREDICTED BY IDOCK:   -0.29 KCAL/MOL
REMARK 927      BINDING AFFINITY PREDICTED BY RF-SCORE:    0.00 PKD
ROOT
HETATM    1  C   UNL     1      -8.483  12.967  69.692  1.00  0.00     1.830 C  
HETATM    2  N   UNL     1      -7.716  13.278  68.492  1.00  0.00    -0.158 NA 
HETATM    3  H   UNL     1      -7.055  14.033  68.675  1.00  0.00     0.000 HD 
ENDROOT
BRANCH   2   4
HETATM    4  C   UNL     1      -7.025  12.113  67.907  1.00  0.00    -0.099 C  
HETATM    5  C   UNL     1      -5.501  12.255  67.995  1.00  0.00    -0.068 C  
BRANCH   4   6
HETATM    6  C   UNL     1      -7.435  10.794  68.626  1.00  0.00    -0.102 C  
BRANCH   6   7
HETATM    7  C   UNL     1      -7.986   9.706  67.729  1.00  0.00    -0.105 A  
HETATM    8  C   UNL     1      -9.084  10.063  66.913  1.00  0.00    -0.157 A  
HETATM    9  C   UNL     1      -9.717   9.137  66.087  1.00  0.00    -0.357 A  
HETATM   10  C   UNL     1      -9.271   7.823  66.066  1.00  0.00    -0.139 A  
HETATM   11  C   UNL     1      -8.197   7.447  66.876  1.00  0.00    -0.121 A  
HETATM   12  C   UNL     1      -7.544   8.376  67.704  1.00  0.00    -0.098 A  
BRANCH  12  13
HETATM   13  O   UNL     1      -6.613   7.805  68.527  1.00  0.00    -0.053 OA 
HETATM   14  C   UNL     1      -6.410   6.407  68.404  1.00  0.00    -0.041 C  
ENDBRANCH  12  13
ENDBRANCH   6   7
ENDBRANCH   4   6
ENDBRANCH   2   4
TORSDOF 4
ENDMDL
