MODEL        1
REMARK 921   NORMALIZED FREE ENERGY PREDICTED BY IDOCK:   -3.82 KCAL/MOL
REMARK 922        TOTAL FREE ENERGY PREDICTED BY IDOCK:   -4.60 KCAL/MOL
REMARK 923 INTER-LIGAND FREE ENERGY PREDICTED BY IDOCK:   -4.49 KCAL/MOL
REMARK 924 INTRA-LIGAND FREE ENERGY PREDICTED BY IDOCK:   -0.11 KCAL/MOL
REMARK 927      BINDING AFFINITY PREDICTED BY RF-SCORE:    0.00 PKD
ROOT
ATOM      1  CE  MET A   1     -10.969  11.231  64.004  1.00  0.00    -0.303 C  
ATOM      2  SD  MET A   1     -11.868  12.712  63.489  1.00  0.00    -0.538 SA 
ENDROOT
BRANCH   2   3
ATOM      3  CG  MET A   1     -12.581  13.200  65.098  1.00  0.00    -0.465 C  
BRANCH   3   4
ATOM      4  CB  MET A   1     -11.485  13.894  65.910  1.00  0.00    -0.328 C  
BRANCH   4   5
ATOM      5  CA  MET A   1     -10.477  14.676  65.061  1.00  0.00    -0.421 C  
ATOM      6  C   MET A   1     -10.999  16.082  64.731  1.00  0.00    -0.356 C  
ATOM      7  N   MET A   1      -9.212  14.829  65.845  1.00  0.00    -0.512 NA 
ATOM      8  O   MET A   1     -10.503  17.007  65.594  1.00  0.00    -0.519 OA 
ATOM      9  OXT MET A   1     -11.777  16.346  63.830  1.00  0.00    -1.049 OA 
ATOM     10  H1  MET A   1      -8.541  15.350  65.280  1.00  0.00     0.000 HD 
ATOM     11  H2  MET A   1      -8.841  13.936  66.169  1.00  0.00     0.000 HD 
ENDBRANCH   4   5
ENDBRANCH   3   4
ENDBRANCH   2   3
TORSDOF 3
ENDMDL
MODEL        2
REMARK 921   NORMALIZED FREE ENERGY PREDICTED BY IDOCK:   -3.80 KCAL/MOL
REMARK 922        TOTAL FREE ENERGY PREDICTED BY IDOCK:   -4.58 KCAL/MOL
REMARK 923 INTER-LIGAND FREE ENERGY PREDICTED BY IDOCK:   -4.53 KCAL/MOL
REMARK 924 INTRA-LIGAND FREE ENERGY PREDICTED BY IDOCK:   -0.05 KCAL/MOL
REMARK 927      BINDING AFFINITY PREDICTED BY RF-SCORE:    0.00 PKD
ROOT
ATOM      1  CE  MET A   1      -9.161  10.063  64.467  1.00  0.00    -0.262 C  
ATOM      2  SD  MET A   1      -9.741  11.263  63.247  1.00  0.00    -0.399 SA 
ENDROOT
BRANCH   2   3
ATOM      3  CG  MET A   1     -10.927  12.188  64.284  1.00  0.00    -0.339 C  
BRANCH   3   4
ATOM      4  CB  MET A   1     -10.326  13.566  64.575  1.00  0.00    -0.381 C  
BRANCH   4   5
ATOM      5  CA  MET A   1     -11.290  14.537  65.263  1.00  0.00    -0.353 C  
ATOM      6  C   MET A   1     -10.909  15.997  64.978  1.00  0.00    -0.404 C  
ATOM      7  N   MET A   1     -12.666  14.308  64.720  1.00  0.00    -0.665 NA 
ATOM      8  O   MET A   1     -11.639  16.505  63.951  1.00  0.00    -1.175 OA 
ATOM      9  OXT MET A   1     -10.048  16.624  65.571  1.00  0.00    -0.553 OA 
ATOM     10  H1  MET A   1     -13.308  14.955  65.178  1.00  0.00     0.000 HD 
ATOM     11  H2  MET A   1     -12.963  13.336  64.804  1.00  0.00     0.000 HD 
ENDBRANCH   4   5
ENDBRANCH   3   4
ENDBRANCH   2   3
TORSDOF 3
ENDMDL
MODEL        3
REMARK 921   NORMALIZED FREE ENERGY PREDICTED BY IDOCK:   -3.80 KCAL/MOL
REMARK 922        TOTAL FREE ENERGY PREDICTED BY IDOCK:   -4.57 KCAL/MOL
REMARK 923 INTER-LIGAND FREE ENERGY PREDICTED BY IDOCK:   -4.49 KCAL/MOL
REMARK 924 INTRA-LIGAND FREE ENERGY PREDICTED BY IDOCK:   -0.08 KCAL/MOL
REMARK 927      BINDING AFFINITY PREDICTED BY RF-SCORE:    0.00 PKD
ROOT
ATOM      1  CE  MET A   1     -10.350  18.809  67.447  1.00  0.00    -0.418 C  
ATOM      2  SD  MET A   1     -10.495  17.020  67.657  1.00  0.00    -0.334 SA 
ENDROOT
BRANCH   2   3
ATOM      3  CG  MET A   1     -10.496  16.516  65.901  1.00  0.00    -0.323 C  
BRANCH   3   4
ATOM      4  CB  MET A   1     -10.382  14.990  65.848  1.00  0.00    -0.329 C  
BRANCH   4   5
ATOM      5  CA  MET A   1     -11.273  14.332  64.790  1.00  0.00    -0.385 C  
ATOM      6  C   MET A   1     -12.361  13.463  65.439  1.00  0.00    -0.477 C  
ATOM      7  N   MET A   1     -11.953  15.408  64.003  1.00  0.00    -0.949 NA 
ATOM      8  O   MET A   1     -13.534  14.141  65.542  1.00  0.00    -0.643 OA 
ATOM      9  OXT MET A   1     -12.201  12.322  65.837  1.00  0.00    -0.634 OA 
ATOM     10  H1  MET A   1     -12.546  14.970  63.299  1.00  0.00     0.000 HD 
ATOM     11  H2  MET A   1     -11.294  16.074  63.601  1.00  0.00     0.000 HD 
ENDBRANCH   4   5
ENDBRANCH   3   4
ENDBRANCH   2   3
TORSDOF 3
ENDMDL
MODEL        4
REMARK 921   NORMALIZED FREE ENERGY PREDICTED BY IDOCK:   -3.78 KCAL/MOL
REMARK 922        TOTAL FREE ENERGY PREDICTED BY IDOCK:   -4.55 KCAL/MOL
REMARK 923 INTER-LIGAND FREE ENERGY PREDICTED BY IDOCK:   -4.32 KCAL/MOL
REMARK 924 INTRA-LIGAND FREE ENERGY PREDICTED BY IDOCK:   -0.23 KCAL/MOL
REMARK 927      BINDING AFFINITY PREDICTED BY RF-SCORE:    0.00 PKD
ROOT
ATOM      1  CE  MET A   1     -10.361  11.168  65.543  1.00  0.00    -0.268 C  
ATOM      2  SD  MET A   1     -10.446  11.363  63.749  1.00  0.00    -0.431 SA 
ENDROOT
BRANCH   2   3
ATOM      3  CG  MET A   1     -12.069  12.190  63.618  1.00  0.00    -0.551 C  
BRANCH   3   4
ATOM      4  CB  MET A   1     -12.452  12.703  65.008  1.00  0.00    -0.556 C  
BRANCH   4   5
ATOM      5  CA  MET A   1     -12.502  14.230  65.120  1.00  0.00    -0.416 C  
ATOM      6  C   MET A   1     -11.265  14.776  65.848  1.00  0.00    -0.340 C  
ATOM      7  N   MET A   1     -12.515  14.809  63.740  1.00  0.00    -1.063 NA 
ATOM      8  O   MET A   1     -10.319  15.193  64.965  1.00  0.00    -0.383 OA 
ATOM      9  OXT MET A   1     -11.125  14.814  67.058  1.00  0.00    -0.316 OA 
ATOM     10  H1  MET A   1     -12.549  15.825  63.815  1.00  0.00     0.000 HD 
ATOM     11  H2  MET A   1     -13.270  14.433  63.166  1.00  0.00     0.000 HD 
ENDBRANCH   4   5
ENDBRANCH   3   4
ENDBRANCH   2   3
TORSDOF 3
ENDMDL
MODEL        5
REMARK 921   NORMALIZED FREE ENERGY PREDICTED BY IDOCK:   -3.74 KCAL/MOL
REMARK 922        TOTAL FREE ENERGY PREDICTED BY IDOCK:   -4.51 KCAL/MOL
REMARK 923 INTER-LIGAND FREE ENERGY PREDICTED BY IDOCK:   -4.42 KCAL/MOL
REMARK 924 INTRA-LIGAND FREE ENERGY PREDICTED BY IDOCK:   -0.09 KCAL/MOL
REMARK 927      BINDING AFFINITY PREDICTED BY RF-SCORE:    0.00 PKD
ROOT
ATOM      1  CE  MET A   1     -12.054  14.242  69.653  1.00  0.00    -0.346 C  
ATOM      2  SD  MET A   1     -11.641  13.143  68.280  1.00  0.00    -0.357 SA 
ENDROOT
BRANCH   2   3
ATOM      3  CG  MET A   1     -11.558  14.373  66.932  1.00  0.00    -0.388 C  
BRANCH   3   4
ATOM      4  CB  MET A   1     -12.516  13.926  65.824  1.00  0.00    -0.530 C  
BRANCH   4   5
ATOM      5  CA  MET A   1     -11.840  13.688  64.470  1.00  0.00    -0.412 C  
ATOM      6  C   MET A   1     -11.840  12.197  64.101  1.00  0.00    -0.404 C  
ATOM      7  N   MET A   1     -12.610  14.421  63.418  1.00  0.00    -0.970 NA 
ATOM      8  O   MET A   1     -12.876  11.896  63.274  1.00  0.00    -0.702 OA 
ATOM      9  OXT MET A   1     -11.038  11.375  64.508  1.00  0.00    -0.309 OA 
ATOM     10  H1  MET A   1     -12.160  14.263  62.516  1.00  0.00     0.000 HD 
ATOM     11  H2  MET A   1     -12.719  15.412  63.632  1.00  0.00     0.000 HD 
ENDBRANCH   4   5
ENDBRANCH   3   4
ENDBRANCH   2   3
TORSDOF 3
ENDMDL
MODEL        6
REMARK 921   NORMALIZED FREE ENERGY PREDICTED BY IDOCK:   -3.73 KCAL/MOL
REMARK 922        TOTAL FREE ENERGY PREDICTED BY IDOCK:   -4.50 KCAL/MOL
REMARK 923 INTER-LIGAND FREE ENERGY PREDICTED BY IDOCK:   -4.46 KCAL/MOL
REMARK 924 INTRA-LIGAND FREE ENERGY PREDICTED BY IDOCK:   -0.04 KCAL/MOL
REMARK 927      BINDING AFFINITY PREDICTED BY RF-SCORE:    0.00 PKD
ROOT
ATOM      1  CE  MET A   1     -10.193  17.436  68.579  1.00  0.00    -0.369 C  
ATOM      2  SD  MET A   1      -9.955  17.638  66.800  1.00  0.00    -0.334 SA 
ENDROOT
BRANCH   2   3
ATOM      3  CG  MET A   1      -9.625  15.900  66.346  1.00  0.00    -0.287 C  
BRANCH   3   4
ATOM      4  CB  MET A   1     -10.522  15.543  65.158  1.00  0.00    -0.431 C  
BRANCH   4   5
ATOM      5  CA  MET A   1     -10.865  14.053  65.058  1.00  0.00    -0.392 C  
ATOM      6  C   MET A   1     -12.330  13.845  64.644  1.00  0.00    -0.388 C  
ATOM      7  N   MET A   1      -9.999  13.435  64.006  1.00  0.00    -0.703 NA 
ATOM      8  O   MET A   1     -12.437  13.631  63.306  1.00  0.00    -0.801 OA 
ATOM      9  OXT MET A   1     -13.284  13.888  65.402  1.00  0.00    -0.750 OA 
ATOM     10  H1  MET A   1     -10.227  12.443  63.939  1.00  0.00     0.000 HD 
ATOM     11  H2  MET A   1      -9.006  13.598  64.172  1.00  0.00     0.000 HD 
ENDBRANCH   4   5
ENDBRANCH   3   4
ENDBRANCH   2   3
TORSDOF 3
ENDMDL
MODEL        7
REMARK 921   NORMALIZED FREE ENERGY PREDICTED BY IDOCK:   -3.73 KCAL/MOL
REMARK 922        TOTAL FREE ENERGY PREDICTED BY IDOCK:   -4.49 KCAL/MOL
REMARK 923 INTER-LIGAND FREE ENERGY PREDICTED BY IDOCK:   -4.39 KCAL/MOL
REMARK 924 INTRA-LIGAND FREE ENERGY PREDICTED BY IDOCK:   -0.10 KCAL/MOL
REMARK 927      BINDING AFFINITY PREDICTED BY RF-SCORE:    0.00 PKD
ROOT
ATOM      1  CE  MET A   1     -11.450  12.410  68.661  1.00  0.00    -0.303 C  
ATOM      2  SD  MET A   1     -11.982  14.117  68.399  1.00  0.00    -0.286 SA 
ENDROOT
BRANCH   2   3
ATOM      3  CG  MET A   1     -11.948  14.160  66.574  1.00  0.00    -0.442 C  
BRANCH   3   4
ATOM      4  CB  MET A   1     -11.799  12.722  66.069  1.00  0.00    -0.495 C  
BRANCH   4   5
ATOM      5  CA  MET A   1     -11.229  12.612  64.652  1.00  0.00    -0.310 C  
ATOM      6  C   MET A   1     -12.340  12.712  63.595  1.00  0.00    -0.492 C  
ATOM      7  N   MET A   1     -10.281  13.748  64.429  1.00  0.00    -0.729 NA 
ATOM      8  O   MET A   1     -12.443  13.977  63.109  1.00  0.00    -0.733 OA 
ATOM      9  OXT MET A   1     -13.059  11.791  63.246  1.00  0.00    -0.598 OA 
ATOM     10  H1  MET A   1      -9.902  13.675  63.485  1.00  0.00     0.000 HD 
ATOM     11  H2  MET A   1      -9.553  13.794  65.141  1.00  0.00     0.000 HD 
ENDBRANCH   4   5
ENDBRANCH   3   4
ENDBRANCH   2   3
TORSDOF 3
ENDMDL
MODEL        8
REMARK 921   NORMALIZED FREE ENERGY PREDICTED BY IDOCK:   -3.70 KCAL/MOL
REMARK 922        TOTAL FREE ENERGY PREDICTED BY IDOCK:   -4.46 KCAL/MOL
REMARK 923 INTER-LIGAND FREE ENERGY PREDICTED BY IDOCK:   -4.38 KCAL/MOL
REMARK 924 INTRA-LIGAND FREE ENERGY PREDICTED BY IDOCK:   -0.08 KCAL/MOL
REMARK 927      BINDING AFFINITY PREDICTED BY RF-SCORE:    0.00 PKD
ROOT
ATOM      1  CE  MET A   1     -12.770  11.849  63.453  1.00  0.00    -0.366 C  
ATOM      2  SD  MET A   1     -11.007  12.235  63.537  1.00  0.00    -0.427 SA 
ENDROOT
BRANCH   2   3
ATOM      3  CG  MET A   1     -10.947  12.987  65.200  1.00  0.00    -0.295 C  
BRANCH   3   4
ATOM      4  CB  MET A   1     -10.294  14.366  65.073  1.00  0.00    -0.449 C  
BRANCH   4   5
ATOM      5  CA  MET A   1     -11.259  15.537  65.283  1.00  0.00    -0.275 C  
ATOM      6  C   MET A   1     -10.641  16.612  66.190  1.00  0.00    -0.215 C  
ATOM      7  N   MET A   1     -11.542  16.165  63.955  1.00  0.00    -1.469 NA 
ATOM      8  O   MET A   1     -10.090  17.615  65.458  1.00  0.00    -0.566 OA 
ATOM      9  OXT MET A   1     -10.618  16.571  67.408  1.00  0.00    -0.316 OA 
ATOM     10  H1  MET A   1     -12.184  16.945  64.095  1.00  0.00     0.000 HD 
ATOM     11  H2  MET A   1     -11.886  15.493  63.270  1.00  0.00     0.000 HD 
ENDBRANCH   4   5
ENDBRANCH   3   4
ENDBRANCH   2   3
TORSDOF 3
ENDMDL
MODEL        9
REMARK 921   NORMALIZED FREE ENERGY PREDICTED BY IDOCK:   -3.67 KCAL/MOL
REMARK 922        TOTAL FREE ENERGY PREDICTED BY IDOCK:   -4.42 KCAL/MOL
REMARK 923 INTER-LIGAND FREE ENERGY PREDICTED BY IDOCK:   -4.30 KCAL/MOL
REMARK 924 INTRA-LIGAND FREE ENERGY PREDICTED BY IDOCK:   -0.12 KCAL/MOL
REMARK 927      BINDING AFFINITY PREDICTED BY RF-SCORE:    0.00 PKD
ROOT
ATOM      1  CE  MET A   1     -11.482  11.098  67.811  1.00  0.00    -0.272 C  
ATOM      2  SD  MET A   1     -11.419  12.749  67.079  1.00  0.00    -0.360 SA 
ENDROOT
BRANCH   2   3
ATOM      3  CG  MET A   1     -10.120  12.467  65.827  1.00  0.00    -0.262 C  
BRANCH   3   4
ATOM      4  CB  MET A   1     -10.350  13.451  64.677  1.00  0.00    -0.400 C  
BRANCH   4   5
ATOM      5  CA  MET A   1     -11.524  14.410  64.899  1.00  0.00    -0.386 C  
ATOM      6  C   MET A   1     -11.035  15.848  65.124  1.00  0.00    -0.377 C  
ATOM      7  N   MET A   1     -12.382  14.404  63.672  1.00  0.00    -1.106 NA 
ATOM      8  O   MET A   1     -11.081  16.569  63.973  1.00  0.00    -0.829 OA 
ATOM      9  OXT MET A   1     -10.631  16.292  66.185  1.00  0.00    -0.312 OA 
ATOM     10  H1  MET A   1     -13.164  15.042  63.820  1.00  0.00     0.000 HD 
ATOM     11  H2  MET A   1     -12.686  13.466  63.412  1.00  0.00     0.000 HD 
ENDBRANCH   4   5
ENDBRANCH   3   4
ENDBRANCH   2   3
TORSDOF 3
ENDMDL
MODEL       10
REMARK 921   NORMALIZED FREE ENERGY PREDICTED BY IDOCK:   -3.64 KCAL/MOL
REMARK 922        TOTAL FREE ENERGY PREDICTED BY IDOCK:   -4.39 KCAL/MOL
REMARK 923 INTER-LIGAND FREE ENERGY PREDICTED BY IDOCK:   -4.34 KCAL/MOL
REMARK 924 INTRA-LIGAND FREE ENERGY PREDICTED BY IDOCK:   -0.05 KCAL/MOL
REMARK 927      BINDING AFFINITY PREDICTED BY RF-SCORE:    0.00 PKD
ROOT
ATOM      1  CE  MET A   1     -10.437  17.610  67.087  1.00  0.00    -0.319 C  
ATOM      2  SD  MET A   1      -9.632  16.097  66.515  1.00  0.00    -0.284 SA 
ENDROOT
BRANCH   2   3
ATOM      3  CG  MET A   1     -10.711  15.707  65.094  1.00  0.00    -0.443 C  
BRANCH   3   4
ATOM      4  CB  MET A   1     -10.397  14.279  64.640  1.00  0.00    -0.256 C  
BRANCH   4   5
ATOM      5  CA  MET A   1     -11.618  13.496  64.146  1.00  0.00    -0.376 C  
ATOM      6  C   MET A   1     -12.483  13.015  65.321  1.00  0.00    -0.499 C  
ATOM      7  N   MET A   1     -12.456  14.403  63.301  1.00  0.00    -0.963 NA 
ATOM      8  O   MET A   1     -13.520  13.863  65.547  1.00  0.00    -0.657 OA 
ATOM      9  OXT MET A   1     -12.266  12.017  65.987  1.00  0.00    -0.546 OA 
ATOM     10  H1  MET A   1     -13.269  13.882  62.973  1.00  0.00     0.000 HD 
ATOM     11  H2  MET A   1     -11.927  14.826  62.538  1.00  0.00     0.000 HD 
ENDBRANCH   4   5
ENDBRANCH   3   4
ENDBRANCH   2   3
TORSDOF 3
ENDMDL
MODEL       11
REMARK 921   NORMALIZED FREE ENERGY PREDICTED BY IDOCK:   -3.61 KCAL/MOL
REMARK 922        TOTAL FREE ENERGY PREDICTED BY IDOCK:   -4.36 KCAL/MOL
REMARK 923 INTER-LIGAND FREE ENERGY PREDICTED BY IDOCK:   -4.32 KCAL/MOL
REMARK 924 INTRA-LIGAND FREE ENERGY PREDICTED BY IDOCK:   -0.04 KCAL/MOL
REMARK 927      BINDING AFFINITY PREDICTED BY RF-SCORE:    0.00 PKD
ROOT
ATOM      1  CE  MET A   1     -11.364  15.965  69.815  1.00  0.00    -0.347 C  
ATOM      2  SD  MET A   1     -10.110  15.271  68.715  1.00  0.00    -0.227 SA 
ENDROOT
BRANCH   2   3
ATOM      3  CG  MET A   1     -10.562  16.133  67.170  1.00  0.00    -0.294 C  
BRANCH   3   4
ATOM      4  CB  MET A   1     -11.342  15.151  66.291  1.00  0.00    -0.219 C  
BRANCH   4   5
ATOM      5  CA  MET A   1     -10.916  15.154  64.820  1.00  0.00    -0.377 C  
ATOM      6  C   MET A   1     -11.451  13.916  64.083  1.00  0.00    -0.249 C  
ATOM      7  N   MET A   1     -11.493  16.366  64.159  1.00  0.00    -1.441 NA 
ATOM      8  O   MET A   1     -12.601  14.199  63.417  1.00  0.00    -0.818 OA 
ATOM      9  OXT MET A   1     -10.934  12.812  64.104  1.00  0.00    -0.348 OA 
ATOM     10  H1  MET A   1     -11.210  16.367  63.179  1.00  0.00     0.000 HD 
ATOM     11  H2  MET A   1     -11.244  17.230  64.639  1.00  0.00     0.000 HD 
ENDBRANCH   4   5
ENDBRANCH   3   4
ENDBRANCH   2   3
TORSDOF 3
ENDMDL
MODEL       12
REMARK 921   NORMALIZED FREE ENERGY PREDICTED BY IDOCK:   -3.60 KCAL/MOL
REMARK 922        TOTAL FREE ENERGY PREDICTED BY IDOCK:   -4.34 KCAL/MOL
REMARK 923 INTER-LIGAND FREE ENERGY PREDICTED BY IDOCK:   -4.26 KCAL/MOL
REMARK 924 INTRA-LIGAND FREE ENERGY PREDICTED BY IDOCK:   -0.08 KCAL/MOL
REMARK 927      BINDING AFFINITY PREDICTED BY RF-SCORE:    0.00 PKD
ROOT
ATOM      1  CE  MET A   1     -11.572  12.672  68.522  1.00  0.00    -0.323 C  
ATOM      2  SD  MET A   1     -11.182  10.951  68.135  1.00  0.00    -0.313 SA 
ENDROOT
BRANCH   2   3
ATOM      3  CG  MET A   1     -10.695  11.144  66.385  1.00  0.00    -0.247 C  
BRANCH   3   4
ATOM      4  CB  MET A   1     -11.024  12.577  65.958  1.00  0.00    -0.318 C  
BRANCH   4   5
ATOM      5  CA  MET A   1     -10.771  12.862  64.475  1.00  0.00    -0.371 C  
ATOM      6  C   MET A   1     -12.085  12.886  63.680  1.00  0.00    -0.535 C  
ATOM      7  N   MET A   1     -10.135  14.211  64.351  1.00  0.00    -0.663 NA 
ATOM      8  O   MET A   1     -12.538  14.157  63.516  1.00  0.00    -0.834 OA 
ATOM      9  OXT MET A   1     -12.670  11.900  63.264  1.00  0.00    -0.654 OA 
ATOM     10  H1  MET A   1      -9.967  14.401  63.363  1.00  0.00     0.000 HD 
ATOM     11  H2  MET A   1      -9.291  14.299  64.916  1.00  0.00     0.000 HD 
ENDBRANCH   4   5
ENDBRANCH   3   4
ENDBRANCH   2   3
TORSDOF 3
ENDMDL
MODEL       13
REMARK 921   NORMALIZED FREE ENERGY PREDICTED BY IDOCK:   -3.60 KCAL/MOL
REMARK 922        TOTAL FREE ENERGY PREDICTED BY IDOCK:   -4.34 KCAL/MOL
REMARK 923 INTER-LIGAND FREE ENERGY PREDICTED BY IDOCK:   -4.17 KCAL/MOL
REMARK 924 INTRA-LIGAND FREE ENERGY PREDICTED BY IDOCK:   -0.17 KCAL/MOL
REMARK 927      BINDING AFFINITY PREDICTED BY RF-SCORE:    0.00 PKD
ROOT
ATOM      1  CE  MET A   1     -11.750  15.727  68.719  1.00  0.00    -0.378 C  
ATOM      2  SD  MET A   1     -11.522  14.002  69.206  1.00  0.00    -0.312 SA 
ENDROOT
BRANCH   2   3
ATOM      3  CG  MET A   1     -11.666  13.210  67.566  1.00  0.00    -0.366 C  
BRANCH   3   4
ATOM      4  CB  MET A   1     -12.077  14.285  66.557  1.00  0.00    -0.454 C  
BRANCH   4   5
ATOM      5  CA  MET A   1     -11.174  14.361  65.321  1.00  0.00    -0.345 C  
ATOM      6  C   MET A   1     -10.796  15.815  64.996  1.00  0.00    -0.443 C  
ATOM      7  N   MET A   1      -9.911  13.612  65.607  1.00  0.00    -0.466 NA 
ATOM      8  O   MET A   1      -9.578  16.132  65.508  1.00  0.00    -0.447 OA 
ATOM      9  OXT MET A   1     -11.497  16.599  64.381  1.00  0.00    -0.959 OA 
ATOM     10  H1  MET A   1      -9.310  13.663  64.784  1.00  0.00     0.000 HD 
ATOM     11  H2  MET A   1     -10.085  12.653  65.906  1.00  0.00     0.000 HD 
ENDBRANCH   4   5
ENDBRANCH   3   4
ENDBRANCH   2   3
TORSDOF 3
ENDMDL
MODEL       14
REMARK 921   NORMALIZED FREE ENERGY PREDICTED BY IDOCK:   -3.58 KCAL/MOL
REMARK 922        TOTAL FREE ENERGY PREDICTED BY IDOCK:   -4.32 KCAL/MOL
REMARK 923 INTER-LIGAND FREE ENERGY PREDICTED BY IDOCK:   -4.20 KCAL/MOL
REMARK 924 INTRA-LIGAND FREE ENERGY PREDICTED BY IDOCK:   -0.11 KCAL/MOL
REMARK 927      BINDING AFFINITY PREDICTED BY RF-SCORE:    0.00 PKD
ROOT
ATOM      1  CE  MET A   1     -10.242  16.512  66.457  1.00  0.00    -0.300 C  
ATOM      2  SD  MET A   1     -10.141  15.103  67.584  1.00  0.00    -0.232 SA 
ENDROOT
BRANCH   2   3
ATOM      3  CG  MET A   1     -10.095  13.749  66.359  1.00  0.00    -0.295 C  
BRANCH   3   4
ATOM      4  CB  MET A   1     -11.450  13.708  65.647  1.00  0.00    -0.320 C  
BRANCH   4   5
ATOM      5  CA  MET A   1     -11.353  13.582  64.124  1.00  0.00    -0.340 C  
ATOM      6  C   MET A   1     -11.622  12.141  63.665  1.00  0.00    -0.486 C  
ATOM      7  N   MET A   1     -12.395  14.461  63.505  1.00  0.00    -1.114 NA 
ATOM      8  O   MET A   1     -12.914  11.982  63.275  1.00  0.00    -0.736 OA 
ATOM      9  OXT MET A   1     -10.800  11.240  63.670  1.00  0.00    -0.381 OA 
ATOM     10  H1  MET A   1     -12.330  14.377  62.491  1.00  0.00     0.000 HD 
ATOM     11  H2  MET A   1     -12.329  15.428  63.823  1.00  0.00     0.000 HD 
ENDBRANCH   4   5
ENDBRANCH   3   4
ENDBRANCH   2   3
TORSDOF 3
ENDMDL
MODEL       15
REMARK 921   NORMALIZED FREE ENERGY PREDICTED BY IDOCK:   -3.55 KCAL/MOL
REMARK 922        TOTAL FREE ENERGY PREDICTED BY IDOCK:   -4.28 KCAL/MOL
REMARK 923 INTER-LIGAND FREE ENERGY PREDICTED BY IDOCK:   -4.11 KCAL/MOL
REMARK 924 INTRA-LIGAND FREE ENERGY PREDICTED BY IDOCK:   -0.17 KCAL/MOL
REMARK 927      BINDING AFFINITY PREDICTED BY RF-SCORE:    0.00 PKD
ROOT
ATOM      1  CE  MET A   1      -9.494  11.553  68.134  1.00  0.00    -0.184 C  
ATOM      2  SD  MET A   1     -11.060  11.340  67.258  1.00  0.00    -0.296 SA 
ENDROOT
BRANCH   2   3
ATOM      3  CG  MET A   1     -11.817  12.965  67.607  1.00  0.00    -0.346 C  
BRANCH   3   4
ATOM      4  CB  MET A   1     -11.497  13.897  66.435  1.00  0.00    -0.354 C  
BRANCH   4   5
ATOM      5  CA  MET A   1     -11.179  13.170  65.125  1.00  0.00    -0.294 C  
ATOM      6  C   MET A   1     -12.420  13.074  64.225  1.00  0.00    -0.315 C  
ATOM      7  N   MET A   1     -10.137  13.951  64.388  1.00  0.00    -0.739 NA 
ATOM      8  O   MET A   1     -12.432  14.067  63.297  1.00  0.00    -0.795 OA 
ATOM      9  OXT MET A   1     -13.300  12.238  64.333  1.00  0.00    -0.786 OA 
ATOM     10  H1  MET A   1      -9.925  13.466  63.516  1.00  0.00     0.000 HD 
ATOM     11  H2  MET A   1      -9.305  14.123  64.952  1.00  0.00     0.000 HD 
ENDBRANCH   4   5
ENDBRANCH   3   4
ENDBRANCH   2   3
TORSDOF 3
ENDMDL
MODEL       16
REMARK 921   NORMALIZED FREE ENERGY PREDICTED BY IDOCK:   -3.53 KCAL/MOL
REMARK 922        TOTAL FREE ENERGY PREDICTED BY IDOCK:   -4.25 KCAL/MOL
REMARK 923 INTER-LIGAND FREE ENERGY PREDICTED BY IDOCK:   -4.26 KCAL/MOL
REMARK 924 INTRA-LIGAND FREE ENERGY PREDICTED BY IDOCK:    0.01 KCAL/MOL
REMARK 927      BINDING AFFINITY PREDICTED BY RF-SCORE:    0.00 PKD
ROOT
ATOM      1  CE  MET A   1     -10.673  11.661  66.974  1.00  0.00    -0.253 C  
ATOM      2  SD  MET A   1     -11.654  12.623  68.147  1.00  0.00    -0.354 SA 
ENDROOT
BRANCH   2   3
ATOM      3  CG  MET A   1     -12.258  13.931  67.023  1.00  0.00    -0.355 C  
BRANCH   3   4
ATOM      4  CB  MET A   1     -11.157  14.986  66.890  1.00  0.00    -0.331 C  
BRANCH   4   5
ATOM      5  CA  MET A   1     -10.567  15.100  65.481  1.00  0.00    -0.366 C  
ATOM      6  C   MET A   1     -11.610  15.621  64.480  1.00  0.00    -0.262 C  
ATOM      7  N   MET A   1      -9.436  16.079  65.516  1.00  0.00    -0.393 NA 
ATOM      8  O   MET A   1     -11.484  16.961  64.293  1.00  0.00    -1.142 OA 
ATOM      9  OXT MET A   1     -12.460  14.938  63.936  1.00  0.00    -0.806 OA 
ATOM     10  H1  MET A   1      -9.043  16.155  64.578  1.00  0.00     0.000 HD 
ATOM     11  H2  MET A   1      -8.734  15.840  66.216  1.00  0.00     0.000 HD 
ENDBRANCH   4   5
ENDBRANCH   3   4
ENDBRANCH   2   3
TORSDOF 3
ENDMDL
MODEL       17
REMARK 921   NORMALIZED FREE ENERGY PREDICTED BY IDOCK:   -3.52 KCAL/MOL
REMARK 922        TOTAL FREE ENERGY PREDICTED BY IDOCK:   -4.25 KCAL/MOL
REMARK 923 INTER-LIGAND FREE ENERGY PREDICTED BY IDOCK:   -4.13 KCAL/MOL
REMARK 924 INTRA-LIGAND FREE ENERGY PREDICTED BY IDOCK:   -0.12 KCAL/MOL
REMARK 927      BINDING AFFINITY PREDICTED BY RF-SCORE:    0.00 PKD
ROOT
ATOM      1  CE  MET A   1      -8.074   9.512  64.051  1.00  0.00    -0.152 C  
ATOM      2  SD  MET A   1      -9.658  10.167  64.623  1.00  0.00    -0.303 SA 
ENDROOT
BRANCH   2   3
ATOM      3  CG  MET A   1     -10.012  11.322  63.252  1.00  0.00    -0.393 C  
BRANCH   3   4
ATOM      4  CB  MET A   1     -10.459  12.654  63.861  1.00  0.00    -0.441 C  
BRANCH   4   5
ATOM      5  CA  MET A   1     -11.965  12.748  64.126  1.00  0.00    -0.427 C  
ATOM      6  C   MET A   1     -12.256  12.946  65.621  1.00  0.00    -0.463 C  
ATOM      7  N   MET A   1     -12.505  13.935  63.392  1.00  0.00    -1.110 NA 
ATOM      8  O   MET A   1     -12.448  14.259  65.915  1.00  0.00    -0.437 OA 
ATOM      9  OXT MET A   1     -12.289  12.054  66.452  1.00  0.00    -0.403 OA 
ATOM     10  H1  MET A   1     -13.507  13.998  63.569  1.00  0.00     0.000 HD 
ATOM     11  H2  MET A   1     -12.283  13.914  62.397  1.00  0.00     0.000 HD 
ENDBRANCH   4   5
ENDBRANCH   3   4
ENDBRANCH   2   3
TORSDOF 3
ENDMDL
MODEL       18
REMARK 921   NORMALIZED FREE ENERGY PREDICTED BY IDOCK:   -3.50 KCAL/MOL
REMARK 922        TOTAL FREE ENERGY PREDICTED BY IDOCK:   -4.23 KCAL/MOL
REMARK 923 INTER-LIGAND FREE ENERGY PREDICTED BY IDOCK:   -4.29 KCAL/MOL
REMARK 924 INTRA-LIGAND FREE ENERGY PREDICTED BY IDOCK:    0.07 KCAL/MOL
REMARK 927      BINDING AFFINITY PREDICTED BY RF-SCORE:    0.00 PKD
ROOT
ATOM      1  CE  MET A   1     -11.557  15.467  68.595  1.00  0.00    -0.359 C  
ATOM      2  SD  MET A   1     -10.703  15.345  67.007  1.00  0.00    -0.321 SA 
ENDROOT
BRANCH   2   3
ATOM      3  CG  MET A   1     -11.824  14.180  66.158  1.00  0.00    -0.407 C  
BRANCH   3   4
ATOM      4  CB  MET A   1     -11.077  12.856  65.971  1.00  0.00    -0.308 C  
BRANCH   4   5
ATOM      5  CA  MET A   1     -11.129  12.303  64.544  1.00  0.00    -0.321 C  
ATOM      6  C   MET A   1     -12.496  12.567  63.893  1.00  0.00    -0.445 C  
ATOM      7  N   MET A   1     -10.089  13.001  63.725  1.00  0.00    -0.744 NA 
ATOM      8  O   MET A   1     -12.464  13.682  63.117  1.00  0.00    -0.786 OA 
ATOM      9  OXT MET A   1     -13.494  11.888  64.062  1.00  0.00    -0.600 OA 
ATOM     10  H1  MET A   1     -10.124  12.633  62.774  1.00  0.00     0.000 HD 
ATOM     11  H2  MET A   1      -9.159  12.935  64.136  1.00  0.00     0.000 HD 
ENDBRANCH   4   5
ENDBRANCH   3   4
ENDBRANCH   2   3
TORSDOF 3
ENDMDL
MODEL       19
REMARK 921   NORMALIZED FREE ENERGY PREDICTED BY IDOCK:   -3.38 KCAL/MOL
REMARK 922        TOTAL FREE ENERGY PREDICTED BY IDOCK:   -4.08 KCAL/MOL
REMARK 923 INTER-LIGAND FREE ENERGY PREDICTED BY IDOCK:   -4.02 KCAL/MOL
REMARK 924 INTRA-LIGAND FREE ENERGY PREDICTED BY IDOCK:   -0.06 KCAL/MOL
REMARK 927      BINDING AFFINITY PREDICTED BY RF-SCORE:    0.00 PKD
ROOT
ATOM      1  CE  MET A   1      -9.470   8.263  66.352  1.00  0.00    -0.221 C  
ATOM      2  SD  MET A   1     -10.245   9.896  66.361  1.00  0.00    -0.192 SA 
ENDROOT
BRANCH   2   3
ATOM      3  CG  MET A   1      -9.870  10.410  64.649  1.00  0.00    -0.338 C  
BRANCH   3   4
ATOM      4  CB  MET A   1     -10.338  11.858  64.477  1.00  0.00    -0.334 C  
BRANCH   4   5
ATOM      5  CA  MET A   1     -11.854  12.013  64.330  1.00  0.00    -0.346 C  
ATOM      6  C   MET A   1     -12.281  13.482  64.475  1.00  0.00    -0.398 C  
ATOM      7  N   MET A   1     -12.250  11.554  62.961  1.00  0.00    -0.941 NA 
ATOM      8  O   MET A   1     -12.426  14.074  63.260  1.00  0.00    -0.795 OA 
ATOM      9  OXT MET A   1     -12.448  14.061  65.534  1.00  0.00    -0.458 OA 
ATOM     10  H1  MET A   1     -13.260  11.657  62.863  1.00  0.00     0.000 HD 
ATOM     11  H2  MET A   1     -11.932  10.606  62.760  1.00  0.00     0.000 HD 
ENDBRANCH   4   5
ENDBRANCH   3   4
ENDBRANCH   2   3
TORSDOF 3
ENDMDL
MODEL       20
REMARK 921   NORMALIZED FREE ENERGY PREDICTED BY IDOCK:   -3.30 KCAL/MOL
REMARK 922        TOTAL FREE ENERGY PREDICTED BY IDOCK:   -3.98 KCAL/MOL
REMARK 923 INTER-LIGAND FREE ENERGY PREDICTED BY IDOCK:   -3.84 KCAL/MOL
REMARK 924 INTRA-LIGAND FREE ENERGY PREDICTED BY IDOCK:   -0.14 KCAL/MOL
REMARK 927      BINDING AFFINITY PREDICTED BY RF-SCORE:    0.00 PKD
ROOT
ATOM      1  CE  MET A   1      -9.366  15.918  68.468  1.00  0.00    -0.206 C  
ATOM      2  SD  MET A   1     -10.371  17.133  67.586  1.00  0.00    -0.353 SA 
ENDROOT
BRANCH   2   3
ATOM      3  CG  MET A   1     -10.199  16.482  65.888  1.00  0.00    -0.349 C  
BRANCH   3   4
ATOM      4  CB  MET A   1     -10.525  14.986  65.920  1.00  0.00    -0.341 C  
BRANCH   4   5
ATOM      5  CA  MET A   1     -12.024  14.671  65.890  1.00  0.00    -0.238 C  
ATOM      6  C   MET A   1     -12.369  13.712  64.740  1.00  0.00    -0.390 C  
ATOM      7  N   MET A   1     -12.396  14.000  67.174  1.00  0.00    -0.539 NA 
ATOM      8  O   MET A   1     -12.435  12.426  65.176  1.00  0.00    -0.583 OA 
ATOM      9  OXT MET A   1     -12.539  14.043  63.579  1.00  0.00    -0.842 OA 
ATOM     10  H1  MET A   1     -13.394  13.790  67.154  1.00  0.00     0.000 HD 
ATOM     11  H2  MET A   1     -12.128  14.546  67.992  1.00  0.00     0.000 HD 
ENDBRANCH   4   5
ENDBRANCH   3   4
ENDBRANCH   2   3
TORSDOF 3
ENDMDL
MODEL       21
REMARK 921   NORMALIZED FREE ENERGY PREDICTED BY IDOCK:   -3.28 KCAL/MOL
REMARK 922        TOTAL FREE ENERGY PREDICTED BY IDOCK:   -3.96 KCAL/MOL
REMARK 923 INTER-LIGAND FREE ENERGY PREDICTED BY IDOCK:   -3.82 KCAL/MOL
REMARK 924 INTRA-LIGAND FREE ENERGY PREDICTED BY IDOCK:   -0.14 KCAL/MOL
REMARK 927      BINDING AFFINITY PREDICTED BY RF-SCORE:    0.00 PKD
ROOT
ATOM      1  CE  MET A   1     -11.254   6.358  69.465  1.00  0.00    -0.412 C  
ATOM      2  SD  MET A   1     -10.362   6.130  71.020  1.00  0.00    -0.218 SA 
ENDROOT
BRANCH   2   3
ATOM      3  CG  MET A   1     -11.750   6.339  72.190  1.00  0.00    -0.319 C  
BRANCH   3   4
ATOM      4  CB  MET A   1     -12.704   7.385  71.609  1.00  0.00    -0.399 C  
BRANCH   4   5
ATOM      5  CA  MET A   1     -12.687   8.727  72.348  1.00  0.00    -0.368 C  
ATOM      6  C   MET A   1     -12.284   9.875  71.410  1.00  0.00    -0.408 C  
ATOM      7  N   MET A   1     -14.067   9.010  72.853  1.00  0.00    -1.110 NA 
ATOM      8  O   MET A   1     -13.377  10.521  70.926  1.00  0.00    -0.296 OA 
ATOM      9  OXT MET A   1     -11.138  10.164  71.111  1.00  0.00    -0.291 OA 
ATOM     10  H1  MET A   1     -14.056   9.904  73.345  1.00  0.00     0.000 HD 
ATOM     11  H2  MET A   1     -14.437   8.253  73.426  1.00  0.00     0.000 HD 
ENDBRANCH   4   5
ENDBRANCH   3   4
ENDBRANCH   2   3
TORSDOF 3
ENDMDL
MODEL       22
REMARK 921   NORMALIZED FREE ENERGY PREDICTED BY IDOCK:   -3.27 KCAL/MOL
REMARK 922        TOTAL FREE ENERGY PREDICTED BY IDOCK:   -3.95 KCAL/MOL
REMARK 923 INTER-LIGAND FREE ENERGY PREDICTED BY IDOCK:   -3.87 KCAL/MOL
REMARK 924 INTRA-LIGAND FREE ENERGY PREDICTED BY IDOCK:   -0.08 KCAL/MOL
REMARK 927      BINDING AFFINITY PREDICTED BY RF-SCORE:    0.00 PKD
ROOT
ATOM      1  CE  MET A   1     -12.468  15.642  73.985  1.00  0.00    -0.651 C  
ATOM      2  SD  MET A   1     -13.584  15.461  72.576  1.00  0.00    -0.570 SA 
ENDROOT
BRANCH   2   3
ATOM      3  CG  MET A   1     -12.375  15.642  71.218  1.00  0.00    -0.426 C  
BRANCH   3   4
ATOM      4  CB  MET A   1     -12.604  14.499  70.226  1.00  0.00    -0.378 C  
BRANCH   4   5
ATOM      5  CA  MET A   1     -11.406  14.210  69.316  1.00  0.00    -0.281 C  
ATOM      6  C   MET A   1     -11.647  14.737  67.893  1.00  0.00    -0.351 C  
ATOM      7  N   MET A   1     -10.207  14.915  69.868  1.00  0.00    -0.461 NA 
ATOM      8  O   MET A   1     -11.077  15.958  67.717  1.00  0.00    -0.325 OA 
ATOM      9  OXT MET A   1     -12.286  14.157  67.031  1.00  0.00    -0.432 OA 
ATOM     10  H1  MET A   1      -9.410  14.723  69.262  1.00  0.00     0.000 HD 
ATOM     11  H2  MET A   1     -10.026  14.673  70.842  1.00  0.00     0.000 HD 
ENDBRANCH   4   5
ENDBRANCH   3   4
ENDBRANCH   2   3
TORSDOF 3
ENDMDL
MODEL       23
REMARK 921   NORMALIZED FREE ENERGY PREDICTED BY IDOCK:   -3.22 KCAL/MOL
REMARK 922        TOTAL FREE ENERGY PREDICTED BY IDOCK:   -3.89 KCAL/MOL
REMARK 923 INTER-LIGAND FREE ENERGY PREDICTED BY IDOCK:   -3.85 KCAL/MOL
REMARK 924 INTRA-LIGAND FREE ENERGY PREDICTED BY IDOCK:   -0.04 KCAL/MOL
REMARK 927      BINDING AFFINITY PREDICTED BY RF-SCORE:    0.00 PKD
ROOT
ATOM      1  CE  MET A   1     -12.749  15.984  73.352  1.00  0.00    -0.558 C  
ATOM      2  SD  MET A   1     -13.806  14.952  72.313  1.00  0.00    -0.517 SA 
ENDROOT
BRANCH   2   3
ATOM      3  CG  MET A   1     -12.947  15.162  70.715  1.00  0.00    -0.414 C  
BRANCH   3   4
ATOM      4  CB  MET A   1     -12.321  13.818  70.334  1.00  0.00    -0.423 C  
BRANCH   4   5
ATOM      5  CA  MET A   1     -11.479  13.859  69.055  1.00  0.00    -0.299 C  
ATOM      6  C   MET A   1     -11.180  12.443  68.539  1.00  0.00    -0.279 C  
ATOM      7  N   MET A   1     -12.256  14.578  67.997  1.00  0.00    -0.603 NA 
ATOM      8  O   MET A   1     -12.057  12.079  67.567  1.00  0.00    -0.555 OA 
ATOM      9  OXT MET A   1     -10.291  11.720  68.955  1.00  0.00    -0.200 OA 
ATOM     10  H1  MET A   1     -11.695  14.605  67.145  1.00  0.00     0.000 HD 
ATOM     11  H2  MET A   1     -12.558  15.505  68.296  1.00  0.00     0.000 HD 
ENDBRANCH   4   5
ENDBRANCH   3   4
ENDBRANCH   2   3
TORSDOF 3
ENDMDL
MODEL       24
REMARK 921   NORMALIZED FREE ENERGY PREDICTED BY IDOCK:   -3.21 KCAL/MOL
REMARK 922        TOTAL FREE ENERGY PREDICTED BY IDOCK:   -3.88 KCAL/MOL
REMARK 923 INTER-LIGAND FREE ENERGY PREDICTED BY IDOCK:   -3.79 KCAL/MOL
REMARK 924 INTRA-LIGAND FREE ENERGY PREDICTED BY IDOCK:   -0.09 KCAL/MOL
REMARK 927      BINDING AFFINITY PREDICTED BY RF-SCORE:    0.00 PKD
ROOT
ATOM      1  CE  MET A   1      -7.662  12.944  68.290  1.00  0.00    -0.137 C  
ATOM      2  SD  MET A   1      -8.891  12.564  67.022  1.00  0.00    -0.206 SA 
ENDROOT
BRANCH   2   3
ATOM      3  CG  MET A   1      -9.748  14.175  66.948  1.00  0.00    -0.269 C  
BRANCH   3   4
ATOM      4  CB  MET A   1     -10.315  14.345  65.536  1.00  0.00    -0.382 C  
BRANCH   4   5
ATOM      5  CA  MET A   1     -11.833  14.539  65.490  1.00  0.00    -0.330 C  
ATOM      6  C   MET A   1     -12.485  13.590  64.472  1.00  0.00    -0.291 C  
ATOM      7  N   MET A   1     -12.396  14.221  66.839  1.00  0.00    -0.571 NA 
ATOM      8  O   MET A   1     -12.969  12.475  65.080  1.00  0.00    -0.779 OA 
ATOM      9  OXT MET A   1     -12.546  13.787  63.271  1.00  0.00    -0.830 OA 
ATOM     10  H1  MET A   1     -13.407  14.350  66.808  1.00  0.00     0.000 HD 
ATOM     11  H2  MET A   1     -11.955  14.761  67.583  1.00  0.00     0.000 HD 
ENDBRANCH   4   5
ENDBRANCH   3   4
ENDBRANCH   2   3
TORSDOF 3
ENDMDL
MODEL       25
REMARK 921   NORMALIZED FREE ENERGY PREDICTED BY IDOCK:   -3.21 KCAL/MOL
REMARK 922        TOTAL FREE ENERGY PREDICTED BY IDOCK:   -3.88 KCAL/MOL
REMARK 923 INTER-LIGAND FREE ENERGY PREDICTED BY IDOCK:   -3.76 KCAL/MOL
REMARK 924 INTRA-LIGAND FREE ENERGY PREDICTED BY IDOCK:   -0.13 KCAL/MOL
REMARK 927      BINDING AFFINITY PREDICTED BY RF-SCORE:    0.00 PKD
ROOT
ATOM      1  CE  MET A   1     -10.352  11.954  63.393  1.00  0.00    -0.444 C  
ATOM      2  SD  MET A   1     -12.134  12.182  63.588  1.00  0.00    -0.547 SA 
ENDROOT
BRANCH   2   3
ATOM      3  CG  MET A   1     -12.137  13.833  64.370  1.00  0.00    -0.436 C  
BRANCH   3   4
ATOM      4  CB  MET A   1     -12.570  13.664  65.828  1.00  0.00    -0.511 C  
BRANCH   4   5
ATOM      5  CA  MET A   1     -11.433  13.274  66.778  1.00  0.00    -0.350 C  
ATOM      6  C   MET A   1     -11.306  14.276  67.936  1.00  0.00    -0.297 C  
ATOM      7  N   MET A   1     -11.741  11.932  67.364  1.00  0.00    -0.566 NA 
ATOM      8  O   MET A   1     -11.953  13.831  69.045  1.00  0.00    -0.334 OA 
ATOM      9  OXT MET A   1     -10.724  15.346  67.875  1.00  0.00    -0.270 OA 
ATOM     10  H1  MET A   1     -10.984  11.673  67.997  1.00  0.00     0.000 HD 
ATOM     11  H2  MET A   1     -11.916  11.225  66.651  1.00  0.00     0.000 HD 
ENDBRANCH   4   5
ENDBRANCH   3   4
ENDBRANCH   2   3
TORSDOF 3
ENDMDL
MODEL       26
REMARK 921   NORMALIZED FREE ENERGY PREDICTED BY IDOCK:   -3.21 KCAL/MOL
REMARK 922        TOTAL FREE ENERGY PREDICTED BY IDOCK:   -3.88 KCAL/MOL
REMARK 923 INTER-LIGAND FREE ENERGY PREDICTED BY IDOCK:   -3.81 KCAL/MOL
REMARK 924 INTRA-LIGAND FREE ENERGY PREDICTED BY IDOCK:   -0.07 KCAL/MOL
REMARK 927      BINDING AFFINITY PREDICTED BY RF-SCORE:    0.00 PKD
ROOT
ATOM      1  CE  MET A   1      -9.495  16.097  66.487  1.00  0.00    -0.264 C  
ATOM      2  SD  MET A   1     -10.022  15.501  68.109  1.00  0.00    -0.218 SA 
ENDROOT
BRANCH   2   3
ATOM      3  CG  MET A   1     -11.487  14.532  67.607  1.00  0.00    -0.353 C  
BRANCH   3   4
ATOM      4  CB  MET A   1     -11.513  14.475  66.077  1.00  0.00    -0.348 C  
BRANCH   4   5
ATOM      5  CA  MET A   1     -12.338  13.317  65.508  1.00  0.00    -0.480 C  
ATOM      6  C   MET A   1     -12.010  13.073  64.027  1.00  0.00    -0.456 C  
ATOM      7  N   MET A   1     -11.997  12.071  66.264  1.00  0.00    -0.574 NA 
ATOM      8  O   MET A   1     -11.101  12.073  63.884  1.00  0.00    -0.336 OA 
ATOM      9  OXT MET A   1     -12.477  13.703  63.094  1.00  0.00    -0.786 OA 
ATOM     10  H1  MET A   1     -12.546  11.300  65.886  1.00  0.00     0.000 HD 
ATOM     11  H2  MET A   1     -12.117  12.180  67.271  1.00  0.00     0.000 HD 
ENDBRANCH   4   5
ENDBRANCH   3   4
ENDBRANCH   2   3
TORSDOF 3
ENDMDL
MODEL       27
REMARK 921   NORMALIZED FREE ENERGY PREDICTED BY IDOCK:   -3.20 KCAL/MOL
REMARK 922        TOTAL FREE ENERGY PREDICTED BY IDOCK:   -3.87 KCAL/MOL
REMARK 923 INTER-LIGAND FREE ENERGY PREDICTED BY IDOCK:   -3.73 KCAL/MOL
REMARK 924 INTRA-LIGAND FREE ENERGY PREDICTED BY IDOCK:   -0.14 KCAL/MOL
REMARK 927      BINDING AFFINITY PREDICTED BY RF-SCORE:    0.00 PKD
ROOT
ATOM      1  CE  MET A   1     -11.216   6.963  70.572  1.00  0.00    -0.307 C  
ATOM      2  SD  MET A   1     -12.745   6.995  71.535  1.00  0.00    -0.354 SA 
ENDROOT
BRANCH   2   3
ATOM      3  CG  MET A   1     -12.500   8.572  72.424  1.00  0.00    -0.353 C  
BRANCH   3   4
ATOM      4  CB  MET A   1     -11.855   9.566  71.455  1.00  0.00    -0.464 C  
BRANCH   4   5
ATOM      5  CA  MET A   1     -12.856  10.454  70.709  1.00  0.00    -0.364 C  
ATOM      6  C   MET A   1     -12.861  11.883  71.274  1.00  0.00    -0.290 C  
ATOM      7  N   MET A   1     -12.447  10.531  69.272  1.00  0.00    -0.717 NA 
ATOM      8  O   MET A   1     -12.071  12.706  70.535  1.00  0.00    -0.363 OA 
ATOM      9  OXT MET A   1     -13.470  12.241  72.267  1.00  0.00    -0.520 OA 
ATOM     10  H1  MET A   1     -13.114  11.122  68.776  1.00  0.00     0.000 HD 
ATOM     11  H2  MET A   1     -12.347   9.610  68.845  1.00  0.00     0.000 HD 
ENDBRANCH   4   5
ENDBRANCH   3   4
ENDBRANCH   2   3
TORSDOF 3
ENDMDL
MODEL       28
REMARK 921   NORMALIZED FREE ENERGY PREDICTED BY IDOCK:   -3.18 KCAL/MOL
REMARK 922        TOTAL FREE ENERGY PREDICTED BY IDOCK:   -3.85 KCAL/MOL
REMARK 923 INTER-LIGAND FREE ENERGY PREDICTED BY IDOCK:   -3.75 KCAL/MOL
REMARK 924 INTRA-LIGAND FREE ENERGY PREDICTED BY IDOCK:   -0.09 KCAL/MOL
REMARK 927      BINDING AFFINITY PREDICTED BY RF-SCORE:    0.00 PKD
ROOT
ATOM      1  CE  MET A   1      -8.284   9.602  64.615  1.00  0.00    -0.149 C  
ATOM      2  SD  MET A   1      -9.272  10.248  63.247  1.00  0.00    -0.314 SA 
ENDROOT
BRANCH   2   3
ATOM      3  CG  MET A   1     -10.632  11.011  64.199  1.00  0.00    -0.342 C  
BRANCH   3   4
ATOM      4  CB  MET A   1     -10.966  12.357  63.550  1.00  0.00    -0.506 C  
BRANCH   4   5
ATOM      5  CA  MET A   1     -10.851  13.554  64.498  1.00  0.00    -0.410 C  
ATOM      6  C   MET A   1     -12.066  13.643  65.435  1.00  0.00    -0.403 C  
ATOM      7  N   MET A   1      -9.631  13.376  65.346  1.00  0.00    -0.506 NA 
ATOM      8  O   MET A   1     -11.801  13.073  66.639  1.00  0.00    -0.367 OA 
ATOM      9  OXT MET A   1     -13.142  14.135  65.140  1.00  0.00    -0.757 OA 
ATOM     10  H1  MET A   1      -9.555  14.173  65.978  1.00  0.00     0.000 HD 
ATOM     11  H2  MET A   1      -8.787  13.233  64.792  1.00  0.00     0.000 HD 
ENDBRANCH   4   5
ENDBRANCH   3   4
ENDBRANCH   2   3
TORSDOF 3
ENDMDL
MODEL       29
REMARK 921   NORMALIZED FREE ENERGY PREDICTED BY IDOCK:   -3.18 KCAL/MOL
REMARK 922        TOTAL FREE ENERGY PREDICTED BY IDOCK:   -3.84 KCAL/MOL
REMARK 923 INTER-LIGAND FREE ENERGY PREDICTED BY IDOCK:   -3.84 KCAL/MOL
REMARK 924 INTRA-LIGAND FREE ENERGY PREDICTED BY IDOCK:   -0.01 KCAL/MOL
REMARK 927      BINDING AFFINITY PREDICTED BY RF-SCORE:    0.00 PKD
ROOT
ATOM      1  CE  MET A   1      -8.109  10.756  65.809  1.00  0.00    -0.135 C  
ATOM      2  SD  MET A   1      -9.242   9.814  64.764  1.00  0.00    -0.254 SA 
ENDROOT
BRANCH   2   3
ATOM      3  CG  MET A   1     -10.303  11.179  64.173  1.00  0.00    -0.361 C  
BRANCH   3   4
ATOM      4  CB  MET A   1     -10.076  12.384  65.090  1.00  0.00    -0.276 C  
BRANCH   4   5
ATOM      5  CA  MET A   1     -11.365  13.021  65.618  1.00  0.00    -0.301 C  
ATOM      6  C   MET A   1     -12.358  13.298  64.479  1.00  0.00    -0.368 C  
ATOM      7  N   MET A   1     -12.014  12.064  66.568  1.00  0.00    -0.601 NA 
ATOM      8  O   MET A   1     -13.274  12.301  64.371  1.00  0.00    -0.806 OA 
ATOM      9  OXT MET A   1     -12.324  14.270  63.743  1.00  0.00    -0.735 OA 
ATOM     10  H1  MET A   1     -12.873  12.488  66.920  1.00  0.00     0.000 HD 
ATOM     11  H2  MET A   1     -11.387  11.771  67.317  1.00  0.00     0.000 HD 
ENDBRANCH   4   5
ENDBRANCH   3   4
ENDBRANCH   2   3
TORSDOF 3
ENDMDL
MODEL       30
REMARK 921   NORMALIZED FREE ENERGY PREDICTED BY IDOCK:   -3.11 KCAL/MOL
REMARK 922        TOTAL FREE ENERGY PREDICTED BY IDOCK:   -3.77 KCAL/MOL
REMARK 923 INTER-LIGAND FREE ENERGY PREDICTED BY IDOCK:   -3.66 KCAL/MOL
REMARK 924 INTRA-LIGAND FREE ENERGY PREDICTED BY IDOCK:   -0.11 KCAL/MOL
REMARK 927      BINDING AFFINITY PREDICTED BY RF-SCORE:    0.00 PKD
ROOT
ATOM      1  CE  MET A   1      -9.761  14.854  69.298  1.00  0.00    -0.143 C  
ATOM      2  SD  MET A   1     -10.843  14.101  68.062  1.00  0.00    -0.251 SA 
ENDROOT
BRANCH   2   3
ATOM      3  CG  MET A   1     -12.336  13.856  69.086  1.00  0.00    -0.122 C  
BRANCH   3   4
ATOM      4  CB  MET A   1     -11.950  14.092  70.548  1.00  0.00    -0.390 C  
BRANCH   4   5
ATOM      5  CA  MET A   1     -12.902  15.022  71.305  1.00  0.00    -0.367 C  
ATOM      6  C   MET A   1     -13.436  14.355  72.582  1.00  0.00    -0.509 C  
ATOM      7  N   MET A   1     -12.147  16.249  71.711  1.00  0.00    -0.637 NA 
ATOM      8  O   MET A   1     -12.716  14.731  73.672  1.00  0.00    -0.519 OA 
ATOM      9  OXT MET A   1     -14.367  13.568  72.624  1.00  0.00    -0.716 OA 
ATOM     10  H1  MET A   1     -12.781  16.869  72.215  1.00  0.00     0.000 HD 
ATOM     11  H2  MET A   1     -11.696  16.710  70.921  1.00  0.00     0.000 HD 
ENDBRANCH   4   5
ENDBRANCH   3   4
ENDBRANCH   2   3
TORSDOF 3
ENDMDL
MODEL       31
REMARK 921   NORMALIZED FREE ENERGY PREDICTED BY IDOCK:   -3.10 KCAL/MOL
REMARK 922        TOTAL FREE ENERGY PREDICTED BY IDOCK:   -3.75 KCAL/MOL
REMARK 923 INTER-LIGAND FREE ENERGY PREDICTED BY IDOCK:   -3.66 KCAL/MOL
REMARK 924 INTRA-LIGAND FREE ENERGY PREDICTED BY IDOCK:   -0.10 KCAL/MOL
REMARK 927      BINDING AFFINITY PREDICTED BY RF-SCORE:    0.00 PKD
ROOT
ATOM      1  CE  MET A   1      -8.416  12.860  67.851  1.00  0.00    -0.181 C  
ATOM      2  SD  MET A   1      -8.964  14.469  68.465  1.00  0.00    -0.183 SA 
ENDROOT
BRANCH   2   3
ATOM      3  CG  MET A   1     -10.764  14.282  68.218  1.00  0.00    -0.247 C  
BRANCH   3   4
ATOM      4  CB  MET A   1     -11.088  14.686  66.777  1.00  0.00    -0.335 C  
BRANCH   4   5
ATOM      5  CA  MET A   1     -12.201  13.857  66.129  1.00  0.00    -0.464 C  
ATOM      6  C   MET A   1     -12.159  13.968  64.597  1.00  0.00    -0.440 C  
ATOM      7  N   MET A   1     -11.995  12.419  66.490  1.00  0.00    -0.605 NA 
ATOM      8  O   MET A   1     -11.496  12.917  64.046  1.00  0.00    -0.370 OA 
ATOM      9  OXT MET A   1     -12.633  14.885  63.949  1.00  0.00    -0.831 OA 
ATOM     10  H1  MET A   1     -12.736  11.867  66.059  1.00  0.00     0.000 HD 
ATOM     11  H2  MET A   1     -11.935  12.274  67.497  1.00  0.00     0.000 HD 
ENDBRANCH   4   5
ENDBRANCH   3   4
ENDBRANCH   2   3
TORSDOF 3
ENDMDL
MODEL       32
REMARK 921   NORMALIZED FREE ENERGY PREDICTED BY IDOCK:   -3.09 KCAL/MOL
REMARK 922        TOTAL FREE ENERGY PREDICTED BY IDOCK:   -3.75 KCAL/MOL
REMARK 923 INTER-LIGAND FREE ENERGY PREDICTED BY IDOCK:   -3.62 KCAL/MOL
REMARK 924 INTRA-LIGAND FREE ENERGY PREDICTED BY IDOCK:   -0.12 KCAL/MOL
REMARK 927      BINDING AFFINITY PREDICTED BY RF-SCORE:    0.00 PKD
ROOT
ATOM      1  CE  MET A   1     -13.161  10.289  70.601  1.00  0.00    -0.226 C  
ATOM      2  SD  MET A   1     -13.039  11.585  71.854  1.00  0.00    -0.234 SA 
ENDROOT
BRANCH   2   3
ATOM      3  CG  MET A   1     -12.401  12.943  70.814  1.00  0.00    -0.299 C  
BRANCH   3   4
ATOM      4  CB  MET A   1     -13.283  14.173  71.047  1.00  0.00    -0.337 C  
BRANCH   4   5
ATOM      5  CA  MET A   1     -12.539  15.374  71.639  1.00  0.00    -0.389 C  
ATOM      6  C   MET A   1     -13.007  15.669  73.072  1.00  0.00    -0.510 C  
ATOM      7  N   MET A   1     -11.079  15.052  71.690  1.00  0.00    -0.552 NA 
ATOM      8  O   MET A   1     -12.171  15.109  73.986  1.00  0.00    -0.577 OA 
ATOM      9  OXT MET A   1     -14.008  16.299  73.366  1.00  0.00    -0.500 OA 
ATOM     10  H1  MET A   1     -10.583  15.852  72.083  1.00  0.00     0.000 HD 
ATOM     11  H2  MET A   1     -10.709  14.771  70.782  1.00  0.00     0.000 HD 
ENDBRANCH   4   5
ENDBRANCH   3   4
ENDBRANCH   2   3
TORSDOF 3
ENDMDL
MODEL       33
REMARK 921   NORMALIZED FREE ENERGY PREDICTED BY IDOCK:   -3.06 KCAL/MOL
REMARK 922        TOTAL FREE ENERGY PREDICTED BY IDOCK:   -3.71 KCAL/MOL
REMARK 923 INTER-LIGAND FREE ENERGY PREDICTED BY IDOCK:   -3.54 KCAL/MOL
REMARK 924 INTRA-LIGAND FREE ENERGY PREDICTED BY IDOCK:   -0.17 KCAL/MOL
REMARK 927      BINDING AFFINITY PREDICTED BY RF-SCORE:    0.00 PKD
ROOT
ATOM      1  CE  MET A   1     -10.022  10.474  64.783  1.00  0.00    -0.345 C  
ATOM      2  SD  MET A   1     -10.055  11.556  63.336  1.00  0.00    -0.434 SA 
ENDROOT
BRANCH   2   3
ATOM      3  CG  MET A   1     -11.026  12.942  64.026  1.00  0.00    -0.411 C  
BRANCH   3   4
ATOM      4  CB  MET A   1     -12.083  12.357  64.966  1.00  0.00    -0.468 C  
BRANCH   4   5
ATOM      5  CA  MET A   1     -12.272  13.146  66.264  1.00  0.00    -0.355 C  
ATOM      6  C   MET A   1     -11.650  12.409  67.460  1.00  0.00    -0.365 C  
ATOM      7  N   MET A   1     -11.577  14.464  66.127  1.00  0.00    -0.362 NA 
ATOM      8  O   MET A   1     -10.404  12.879  67.733  1.00  0.00    -0.215 OA 
ATOM      9  OXT MET A   1     -12.182  11.502  68.077  1.00  0.00    -0.582 OA 
ATOM     10  H1  MET A   1     -11.703  14.990  66.991  1.00  0.00     0.000 HD 
ATOM     11  H2  MET A   1     -11.884  14.984  65.305  1.00  0.00     0.000 HD 
ENDBRANCH   4   5
ENDBRANCH   3   4
ENDBRANCH   2   3
TORSDOF 3
ENDMDL
MODEL       34
REMARK 921   NORMALIZED FREE ENERGY PREDICTED BY IDOCK:   -3.01 KCAL/MOL
REMARK 922        TOTAL FREE ENERGY PREDICTED BY IDOCK:   -3.65 KCAL/MOL
REMARK 923 INTER-LIGAND FREE ENERGY PREDICTED BY IDOCK:   -3.57 KCAL/MOL
REMARK 924 INTRA-LIGAND FREE ENERGY PREDICTED BY IDOCK:   -0.08 KCAL/MOL
REMARK 927      BINDING AFFINITY PREDICTED BY RF-SCORE:    0.00 PKD
ROOT
ATOM      1  CE  MET A   1     -11.849  13.490  70.191  1.00  0.00    -0.278 C  
ATOM      2  SD  MET A   1     -11.360  15.196  69.854  1.00  0.00    -0.306 SA 
ENDROOT
BRANCH   2   3
ATOM      3  CG  MET A   1     -10.350  14.924  68.357  1.00  0.00    -0.233 C  
BRANCH   3   4
ATOM      4  CB  MET A   1     -11.300  14.793  67.163  1.00  0.00    -0.363 C  
BRANCH   4   5
ATOM      5  CA  MET A   1     -10.595  14.738  65.804  1.00  0.00    -0.327 C  
ATOM      6  C   MET A   1     -10.457  16.140  65.191  1.00  0.00    -0.268 C  
ATOM      7  N   MET A   1      -9.217  14.189  66.004  1.00  0.00    -0.513 NA 
ATOM      8  O   MET A   1      -9.232  16.670  65.444  1.00  0.00    -0.324 OA 
ATOM      9  OXT MET A   1     -11.334  16.723  64.575  1.00  0.00    -0.959 OA 
ATOM     10  H1  MET A   1      -8.747  14.152  65.100  1.00  0.00     0.000 HD 
ATOM     11  H2  MET A   1      -9.221  13.286  66.480  1.00  0.00     0.000 HD 
ENDBRANCH   4   5
ENDBRANCH   3   4
ENDBRANCH   2   3
TORSDOF 3
ENDMDL
MODEL       35
REMARK 921   NORMALIZED FREE ENERGY PREDICTED BY IDOCK:   -3.00 KCAL/MOL
REMARK 922        TOTAL FREE ENERGY PREDICTED BY IDOCK:   -3.64 KCAL/MOL
REMARK 923 INTER-LIGAND FREE ENERGY PREDICTED BY IDOCK:   -3.70 KCAL/MOL
REMARK 924 INTRA-LIGAND FREE ENERGY PREDICTED BY IDOCK:    0.06 KCAL/MOL
REMARK 927      BINDING AFFINITY PREDICTED BY RF-SCORE:    0.00 PKD
ROOT
ATOM      1  CE  MET A   1     -10.372  11.960  63.467  1.00  0.00    -0.458 C  
ATOM      2  SD  MET A   1     -12.124  12.290  63.763  1.00  0.00    -0.562 SA 
ENDROOT
BRANCH   2   3
ATOM      3  CG  MET A   1     -11.995  13.980  64.446  1.00  0.00    -0.454 C  
BRANCH   3   4
ATOM      4  CB  MET A   1     -12.507  13.947  65.888  1.00  0.00    -0.519 C  
BRANCH   4   5
ATOM      5  CA  MET A   1     -11.408  14.083  66.946  1.00  0.00    -0.329 C  
ATOM      6  C   MET A   1     -10.642  15.406  66.788  1.00  0.00    -0.309 C  
ATOM      7  N   MET A   1     -12.046  14.083  68.299  1.00  0.00    -0.512 NA 
ATOM      8  O   MET A   1     -11.124  16.357  67.630  1.00  0.00    -0.266 OA 
ATOM      9  OXT MET A   1      -9.734  15.598  65.996  1.00  0.00    -0.292 OA 
ATOM     10  H1  MET A   1     -11.314  14.173  69.004  1.00  0.00     0.000 HD 
ATOM     11  H2  MET A   1     -12.637  13.266  68.452  1.00  0.00     0.000 HD 
ENDBRANCH   4   5
ENDBRANCH   3   4
ENDBRANCH   2   3
TORSDOF 3
ENDMDL
MODEL       36
REMARK 921   NORMALIZED FREE ENERGY PREDICTED BY IDOCK:   -2.98 KCAL/MOL
REMARK 922        TOTAL FREE ENERGY PREDICTED BY IDOCK:   -3.61 KCAL/MOL
REMARK 923 INTER-LIGAND FREE ENERGY PREDICTED BY IDOCK:   -3.56 KCAL/MOL
REMARK 924 INTRA-LIGAND FREE ENERGY PREDICTED BY IDOCK:   -0.06 KCAL/MOL
REMARK 927      BINDING AFFINITY PREDICTED BY RF-SCORE:    0.00 PKD
ROOT
ATOM      1  CE  MET A   1     -13.053  15.410  71.342  1.00  0.00    -0.488 C  
ATOM      2  SD  MET A   1     -12.471  13.856  70.628  1.00  0.00    -0.357 SA 
ENDROOT
BRANCH   2   3
ATOM      3  CG  MET A   1     -11.183  14.509  69.510  1.00  0.00    -0.264 C  
BRANCH   3   4
ATOM      4  CB  MET A   1     -11.824  14.750  68.140  1.00  0.00    -0.318 C  
BRANCH   4   5
ATOM      5  CA  MET A   1     -11.624  13.604  67.145  1.00  0.00    -0.361 C  
ATOM      6  C   MET A   1     -11.945  14.049  65.710  1.00  0.00    -0.404 C  
ATOM      7  N   MET A   1     -10.188  13.184  67.184  1.00  0.00    -0.243 NA 
ATOM      8  O   MET A   1     -10.816  14.400  65.040  1.00  0.00    -0.359 OA 
ATOM      9  OXT MET A   1     -13.064  14.108  65.230  1.00  0.00    -0.763 OA 
ATOM     10  H1  MET A   1     -10.055  12.420  66.521  1.00  0.00     0.000 HD 
ATOM     11  H2  MET A   1      -9.876  12.944  68.124  1.00  0.00     0.000 HD 
ENDBRANCH   4   5
ENDBRANCH   3   4
ENDBRANCH   2   3
TORSDOF 3
ENDMDL
MODEL       37
REMARK 921   NORMALIZED FREE ENERGY PREDICTED BY IDOCK:   -2.96 KCAL/MOL
REMARK 922        TOTAL FREE ENERGY PREDICTED BY IDOCK:   -3.59 KCAL/MOL
REMARK 923 INTER-LIGAND FREE ENERGY PREDICTED BY IDOCK:   -3.53 KCAL/MOL
REMARK 924 INTRA-LIGAND FREE ENERGY PREDICTED BY IDOCK:   -0.06 KCAL/MOL
REMARK 927      BINDING AFFINITY PREDICTED BY RF-SCORE:    0.00 PKD
ROOT
ATOM      1  CE  MET A   1      -5.686  18.484  69.381  1.00  0.00    -0.231 C  
ATOM      2  SD  MET A   1      -6.239  20.203  69.444  1.00  0.00    -0.324 SA 
ENDROOT
BRANCH   2   3
ATOM      3  CG  MET A   1      -6.800  20.396  67.717  1.00  0.00    -0.301 C  
BRANCH   3   4
ATOM      4  CB  MET A   1      -7.745  19.235  67.394  1.00  0.00    -0.273 C  
BRANCH   4   5
ATOM      5  CA  MET A   1      -8.922  19.618  66.492  1.00  0.00    -0.369 C  
ATOM      6  C   MET A   1      -9.980  18.505  66.454  1.00  0.00    -0.379 C  
ATOM      7  N   MET A   1      -9.569  20.847  67.049  1.00  0.00    -0.688 NA 
ATOM      8  O   MET A   1     -10.988  18.754  67.331  1.00  0.00    -0.422 OA 
ATOM      9  OXT MET A   1      -9.924  17.510  65.751  1.00  0.00    -0.546 OA 
ATOM     10  H1  MET A   1     -10.353  21.102  66.449  1.00  0.00     0.000 HD 
ATOM     11  H2  MET A   1      -8.909  21.613  67.177  1.00  0.00     0.000 HD 
ENDBRANCH   4   5
ENDBRANCH   3   4
ENDBRANCH   2   3
TORSDOF 3
ENDMDL
MODEL       38
REMARK 921   NORMALIZED FREE ENERGY PREDICTED BY IDOCK:   -2.95 KCAL/MOL
REMARK 922        TOTAL FREE ENERGY PREDICTED BY IDOCK:   -3.58 KCAL/MOL
REMARK 923 INTER-LIGAND FREE ENERGY PREDICTED BY IDOCK:   -3.49 KCAL/MOL
REMARK 924 INTRA-LIGAND FREE ENERGY PREDICTED BY IDOCK:   -0.10 KCAL/MOL
REMARK 927      BINDING AFFINITY PREDICTED BY RF-SCORE:    0.00 PKD
ROOT
ATOM      1  CE  MET A   1     -11.922  12.561  66.151  1.00  0.00    -0.366 C  
ATOM      2  SD  MET A   1     -12.192  14.020  65.121  1.00  0.00    -0.455 SA 
ENDROOT
BRANCH   2   3
ATOM      3  CG  MET A   1     -10.513  14.737  65.180  1.00  0.00    -0.418 C  
BRANCH   3   4
ATOM      4  CB  MET A   1     -10.298  15.323  66.578  1.00  0.00    -0.289 C  
BRANCH   4   5
ATOM      5  CA  MET A   1     -10.189  16.851  66.607  1.00  0.00    -0.312 C  
ATOM      6  C   MET A   1      -8.744  17.302  66.870  1.00  0.00    -0.240 C  
ATOM      7  N   MET A   1     -10.600  17.383  65.271  1.00  0.00    -0.640 NA 
ATOM      8  O   MET A   1      -8.104  17.599  65.709  1.00  0.00    -0.550 OA 
ATOM      9  OXT MET A   1      -8.220  17.365  67.968  1.00  0.00    -0.216 OA 
ATOM     10  H1  MET A   1     -10.527  18.400  65.290  1.00  0.00     0.000 HD 
ATOM     11  H2  MET A   1     -11.526  17.062  64.990  1.00  0.00     0.000 HD 
ENDBRANCH   4   5
ENDBRANCH   3   4
ENDBRANCH   2   3
TORSDOF 3
ENDMDL
MODEL       39
REMARK 921   NORMALIZED FREE ENERGY PREDICTED BY IDOCK:   -2.93 KCAL/MOL
REMARK 922        TOTAL FREE ENERGY PREDICTED BY IDOCK:   -3.55 KCAL/MOL
REMARK 923 INTER-LIGAND FREE ENERGY PREDICTED BY IDOCK:   -3.62 KCAL/MOL
REMARK 924 INTRA-LIGAND FREE ENERGY PREDICTED BY IDOCK:    0.07 KCAL/MOL
REMARK 927      BINDING AFFINITY PREDICTED BY RF-SCORE:    0.00 PKD
ROOT
ATOM      1  CE  MET A   1      -8.108  11.351  66.450  1.00  0.00    -0.106 C  
ATOM      2  SD  MET A   1      -9.476  11.065  67.595  1.00  0.00    -0.166 SA 
ENDROOT
BRANCH   2   3
ATOM      3  CG  MET A   1     -10.876  11.400  66.472  1.00  0.00    -0.283 C  
BRANCH   3   4
ATOM      4  CB  MET A   1     -10.314  11.601  65.062  1.00  0.00    -0.329 C  
BRANCH   4   5
ATOM      5  CA  MET A   1     -11.001  12.715  64.266  1.00  0.00    -0.366 C  
ATOM      6  C   MET A   1     -12.426  12.970  64.780  1.00  0.00    -0.427 C  
ATOM      7  N   MET A   1     -10.218  13.978  64.442  1.00  0.00    -0.711 NA 
ATOM      8  O   MET A   1     -12.455  14.013  65.651  1.00  0.00    -0.459 OA 
ATOM      9  OXT MET A   1     -13.407  12.315  64.475  1.00  0.00    -0.769 OA 
ATOM     10  H1  MET A   1     -10.675  14.720  63.912  1.00  0.00     0.000 HD 
ATOM     11  H2  MET A   1      -9.235  13.867  64.191  1.00  0.00     0.000 HD 
ENDBRANCH   4   5
ENDBRANCH   3   4
ENDBRANCH   2   3
TORSDOF 3
ENDMDL
MODEL       40
REMARK 921   NORMALIZED FREE ENERGY PREDICTED BY IDOCK:   -2.90 KCAL/MOL
REMARK 922        TOTAL FREE ENERGY PREDICTED BY IDOCK:   -3.52 KCAL/MOL
REMARK 923 INTER-LIGAND FREE ENERGY PREDICTED BY IDOCK:   -3.40 KCAL/MOL
REMARK 924 INTRA-LIGAND FREE ENERGY PREDICTED BY IDOCK:   -0.12 KCAL/MOL
REMARK 927      BINDING AFFINITY PREDICTED BY RF-SCORE:    0.00 PKD
ROOT
ATOM      1  CE  MET A   1      -9.603  14.186  66.528  1.00  0.00    -0.296 C  
ATOM      2  SD  MET A   1     -11.278  14.806  66.798  1.00  0.00    -0.341 SA 
ENDROOT
BRANCH   2   3
ATOM      3  CG  MET A   1     -11.942  13.435  67.804  1.00  0.00    -0.324 C  
BRANCH   3   4
ATOM      4  CB  MET A   1     -11.481  13.642  69.250  1.00  0.00    -0.344 C  
BRANCH   4   5
ATOM      5  CA  MET A   1     -11.294  15.110  69.643  1.00  0.00    -0.283 C  
ATOM      6  C   MET A   1     -12.212  15.496  70.812  1.00  0.00    -0.403 C  
ATOM      7  N   MET A   1      -9.879  15.307  70.087  1.00  0.00    -0.468 NA 
ATOM      8  O   MET A   1     -11.553  15.428  71.998  1.00  0.00    -0.404 OA 
ATOM      9  OXT MET A   1     -13.388  15.801  70.707  1.00  0.00    -0.539 OA 
ATOM     10  H1  MET A   1      -9.754  16.285  70.349  1.00  0.00     0.000 HD 
ATOM     11  H2  MET A   1      -9.203  15.000  69.388  1.00  0.00     0.000 HD 
ENDBRANCH   4   5
ENDBRANCH   3   4
ENDBRANCH   2   3
TORSDOF 3
ENDMDL
MODEL       41
REMARK 921   NORMALIZED FREE ENERGY PREDICTED BY IDOCK:   -2.90 KCAL/MOL
REMARK 922        TOTAL FREE ENERGY PREDICTED BY IDOCK:   -3.51 KCAL/MOL
REMARK 923 INTER-LIGAND FREE ENERGY PREDICTED BY IDOCK:   -3.37 KCAL/MOL
REMARK 924 INTRA-LIGAND FREE ENERGY PREDICTED BY IDOCK:   -0.14 KCAL/MOL
REMARK 927      BINDING AFFINITY PREDICTED BY RF-SCORE:    0.00 PKD
ROOT
ATOM      1  CE  MET A   1      -9.072   6.565  70.338  1.00  0.00    -0.156 C  
ATOM      2  SD  MET A   1     -10.552   5.743  69.706  1.00  0.00    -0.337 SA 
ENDROOT
BRANCH   2   3
ATOM      3  CG  MET A   1     -11.827   6.838  70.421  1.00  0.00    -0.338 C  
BRANCH   3   4
ATOM      4  CB  MET A   1     -11.176   8.193  70.715  1.00  0.00    -0.275 C  
BRANCH   4   5
ATOM      5  CA  MET A   1     -11.606   8.818  72.046  1.00  0.00    -0.366 C  
ATOM      6  C   MET A   1     -12.829   9.729  71.864  1.00  0.00    -0.427 C  
ATOM      7  N   MET A   1     -11.988   7.720  72.987  1.00  0.00    -0.629 NA 
ATOM      8  O   MET A   1     -13.980   9.074  72.169  1.00  0.00    -0.431 OA 
ATOM      9  OXT MET A   1     -12.790  10.884  71.474  1.00  0.00    -0.411 OA 
ATOM     10  H1  MET A   1     -12.274   8.136  73.873  1.00  0.00     0.000 HD 
ATOM     11  H2  MET A   1     -11.248   7.027  73.101  1.00  0.00     0.000 HD 
ENDBRANCH   4   5
ENDBRANCH   3   4
ENDBRANCH   2   3
TORSDOF 3
ENDMDL
MODEL       42
REMARK 921   NORMALIZED FREE ENERGY PREDICTED BY IDOCK:   -2.88 KCAL/MOL
REMARK 922        TOTAL FREE ENERGY PREDICTED BY IDOCK:   -3.50 KCAL/MOL
REMARK 923 INTER-LIGAND FREE ENERGY PREDICTED BY IDOCK:   -3.38 KCAL/MOL
REMARK 924 INTRA-LIGAND FREE ENERGY PREDICTED BY IDOCK:   -0.12 KCAL/MOL
REMARK 927      BINDING AFFINITY PREDICTED BY RF-SCORE:    0.00 PKD
ROOT
ATOM      1  CE  MET A   1     -11.106  12.775  63.857  1.00  0.00    -0.431 C  
ATOM      2  SD  MET A   1     -12.179  12.596  65.300  1.00  0.00    -0.438 SA 
ENDROOT
BRANCH   2   3
ATOM      3  CG  MET A   1     -11.300  13.698  66.461  1.00  0.00    -0.319 C  
BRANCH   3   4
ATOM      4  CB  MET A   1     -11.276  15.103  65.853  1.00  0.00    -0.280 C  
BRANCH   4   5
ATOM      5  CA  MET A   1      -9.873  15.698  65.705  1.00  0.00    -0.351 C  
ATOM      6  C   MET A   1      -9.788  17.093  66.345  1.00  0.00    -0.300 C  
ATOM      7  N   MET A   1      -8.901  14.809  66.415  1.00  0.00    -0.470 NA 
ATOM      8  O   MET A   1      -9.278  17.027  67.602  1.00  0.00    -0.230 OA 
ATOM      9  OXT MET A   1     -10.150  18.129  65.814  1.00  0.00    -0.563 OA 
ATOM     10  H1  MET A   1      -7.966  15.205  66.317  1.00  0.00     0.000 HD 
ATOM     11  H2  MET A   1      -8.951  13.842  66.096  1.00  0.00     0.000 HD 
ENDBRANCH   4   5
ENDBRANCH   3   4
ENDBRANCH   2   3
TORSDOF 3
ENDMDL
MODEL       43
REMARK 921   NORMALIZED FREE ENERGY PREDICTED BY IDOCK:   -2.87 KCAL/MOL
REMARK 922        TOTAL FREE ENERGY PREDICTED BY IDOCK:   -3.48 KCAL/MOL
REMARK 923 INTER-LIGAND FREE ENERGY PREDICTED BY IDOCK:   -3.40 KCAL/MOL
REMARK 924 INTRA-LIGAND FREE ENERGY PREDICTED BY IDOCK:   -0.08 KCAL/MOL
REMARK 927      BINDING AFFINITY PREDICTED BY RF-SCORE:    0.00 PKD
ROOT
ATOM      1  CE  MET A   1      -9.263  10.390  66.949  1.00  0.00    -0.150 C  
ATOM      2  SD  MET A   1     -10.308  11.296  68.112  1.00  0.00    -0.194 SA 
ENDROOT
BRANCH   2   3
ATOM      3  CG  MET A   1     -11.685  11.733  66.994  1.00  0.00    -0.167 C  
BRANCH   3   4
ATOM      4  CB  MET A   1     -11.870  13.252  67.043  1.00  0.00    -0.442 C  
BRANCH   4   5
ATOM      5  CA  MET A   1     -12.311  13.872  65.714  1.00  0.00    -0.486 C  
ATOM      6  C   MET A   1     -11.101  14.331  64.885  1.00  0.00    -0.390 C  
ATOM      7  N   MET A   1     -13.042  12.834  64.922  1.00  0.00    -0.821 NA 
ATOM      8  O   MET A   1     -10.753  13.395  63.964  1.00  0.00    -0.342 OA 
ATOM      9  OXT MET A   1     -10.506  15.384  65.039  1.00  0.00    -0.406 OA 
ATOM     10  H1  MET A   1     -13.335  13.248  64.037  1.00  0.00     0.000 HD 
ATOM     11  H2  MET A   1     -13.819  12.424  65.439  1.00  0.00     0.000 HD 
ENDBRANCH   4   5
ENDBRANCH   3   4
ENDBRANCH   2   3
TORSDOF 3
ENDMDL
MODEL       44
REMARK 921   NORMALIZED FREE ENERGY PREDICTED BY IDOCK:   -2.87 KCAL/MOL
REMARK 922        TOTAL FREE ENERGY PREDICTED BY IDOCK:   -3.48 KCAL/MOL
REMARK 923 INTER-LIGAND FREE ENERGY PREDICTED BY IDOCK:   -3.37 KCAL/MOL
REMARK 924 INTRA-LIGAND FREE ENERGY PREDICTED BY IDOCK:   -0.11 KCAL/MOL
REMARK 927      BINDING AFFINITY PREDICTED BY RF-SCORE:    0.00 PKD
ROOT
ATOM      1  CE  MET A   1     -12.040  15.668  73.420  1.00  0.00    -0.489 C  
ATOM      2  SD  MET A   1     -13.733  15.633  72.788  1.00  0.00    -0.518 SA 
ENDROOT
BRANCH   2   3
ATOM      3  CG  MET A   1     -13.379  15.414  71.009  1.00  0.00    -0.480 C  
BRANCH   3   4
ATOM      4  CB  MET A   1     -12.128  14.541  70.880  1.00  0.00    -0.404 C  
BRANCH   4   5
ATOM      5  CA  MET A   1     -11.422  14.654  69.525  1.00  0.00    -0.297 C  
ATOM      6  C   MET A   1     -10.318  15.722  69.560  1.00  0.00    -0.272 C  
ATOM      7  N   MET A   1     -10.780  13.340  69.211  1.00  0.00    -0.443 NA 
ATOM      8  O   MET A   1      -9.100  15.162  69.786  1.00  0.00    -0.148 OA 
ATOM      9  OXT MET A   1     -10.499  16.920  69.429  1.00  0.00    -0.321 OA 
ATOM     10  H1  MET A   1     -10.310  13.416  68.309  1.00  0.00     0.000 HD 
ATOM     11  H2  MET A   1     -11.440  12.564  69.243  1.00  0.00     0.000 HD 
ENDBRANCH   4   5
ENDBRANCH   3   4
ENDBRANCH   2   3
TORSDOF 3
ENDMDL
MODEL       45
REMARK 921   NORMALIZED FREE ENERGY PREDICTED BY IDOCK:   -2.86 KCAL/MOL
REMARK 922        TOTAL FREE ENERGY PREDICTED BY IDOCK:   -3.47 KCAL/MOL
REMARK 923 INTER-LIGAND FREE ENERGY PREDICTED BY IDOCK:   -3.38 KCAL/MOL
REMARK 924 INTRA-LIGAND FREE ENERGY PREDICTED BY IDOCK:   -0.09 KCAL/MOL
REMARK 927      BINDING AFFINITY PREDICTED BY RF-SCORE:    0.00 PKD
ROOT
ATOM      1  CE  MET A   1     -11.946  14.069  66.836  1.00  0.00    -0.447 C  
ATOM      2  SD  MET A   1     -11.502  15.154  68.211  1.00  0.00    -0.341 SA 
ENDROOT
BRANCH   2   3
ATOM      3  CG  MET A   1      -9.868  15.722  67.623  1.00  0.00    -0.232 C  
BRANCH   3   4
ATOM      4  CB  MET A   1      -9.737  17.210  67.957  1.00  0.00    -0.274 C  
BRANCH   4   5
ATOM      5  CA  MET A   1      -9.206  18.066  66.803  1.00  0.00    -0.280 C  
ATOM      6  C   MET A   1     -10.354  18.630  65.952  1.00  0.00    -0.323 C  
ATOM      7  N   MET A   1      -8.449  19.223  67.376  1.00  0.00    -0.284 NA 
ATOM      8  O   MET A   1     -10.665  19.899  66.326  1.00  0.00    -0.448 OA 
ATOM      9  OXT MET A   1     -10.937  18.021  65.071  1.00  0.00    -0.748 OA 
ATOM     10  H1  MET A   1      -8.095  19.792  66.607  1.00  0.00     0.000 HD 
ATOM     11  H2  MET A   1      -7.712  18.929  68.016  1.00  0.00     0.000 HD 
ENDBRANCH   4   5
ENDBRANCH   3   4
ENDBRANCH   2   3
TORSDOF 3
ENDMDL
MODEL       46
REMARK 921   NORMALIZED FREE ENERGY PREDICTED BY IDOCK:   -2.85 KCAL/MOL
REMARK 922        TOTAL FREE ENERGY PREDICTED BY IDOCK:   -3.46 KCAL/MOL
REMARK 923 INTER-LIGAND FREE ENERGY PREDICTED BY IDOCK:   -3.40 KCAL/MOL
REMARK 924 INTRA-LIGAND FREE ENERGY PREDICTED BY IDOCK:   -0.06 KCAL/MOL
REMARK 927      BINDING AFFINITY PREDICTED BY RF-SCORE:    0.00 PKD
ROOT
ATOM      1  CE  MET A   1     -11.976  11.500  70.317  1.00  0.00    -0.368 C  
ATOM      2  SD  MET A   1     -12.395  13.219  70.680  1.00  0.00    -0.277 SA 
ENDROOT
BRANCH   2   3
ATOM      3  CG  MET A   1     -12.083  13.953  69.037  1.00  0.00    -0.329 C  
BRANCH   3   4
ATOM      4  CB  MET A   1     -11.791  12.813  68.058  1.00  0.00    -0.386 C  
BRANCH   4   5
ATOM      5  CA  MET A   1     -11.333  13.279  66.673  1.00  0.00    -0.321 C  
ATOM      6  C   MET A   1     -11.755  12.283  65.581  1.00  0.00    -0.382 C  
ATOM      7  N   MET A   1     -11.985  14.592  66.372  1.00  0.00    -0.373 NA 
ATOM      8  O   MET A   1     -12.908  12.675  64.978  1.00  0.00    -0.765 OA 
ATOM      9  OXT MET A   1     -11.158  11.258  65.300  1.00  0.00    -0.196 OA 
ATOM     10  H1  MET A   1     -11.680  14.902  65.449  1.00  0.00     0.000 HD 
ATOM     11  H2  MET A   1     -11.812  15.289  67.096  1.00  0.00     0.000 HD 
ENDBRANCH   4   5
ENDBRANCH   3   4
ENDBRANCH   2   3
TORSDOF 3
ENDMDL
MODEL       47
REMARK 921   NORMALIZED FREE ENERGY PREDICTED BY IDOCK:   -2.82 KCAL/MOL
REMARK 922        TOTAL FREE ENERGY PREDICTED BY IDOCK:   -3.42 KCAL/MOL
REMARK 923 INTER-LIGAND FREE ENERGY PREDICTED BY IDOCK:   -3.24 KCAL/MOL
REMARK 924 INTRA-LIGAND FREE ENERGY PREDICTED BY IDOCK:   -0.19 KCAL/MOL
REMARK 927      BINDING AFFINITY PREDICTED BY RF-SCORE:    0.00 PKD
ROOT
ATOM      1  CE  MET A   1     -10.678  16.049  66.325  1.00  0.00    -0.234 C  
ATOM      2  SD  MET A   1     -11.348  15.448  64.759  1.00  0.00    -0.311 SA 
ENDROOT
BRANCH   2   3
ATOM      3  CG  MET A   1     -12.720  14.426  65.397  1.00  0.00    -0.285 C  
BRANCH   3   4
ATOM      4  CB  MET A   1     -12.357  12.955  65.177  1.00  0.00    -0.547 C  
BRANCH   4   5
ATOM      5  CA  MET A   1     -11.053  12.742  64.403  1.00  0.00    -0.349 C  
ATOM      6  C   MET A   1     -10.066  11.876  65.201  1.00  0.00    -0.261 C  
ATOM      7  N   MET A   1     -11.367  12.022  63.129  1.00  0.00    -0.702 NA 
ATOM      8  O   MET A   1     -10.132  10.574  64.816  1.00  0.00    -0.318 OA 
ATOM      9  OXT MET A   1      -9.332  12.285  66.084  1.00  0.00    -0.230 OA 
ATOM     10  H1  MET A   1     -10.499  11.880  62.613  1.00  0.00     0.000 HD 
ATOM     11  H2  MET A   1     -12.077  12.501  62.575  1.00  0.00     0.000 HD 
ENDBRANCH   4   5
ENDBRANCH   3   4
ENDBRANCH   2   3
TORSDOF 3
ENDMDL
MODEL       48
REMARK 921   NORMALIZED FREE ENERGY PREDICTED BY IDOCK:   -2.81 KCAL/MOL
REMARK 922        TOTAL FREE ENERGY PREDICTED BY IDOCK:   -3.42 KCAL/MOL
REMARK 923 INTER-LIGAND FREE ENERGY PREDICTED BY IDOCK:   -3.32 KCAL/MOL
REMARK 924 INTRA-LIGAND FREE ENERGY PREDICTED BY IDOCK:   -0.10 KCAL/MOL
REMARK 927      BINDING AFFINITY PREDICTED BY RF-SCORE:    0.00 PKD
ROOT
ATOM      1  CE  MET A   1     -13.048  10.406  71.843  1.00  0.00    -0.458 C  
ATOM      2  SD  MET A   1     -11.686  10.380  70.657  1.00  0.00    -0.369 SA 
ENDROOT
BRANCH   2   3
ATOM      3  CG  MET A   1     -11.853  12.068  69.979  1.00  0.00    -0.314 C  
BRANCH   3   4
ATOM      4  CB  MET A   1     -11.743  11.978  68.454  1.00  0.00    -0.390 C  
BRANCH   4   5
ATOM      5  CA  MET A   1     -10.799  13.012  67.833  1.00  0.00    -0.242 C  
ATOM      6  C   MET A   1     -11.578  14.212  67.272  1.00  0.00    -0.373 C  
ATOM      7  N   MET A   1      -9.880  13.521  68.899  1.00  0.00    -0.426 NA 
ATOM      8  O   MET A   1     -11.602  15.241  68.159  1.00  0.00    -0.337 OA 
ATOM      9  OXT MET A   1     -12.130  14.242  66.185  1.00  0.00    -0.407 OA 
ATOM     10  H1  MET A   1      -9.252  14.209  68.485  1.00  0.00     0.000 HD 
ATOM     11  H2  MET A   1      -9.380  12.770  69.374  1.00  0.00     0.000 HD 
ENDBRANCH   4   5
ENDBRANCH   3   4
ENDBRANCH   2   3
TORSDOF 3
ENDMDL
MODEL       49
REMARK 921   NORMALIZED FREE ENERGY PREDICTED BY IDOCK:   -2.81 KCAL/MOL
REMARK 922        TOTAL FREE ENERGY PREDICTED BY IDOCK:   -3.41 KCAL/MOL
REMARK 923 INTER-LIGAND FREE ENERGY PREDICTED BY IDOCK:   -3.21 KCAL/MOL
REMARK 924 INTRA-LIGAND FREE ENERGY PREDICTED BY IDOCK:   -0.20 KCAL/MOL
REMARK 927      BINDING AFFINITY PREDICTED BY RF-SCORE:    0.00 PKD
ROOT
ATOM      1  CE  MET A   1     -12.159  14.644  64.240  1.00  0.00    -0.415 C  
ATOM      2  SD  MET A   1     -10.809  15.004  65.386  1.00  0.00    -0.390 SA 
ENDROOT
BRANCH   2   3
ATOM      3  CG  MET A   1     -11.615  14.520  66.952  1.00  0.00    -0.385 C  
BRANCH   3   4
ATOM      4  CB  MET A   1     -10.975  13.213  67.429  1.00  0.00    -0.283 C  
BRANCH   4   5
ATOM      5  CA  MET A   1     -11.656  11.951  66.893  1.00  0.00    -0.285 C  
ATOM      6  C   MET A   1     -10.715  11.157  65.974  1.00  0.00    -0.211 C  
ATOM      7  N   MET A   1     -12.014  11.073  68.051  1.00  0.00    -0.761 NA 
ATOM      8  O   MET A   1     -10.101  10.151  66.650  1.00  0.00    -0.205 OA 
ATOM      9  OXT MET A   1     -10.515  11.402  64.796  1.00  0.00    -0.276 OA 
ATOM     10  H1  MET A   1     -12.467  10.232  67.693  1.00  0.00     0.000 HD 
ATOM     11  H2  MET A   1     -12.579  11.557  68.748  1.00  0.00     0.000 HD 
ENDBRANCH   4   5
ENDBRANCH   3   4
ENDBRANCH   2   3
TORSDOF 3
ENDMDL
MODEL       50
REMARK 921   NORMALIZED FREE ENERGY PREDICTED BY IDOCK:   -2.81 KCAL/MOL
REMARK 922        TOTAL FREE ENERGY PREDICTED BY IDOCK:   -3.41 KCAL/MOL
REMARK 923 INTER-LIGAND FREE ENERGY PREDICTED BY IDOCK:   -3.32 KCAL/MOL
REMARK 924 INTRA-LIGAND FREE ENERGY PREDICTED BY IDOCK:   -0.09 KCAL/MOL
REMARK 927      BINDING AFFINITY PREDICTED BY RF-SCORE:    0.00 PKD
ROOT
ATOM      1  CE  MET A   1     -12.415  12.000  63.354  1.00  0.00    -0.509 C  
ATOM      2  SD  MET A   1     -10.997  12.869  64.060  1.00  0.00    -0.392 SA 
ENDROOT
BRANCH   2   3
ATOM      3  CG  MET A   1     -11.864  14.294  64.805  1.00  0.00    -0.429 C  
BRANCH   3   4
ATOM      4  CB  MET A   1     -12.372  13.869  66.185  1.00  0.00    -0.504 C  
BRANCH   4   5
ATOM      5  CA  MET A   1     -11.709  14.609  67.351  1.00  0.00    -0.390 C  
ATOM      6  C   MET A   1     -11.261  13.632  68.449  1.00  0.00    -0.276 C  
ATOM      7  N   MET A   1     -10.491  15.312  66.839  1.00  0.00    -0.283 NA 
ATOM      8  O   MET A   1      -9.945  13.318  68.321  1.00  0.00    -0.228 OA 
ATOM      9  OXT MET A   1     -11.987  13.171  69.314  1.00  0.00    -0.311 OA 
ATOM     10  H1  MET A   1     -10.050  15.805  67.615  1.00  0.00     0.000 HD 
ATOM     11  H2  MET A   1     -10.697  15.926  66.051  1.00  0.00     0.000 HD 
ENDBRANCH   4   5
ENDBRANCH   3   4
ENDBRANCH   2   3
TORSDOF 3
ENDMDL
MODEL       51
REMARK 921   NORMALIZED FREE ENERGY PREDICTED BY IDOCK:   -2.81 KCAL/MOL
REMARK 922        TOTAL FREE ENERGY PREDICTED BY IDOCK:   -3.41 KCAL/MOL
REMARK 923 INTER-LIGAND FREE ENERGY PREDICTED BY IDOCK:   -3.36 KCAL/MOL
REMARK 924 INTRA-LIGAND FREE ENERGY PREDICTED BY IDOCK:   -0.05 KCAL/MOL
REMARK 927      BINDING AFFINITY PREDICTED BY RF-SCORE:    0.00 PKD
ROOT
ATOM      1  CE  MET A   1     -10.163   5.290  73.304  1.00  0.00    -0.189 C  
ATOM      2  SD  MET A   1     -10.064   7.087  73.465  1.00  0.00    -0.347 SA 
ENDROOT
BRANCH   2   3
ATOM      3  CG  MET A   1     -10.976   7.569  71.958  1.00  0.00    -0.242 C  
BRANCH   3   4
ATOM      4  CB  MET A   1     -10.783   9.073  71.749  1.00  0.00    -0.437 C  
BRANCH   4   5
ATOM      5  CA  MET A   1     -11.869   9.731  70.893  1.00  0.00    -0.336 C  
ATOM      6  C   MET A   1     -13.139  10.003  71.714  1.00  0.00    -0.457 C  
ATOM      7  N   MET A   1     -11.354  11.046  70.397  1.00  0.00    -0.467 NA 
ATOM      8  O   MET A   1     -13.168  11.285  72.165  1.00  0.00    -0.481 OA 
ATOM      9  OXT MET A   1     -14.003   9.179  71.960  1.00  0.00    -0.402 OA 
ATOM     10  H1  MET A   1     -12.078  11.484  69.827  1.00  0.00     0.000 HD 
ATOM     11  H2  MET A   1     -10.467  10.957  69.903  1.00  0.00     0.000 HD 
ENDBRANCH   4   5
ENDBRANCH   3   4
ENDBRANCH   2   3
TORSDOF 3
ENDMDL
MODEL       52
REMARK 921   NORMALIZED FREE ENERGY PREDICTED BY IDOCK:   -2.80 KCAL/MOL
REMARK 922        TOTAL FREE ENERGY PREDICTED BY IDOCK:   -3.40 KCAL/MOL
REMARK 923 INTER-LIGAND FREE ENERGY PREDICTED BY IDOCK:   -3.30 KCAL/MOL
REMARK 924 INTRA-LIGAND FREE ENERGY PREDICTED BY IDOCK:   -0.10 KCAL/MOL
REMARK 927      BINDING AFFINITY PREDICTED BY RF-SCORE:    0.00 PKD
ROOT
ATOM      1  CE  MET A   1     -11.872  12.109  69.496  1.00  0.00    -0.321 C  
ATOM      2  SD  MET A   1     -11.388  10.493  70.143  1.00  0.00    -0.333 SA 
ENDROOT
BRANCH   2   3
ATOM      3  CG  MET A   1     -12.631  10.321  71.469  1.00  0.00    -0.440 C  
BRANCH   3   4
ATOM      4  CB  MET A   1     -12.364   9.002  72.200  1.00  0.00    -0.442 C  
BRANCH   4   5
ATOM      5  CA  MET A   1     -12.868   7.761  71.456  1.00  0.00    -0.329 C  
ATOM      6  C   MET A   1     -11.806   6.651  71.441  1.00  0.00    -0.337 C  
ATOM      7  N   MET A   1     -14.072   7.234  72.170  1.00  0.00    -0.584 NA 
ATOM      8  O   MET A   1     -12.024   5.749  72.434  1.00  0.00    -0.275 OA 
ATOM      9  OXT MET A   1     -10.870   6.588  70.662  1.00  0.00    -0.236 OA 
ATOM     10  H1  MET A   1     -14.408   6.408  71.674  1.00  0.00     0.000 HD 
ATOM     11  H2  MET A   1     -14.798   7.941  72.287  1.00  0.00     0.000 HD 
ENDBRANCH   4   5
ENDBRANCH   3   4
ENDBRANCH   2   3
TORSDOF 3
ENDMDL
MODEL       53
REMARK 921   NORMALIZED FREE ENERGY PREDICTED BY IDOCK:   -2.78 KCAL/MOL
REMARK 922        TOTAL FREE ENERGY PREDICTED BY IDOCK:   -3.37 KCAL/MOL
REMARK 923 INTER-LIGAND FREE ENERGY PREDICTED BY IDOCK:   -3.51 KCAL/MOL
REMARK 924 INTRA-LIGAND FREE ENERGY PREDICTED BY IDOCK:    0.14 KCAL/MOL
REMARK 927      BINDING AFFINITY PREDICTED BY RF-SCORE:    0.00 PKD
ROOT
ATOM      1  CE  MET A   1     -10.551  17.351  68.125  1.00  0.00    -0.376 C  
ATOM      2  SD  MET A   1      -9.851  15.868  67.368  1.00  0.00    -0.237 SA 
ENDROOT
BRANCH   2   3
ATOM      3  CG  MET A   1     -11.372  14.869  67.213  1.00  0.00    -0.349 C  
BRANCH   3   4
ATOM      4  CB  MET A   1     -11.633  14.633  65.723  1.00  0.00    -0.328 C  
BRANCH   4   5
ATOM      5  CA  MET A   1     -11.496  13.171  65.287  1.00  0.00    -0.301 C  
ATOM      6  C   MET A   1     -10.999  12.289  66.442  1.00  0.00    -0.287 C  
ATOM      7  N   MET A   1     -12.843  12.669  64.873  1.00  0.00    -0.842 NA 
ATOM      8  O   MET A   1     -12.034  11.670  67.068  1.00  0.00    -0.593 OA 
ATOM      9  OXT MET A   1      -9.834  12.170  66.781  1.00  0.00    -0.201 OA 
ATOM     10  H1  MET A   1     -12.752  11.696  64.583  1.00  0.00     0.000 HD 
ATOM     11  H2  MET A   1     -13.275  13.252  64.157  1.00  0.00     0.000 HD 
ENDBRANCH   4   5
ENDBRANCH   3   4
ENDBRANCH   2   3
TORSDOF 3
ENDMDL
MODEL       54
REMARK 921   NORMALIZED FREE ENERGY PREDICTED BY IDOCK:   -2.75 KCAL/MOL
REMARK 922        TOTAL FREE ENERGY PREDICTED BY IDOCK:   -3.35 KCAL/MOL
REMARK 923 INTER-LIGAND FREE ENERGY PREDICTED BY IDOCK:   -3.42 KCAL/MOL
REMARK 924 INTRA-LIGAND FREE ENERGY PREDICTED BY IDOCK:    0.08 KCAL/MOL
REMARK 927      BINDING AFFINITY PREDICTED BY RF-SCORE:    0.00 PKD
ROOT
ATOM      1  CE  MET A   1      -7.189  17.841  68.012  1.00  0.00    -0.218 C  
ATOM      2  SD  MET A   1      -6.874  19.608  67.811  1.00  0.00    -0.249 SA 
ENDROOT
BRANCH   2   3
ATOM      3  CG  MET A   1      -8.504  20.127  67.168  1.00  0.00    -0.342 C  
BRANCH   3   4
ATOM      4  CB  MET A   1      -9.575  19.644  68.150  1.00  0.00    -0.474 C  
BRANCH   4   5
ATOM      5  CA  MET A   1     -10.754  18.927  67.487  1.00  0.00    -0.434 C  
ATOM      6  C   MET A   1     -10.604  18.902  65.958  1.00  0.00    -0.403 C  
ATOM      7  N   MET A   1     -10.782  17.510  67.967  1.00  0.00    -0.381 NA 
ATOM      8  O   MET A   1     -10.067  17.727  65.536  1.00  0.00    -0.548 OA 
ATOM      9  OXT MET A   1     -10.899  19.820  65.211  1.00  0.00    -0.374 OA 
ATOM     10  H1  MET A   1     -11.567  17.032  67.526  1.00  0.00     0.000 HD 
ATOM     11  H2  MET A   1     -10.805  17.443  68.984  1.00  0.00     0.000 HD 
ENDBRANCH   4   5
ENDBRANCH   3   4
ENDBRANCH   2   3
TORSDOF 3
ENDMDL
MODEL       55
REMARK 921   NORMALIZED FREE ENERGY PREDICTED BY IDOCK:   -2.74 KCAL/MOL
REMARK 922        TOTAL FREE ENERGY PREDICTED BY IDOCK:   -3.33 KCAL/MOL
REMARK 923 INTER-LIGAND FREE ENERGY PREDICTED BY IDOCK:   -3.25 KCAL/MOL
REMARK 924 INTRA-LIGAND FREE ENERGY PREDICTED BY IDOCK:   -0.08 KCAL/MOL
REMARK 927      BINDING AFFINITY PREDICTED BY RF-SCORE:    0.00 PKD
ROOT
ATOM      1  CE  MET A   1      -9.101   9.632  64.449  1.00  0.00    -0.229 C  
ATOM      2  SD  MET A   1      -9.949  11.183  64.074  1.00  0.00    -0.356 SA 
ENDROOT
BRANCH   2   3
ATOM      3  CG  MET A   1      -9.832  11.988  65.709  1.00  0.00    -0.242 C  
BRANCH   3   4
ATOM      4  CB  MET A   1     -10.857  13.124  65.751  1.00  0.00    -0.289 C  
BRANCH   4   5
ATOM      5  CA  MET A   1     -10.779  14.083  64.559  1.00  0.00    -0.336 C  
ATOM      6  C   MET A   1     -12.135  14.198  63.847  1.00  0.00    -0.264 C  
ATOM      7  N   MET A   1     -10.409  15.442  65.064  1.00  0.00    -0.383 NA 
ATOM      8  O   MET A   1     -12.821  15.292  64.271  1.00  0.00    -0.482 OA 
ATOM      9  OXT MET A   1     -12.563  13.406  63.025  1.00  0.00    -0.669 OA 
ATOM     10  H1  MET A   1     -10.357  16.080  64.271  1.00  0.00     0.000 HD 
ATOM     11  H2  MET A   1      -9.552  15.434  65.617  1.00  0.00     0.000 HD 
ENDBRANCH   4   5
ENDBRANCH   3   4
ENDBRANCH   2   3
TORSDOF 3
ENDMDL
MODEL       56
REMARK 921   NORMALIZED FREE ENERGY PREDICTED BY IDOCK:   -2.73 KCAL/MOL
REMARK 922        TOTAL FREE ENERGY PREDICTED BY IDOCK:   -3.32 KCAL/MOL
REMARK 923 INTER-LIGAND FREE ENERGY PREDICTED BY IDOCK:   -3.18 KCAL/MOL
REMARK 924 INTRA-LIGAND FREE ENERGY PREDICTED BY IDOCK:   -0.14 KCAL/MOL
REMARK 927      BINDING AFFINITY PREDICTED BY RF-SCORE:    0.00 PKD
ROOT
ATOM      1  CE  MET A   1     -12.824  11.196  71.349  1.00  0.00    -0.439 C  
ATOM      2  SD  MET A   1     -11.819   9.696  71.420  1.00  0.00    -0.421 SA 
ENDROOT
BRANCH   2   3
ATOM      3  CG  MET A   1     -13.106   8.502  71.926  1.00  0.00    -0.362 C  
BRANCH   3   4
ATOM      4  CB  MET A   1     -12.730   7.131  71.357  1.00  0.00    -0.433 C  
BRANCH   4   5
ATOM      5  CA  MET A   1     -11.379   7.102  70.637  1.00  0.00    -0.292 C  
ATOM      6  C   MET A   1     -10.383   6.180  71.357  1.00  0.00    -0.214 C  
ATOM      7  N   MET A   1     -11.586   6.563  69.256  1.00  0.00    -0.643 NA 
ATOM      8  O   MET A   1     -10.352   4.947  70.785  1.00  0.00    -0.222 OA 
ATOM      9  OXT MET A   1      -9.718   6.491  72.330  1.00  0.00    -0.154 OA 
ATOM     10  H1  MET A   1     -10.687   6.543  68.776  1.00  0.00     0.000 HD 
ATOM     11  H2  MET A   1     -12.296   7.081  68.737  1.00  0.00     0.000 HD 
ENDBRANCH   4   5
ENDBRANCH   3   4
ENDBRANCH   2   3
TORSDOF 3
ENDMDL
MODEL       57
REMARK 921   NORMALIZED FREE ENERGY PREDICTED BY IDOCK:   -2.73 KCAL/MOL
REMARK 922        TOTAL FREE ENERGY PREDICTED BY IDOCK:   -3.32 KCAL/MOL
REMARK 923 INTER-LIGAND FREE ENERGY PREDICTED BY IDOCK:   -3.24 KCAL/MOL
REMARK 924 INTRA-LIGAND FREE ENERGY PREDICTED BY IDOCK:   -0.07 KCAL/MOL
REMARK 927      BINDING AFFINITY PREDICTED BY RF-SCORE:    0.00 PKD
ROOT
ATOM      1  CE  MET A   1     -10.640   5.505  66.789  1.00  0.00    -0.291 C  
ATOM      2  SD  MET A   1      -9.868   5.648  68.417  1.00  0.00    -0.148 SA 
ENDROOT
BRANCH   2   3
ATOM      3  CG  MET A   1     -11.279   6.333  69.353  1.00  0.00    -0.420 C  
BRANCH   3   4
ATOM      4  CB  MET A   1     -11.117   5.923  70.820  1.00  0.00    -0.324 C  
BRANCH   4   5
ATOM      5  CA  MET A   1     -12.046   6.666  71.784  1.00  0.00    -0.353 C  
ATOM      6  C   MET A   1     -11.290   7.761  72.553  1.00  0.00    -0.374 C  
ATOM      7  N   MET A   1     -13.128   7.327  70.990  1.00  0.00    -0.594 NA 
ATOM      8  O   MET A   1     -11.455   8.976  71.966  1.00  0.00    -0.365 OA 
ATOM      9  OXT MET A   1     -10.608   7.576  73.546  1.00  0.00    -0.373 OA 
ATOM     10  H1  MET A   1     -13.746   7.822  71.632  1.00  0.00     0.000 HD 
ATOM     11  H2  MET A   1     -13.629   6.671  70.391  1.00  0.00     0.000 HD 
ENDBRANCH   4   5
ENDBRANCH   3   4
ENDBRANCH   2   3
TORSDOF 3
ENDMDL
MODEL       58
REMARK 921   NORMALIZED FREE ENERGY PREDICTED BY IDOCK:   -2.71 KCAL/MOL
REMARK 922        TOTAL FREE ENERGY PREDICTED BY IDOCK:   -3.30 KCAL/MOL
REMARK 923 INTER-LIGAND FREE ENERGY PREDICTED BY IDOCK:   -3.24 KCAL/MOL
REMARK 924 INTRA-LIGAND FREE ENERGY PREDICTED BY IDOCK:   -0.06 KCAL/MOL
REMARK 927      BINDING AFFINITY PREDICTED BY RF-SCORE:    0.00 PKD
ROOT
ATOM      1  CE  MET A   1      -9.495   7.809  73.244  1.00  0.00    -0.283 C  
ATOM      2  SD  MET A   1     -10.496   6.328  72.982  1.00  0.00    -0.242 SA 
ENDROOT
BRANCH   2   3
ATOM      3  CG  MET A   1     -11.860   7.061  72.014  1.00  0.00    -0.298 C  
BRANCH   3   4
ATOM      4  CB  MET A   1     -12.083   8.490  72.518  1.00  0.00    -0.395 C  
BRANCH   4   5
ATOM      5  CA  MET A   1     -13.399   9.121  72.053  1.00  0.00    -0.445 C  
ATOM      6  C   MET A   1     -13.165  10.510  71.441  1.00  0.00    -0.345 C  
ATOM      7  N   MET A   1     -13.997   8.249  70.994  1.00  0.00    -0.592 NA 
ATOM      8  O   MET A   1     -13.090  10.445  70.086  1.00  0.00    -0.149 OA 
ATOM      9  OXT MET A   1     -13.037  11.542  72.077  1.00  0.00    -0.486 OA 
ATOM     10  H1  MET A   1     -14.873   8.668  70.684  1.00  0.00     0.000 HD 
ATOM     11  H2  MET A   1     -14.113   7.283  71.302  1.00  0.00     0.000 HD 
ENDBRANCH   4   5
ENDBRANCH   3   4
ENDBRANCH   2   3
TORSDOF 3
ENDMDL
MODEL       59
REMARK 921   NORMALIZED FREE ENERGY PREDICTED BY IDOCK:   -2.70 KCAL/MOL
REMARK 922        TOTAL FREE ENERGY PREDICTED BY IDOCK:   -3.29 KCAL/MOL
REMARK 923 INTER-LIGAND FREE ENERGY PREDICTED BY IDOCK:   -3.22 KCAL/MOL
REMARK 924 INTRA-LIGAND FREE ENERGY PREDICTED BY IDOCK:   -0.06 KCAL/MOL
REMARK 927      BINDING AFFINITY PREDICTED BY RF-SCORE:    0.00 PKD
ROOT
ATOM      1  CE  MET A   1      -9.460  10.556  62.808  1.00  0.00    -0.325 C  
ATOM      2  SD  MET A   1     -10.290  11.862  63.741  1.00  0.00    -0.458 SA 
ENDROOT
BRANCH   2   3
ATOM      3  CG  MET A   1     -10.024  11.231  65.434  1.00  0.00    -0.250 C  
BRANCH   3   4
ATOM      4  CB  MET A   1     -11.199  11.692  66.300  1.00  0.00    -0.332 C  
BRANCH   4   5
ATOM      5  CA  MET A   1     -10.967  11.534  67.806  1.00  0.00    -0.236 C  
ATOM      6  C   MET A   1     -10.913  12.899  68.508  1.00  0.00    -0.259 C  
ATOM      7  N   MET A   1     -12.113  10.765  68.386  1.00  0.00    -0.827 NA 
ATOM      8  O   MET A   1     -12.116  13.220  69.052  1.00  0.00    -0.307 OA 
ATOM      9  OXT MET A   1      -9.933  13.623  68.557  1.00  0.00    -0.231 OA 
ATOM     10  H1  MET A   1     -11.958  10.660  69.389  1.00  0.00     0.000 HD 
ATOM     11  H2  MET A   1     -12.261   9.872  67.917  1.00  0.00     0.000 HD 
ENDBRANCH   4   5
ENDBRANCH   3   4
ENDBRANCH   2   3
TORSDOF 3
ENDMDL
MODEL       60
REMARK 921   NORMALIZED FREE ENERGY PREDICTED BY IDOCK:   -2.70 KCAL/MOL
REMARK 922        TOTAL FREE ENERGY PREDICTED BY IDOCK:   -3.28 KCAL/MOL
REMARK 923 INTER-LIGAND FREE ENERGY PREDICTED BY IDOCK:   -3.22 KCAL/MOL
REMARK 924 INTRA-LIGAND FREE ENERGY PREDICTED BY IDOCK:   -0.07 KCAL/MOL
REMARK 927      BINDING AFFINITY PREDICTED BY RF-SCORE:    0.00 PKD
ROOT
ATOM      1  CE  MET A   1     -12.147  16.217  72.554  1.00  0.00    -0.525 C  
ATOM      2  SD  MET A   1     -13.571  15.145  72.847  1.00  0.00    -0.401 SA 
ENDROOT
BRANCH   2   3
ATOM      3  CG  MET A   1     -13.340  13.965  71.472  1.00  0.00    -0.335 C  
BRANCH   3   4
ATOM      4  CB  MET A   1     -12.707  12.693  72.041  1.00  0.00    -0.124 C  
BRANCH   4   5
ATOM      5  CA  MET A   1     -13.148  11.405  71.339  1.00  0.00    -0.276 C  
ATOM      6  C   MET A   1     -12.037  10.855  70.432  1.00  0.00    -0.363 C  
ATOM      7  N   MET A   1     -13.443  10.372  72.380  1.00  0.00    -0.548 NA 
ATOM      8  O   MET A   1     -11.322   9.886  71.062  1.00  0.00    -0.342 OA 
ATOM      9  OXT MET A   1     -11.799  11.245  69.301  1.00  0.00    -0.301 OA 
ATOM     10  H1  MET A   1     -13.737   9.514  71.913  1.00  0.00     0.000 HD 
ATOM     11  H2  MET A   1     -14.121  10.694  73.070  1.00  0.00     0.000 HD 
ENDBRANCH   4   5
ENDBRANCH   3   4
ENDBRANCH   2   3
TORSDOF 3
ENDMDL
MODEL       61
REMARK 921   NORMALIZED FREE ENERGY PREDICTED BY IDOCK:   -2.70 KCAL/MOL
REMARK 922        TOTAL FREE ENERGY PREDICTED BY IDOCK:   -3.28 KCAL/MOL
REMARK 923 INTER-LIGAND FREE ENERGY PREDICTED BY IDOCK:   -3.20 KCAL/MOL
REMARK 924 INTRA-LIGAND FREE ENERGY PREDICTED BY IDOCK:   -0.08 KCAL/MOL
REMARK 927      BINDING AFFINITY PREDICTED BY RF-SCORE:    0.00 PKD
ROOT
ATOM      1  CE  MET A   1     -10.472   7.903  67.534  1.00  0.00    -0.262 C  
ATOM      2  SD  MET A   1     -10.518   9.612  68.118  1.00  0.00    -0.228 SA 
ENDROOT
BRANCH   2   3
ATOM      3  CG  MET A   1     -10.088   9.337  69.872  1.00  0.00    -0.209 C  
BRANCH   3   4
ATOM      4  CB  MET A   1     -11.222   8.538  70.517  1.00  0.00    -0.262 C  
BRANCH   4   5
ATOM      5  CA  MET A   1     -11.604   9.014  71.922  1.00  0.00    -0.370 C  
ATOM      6  C   MET A   1     -12.828   9.943  71.882  1.00  0.00    -0.429 C  
ATOM      7  N   MET A   1     -11.962   7.820  72.750  1.00  0.00    -0.608 NA 
ATOM      8  O   MET A   1     -13.971   9.260  72.152  1.00  0.00    -0.409 OA 
ATOM      9  OXT MET A   1     -12.795  11.133  71.620  1.00  0.00    -0.427 OA 
ATOM     10  H1  MET A   1     -12.216   8.137  73.685  1.00  0.00     0.000 HD 
ATOM     11  H2  MET A   1     -11.223   7.117  72.762  1.00  0.00     0.000 HD 
ENDBRANCH   4   5
ENDBRANCH   3   4
ENDBRANCH   2   3
TORSDOF 3
ENDMDL
MODEL       62
REMARK 921   NORMALIZED FREE ENERGY PREDICTED BY IDOCK:   -2.69 KCAL/MOL
REMARK 922        TOTAL FREE ENERGY PREDICTED BY IDOCK:   -3.27 KCAL/MOL
REMARK 923 INTER-LIGAND FREE ENERGY PREDICTED BY IDOCK:   -3.19 KCAL/MOL
REMARK 924 INTRA-LIGAND FREE ENERGY PREDICTED BY IDOCK:   -0.08 KCAL/MOL
REMARK 927      BINDING AFFINITY PREDICTED BY RF-SCORE:    0.00 PKD
ROOT
ATOM      1  CE  MET A   1     -12.100  15.852  71.707  1.00  0.00    -0.492 C  
ATOM      2  SD  MET A   1     -11.561  15.237  70.095  1.00  0.00    -0.329 SA 
ENDROOT
BRANCH   2   3
ATOM      3  CG  MET A   1     -10.665  16.714  69.500  1.00  0.00    -0.306 C  
BRANCH   3   4
ATOM      4  CB  MET A   1     -10.591  16.638  67.973  1.00  0.00    -0.338 C  
BRANCH   4   5
ATOM      5  CA  MET A   1      -9.570  17.594  67.348  1.00  0.00    -0.267 C  
ATOM      6  C   MET A   1     -10.248  18.872  66.831  1.00  0.00    -0.386 C  
ATOM      7  N   MET A   1      -8.583  17.992  68.400  1.00  0.00    -0.286 NA 
ATOM      8  O   MET A   1     -10.155  19.880  67.738  1.00  0.00    -0.385 OA 
ATOM      9  OXT MET A   1     -10.819  18.977  65.759  1.00  0.00    -0.404 OA 
ATOM     10  H1  MET A   1      -7.904  18.629  67.983  1.00  0.00     0.000 HD 
ATOM     11  H2  MET A   1      -8.143  17.188  68.847  1.00  0.00     0.000 HD 
ENDBRANCH   4   5
ENDBRANCH   3   4
ENDBRANCH   2   3
TORSDOF 3
ENDMDL
MODEL       63
REMARK 921   NORMALIZED FREE ENERGY PREDICTED BY IDOCK:   -2.69 KCAL/MOL
REMARK 922        TOTAL FREE ENERGY PREDICTED BY IDOCK:   -3.27 KCAL/MOL
REMARK 923 INTER-LIGAND FREE ENERGY PREDICTED BY IDOCK:   -3.20 KCAL/MOL
REMARK 924 INTRA-LIGAND FREE ENERGY PREDICTED BY IDOCK:   -0.07 KCAL/MOL
REMARK 927      BINDING AFFINITY PREDICTED BY RF-SCORE:    0.00 PKD
ROOT
ATOM      1  CE  MET A   1     -12.899  15.509  73.083  1.00  0.00    -0.497 C  
ATOM      2  SD  MET A   1     -13.797  15.306  71.529  1.00  0.00    -0.524 SA 
ENDROOT
BRANCH   2   3
ATOM      3  CG  MET A   1     -12.467  14.577  70.512  1.00  0.00    -0.344 C  
BRANCH   3   4
ATOM      4  CB  MET A   1     -12.276  15.462  69.277  1.00  0.00    -0.219 C  
BRANCH   4   5
ATOM      5  CA  MET A   1     -10.814  15.653  68.863  1.00  0.00    -0.252 C  
ATOM      6  C   MET A   1     -10.563  17.077  68.344  1.00  0.00    -0.375 C  
ATOM      7  N   MET A   1      -9.947  15.444  70.065  1.00  0.00    -0.446 NA 
ATOM      8  O   MET A   1     -10.056  17.874  69.321  1.00  0.00    -0.281 OA 
ATOM      9  OXT MET A   1     -10.806  17.463  67.214  1.00  0.00    -0.263 OA 
ATOM     10  H1  MET A   1      -8.974  15.571  69.790  1.00  0.00     0.000 HD 
ATOM     11  H2  MET A   1     -10.112  14.543  70.514  1.00  0.00     0.000 HD 
ENDBRANCH   4   5
ENDBRANCH   3   4
ENDBRANCH   2   3
TORSDOF 3
ENDMDL
MODEL       64
REMARK 921   NORMALIZED FREE ENERGY PREDICTED BY IDOCK:   -2.69 KCAL/MOL
REMARK 922        TOTAL FREE ENERGY PREDICTED BY IDOCK:   -3.27 KCAL/MOL
REMARK 923 INTER-LIGAND FREE ENERGY PREDICTED BY IDOCK:   -3.16 KCAL/MOL
REMARK 924 INTRA-LIGAND FREE ENERGY PREDICTED BY IDOCK:   -0.11 KCAL/MOL
REMARK 927      BINDING AFFINITY PREDICTED BY RF-SCORE:    0.00 PKD
ROOT
ATOM      1  CE  MET A   1      -9.833  15.654  69.669  1.00  0.00    -0.280 C  
ATOM      2  SD  MET A   1      -8.700  15.961  68.296  1.00  0.00    -0.179 SA 
ENDROOT
BRANCH   2   3
ATOM      3  CG  MET A   1      -8.285  17.707  68.640  1.00  0.00    -0.264 C  
BRANCH   3   4
ATOM      4  CB  MET A   1      -9.381  18.583  68.027  1.00  0.00    -0.321 C  
BRANCH   4   5
ATOM      5  CA  MET A   1      -9.179  18.889  66.540  1.00  0.00    -0.331 C  
ATOM      6  C   MET A   1     -10.412  18.489  65.716  1.00  0.00    -0.247 C  
ATOM      7  N   MET A   1      -8.979  20.363  66.380  1.00  0.00    -0.584 NA 
ATOM      8  O   MET A   1     -11.224  19.556  65.496  1.00  0.00    -0.286 OA 
ATOM      9  OXT MET A   1     -10.657  17.360  65.326  1.00  0.00    -0.667 OA 
ATOM     10  H1  MET A   1      -8.845  20.567  65.389  1.00  0.00     0.000 HD 
ATOM     11  H2  MET A   1      -8.220  20.720  66.959  1.00  0.00     0.000 HD 
ENDBRANCH   4   5
ENDBRANCH   3   4
ENDBRANCH   2   3
TORSDOF 3
ENDMDL
MODEL       65
REMARK 921   NORMALIZED FREE ENERGY PREDICTED BY IDOCK:   -2.66 KCAL/MOL
REMARK 922        TOTAL FREE ENERGY PREDICTED BY IDOCK:   -3.24 KCAL/MOL
REMARK 923 INTER-LIGAND FREE ENERGY PREDICTED BY IDOCK:   -3.11 KCAL/MOL
REMARK 924 INTRA-LIGAND FREE ENERGY PREDICTED BY IDOCK:   -0.13 KCAL/MOL
REMARK 927      BINDING AFFINITY PREDICTED BY RF-SCORE:    0.00 PKD
ROOT
ATOM      1  CE  MET A   1      -8.981  16.266  66.134  1.00  0.00    -0.339 C  
ATOM      2  SD  MET A   1     -10.520  15.575  66.779  1.00  0.00    -0.298 SA 
ENDROOT
BRANCH   2   3
ATOM      3  CG  MET A   1     -11.235  14.941  65.222  1.00  0.00    -0.369 C  
BRANCH   3   4
ATOM      4  CB  MET A   1     -10.554  13.609  64.897  1.00  0.00    -0.421 C  
BRANCH   4   5
ATOM      5  CA  MET A   1     -10.053  12.845  66.126  1.00  0.00    -0.276 C  
ATOM      6  C   MET A   1     -11.120  11.872  66.651  1.00  0.00    -0.310 C  
ATOM      7  N   MET A   1      -8.854  12.041  65.732  1.00  0.00    -0.412 NA 
ATOM      8  O   MET A   1     -10.911  10.614  66.182  1.00  0.00    -0.130 OA 
ATOM      9  OXT MET A   1     -12.053  12.179  67.373  1.00  0.00    -0.553 OA 
ATOM     10  H1  MET A   1      -8.521  11.532  66.551  1.00  0.00     0.000 HD 
ATOM     11  H2  MET A   1      -8.126  12.611  65.302  1.00  0.00     0.000 HD 
ENDBRANCH   4   5
ENDBRANCH   3   4
ENDBRANCH   2   3
TORSDOF 3
ENDMDL
MODEL       66
REMARK 921   NORMALIZED FREE ENERGY PREDICTED BY IDOCK:   -2.66 KCAL/MOL
REMARK 922        TOTAL FREE ENERGY PREDICTED BY IDOCK:   -3.23 KCAL/MOL
REMARK 923 INTER-LIGAND FREE ENERGY PREDICTED BY IDOCK:   -3.12 KCAL/MOL
REMARK 924 INTRA-LIGAND FREE ENERGY PREDICTED BY IDOCK:   -0.11 KCAL/MOL
REMARK 927      BINDING AFFINITY PREDICTED BY RF-SCORE:    0.00 PKD
ROOT
ATOM      1  CE  MET A   1     -10.742  11.689  65.842  1.00  0.00    -0.278 C  
ATOM      2  SD  MET A   1     -11.955  12.910  65.292  1.00  0.00    -0.445 SA 
ENDROOT
BRANCH   2   3
ATOM      3  CG  MET A   1     -12.003  13.970  66.778  1.00  0.00    -0.444 C  
BRANCH   3   4
ATOM      4  CB  MET A   1     -10.670  14.719  66.868  1.00  0.00    -0.308 C  
BRANCH   4   5
ATOM      5  CA  MET A   1     -10.227  15.040  68.298  1.00  0.00    -0.222 C  
ATOM      6  C   MET A   1     -10.949  16.284  68.839  1.00  0.00    -0.334 C  
ATOM      7  N   MET A   1     -10.584  13.884  69.178  1.00  0.00    -0.402 NA 
ATOM      8  O   MET A   1     -12.026  15.938  69.593  1.00  0.00    -0.335 OA 
ATOM      9  OXT MET A   1     -10.624  17.437  68.610  1.00  0.00    -0.357 OA 
ATOM     10  H1  MET A   1     -10.289  14.098  70.131  1.00  0.00     0.000 HD 
ATOM     11  H2  MET A   1     -10.201  13.002  68.839  1.00  0.00     0.000 HD 
ENDBRANCH   4   5
ENDBRANCH   3   4
ENDBRANCH   2   3
TORSDOF 3
ENDMDL
MODEL       67
REMARK 921   NORMALIZED FREE ENERGY PREDICTED BY IDOCK:   -2.65 KCAL/MOL
REMARK 922        TOTAL FREE ENERGY PREDICTED BY IDOCK:   -3.22 KCAL/MOL
REMARK 923 INTER-LIGAND FREE ENERGY PREDICTED BY IDOCK:   -3.18 KCAL/MOL
REMARK 924 INTRA-LIGAND FREE ENERGY PREDICTED BY IDOCK:   -0.04 KCAL/MOL
REMARK 927      BINDING AFFINITY PREDICTED BY RF-SCORE:    0.00 PKD
ROOT
ATOM      1  CE  MET A   1      -7.890  17.830  68.174  1.00  0.00    -0.264 C  
ATOM      2  SD  MET A   1      -9.515  18.569  68.448  1.00  0.00    -0.354 SA 
ENDROOT
BRANCH   2   3
ATOM      3  CG  MET A   1     -10.551  17.073  68.292  1.00  0.00    -0.372 C  
BRANCH   3   4
ATOM      4  CB  MET A   1     -10.430  16.562  66.854  1.00  0.00    -0.282 C  
BRANCH   4   5
ATOM      5  CA  MET A   1     -10.245  15.046  66.741  1.00  0.00    -0.260 C  
ATOM      6  C   MET A   1     -11.545  14.299  67.077  1.00  0.00    -0.386 C  
ATOM      7  N   MET A   1      -9.877  14.714  65.329  1.00  0.00    -0.502 NA 
ATOM      8  O   MET A   1     -12.231  13.976  65.950  1.00  0.00    -0.408 OA 
ATOM      9  OXT MET A   1     -11.935  14.045  68.204  1.00  0.00    -0.357 OA 
ATOM     10  H1  MET A   1      -9.754  13.704  65.254  1.00  0.00     0.000 HD 
ATOM     11  H2  MET A   1      -9.061  15.233  65.006  1.00  0.00     0.000 HD 
ENDBRANCH   4   5
ENDBRANCH   3   4
ENDBRANCH   2   3
TORSDOF 3
ENDMDL
MODEL       68
REMARK 921   NORMALIZED FREE ENERGY PREDICTED BY IDOCK:   -2.63 KCAL/MOL
REMARK 922        TOTAL FREE ENERGY PREDICTED BY IDOCK:   -3.20 KCAL/MOL
REMARK 923 INTER-LIGAND FREE ENERGY PREDICTED BY IDOCK:   -3.13 KCAL/MOL
REMARK 924 INTRA-LIGAND FREE ENERGY PREDICTED BY IDOCK:   -0.07 KCAL/MOL
REMARK 927      BINDING AFFINITY PREDICTED BY RF-SCORE:    0.00 PKD
ROOT
ATOM      1  CE  MET A   1      -8.643  17.652  66.485  1.00  0.00    -0.259 C  
ATOM      2  SD  MET A   1      -9.596  16.153  66.160  1.00  0.00    -0.349 SA 
ENDROOT
BRANCH   2   3
ATOM      3  CG  MET A   1      -9.665  15.473  67.854  1.00  0.00    -0.211 C  
BRANCH   3   4
ATOM      4  CB  MET A   1      -9.920  13.967  67.749  1.00  0.00    -0.241 C  
BRANCH   4   5
ATOM      5  CA  MET A   1     -11.289  13.603  67.165  1.00  0.00    -0.319 C  
ATOM      6  C   MET A   1     -11.413  12.089  66.939  1.00  0.00    -0.337 C  
ATOM      7  N   MET A   1     -12.347  14.009  68.142  1.00  0.00    -0.508 NA 
ATOM      8  O   MET A   1     -12.054  11.488  67.975  1.00  0.00    -0.617 OA 
ATOM      9  OXT MET A   1     -10.977  11.487  65.972  1.00  0.00    -0.291 OA 
ATOM     10  H1  MET A   1     -13.258  13.767  67.753  1.00  0.00     0.000 HD 
ATOM     11  H2  MET A   1     -12.282  14.993  68.402  1.00  0.00     0.000 HD 
ENDBRANCH   4   5
ENDBRANCH   3   4
ENDBRANCH   2   3
TORSDOF 3
ENDMDL
MODEL       69
REMARK 921   NORMALIZED FREE ENERGY PREDICTED BY IDOCK:   -2.62 KCAL/MOL
REMARK 922        TOTAL FREE ENERGY PREDICTED BY IDOCK:   -3.19 KCAL/MOL
REMARK 923 INTER-LIGAND FREE ENERGY PREDICTED BY IDOCK:   -3.08 KCAL/MOL
REMARK 924 INTRA-LIGAND FREE ENERGY PREDICTED BY IDOCK:   -0.11 KCAL/MOL
REMARK 927      BINDING AFFINITY PREDICTED BY RF-SCORE:    0.00 PKD
ROOT
ATOM      1  CE  MET A   1      -7.742  17.291  66.307  1.00  0.00    -0.318 C  
ATOM      2  SD  MET A   1      -9.301  18.123  66.682  1.00  0.00    -0.300 SA 
ENDROOT
BRANCH   2   3
ATOM      3  CG  MET A   1     -10.458  16.952  65.890  1.00  0.00    -0.285 C  
BRANCH   3   4
ATOM      4  CB  MET A   1      -9.694  15.658  65.595  1.00  0.00    -0.348 C  
BRANCH   4   5
ATOM      5  CA  MET A   1     -10.273  14.419  66.284  1.00  0.00    -0.299 C  
ATOM      6  C   MET A   1     -11.396  13.789  65.446  1.00  0.00    -0.308 C  
ATOM      7  N   MET A   1      -9.184  13.402  66.428  1.00  0.00    -0.445 NA 
ATOM      8  O   MET A   1     -10.930  12.758  64.694  1.00  0.00    -0.298 OA 
ATOM      9  OXT MET A   1     -12.554  14.170  65.429  1.00  0.00    -0.478 OA 
ATOM     10  H1  MET A   1      -9.569  12.576  66.887  1.00  0.00     0.000 HD 
ATOM     11  H2  MET A   1      -8.366  13.772  66.911  1.00  0.00     0.000 HD 
ENDBRANCH   4   5
ENDBRANCH   3   4
ENDBRANCH   2   3
TORSDOF 3
ENDMDL
MODEL       70
REMARK 921   NORMALIZED FREE ENERGY PREDICTED BY IDOCK:   -2.61 KCAL/MOL
REMARK 922        TOTAL FREE ENERGY PREDICTED BY IDOCK:   -3.18 KCAL/MOL
REMARK 923 INTER-LIGAND FREE ENERGY PREDICTED BY IDOCK:   -3.03 KCAL/MOL
REMARK 924 INTRA-LIGAND FREE ENERGY PREDICTED BY IDOCK:   -0.15 KCAL/MOL
REMARK 927      BINDING AFFINITY PREDICTED BY RF-SCORE:    0.00 PKD
ROOT
ATOM      1  CE  MET A   1      -8.992   8.156  68.750  1.00  0.00    -0.144 C  
ATOM      2  SD  MET A   1     -10.658   8.079  69.445  1.00  0.00    -0.166 SA 
ENDROOT
BRANCH   2   3
ATOM      3  CG  MET A   1     -10.232   7.838  71.205  1.00  0.00    -0.195 C  
BRANCH   3   4
ATOM      4  CB  MET A   1     -11.119   8.767  72.037  1.00  0.00    -0.441 C  
BRANCH   4   5
ATOM      5  CA  MET A   1     -12.426   9.170  71.347  1.00  0.00    -0.328 C  
ATOM      6  C   MET A   1     -13.592   8.276  71.796  1.00  0.00    -0.361 C  
ATOM      7  N   MET A   1     -12.754  10.579  71.731  1.00  0.00    -0.428 NA 
ATOM      8  O   MET A   1     -14.310   8.866  72.788  1.00  0.00    -0.600 OA 
ATOM      9  OXT MET A   1     -13.839   7.170  71.348  1.00  0.00    -0.364 OA 
ATOM     10  H1  MET A   1     -13.624  10.847  71.272  1.00  0.00     0.000 HD 
ATOM     11  H2  MET A   1     -11.991  11.225  71.533  1.00  0.00     0.000 HD 
ENDBRANCH   4   5
ENDBRANCH   3   4
ENDBRANCH   2   3
TORSDOF 3
ENDMDL
MODEL       71
REMARK 921   NORMALIZED FREE ENERGY PREDICTED BY IDOCK:   -2.60 KCAL/MOL
REMARK 922        TOTAL FREE ENERGY PREDICTED BY IDOCK:   -3.17 KCAL/MOL
REMARK 923 INTER-LIGAND FREE ENERGY PREDICTED BY IDOCK:   -3.00 KCAL/MOL
REMARK 924 INTRA-LIGAND FREE ENERGY PREDICTED BY IDOCK:   -0.17 KCAL/MOL
REMARK 927      BINDING AFFINITY PREDICTED BY RF-SCORE:    0.00 PKD
ROOT
ATOM      1  CE  MET A   1     -11.239   6.332  69.825  1.00  0.00    -0.430 C  
ATOM      2  SD  MET A   1      -9.970   6.808  71.021  1.00  0.00    -0.181 SA 
ENDROOT
BRANCH   2   3
ATOM      3  CG  MET A   1     -10.998   7.791  72.166  1.00  0.00    -0.266 C  
BRANCH   3   4
ATOM      4  CB  MET A   1     -12.041   8.546  71.337  1.00  0.00    -0.345 C  
BRANCH   4   5
ATOM      5  CA  MET A   1     -11.812  10.059  71.270  1.00  0.00    -0.385 C  
ATOM      6  C   MET A   1     -11.292  10.483  69.888  1.00  0.00    -0.309 C  
ATOM      7  N   MET A   1     -13.120  10.749  71.499  1.00  0.00    -0.419 NA 
ATOM      8  O   MET A   1     -12.304  10.924  69.096  1.00  0.00    -0.435 OA 
ATOM      9  OXT MET A   1     -10.130  10.414  69.526  1.00  0.00    -0.229 OA 
ATOM     10  H1  MET A   1     -12.967  11.757  71.454  1.00  0.00     0.000 HD 
ATOM     11  H2  MET A   1     -13.568  10.460  72.368  1.00  0.00     0.000 HD 
ENDBRANCH   4   5
ENDBRANCH   3   4
ENDBRANCH   2   3
TORSDOF 3
ENDMDL
MODEL       72
REMARK 921   NORMALIZED FREE ENERGY PREDICTED BY IDOCK:   -2.60 KCAL/MOL
REMARK 922        TOTAL FREE ENERGY PREDICTED BY IDOCK:   -3.16 KCAL/MOL
REMARK 923 INTER-LIGAND FREE ENERGY PREDICTED BY IDOCK:   -3.07 KCAL/MOL
REMARK 924 INTRA-LIGAND FREE ENERGY PREDICTED BY IDOCK:   -0.09 KCAL/MOL
REMARK 927      BINDING AFFINITY PREDICTED BY RF-SCORE:    0.00 PKD
ROOT
ATOM      1  CE  MET A   1     -11.496   7.327  71.105  1.00  0.00    -0.283 C  
ATOM      2  SD  MET A   1     -10.634   8.784  71.736  1.00  0.00    -0.364 SA 
ENDROOT
BRANCH   2   3
ATOM      3  CG  MET A   1      -9.513   9.097  70.328  1.00  0.00    -0.219 C  
BRANCH   3   4
ATOM      4  CB  MET A   1     -10.363   9.553  69.140  1.00  0.00    -0.218 C  
BRANCH   4   5
ATOM      5  CA  MET A   1     -11.185  10.818  69.406  1.00  0.00    -0.276 C  
ATOM      6  C   MET A   1     -10.908  11.896  68.347  1.00  0.00    -0.228 C  
ATOM      7  N   MET A   1     -12.638  10.467  69.333  1.00  0.00    -0.690 NA 
ATOM      8  O   MET A   1     -11.850  11.878  67.368  1.00  0.00    -0.571 OA 
ATOM      9  OXT MET A   1      -9.957  12.659  68.358  1.00  0.00    -0.226 OA 
ATOM     10  H1  MET A   1     -13.185  11.310  69.510  1.00  0.00     0.000 HD 
ATOM     11  H2  MET A   1     -12.887   9.700  69.957  1.00  0.00     0.000 HD 
ENDBRANCH   4   5
ENDBRANCH   3   4
ENDBRANCH   2   3
TORSDOF 3
ENDMDL
MODEL       73
REMARK 921   NORMALIZED FREE ENERGY PREDICTED BY IDOCK:   -2.60 KCAL/MOL
REMARK 922        TOTAL FREE ENERGY PREDICTED BY IDOCK:   -3.16 KCAL/MOL
REMARK 923 INTER-LIGAND FREE ENERGY PREDICTED BY IDOCK:   -3.04 KCAL/MOL
REMARK 924 INTRA-LIGAND FREE ENERGY PREDICTED BY IDOCK:   -0.12 KCAL/MOL
REMARK 927      BINDING AFFINITY PREDICTED BY RF-SCORE:    0.00 PKD
ROOT
ATOM      1  CE  MET A   1      -9.567  11.009  68.266  1.00  0.00    -0.171 C  
ATOM      2  SD  MET A   1     -11.215  11.261  67.569  1.00  0.00    -0.280 SA 
ENDROOT
BRANCH   2   3
ATOM      3  CG  MET A   1     -11.114  13.050  67.213  1.00  0.00    -0.273 C  
BRANCH   3   4
ATOM      4  CB  MET A   1     -12.033  13.780  68.196  1.00  0.00    -0.394 C  
BRANCH   4   5
ATOM      5  CA  MET A   1     -11.366  14.141  69.527  1.00  0.00    -0.259 C  
ATOM      6  C   MET A   1     -11.671  15.592  69.928  1.00  0.00    -0.362 C  
ATOM      7  N   MET A   1     -11.913  13.246  70.593  1.00  0.00    -0.532 NA 
ATOM      8  O   MET A   1     -12.711  15.652  70.802  1.00  0.00    -0.458 OA 
ATOM      9  OXT MET A   1     -11.083  16.573  69.507  1.00  0.00    -0.314 OA 
ATOM     10  H1  MET A   1     -11.469  13.486  71.479  1.00  0.00     0.000 HD 
ATOM     11  H2  MET A   1     -11.816  12.257  70.362  1.00  0.00     0.000 HD 
ENDBRANCH   4   5
ENDBRANCH   3   4
ENDBRANCH   2   3
TORSDOF 3
ENDMDL
MODEL       74
REMARK 921   NORMALIZED FREE ENERGY PREDICTED BY IDOCK:   -2.59 KCAL/MOL
REMARK 922        TOTAL FREE ENERGY PREDICTED BY IDOCK:   -3.16 KCAL/MOL
REMARK 923 INTER-LIGAND FREE ENERGY PREDICTED BY IDOCK:   -2.95 KCAL/MOL
REMARK 924 INTRA-LIGAND FREE ENERGY PREDICTED BY IDOCK:   -0.21 KCAL/MOL
REMARK 927      BINDING AFFINITY PREDICTED BY RF-SCORE:    0.00 PKD
ROOT
ATOM      1  CE  MET A   1      -8.837   7.152  70.403  1.00  0.00    -0.151 C  
ATOM      2  SD  MET A   1     -10.479   7.402  71.114  1.00  0.00    -0.209 SA 
ENDROOT
BRANCH   2   3
ATOM      3  CG  MET A   1     -11.453   6.347  69.985  1.00  0.00    -0.428 C  
BRANCH   3   4
ATOM      4  CB  MET A   1     -10.592   6.051  68.754  1.00  0.00    -0.345 C  
BRANCH   4   5
ATOM      5  CA  MET A   1     -11.138   6.642  67.451  1.00  0.00    -0.320 C  
ATOM      6  C   MET A   1     -10.369   7.911  67.050  1.00  0.00    -0.341 C  
ATOM      7  N   MET A   1     -10.961   5.635  66.359  1.00  0.00    -0.735 NA 
ATOM      8  O   MET A   1      -9.399   7.630  66.140  1.00  0.00    -0.159 OA 
ATOM      9  OXT MET A   1     -10.575   9.025  67.499  1.00  0.00    -0.265 OA 
ATOM     10  H1  MET A   1     -11.324   6.029  65.491  1.00  0.00     0.000 HD 
ATOM     11  H2  MET A   1     -11.382   4.734  66.586  1.00  0.00     0.000 HD 
ENDBRANCH   4   5
ENDBRANCH   3   4
ENDBRANCH   2   3
TORSDOF 3
ENDMDL
MODEL       75
REMARK 921   NORMALIZED FREE ENERGY PREDICTED BY IDOCK:   -2.58 KCAL/MOL
REMARK 922        TOTAL FREE ENERGY PREDICTED BY IDOCK:   -3.15 KCAL/MOL
REMARK 923 INTER-LIGAND FREE ENERGY PREDICTED BY IDOCK:   -3.10 KCAL/MOL
REMARK 924 INTRA-LIGAND FREE ENERGY PREDICTED BY IDOCK:   -0.04 KCAL/MOL
REMARK 927      BINDING AFFINITY PREDICTED BY RF-SCORE:    0.00 PKD
ROOT
ATOM      1  CE  MET A   1     -11.268   7.857  72.513  1.00  0.00    -0.376 C  
ATOM      2  SD  MET A   1     -11.291   9.320  71.454  1.00  0.00    -0.389 SA 
ENDROOT
BRANCH   2   3
ATOM      3  CG  MET A   1     -12.911  10.011  71.939  1.00  0.00    -0.447 C  
BRANCH   3   4
ATOM      4  CB  MET A   1     -13.125  11.310  71.158  1.00  0.00    -0.245 C  
BRANCH   4   5
ATOM      5  CA  MET A   1     -12.822  12.580  71.959  1.00  0.00    -0.154 C  
ATOM      6  C   MET A   1     -12.518  13.766  71.031  1.00  0.00    -0.380 C  
ATOM      7  N   MET A   1     -14.029  12.930  72.771  1.00  0.00    -0.629 NA 
ATOM      8  O   MET A   1     -13.622  14.535  70.840  1.00  0.00    -0.322 OA 
ATOM      9  OXT MET A   1     -11.440  13.986  70.507  1.00  0.00    -0.162 OA 
ATOM     10  H1  MET A   1     -13.828  13.776  73.304  1.00  0.00     0.000 HD 
ATOM     11  H2  MET A   1     -14.341  12.160  73.361  1.00  0.00     0.000 HD 
ENDBRANCH   4   5
ENDBRANCH   3   4
ENDBRANCH   2   3
TORSDOF 3
ENDMDL
MODEL       76
REMARK 921   NORMALIZED FREE ENERGY PREDICTED BY IDOCK:   -2.58 KCAL/MOL
REMARK 922        TOTAL FREE ENERGY PREDICTED BY IDOCK:   -3.14 KCAL/MOL
REMARK 923 INTER-LIGAND FREE ENERGY PREDICTED BY IDOCK:   -3.03 KCAL/MOL
REMARK 924 INTRA-LIGAND FREE ENERGY PREDICTED BY IDOCK:   -0.11 KCAL/MOL
REMARK 927      BINDING AFFINITY PREDICTED BY RF-SCORE:    0.00 PKD
ROOT
ATOM      1  CE  MET A   1     -12.999  11.668  71.596  1.00  0.00    -0.378 C  
ATOM      2  SD  MET A   1     -12.955   9.862  71.573  1.00  0.00    -0.455 SA 
ENDROOT
BRANCH   2   3
ATOM      3  CG  MET A   1     -11.169   9.615  71.281  1.00  0.00    -0.376 C  
BRANCH   3   4
ATOM      4  CB  MET A   1     -10.997   9.016  69.882  1.00  0.00    -0.204 C  
BRANCH   4   5
ATOM      5  CA  MET A   1     -10.205   9.901  68.915  1.00  0.00    -0.196 C  
ATOM      6  C   MET A   1     -11.058  11.072  68.405  1.00  0.00    -0.251 C  
ATOM      7  N   MET A   1      -9.030  10.472  69.645  1.00  0.00    -0.398 NA 
ATOM      8  O   MET A   1     -10.822  12.201  69.124  1.00  0.00    -0.201 OA 
ATOM      9  OXT MET A   1     -11.863  11.007  67.493  1.00  0.00    -0.571 OA 
ATOM     10  H1  MET A   1      -8.503  11.061  69.001  1.00  0.00     0.000 HD 
ATOM     11  H2  MET A   1      -8.453   9.753  70.080  1.00  0.00     0.000 HD 
ENDBRANCH   4   5
ENDBRANCH   3   4
ENDBRANCH   2   3
TORSDOF 3
ENDMDL
MODEL       77
REMARK 921   NORMALIZED FREE ENERGY PREDICTED BY IDOCK:   -2.57 KCAL/MOL
REMARK 922        TOTAL FREE ENERGY PREDICTED BY IDOCK:   -3.14 KCAL/MOL
REMARK 923 INTER-LIGAND FREE ENERGY PREDICTED BY IDOCK:   -3.07 KCAL/MOL
REMARK 924 INTRA-LIGAND FREE ENERGY PREDICTED BY IDOCK:   -0.07 KCAL/MOL
REMARK 927      BINDING AFFINITY PREDICTED BY RF-SCORE:    0.00 PKD
ROOT
ATOM      1  CE  MET A   1     -12.075   8.880  71.845  1.00  0.00    -0.373 C  
ATOM      2  SD  MET A   1     -10.357   8.321  71.856  1.00  0.00    -0.282 SA 
ENDROOT
BRANCH   2   3
ATOM      3  CG  MET A   1      -9.667   9.457  70.604  1.00  0.00    -0.273 C  
BRANCH   3   4
ATOM      4  CB  MET A   1     -10.837  10.098  69.852  1.00  0.00    -0.347 C  
BRANCH   4   5
ATOM      5  CA  MET A   1     -10.436  11.268  68.949  1.00  0.00    -0.206 C  
ATOM      6  C   MET A   1     -10.967  11.078  67.520  1.00  0.00    -0.281 C  
ATOM      7  N   MET A   1     -11.038  12.523  69.499  1.00  0.00    -0.470 NA 
ATOM      8  O   MET A   1     -12.132  11.754  67.335  1.00  0.00    -0.595 OA 
ATOM      9  OXT MET A   1     -10.438  10.394  66.662  1.00  0.00    -0.240 OA 
ATOM     10  H1  MET A   1     -10.770  13.303  68.898  1.00  0.00     0.000 HD 
ATOM     11  H2  MET A   1     -10.791  12.680  70.476  1.00  0.00     0.000 HD 
ENDBRANCH   4   5
ENDBRANCH   3   4
ENDBRANCH   2   3
TORSDOF 3
ENDMDL
MODEL       78
REMARK 921   NORMALIZED FREE ENERGY PREDICTED BY IDOCK:   -2.57 KCAL/MOL
REMARK 922        TOTAL FREE ENERGY PREDICTED BY IDOCK:   -3.13 KCAL/MOL
REMARK 923 INTER-LIGAND FREE ENERGY PREDICTED BY IDOCK:   -2.96 KCAL/MOL
REMARK 924 INTRA-LIGAND FREE ENERGY PREDICTED BY IDOCK:   -0.17 KCAL/MOL
REMARK 927      BINDING AFFINITY PREDICTED BY RF-SCORE:    0.00 PKD
ROOT
ATOM      1  CE  MET A   1      -7.927  15.019  67.082  1.00  0.00    -0.206 C  
ATOM      2  SD  MET A   1      -9.725  14.903  66.953  1.00  0.00    -0.249 SA 
ENDROOT
BRANCH   2   3
ATOM      3  CG  MET A   1     -10.046  16.390  65.942  1.00  0.00    -0.347 C  
BRANCH   3   4
ATOM      4  CB  MET A   1     -10.623  17.471  66.861  1.00  0.00    -0.219 C  
BRANCH   4   5
ATOM      5  CA  MET A   1      -9.795  18.758  66.910  1.00  0.00    -0.334 C  
ATOM      6  C   MET A   1      -9.349  19.080  68.344  1.00  0.00    -0.355 C  
ATOM      7  N   MET A   1      -8.564  18.566  66.080  1.00  0.00    -0.491 NA 
ATOM      8  O   MET A   1      -8.085  18.639  68.577  1.00  0.00    -0.324 OA 
ATOM      9  OXT MET A   1     -10.038  19.636  69.183  1.00  0.00    -0.438 OA 
ATOM     10  H1  MET A   1      -8.013  19.423  66.113  1.00  0.00     0.000 HD 
ATOM     11  H2  MET A   1      -8.778  18.274  65.127  1.00  0.00     0.000 HD 
ENDBRANCH   4   5
ENDBRANCH   3   4
ENDBRANCH   2   3
TORSDOF 3
ENDMDL
MODEL       79
REMARK 921   NORMALIZED FREE ENERGY PREDICTED BY IDOCK:   -2.57 KCAL/MOL
REMARK 922        TOTAL FREE ENERGY PREDICTED BY IDOCK:   -3.13 KCAL/MOL
REMARK 923 INTER-LIGAND FREE ENERGY PREDICTED BY IDOCK:   -3.03 KCAL/MOL
REMARK 924 INTRA-LIGAND FREE ENERGY PREDICTED BY IDOCK:   -0.11 KCAL/MOL
REMARK 927      BINDING AFFINITY PREDICTED BY RF-SCORE:    0.00 PKD
ROOT
ATOM      1  CE  MET A   1     -10.876   6.146  71.004  1.00  0.00    -0.279 C  
ATOM      2  SD  MET A   1     -12.330   7.163  71.348  1.00  0.00    -0.392 SA 
ENDROOT
BRANCH   2   3
ATOM      3  CG  MET A   1     -11.504   8.628  72.060  1.00  0.00    -0.367 C  
BRANCH   3   4
ATOM      4  CB  MET A   1     -11.668   9.789  71.075  1.00  0.00    -0.453 C  
BRANCH   4   5
ATOM      5  CA  MET A   1     -10.782   9.684  69.830  1.00  0.00    -0.252 C  
ATOM      6  C   MET A   1     -11.099  10.801  68.825  1.00  0.00    -0.259 C  
ATOM      7  N   MET A   1      -9.353   9.835  70.248  1.00  0.00    -0.346 NA 
ATOM      8  O   MET A   1     -10.236  11.842  68.958  1.00  0.00    -0.145 OA 
ATOM      9  OXT MET A   1     -12.017  10.781  68.023  1.00  0.00    -0.537 OA 
ATOM     10  H1  MET A   1      -8.763   9.765  69.419  1.00  0.00     0.000 HD 
ATOM     11  H2  MET A   1      -9.086   9.172  70.975  1.00  0.00     0.000 HD 
ENDBRANCH   4   5
ENDBRANCH   3   4
ENDBRANCH   2   3
TORSDOF 3
ENDMDL
MODEL       80
REMARK 921   NORMALIZED FREE ENERGY PREDICTED BY IDOCK:   -2.57 KCAL/MOL
REMARK 922        TOTAL FREE ENERGY PREDICTED BY IDOCK:   -3.13 KCAL/MOL
REMARK 923 INTER-LIGAND FREE ENERGY PREDICTED BY IDOCK:   -3.00 KCAL/MOL
REMARK 924 INTRA-LIGAND FREE ENERGY PREDICTED BY IDOCK:   -0.13 KCAL/MOL
REMARK 927      BINDING AFFINITY PREDICTED BY RF-SCORE:    0.00 PKD
ROOT
ATOM      1  CE  MET A   1      -7.585  17.793  67.670  1.00  0.00    -0.210 C  
ATOM      2  SD  MET A   1      -8.805  18.973  68.290  1.00  0.00    -0.344 SA 
ENDROOT
BRANCH   2   3
ATOM      3  CG  MET A   1     -10.312  17.955  68.123  1.00  0.00    -0.389 C  
BRANCH   3   4
ATOM      4  CB  MET A   1      -9.883  16.488  68.028  1.00  0.00    -0.240 C  
BRANCH   4   5
ATOM      5  CA  MET A   1     -10.824  15.614  67.193  1.00  0.00    -0.297 C  
ATOM      6  C   MET A   1     -10.351  15.521  65.734  1.00  0.00    -0.363 C  
ATOM      7  N   MET A   1     -10.822  14.231  67.764  1.00  0.00    -0.250 NA 
ATOM      8  O   MET A   1      -9.631  14.388  65.522  1.00  0.00    -0.233 OA 
ATOM      9  OXT MET A   1     -10.564  16.359  64.874  1.00  0.00    -0.677 OA 
ATOM     10  H1  MET A   1     -11.448  13.649  67.208  1.00  0.00     0.000 HD 
ATOM     11  H2  MET A   1     -11.054  14.218  68.757  1.00  0.00     0.000 HD 
ENDBRANCH   4   5
ENDBRANCH   3   4
ENDBRANCH   2   3
TORSDOF 3
ENDMDL
MODEL       81
REMARK 921   NORMALIZED FREE ENERGY PREDICTED BY IDOCK:   -2.54 KCAL/MOL
REMARK 922        TOTAL FREE ENERGY PREDICTED BY IDOCK:   -3.10 KCAL/MOL
REMARK 923 INTER-LIGAND FREE ENERGY PREDICTED BY IDOCK:   -2.97 KCAL/MOL
REMARK 924 INTRA-LIGAND FREE ENERGY PREDICTED BY IDOCK:   -0.12 KCAL/MOL
REMARK 927      BINDING AFFINITY PREDICTED BY RF-SCORE:    0.00 PKD
ROOT
ATOM      1  CE  MET A   1      -9.947  13.189  68.099  1.00  0.00    -0.234 C  
ATOM      2  SD  MET A   1     -11.710  12.983  68.439  1.00  0.00    -0.354 SA 
ENDROOT
BRANCH   2   3
ATOM      3  CG  MET A   1     -11.736  11.190  68.786  1.00  0.00    -0.326 C  
BRANCH   3   4
ATOM      4  CB  MET A   1     -12.400  10.982  70.150  1.00  0.00    -0.389 C  
BRANCH   4   5
ATOM      5  CA  MET A   1     -11.548  10.193  71.148  1.00  0.00    -0.346 C  
ATOM      6  C   MET A   1     -12.126   8.790  71.387  1.00  0.00    -0.307 C  
ATOM      7  N   MET A   1     -10.174  10.031  70.578  1.00  0.00    -0.396 NA 
ATOM      8  O   MET A   1     -11.503   7.863  70.612  1.00  0.00    -0.278 OA 
ATOM      9  OXT MET A   1     -13.041   8.530  72.150  1.00  0.00    -0.343 OA 
ATOM     10  H1  MET A   1      -9.606   9.505  71.242  1.00  0.00     0.000 HD 
ATOM     11  H2  MET A   1      -9.750  10.922  70.320  1.00  0.00     0.000 HD 
ENDBRANCH   4   5
ENDBRANCH   3   4
ENDBRANCH   2   3
TORSDOF 3
ENDMDL
MODEL       82
REMARK 921   NORMALIZED FREE ENERGY PREDICTED BY IDOCK:   -2.53 KCAL/MOL
REMARK 922        TOTAL FREE ENERGY PREDICTED BY IDOCK:   -3.09 KCAL/MOL
REMARK 923 INTER-LIGAND FREE ENERGY PREDICTED BY IDOCK:   -3.02 KCAL/MOL
REMARK 924 INTRA-LIGAND FREE ENERGY PREDICTED BY IDOCK:   -0.07 KCAL/MOL
REMARK 927      BINDING AFFINITY PREDICTED BY RF-SCORE:    0.00 PKD
ROOT
ATOM      1  CE  MET A   1      -7.328  16.047  67.190  1.00  0.00    -0.222 C  
ATOM      2  SD  MET A   1      -7.922  16.912  68.661  1.00  0.00    -0.260 SA 
ENDROOT
BRANCH   2   3
ATOM      3  CG  MET A   1      -9.704  16.981  68.263  1.00  0.00    -0.275 C  
BRANCH   3   4
ATOM      4  CB  MET A   1     -10.435  16.019  69.204  1.00  0.00    -0.251 C  
BRANCH   4   5
ATOM      5  CA  MET A   1     -11.859  15.671  68.761  1.00  0.00    -0.321 C  
ATOM      6  C   MET A   1     -11.869  14.456  67.821  1.00  0.00    -0.368 C  
ATOM      7  N   MET A   1     -12.663  15.320  69.973  1.00  0.00    -0.625 NA 
ATOM      8  O   MET A   1     -12.146  13.312  68.500  1.00  0.00    -0.341 OA 
ATOM      9  OXT MET A   1     -11.638  14.495  66.624  1.00  0.00    -0.360 OA 
ATOM     10  H1  MET A   1     -13.611  15.088  69.678  1.00  0.00     0.000 HD 
ATOM     11  H2  MET A   1     -12.642  16.052  70.682  1.00  0.00     0.000 HD 
ENDBRANCH   4   5
ENDBRANCH   3   4
ENDBRANCH   2   3
TORSDOF 3
ENDMDL
MODEL       83
REMARK 921   NORMALIZED FREE ENERGY PREDICTED BY IDOCK:   -2.52 KCAL/MOL
REMARK 922        TOTAL FREE ENERGY PREDICTED BY IDOCK:   -3.07 KCAL/MOL
REMARK 923 INTER-LIGAND FREE ENERGY PREDICTED BY IDOCK:   -2.91 KCAL/MOL
REMARK 924 INTRA-LIGAND FREE ENERGY PREDICTED BY IDOCK:   -0.17 KCAL/MOL
REMARK 927      BINDING AFFINITY PREDICTED BY RF-SCORE:    0.00 PKD
ROOT
ATOM      1  CE  MET A   1     -11.969  14.995  64.369  1.00  0.00    -0.353 C  
ATOM      2  SD  MET A   1     -12.598  13.601  65.331  1.00  0.00    -0.452 SA 
ENDROOT
BRANCH   2   3
ATOM      3  CG  MET A   1     -11.715  12.240  64.491  1.00  0.00    -0.353 C  
BRANCH   3   4
ATOM      4  CB  MET A   1     -10.668  11.686  65.460  1.00  0.00    -0.333 C  
BRANCH   4   5
ATOM      5  CA  MET A   1     -10.546  12.474  66.768  1.00  0.00    -0.233 C  
ATOM      6  C   MET A   1     -10.821  11.580  67.986  1.00  0.00    -0.213 C  
ATOM      7  N   MET A   1      -9.146  12.989  66.885  1.00  0.00    -0.228 NA 
ATOM      8  O   MET A   1      -9.664  11.120  68.530  1.00  0.00    -0.183 OA 
ATOM      9  OXT MET A   1     -11.929  11.291  68.406  1.00  0.00    -0.555 OA 
ATOM     10  H1  MET A   1      -9.064  13.514  67.756  1.00  0.00     0.000 HD 
ATOM     11  H2  MET A   1      -8.860  13.534  66.072  1.00  0.00     0.000 HD 
ENDBRANCH   4   5
ENDBRANCH   3   4
ENDBRANCH   2   3
TORSDOF 3
ENDMDL
MODEL       84
REMARK 921   NORMALIZED FREE ENERGY PREDICTED BY IDOCK:   -2.51 KCAL/MOL
REMARK 922        TOTAL FREE ENERGY PREDICTED BY IDOCK:   -3.06 KCAL/MOL
REMARK 923 INTER-LIGAND FREE ENERGY PREDICTED BY IDOCK:   -3.01 KCAL/MOL
REMARK 924 INTRA-LIGAND FREE ENERGY PREDICTED BY IDOCK:   -0.05 KCAL/MOL
REMARK 927      BINDING AFFINITY PREDICTED BY RF-SCORE:    0.00 PKD
ROOT
ATOM      1  CE  MET A   1      -8.418   6.475  65.892  1.00  0.00    -0.147 C  
ATOM      2  SD  MET A   1      -8.306   8.027  66.812  1.00  0.00    -0.119 SA 
ENDROOT
BRANCH   2   3
ATOM      3  CG  MET A   1     -10.045   8.571  66.687  1.00  0.00    -0.294 C  
BRANCH   3   4
ATOM      4  CB  MET A   1     -10.056   9.997  66.129  1.00  0.00    -0.317 C  
BRANCH   4   5
ATOM      5  CA  MET A   1     -10.545  11.054  67.123  1.00  0.00    -0.250 C  
ATOM      6  C   MET A   1     -10.972  12.342  66.401  1.00  0.00    -0.287 C  
ATOM      7  N   MET A   1     -11.740  10.515  67.843  1.00  0.00    -0.714 NA 
ATOM      8  O   MET A   1     -12.316  12.371  66.202  1.00  0.00    -0.606 OA 
ATOM      9  OXT MET A   1     -10.213  13.220  66.028  1.00  0.00    -0.280 OA 
ATOM     10  H1  MET A   1     -12.066  11.219  68.505  1.00  0.00     0.000 HD 
ATOM     11  H2  MET A   1     -11.555   9.616  68.288  1.00  0.00     0.000 HD 
ENDBRANCH   4   5
ENDBRANCH   3   4
ENDBRANCH   2   3
TORSDOF 3
ENDMDL
MODEL       85
REMARK 921   NORMALIZED FREE ENERGY PREDICTED BY IDOCK:   -2.50 KCAL/MOL
REMARK 922        TOTAL FREE ENERGY PREDICTED BY IDOCK:   -3.04 KCAL/MOL
REMARK 923 INTER-LIGAND FREE ENERGY PREDICTED BY IDOCK:   -2.94 KCAL/MOL
REMARK 924 INTRA-LIGAND FREE ENERGY PREDICTED BY IDOCK:   -0.10 KCAL/MOL
REMARK 927      BINDING AFFINITY PREDICTED BY RF-SCORE:    0.00 PKD
ROOT
ATOM      1  CE  MET A   1      -8.582   6.190  73.590  1.00  0.00    -0.124 C  
ATOM      2  SD  MET A   1     -10.281   6.688  73.950  1.00  0.00    -0.370 SA 
ENDROOT
BRANCH   2   3
ATOM      3  CG  MET A   1     -11.162   5.611  72.768  1.00  0.00    -0.299 C  
BRANCH   3   4
ATOM      4  CB  MET A   1     -10.748   6.024  71.353  1.00  0.00    -0.314 C  
BRANCH   4   5
ATOM      5  CA  MET A   1     -11.811   6.830  70.600  1.00  0.00    -0.387 C  
ATOM      6  C   MET A   1     -11.653   8.337  70.856  1.00  0.00    -0.262 C  
ATOM      7  N   MET A   1     -11.638   6.594  69.132  1.00  0.00    -0.628 NA 
ATOM      8  O   MET A   1     -10.953   8.934  69.856  1.00  0.00    -0.235 OA 
ATOM      9  OXT MET A   1     -12.074   8.928  71.835  1.00  0.00    -0.325 OA 
ATOM     10  H1  MET A   1     -12.345   7.130  68.631  1.00  0.00     0.000 HD 
ATOM     11  H2  MET A   1     -11.654   5.603  68.891  1.00  0.00     0.000 HD 
ENDBRANCH   4   5
ENDBRANCH   3   4
ENDBRANCH   2   3
TORSDOF 3
ENDMDL
MODEL       86
REMARK 921   NORMALIZED FREE ENERGY PREDICTED BY IDOCK:   -2.48 KCAL/MOL
REMARK 922        TOTAL FREE ENERGY PREDICTED BY IDOCK:   -3.03 KCAL/MOL
REMARK 923 INTER-LIGAND FREE ENERGY PREDICTED BY IDOCK:   -2.91 KCAL/MOL
REMARK 924 INTRA-LIGAND FREE ENERGY PREDICTED BY IDOCK:   -0.12 KCAL/MOL
REMARK 927      BINDING AFFINITY PREDICTED BY RF-SCORE:    0.00 PKD
ROOT
ATOM      1  CE  MET A   1      -8.915  19.438  67.962  1.00  0.00    -0.322 C  
ATOM      2  SD  MET A   1      -9.793  19.645  66.397  1.00  0.00    -0.470 SA 
ENDROOT
BRANCH   2   3
ATOM      3  CG  MET A   1     -10.628  18.023  66.310  1.00  0.00    -0.253 C  
BRANCH   3   4
ATOM      4  CB  MET A   1     -10.108  17.161  67.464  1.00  0.00    -0.301 C  
BRANCH   4   5
ATOM      5  CA  MET A   1     -11.210  16.550  68.335  1.00  0.00    -0.280 C  
ATOM      6  C   MET A   1     -11.401  15.057  68.027  1.00  0.00    -0.327 C  
ATOM      7  N   MET A   1     -10.805  16.673  69.771  1.00  0.00    -0.344 NA 
ATOM      8  O   MET A   1     -10.718  14.282  68.909  1.00  0.00    -0.248 OA 
ATOM      9  OXT MET A   1     -12.057  14.613  67.100  1.00  0.00    -0.362 OA 
ATOM     10  H1  MET A   1     -11.539  16.267  70.351  1.00  0.00     0.000 HD 
ATOM     11  H2  MET A   1     -10.586  17.634  70.034  1.00  0.00     0.000 HD 
ENDBRANCH   4   5
ENDBRANCH   3   4
ENDBRANCH   2   3
TORSDOF 3
ENDMDL
MODEL       87
REMARK 921   NORMALIZED FREE ENERGY PREDICTED BY IDOCK:   -2.48 KCAL/MOL
REMARK 922        TOTAL FREE ENERGY PREDICTED BY IDOCK:   -3.03 KCAL/MOL
REMARK 923 INTER-LIGAND FREE ENERGY PREDICTED BY IDOCK:   -2.89 KCAL/MOL
REMARK 924 INTRA-LIGAND FREE ENERGY PREDICTED BY IDOCK:   -0.13 KCAL/MOL
REMARK 927      BINDING AFFINITY PREDICTED BY RF-SCORE:    0.00 PKD
ROOT
ATOM      1  CE  MET A   1     -11.134  15.317  67.507  1.00  0.00    -0.324 C  
ATOM      2  SD  MET A   1     -10.518  17.010  67.651  1.00  0.00    -0.334 SA 
ENDROOT
BRANCH   2   3
ATOM      3  CG  MET A   1      -9.450  17.063  66.171  1.00  0.00    -0.225 C  
BRANCH   3   4
ATOM      4  CB  MET A   1      -8.590  18.327  66.253  1.00  0.00    -0.208 C  
BRANCH   4   5
ATOM      5  CA  MET A   1      -8.986  19.281  67.384  1.00  0.00    -0.296 C  
ATOM      6  C   MET A   1      -7.773  19.651  68.252  1.00  0.00    -0.321 C  
ATOM      7  N   MET A   1      -9.519  20.542  66.780  1.00  0.00    -0.626 NA 
ATOM      8  O   MET A   1      -7.240  20.841  67.868  1.00  0.00    -0.257 OA 
ATOM      9  OXT MET A   1      -7.322  18.965  69.153  1.00  0.00    -0.303 OA 
ATOM     10  H1  MET A   1      -9.783  21.177  67.533  1.00  0.00     0.000 HD 
ATOM     11  H2  MET A   1     -10.284  20.370  66.128  1.00  0.00     0.000 HD 
ENDBRANCH   4   5
ENDBRANCH   3   4
ENDBRANCH   2   3
TORSDOF 3
ENDMDL
MODEL       88
REMARK 921   NORMALIZED FREE ENERGY PREDICTED BY IDOCK:   -2.46 KCAL/MOL
REMARK 922        TOTAL FREE ENERGY PREDICTED BY IDOCK:   -3.01 KCAL/MOL
REMARK 923 INTER-LIGAND FREE ENERGY PREDICTED BY IDOCK:   -2.89 KCAL/MOL
REMARK 924 INTRA-LIGAND FREE ENERGY PREDICTED BY IDOCK:   -0.11 KCAL/MOL
REMARK 927      BINDING AFFINITY PREDICTED BY RF-SCORE:    0.00 PKD
ROOT
ATOM      1  CE  MET A   1      -6.984  14.851  69.200  1.00  0.00    -0.139 C  
ATOM      2  SD  MET A   1      -7.857  13.813  68.006  1.00  0.00    -0.170 SA 
ENDROOT
BRANCH   2   3
ATOM      3  CG  MET A   1      -8.857  15.096  67.175  1.00  0.00    -0.216 C  
BRANCH   3   4
ATOM      4  CB  MET A   1      -9.810  14.396  66.203  1.00  0.00    -0.340 C  
BRANCH   4   5
ATOM      5  CA  MET A   1     -11.291  14.525  66.575  1.00  0.00    -0.352 C  
ATOM      6  C   MET A   1     -11.936  13.147  66.783  1.00  0.00    -0.373 C  
ATOM      7  N   MET A   1     -11.395  15.279  67.863  1.00  0.00    -0.331 NA 
ATOM      8  O   MET A   1     -11.966  12.812  68.099  1.00  0.00    -0.333 OA 
ATOM      9  OXT MET A   1     -12.349  12.425  65.891  1.00  0.00    -0.638 OA 
ATOM     10  H1  MET A   1     -12.380  15.365  68.110  1.00  0.00     0.000 HD 
ATOM     11  H2  MET A   1     -10.920  16.181  67.828  1.00  0.00     0.000 HD 
ENDBRANCH   4   5
ENDBRANCH   3   4
ENDBRANCH   2   3
TORSDOF 3
ENDMDL
MODEL       89
REMARK 921   NORMALIZED FREE ENERGY PREDICTED BY IDOCK:   -2.46 KCAL/MOL
REMARK 922        TOTAL FREE ENERGY PREDICTED BY IDOCK:   -3.00 KCAL/MOL
REMARK 923 INTER-LIGAND FREE ENERGY PREDICTED BY IDOCK:   -2.92 KCAL/MOL
REMARK 924 INTRA-LIGAND FREE ENERGY PREDICTED BY IDOCK:   -0.07 KCAL/MOL
REMARK 927      BINDING AFFINITY PREDICTED BY RF-SCORE:    0.00 PKD
ROOT
ATOM      1  CE  MET A   1     -11.719  11.856  68.088  1.00  0.00    -0.320 C  
ATOM      2  SD  MET A   1     -10.577  13.255  68.023  1.00  0.00    -0.246 SA 
ENDROOT
BRANCH   2   3
ATOM      3  CG  MET A   1     -11.712  14.534  67.382  1.00  0.00    -0.400 C  
BRANCH   3   4
ATOM      4  CB  MET A   1     -11.131  15.905  67.741  1.00  0.00    -0.288 C  
BRANCH   4   5
ATOM      5  CA  MET A   1      -9.981  16.354  66.835  1.00  0.00    -0.271 C  
ATOM      6  C   MET A   1     -10.251  17.744  66.239  1.00  0.00    -0.364 C  
ATOM      7  N   MET A   1      -8.734  16.442  67.657  1.00  0.00    -0.182 NA 
ATOM      8  O   MET A   1      -9.636  18.717  66.962  1.00  0.00    -0.289 OA 
ATOM      9  OXT MET A   1     -10.945  17.963  65.261  1.00  0.00    -0.565 OA 
ATOM     10  H1  MET A   1      -7.968  16.742  67.054  1.00  0.00     0.000 HD 
ATOM     11  H2  MET A   1      -8.528  15.573  68.149  1.00  0.00     0.000 HD 
ENDBRANCH   4   5
ENDBRANCH   3   4
ENDBRANCH   2   3
TORSDOF 3
ENDMDL
MODEL       90
REMARK 921   NORMALIZED FREE ENERGY PREDICTED BY IDOCK:   -2.45 KCAL/MOL
REMARK 922        TOTAL FREE ENERGY PREDICTED BY IDOCK:   -2.99 KCAL/MOL
REMARK 923 INTER-LIGAND FREE ENERGY PREDICTED BY IDOCK:   -2.98 KCAL/MOL
REMARK 924 INTRA-LIGAND FREE ENERGY PREDICTED BY IDOCK:   -0.01 KCAL/MOL
REMARK 927      BINDING AFFINITY PREDICTED BY RF-SCORE:    0.00 PKD
ROOT
ATOM      1  CE  MET A   1      -7.326  14.779  67.475  1.00  0.00    -0.201 C  
ATOM      2  SD  MET A   1      -9.107  14.485  67.544  1.00  0.00    -0.201 SA 
ENDROOT
BRANCH   2   3
ATOM      3  CG  MET A   1      -9.677  15.868  66.496  1.00  0.00    -0.266 C  
BRANCH   3   4
ATOM      4  CB  MET A   1     -10.424  16.862  67.390  1.00  0.00    -0.310 C  
BRANCH   4   5
ATOM      5  CA  MET A   1      -9.581  18.061  67.835  1.00  0.00    -0.284 C  
ATOM      6  C   MET A   1      -9.257  18.985  66.652  1.00  0.00    -0.329 C  
ATOM      7  N   MET A   1     -10.368  18.852  68.832  1.00  0.00    -0.477 NA 
ATOM      8  O   MET A   1     -10.126  20.028  66.590  1.00  0.00    -0.426 OA 
ATOM      9  OXT MET A   1      -8.356  18.805  65.850  1.00  0.00    -0.490 OA 
ATOM     10  H1  MET A   1      -9.807  19.650  69.129  1.00  0.00     0.000 HD 
ATOM     11  H2  MET A   1     -10.687  18.285  69.617  1.00  0.00     0.000 HD 
ENDBRANCH   4   5
ENDBRANCH   3   4
ENDBRANCH   2   3
TORSDOF 3
ENDMDL
MODEL       91
REMARK 921   NORMALIZED FREE ENERGY PREDICTED BY IDOCK:   -2.45 KCAL/MOL
REMARK 922        TOTAL FREE ENERGY PREDICTED BY IDOCK:   -2.99 KCAL/MOL
REMARK 923 INTER-LIGAND FREE ENERGY PREDICTED BY IDOCK:   -2.87 KCAL/MOL
REMARK 924 INTRA-LIGAND FREE ENERGY PREDICTED BY IDOCK:   -0.12 KCAL/MOL
REMARK 927      BINDING AFFINITY PREDICTED BY RF-SCORE:    0.00 PKD
ROOT
ATOM      1  CE  MET A   1     -10.527  19.255  65.895  1.00  0.00    -0.451 C  
ATOM      2  SD  MET A   1      -8.973  19.311  66.814  1.00  0.00    -0.343 SA 
ENDROOT
BRANCH   2   3
ATOM      3  CG  MET A   1      -8.435  17.580  66.591  1.00  0.00    -0.259 C  
BRANCH   3   4
ATOM      4  CB  MET A   1      -8.782  16.809  67.867  1.00  0.00    -0.203 C  
BRANCH   4   5
ATOM      5  CA  MET A   1      -9.335  15.402  67.619  1.00  0.00    -0.203 C  
ATOM      6  C   MET A   1     -10.828  15.445  67.262  1.00  0.00    -0.316 C  
ATOM      7  N   MET A   1      -8.604  14.801  66.460  1.00  0.00    -0.446 NA 
ATOM      8  O   MET A   1     -11.014  15.407  65.917  1.00  0.00    -0.325 OA 
ATOM      9  OXT MET A   1     -11.738  15.527  68.070  1.00  0.00    -0.322 OA 
ATOM     10  H1  MET A   1      -8.972  13.864  66.294  1.00  0.00     0.000 HD 
ATOM     11  H2  MET A   1      -7.592  14.807  66.590  1.00  0.00     0.000 HD 
ENDBRANCH   4   5
ENDBRANCH   3   4
ENDBRANCH   2   3
TORSDOF 3
ENDMDL
MODEL       92
REMARK 921   NORMALIZED FREE ENERGY PREDICTED BY IDOCK:   -2.45 KCAL/MOL
REMARK 922        TOTAL FREE ENERGY PREDICTED BY IDOCK:   -2.99 KCAL/MOL
REMARK 923 INTER-LIGAND FREE ENERGY PREDICTED BY IDOCK:   -2.92 KCAL/MOL
REMARK 924 INTRA-LIGAND FREE ENERGY PREDICTED BY IDOCK:   -0.07 KCAL/MOL
REMARK 927      BINDING AFFINITY PREDICTED BY RF-SCORE:    0.00 PKD
ROOT
ATOM      1  CE  MET A   1     -11.319  14.539  68.084  1.00  0.00    -0.298 C  
ATOM      2  SD  MET A   1     -12.050  13.731  69.525  1.00  0.00    -0.305 SA 
ENDROOT
BRANCH   2   3
ATOM      3  CG  MET A   1     -11.350  12.058  69.311  1.00  0.00    -0.268 C  
BRANCH   3   4
ATOM      4  CB  MET A   1     -11.919  11.163  70.416  1.00  0.00    -0.469 C  
BRANCH   4   5
ATOM      5  CA  MET A   1     -11.563   9.681  70.267  1.00  0.00    -0.198 C  
ATOM      6  C   MET A   1     -10.290   9.331  71.053  1.00  0.00    -0.318 C  
ATOM      7  N   MET A   1     -12.685   8.863  70.825  1.00  0.00    -0.479 NA 
ATOM      8  O   MET A   1     -10.591   8.806  72.269  1.00  0.00    -0.337 OA 
ATOM      9  OXT MET A   1      -9.151   9.519  70.659  1.00  0.00    -0.245 OA 
ATOM     10  H1  MET A   1     -12.448   7.876  70.726  1.00  0.00     0.000 HD 
ATOM     11  H2  MET A   1     -13.584   9.094  70.404  1.00  0.00     0.000 HD 
ENDBRANCH   4   5
ENDBRANCH   3   4
ENDBRANCH   2   3
TORSDOF 3
ENDMDL
MODEL       93
REMARK 921   NORMALIZED FREE ENERGY PREDICTED BY IDOCK:   -2.45 KCAL/MOL
REMARK 922        TOTAL FREE ENERGY PREDICTED BY IDOCK:   -2.99 KCAL/MOL
REMARK 923 INTER-LIGAND FREE ENERGY PREDICTED BY IDOCK:   -2.89 KCAL/MOL
REMARK 924 INTRA-LIGAND FREE ENERGY PREDICTED BY IDOCK:   -0.10 KCAL/MOL
REMARK 927      BINDING AFFINITY PREDICTED BY RF-SCORE:    0.00 PKD
ROOT
ATOM      1  CE  MET A   1      -8.707   7.747  67.009  1.00  0.00    -0.129 C  
ATOM      2  SD  MET A   1     -10.434   7.388  67.404  1.00  0.00    -0.309 SA 
ENDROOT
BRANCH   2   3
ATOM      3  CG  MET A   1     -10.371   7.595  69.217  1.00  0.00    -0.217 C  
BRANCH   3   4
ATOM      4  CB  MET A   1     -11.081   6.398  69.855  1.00  0.00    -0.444 C  
BRANCH   4   5
ATOM      5  CA  MET A   1     -12.112   6.777  70.922  1.00  0.00    -0.367 C  
ATOM      6  C   MET A   1     -11.552   6.566  72.337  1.00  0.00    -0.255 C  
ATOM      7  N   MET A   1     -12.443   8.228  70.772  1.00  0.00    -0.491 NA 
ATOM      8  O   MET A   1     -11.067   7.727  72.852  1.00  0.00    -0.368 OA 
ATOM      9  OXT MET A   1     -11.517   5.498  72.925  1.00  0.00    -0.304 OA 
ATOM     10  H1  MET A   1     -13.129   8.481  71.483  1.00  0.00     0.000 HD 
ATOM     11  H2  MET A   1     -12.752   8.463  69.829  1.00  0.00     0.000 HD 
ENDBRANCH   4   5
ENDBRANCH   3   4
ENDBRANCH   2   3
TORSDOF 3
ENDMDL
MODEL       94
REMARK 921   NORMALIZED FREE ENERGY PREDICTED BY IDOCK:   -2.45 KCAL/MOL
REMARK 922        TOTAL FREE ENERGY PREDICTED BY IDOCK:   -2.99 KCAL/MOL
REMARK 923 INTER-LIGAND FREE ENERGY PREDICTED BY IDOCK:   -2.91 KCAL/MOL
REMARK 924 INTRA-LIGAND FREE ENERGY PREDICTED BY IDOCK:   -0.07 KCAL/MOL
REMARK 927      BINDING AFFINITY PREDICTED BY RF-SCORE:    0.00 PKD
ROOT
ATOM      1  CE  MET A   1     -12.513  12.068  63.452  1.00  0.00    -0.509 C  
ATOM      2  SD  MET A   1     -10.758  12.267  63.830  1.00  0.00    -0.476 SA 
ENDROOT
BRANCH   2   3
ATOM      3  CG  MET A   1     -10.893  13.311  65.322  1.00  0.00    -0.301 C  
BRANCH   3   4
ATOM      4  CB  MET A   1     -11.627  12.506  66.398  1.00  0.00    -0.449 C  
BRANCH   4   5
ATOM      5  CA  MET A   1     -10.788  12.220  67.648  1.00  0.00    -0.225 C  
ATOM      6  C   MET A   1     -11.679  11.854  68.845  1.00  0.00    -0.323 C  
ATOM      7  N   MET A   1      -9.896  11.053  67.366  1.00  0.00    -0.172 NA 
ATOM      8  O   MET A   1     -11.773  10.506  68.992  1.00  0.00    -0.246 OA 
ATOM      9  OXT MET A   1     -12.252  12.656  69.562  1.00  0.00    -0.213 OA 
ATOM     10  H1  MET A   1      -9.337  10.862  68.198  1.00  0.00     0.000 HD 
ATOM     11  H2  MET A   1      -9.323  11.190  66.533  1.00  0.00     0.000 HD 
ENDBRANCH   4   5
ENDBRANCH   3   4
ENDBRANCH   2   3
TORSDOF 3
ENDMDL
MODEL       95
REMARK 921   NORMALIZED FREE ENERGY PREDICTED BY IDOCK:   -2.45 KCAL/MOL
REMARK 922        TOTAL FREE ENERGY PREDICTED BY IDOCK:   -2.98 KCAL/MOL
REMARK 923 INTER-LIGAND FREE ENERGY PREDICTED BY IDOCK:   -2.82 KCAL/MOL
REMARK 924 INTRA-LIGAND FREE ENERGY PREDICTED BY IDOCK:   -0.16 KCAL/MOL
REMARK 927      BINDING AFFINITY PREDICTED BY RF-SCORE:    0.00 PKD
ROOT
ATOM      1  CE  MET A   1     -10.428   8.885  69.142  1.00  0.00    -0.223 C  
ATOM      2  SD  MET A   1     -10.923  10.422  69.951  1.00  0.00    -0.311 SA 
ENDROOT
BRANCH   2   3
ATOM      3  CG  MET A   1     -11.744   9.728  71.427  1.00  0.00    -0.398 C  
BRANCH   3   4
ATOM      4  CB  MET A   1     -10.754   8.789  72.122  1.00  0.00    -0.383 C  
BRANCH   4   5
ATOM      5  CA  MET A   1     -11.390   7.515  72.685  1.00  0.00    -0.344 C  
ATOM      6  C   MET A   1     -11.096   6.302  71.789  1.00  0.00    -0.273 C  
ATOM      7  N   MET A   1     -10.798   7.242  74.032  1.00  0.00    -0.525 NA 
ATOM      8  O   MET A   1     -10.034   5.593  72.253  1.00  0.00    -0.168 OA 
ATOM      9  OXT MET A   1     -11.712   6.015  70.776  1.00  0.00    -0.198 OA 
ATOM     10  H1  MET A   1     -11.221   6.393  74.408  1.00  0.00     0.000 HD 
ATOM     11  H2  MET A   1     -10.886   8.036  74.666  1.00  0.00     0.000 HD 
ENDBRANCH   4   5
ENDBRANCH   3   4
ENDBRANCH   2   3
TORSDOF 3
ENDMDL
MODEL       96
REMARK 921   NORMALIZED FREE ENERGY PREDICTED BY IDOCK:   -2.42 KCAL/MOL
REMARK 922        TOTAL FREE ENERGY PREDICTED BY IDOCK:   -2.96 KCAL/MOL
REMARK 923 INTER-LIGAND FREE ENERGY PREDICTED BY IDOCK:   -2.88 KCAL/MOL
REMARK 924 INTRA-LIGAND FREE ENERGY PREDICTED BY IDOCK:   -0.08 KCAL/MOL
REMARK 927      BINDING AFFINITY PREDICTED BY RF-SCORE:    0.00 PKD
ROOT
ATOM      1  CE  MET A   1      -6.947  14.960  69.569  1.00  0.00    -0.180 C  
ATOM      2  SD  MET A   1      -8.501  14.748  68.672  1.00  0.00    -0.170 SA 
ENDROOT
BRANCH   2   3
ATOM      3  CG  MET A   1      -8.497  16.297  67.705  1.00  0.00    -0.168 C  
BRANCH   3   4
ATOM      4  CB  MET A   1      -9.125  16.004  66.340  1.00  0.00    -0.354 C  
BRANCH   4   5
ATOM      5  CA  MET A   1     -10.615  16.350  66.248  1.00  0.00    -0.242 C  
ATOM      6  C   MET A   1     -10.904  17.252  65.039  1.00  0.00     0.167 C  
ATOM      7  N   MET A   1     -11.389  15.082  66.070  1.00  0.00    -0.313 NA 
ATOM      8  O   MET A   1     -11.337  16.524  63.976  1.00  0.00    -1.064 OA 
ATOM      9  OXT MET A   1     -10.747  18.461  65.013  1.00  0.00    -0.551 OA 
ATOM     10  H1  MET A   1     -12.380  15.312  66.010  1.00  0.00     0.000 HD 
ATOM     11  H2  MET A   1     -11.190  14.397  66.799  1.00  0.00     0.000 HD 
ENDBRANCH   4   5
ENDBRANCH   3   4
ENDBRANCH   2   3
TORSDOF 3
ENDMDL
MODEL       97
REMARK 921   NORMALIZED FREE ENERGY PREDICTED BY IDOCK:   -2.40 KCAL/MOL
REMARK 922        TOTAL FREE ENERGY PREDICTED BY IDOCK:   -2.93 KCAL/MOL
REMARK 923 INTER-LIGAND FREE ENERGY PREDICTED BY IDOCK:   -2.84 KCAL/MOL
REMARK 924 INTRA-LIGAND FREE ENERGY PREDICTED BY IDOCK:   -0.08 KCAL/MOL
REMARK 927      BINDING AFFINITY PREDICTED BY RF-SCORE:    0.00 PKD
ROOT
ATOM      1  CE  MET A   1      -7.393   8.168  71.551  1.00  0.00    -0.080 C  
ATOM      2  SD  MET A   1      -8.703   7.770  70.371  1.00  0.00    -0.139 SA 
ENDROOT
BRANCH   2   3
ATOM      3  CG  MET A   1      -9.413   9.437  70.144  1.00  0.00    -0.240 C  
BRANCH   3   4
ATOM      4  CB  MET A   1     -10.634   9.560  71.060  1.00  0.00    -0.392 C  
BRANCH   4   5
ATOM      5  CA  MET A   1     -11.911  10.011  70.345  1.00  0.00    -0.262 C  
ATOM      6  C   MET A   1     -12.464  11.307  70.957  1.00  0.00    -0.400 C  
ATOM      7  N   MET A   1     -11.582  10.285  68.911  1.00  0.00    -0.497 NA 
ATOM      8  O   MET A   1     -12.066  12.395  70.247  1.00  0.00    -0.348 OA 
ATOM      9  OXT MET A   1     -13.152  11.368  71.962  1.00  0.00    -0.487 OA 
ATOM     10  H1  MET A   1     -12.432  10.586  68.434  1.00  0.00     0.000 HD 
ATOM     11  H2  MET A   1     -11.137   9.490  68.453  1.00  0.00     0.000 HD 
ENDBRANCH   4   5
ENDBRANCH   3   4
ENDBRANCH   2   3
TORSDOF 3
ENDMDL
MODEL       98
REMARK 921   NORMALIZED FREE ENERGY PREDICTED BY IDOCK:   -2.39 KCAL/MOL
REMARK 922        TOTAL FREE ENERGY PREDICTED BY IDOCK:   -2.92 KCAL/MOL
REMARK 923 INTER-LIGAND FREE ENERGY PREDICTED BY IDOCK:   -2.79 KCAL/MOL
REMARK 924 INTRA-LIGAND FREE ENERGY PREDICTED BY IDOCK:   -0.13 KCAL/MOL
REMARK 927      BINDING AFFINITY PREDICTED BY RF-SCORE:    0.00 PKD
ROOT
ATOM      1  CE  MET A   1     -13.318  10.707  72.045  1.00  0.00    -0.304 C  
ATOM      2  SD  MET A   1     -13.785   8.963  71.987  1.00  0.00    -0.479 SA 
ENDROOT
BRANCH   2   3
ATOM      3  CG  MET A   1     -12.165   8.237  71.558  1.00  0.00    -0.301 C  
BRANCH   3   4
ATOM      4  CB  MET A   1     -11.165   9.383  71.382  1.00  0.00    -0.452 C  
BRANCH   4   5
ATOM      5  CA  MET A   1     -10.312   9.282  70.114  1.00  0.00    -0.222 C  
ATOM      6  C   MET A   1      -8.892   8.792  70.434  1.00  0.00    -0.168 C  
ATOM      7  N   MET A   1     -10.944   8.284  69.194  1.00  0.00    -0.429 NA 
ATOM      8  O   MET A   1      -8.776   7.453  70.233  1.00  0.00    -0.143 OA 
ATOM      9  OXT MET A   1      -7.984   9.497  70.841  1.00  0.00    -0.297 OA 
ATOM     10  H1  MET A   1     -10.376   8.216  68.349  1.00  0.00     0.000 HD 
ATOM     11  H2  MET A   1     -11.920   8.501  68.993  1.00  0.00     0.000 HD 
ENDBRANCH   4   5
ENDBRANCH   3   4
ENDBRANCH   2   3
TORSDOF 3
ENDMDL
MODEL       99
REMARK 921   NORMALIZED FREE ENERGY PREDICTED BY IDOCK:   -2.39 KCAL/MOL
REMARK 922        TOTAL FREE ENERGY PREDICTED BY IDOCK:   -2.92 KCAL/MOL
REMARK 923 INTER-LIGAND FREE ENERGY PREDICTED BY IDOCK:   -2.87 KCAL/MOL
REMARK 924 INTRA-LIGAND FREE ENERGY PREDICTED BY IDOCK:   -0.05 KCAL/MOL
REMARK 927      BINDING AFFINITY PREDICTED BY RF-SCORE:    0.00 PKD
ROOT
ATOM      1  CE  MET A   1      -8.590  10.573  66.302  1.00  0.00    -0.147 C  
ATOM      2  SD  MET A   1      -9.979  10.689  65.152  1.00  0.00    -0.321 SA 
ENDROOT
BRANCH   2   3
ATOM      3  CG  MET A   1     -10.403  12.451  65.378  1.00  0.00    -0.277 C  
BRANCH   3   4
ATOM      4  CB  MET A   1     -10.488  12.728  66.882  1.00  0.00    -0.250 C  
BRANCH   4   5
ATOM      5  CA  MET A   1     -11.887  13.117  67.369  1.00  0.00    -0.361 C  
ATOM      6  C   MET A   1     -11.830  13.785  68.752  1.00  0.00    -0.363 C  
ATOM      7  N   MET A   1     -12.469  14.105  66.407  1.00  0.00    -0.512 NA 
ATOM      8  O   MET A   1     -11.840  15.139  68.645  1.00  0.00    -0.339 OA 
ATOM      9  OXT MET A   1     -11.759  13.189  69.813  1.00  0.00    -0.299 OA 
ATOM     10  H1  MET A   1     -13.400  14.365  66.731  1.00  0.00     0.000 HD 
ATOM     11  H2  MET A   1     -12.470  13.762  65.447  1.00  0.00     0.000 HD 
ENDBRANCH   4   5
ENDBRANCH   3   4
ENDBRANCH   2   3
TORSDOF 3
ENDMDL
MODEL      100
REMARK 921   NORMALIZED FREE ENERGY PREDICTED BY IDOCK:   -2.39 KCAL/MOL
REMARK 922        TOTAL FREE ENERGY PREDICTED BY IDOCK:   -2.92 KCAL/MOL
REMARK 923 INTER-LIGAND FREE ENERGY PREDICTED BY IDOCK:   -2.74 KCAL/MOL
REMARK 924 INTRA-LIGAND FREE ENERGY PREDICTED BY IDOCK:   -0.18 KCAL/MOL
REMARK 927      BINDING AFFINITY PREDICTED BY RF-SCORE:    0.00 PKD
ROOT
ATOM      1  CE  MET A   1      -8.262   5.791  70.236  1.00  0.00    -0.110 C  
ATOM      2  SD  MET A   1      -9.878   5.020  70.478  1.00  0.00    -0.237 SA 
ENDROOT
BRANCH   2   3
ATOM      3  CG  MET A   1     -10.813   5.875  69.162  1.00  0.00    -0.336 C  
BRANCH   3   4
ATOM      4  CB  MET A   1     -11.014   7.330  69.594  1.00  0.00    -0.204 C  
BRANCH   4   5
ATOM      5  CA  MET A   1     -11.460   7.495  71.050  1.00  0.00    -0.278 C  
ATOM      6  C   MET A   1     -10.804   8.723  71.699  1.00  0.00    -0.329 C  
ATOM      7  N   MET A   1     -12.942   7.701  71.074  1.00  0.00    -0.562 NA 
ATOM      8  O   MET A   1     -11.631   9.800  71.660  1.00  0.00    -0.375 OA 
ATOM      9  OXT MET A   1      -9.679   8.749  72.169  1.00  0.00    -0.307 OA 
ATOM     10  H1  MET A   1     -13.239   7.811  72.044  1.00  0.00     0.000 HD 
ATOM     11  H2  MET A   1     -13.448   6.959  70.591  1.00  0.00     0.000 HD 
ENDBRANCH   4   5
ENDBRANCH   3   4
ENDBRANCH   2   3
TORSDOF 3
ENDMDL
MODEL      101
REMARK 921   NORMALIZED FREE ENERGY PREDICTED BY IDOCK:   -2.38 KCAL/MOL
REMARK 922        TOTAL FREE ENERGY PREDICTED BY IDOCK:   -2.91 KCAL/MOL
REMARK 923 INTER-LIGAND FREE ENERGY PREDICTED BY IDOCK:   -2.74 KCAL/MOL
REMARK 924 INTRA-LIGAND FREE ENERGY PREDICTED BY IDOCK:   -0.17 KCAL/MOL
REMARK 927      BINDING AFFINITY PREDICTED BY RF-SCORE:    0.00 PKD
ROOT
ATOM      1  CE  MET A   1      -9.150   9.092  68.556  1.00  0.00    -0.133 C  
ATOM      2  SD  MET A   1     -10.328   9.818  69.717  1.00  0.00    -0.264 SA 
ENDROOT
BRANCH   2   3
ATOM      3  CG  MET A   1      -9.747   9.030  71.259  1.00  0.00    -0.301 C  
BRANCH   3   4
ATOM      4  CB  MET A   1     -10.962   8.811  72.165  1.00  0.00    -0.404 C  
BRANCH   4   5
ATOM      5  CA  MET A   1     -11.392   7.347  72.295  1.00  0.00    -0.281 C  
ATOM      6  C   MET A   1     -12.453   6.983  71.245  1.00  0.00    -0.386 C  
ATOM      7  N   MET A   1     -10.197   6.477  72.059  1.00  0.00    -0.192 NA 
ATOM      8  O   MET A   1     -11.889   6.387  70.162  1.00  0.00    -0.409 OA 
ATOM      9  OXT MET A   1     -13.646   7.214  71.346  1.00  0.00    -0.375 OA 
ATOM     10  H1  MET A   1     -10.483   5.502  72.145  1.00  0.00     0.000 HD 
ATOM     11  H2  MET A   1      -9.416   6.712  72.672  1.00  0.00     0.000 HD 
ENDBRANCH   4   5
ENDBRANCH   3   4
ENDBRANCH   2   3
TORSDOF 3
ENDMDL
MODEL      102
REMARK 921   NORMALIZED FREE ENERGY PREDICTED BY IDOCK:   -2.38 KCAL/MOL
REMARK 922        TOTAL FREE ENERGY PREDICTED BY IDOCK:   -2.90 KCAL/MOL
REMARK 923 INTER-LIGAND FREE ENERGY PREDICTED BY IDOCK:   -2.83 KCAL/MOL
REMARK 924 INTRA-LIGAND FREE ENERGY PREDICTED BY IDOCK:   -0.07 KCAL/MOL
REMARK 927      BINDING AFFINITY PREDICTED BY RF-SCORE:    0.00 PKD
ROOT
ATOM      1  CE  MET A   1      -8.465   6.867  68.963  1.00  0.00    -0.128 C  
ATOM      2  SD  MET A   1      -9.052   8.173  67.861  1.00  0.00    -0.132 SA 
ENDROOT
BRANCH   2   3
ATOM      3  CG  MET A   1     -10.263   8.973  68.971  1.00  0.00    -0.205 C  
BRANCH   3   4
ATOM      4  CB  MET A   1      -9.920  10.463  69.049  1.00  0.00    -0.224 C  
BRANCH   4   5
ATOM      5  CA  MET A   1     -11.141  11.386  69.101  1.00  0.00    -0.258 C  
ATOM      6  C   MET A   1     -11.182  12.325  67.886  1.00  0.00    -0.274 C  
ATOM      7  N   MET A   1     -12.377  10.542  69.070  1.00  0.00    -0.762 NA 
ATOM      8  O   MET A   1     -11.994  11.835  66.913  1.00  0.00    -0.605 OA 
ATOM      9  OXT MET A   1     -10.554  13.365  67.784  1.00  0.00    -0.239 OA 
ATOM     10  H1  MET A   1     -13.191  11.156  69.104  1.00  0.00     0.000 HD 
ATOM     11  H2  MET A   1     -12.387   9.837  69.806  1.00  0.00     0.000 HD 
ENDBRANCH   4   5
ENDBRANCH   3   4
ENDBRANCH   2   3
TORSDOF 3
ENDMDL
MODEL      103
REMARK 921   NORMALIZED FREE ENERGY PREDICTED BY IDOCK:   -2.37 KCAL/MOL
REMARK 922        TOTAL FREE ENERGY PREDICTED BY IDOCK:   -2.90 KCAL/MOL
REMARK 923 INTER-LIGAND FREE ENERGY PREDICTED BY IDOCK:   -2.73 KCAL/MOL
REMARK 924 INTRA-LIGAND FREE ENERGY PREDICTED BY IDOCK:   -0.17 KCAL/MOL
REMARK 927      BINDING AFFINITY PREDICTED BY RF-SCORE:    0.00 PKD
ROOT
ATOM      1  CE  MET A   1      -9.810  13.941  68.256  1.00  0.00    -0.231 C  
ATOM      2  SD  MET A   1     -11.474  13.300  68.547  1.00  0.00    -0.337 SA 
ENDROOT
BRANCH   2   3
ATOM      3  CG  MET A   1     -11.469  11.915  67.357  1.00  0.00    -0.323 C  
BRANCH   3   4
ATOM      4  CB  MET A   1     -11.463  10.607  68.153  1.00  0.00    -0.303 C  
BRANCH   4   5
ATOM      5  CA  MET A   1     -11.215  10.788  69.653  1.00  0.00    -0.291 C  
ATOM      6  C   MET A   1     -12.258  10.028  70.487  1.00  0.00    -0.222 C  
ATOM      7  N   MET A   1      -9.868  10.228  69.985  1.00  0.00    -0.420 NA 
ATOM      8  O   MET A   1     -11.785   8.817  70.881  1.00  0.00    -0.282 OA 
ATOM      9  OXT MET A   1     -13.378  10.435  70.747  1.00  0.00    -0.322 OA 
ATOM     10  H1  MET A   1      -9.702  10.349  70.984  1.00  0.00     0.000 HD 
ATOM     11  H2  MET A   1      -9.126  10.632  69.414  1.00  0.00     0.000 HD 
ENDBRANCH   4   5
ENDBRANCH   3   4
ENDBRANCH   2   3
TORSDOF 3
ENDMDL
MODEL      104
REMARK 921   NORMALIZED FREE ENERGY PREDICTED BY IDOCK:   -2.36 KCAL/MOL
REMARK 922        TOTAL FREE ENERGY PREDICTED BY IDOCK:   -2.89 KCAL/MOL
REMARK 923 INTER-LIGAND FREE ENERGY PREDICTED BY IDOCK:   -3.04 KCAL/MOL
REMARK 924 INTRA-LIGAND FREE ENERGY PREDICTED BY IDOCK:    0.15 KCAL/MOL
REMARK 927      BINDING AFFINITY PREDICTED BY RF-SCORE:    0.00 PKD
ROOT
ATOM      1  CE  MET A   1      -9.632   8.718  66.264  1.00  0.00    -0.259 C  
ATOM      2  SD  MET A   1      -9.842   9.766  67.720  1.00  0.00    -0.167 SA 
ENDROOT
BRANCH   2   3
ATOM      3  CG  MET A   1     -11.357  10.659  67.226  1.00  0.00    -0.040 C  
BRANCH   3   4
ATOM      4  CB  MET A   1     -11.128  12.152  67.474  1.00  0.00    -0.328 C  
BRANCH   4   5
ATOM      5  CA  MET A   1     -11.176  13.012  66.207  1.00  0.00    -0.301 C  
ATOM      6  C   MET A   1     -11.815  12.246  65.038  1.00  0.00    -0.357 C  
ATOM      7  N   MET A   1     -12.020  14.217  66.481  1.00  0.00    -0.425 NA 
ATOM      8  O   MET A   1     -13.132  12.554  64.910  1.00  0.00    -0.833 OA 
ATOM      9  OXT MET A   1     -11.234  11.446  64.326  1.00  0.00    -0.325 OA 
ATOM     10  H1  MET A   1     -12.052  14.790  65.638  1.00  0.00     0.000 HD 
ATOM     11  H2  MET A   1     -11.701  14.740  67.297  1.00  0.00     0.000 HD 
ENDBRANCH   4   5
ENDBRANCH   3   4
ENDBRANCH   2   3
TORSDOF 3
ENDMDL
MODEL      105
REMARK 921   NORMALIZED FREE ENERGY PREDICTED BY IDOCK:   -2.36 KCAL/MOL
REMARK 922        TOTAL FREE ENERGY PREDICTED BY IDOCK:   -2.89 KCAL/MOL
REMARK 923 INTER-LIGAND FREE ENERGY PREDICTED BY IDOCK:   -2.85 KCAL/MOL
REMARK 924 INTRA-LIGAND FREE ENERGY PREDICTED BY IDOCK:   -0.04 KCAL/MOL
REMARK 927      BINDING AFFINITY PREDICTED BY RF-SCORE:    0.00 PKD
ROOT
ATOM      1  CE  MET A   1     -10.046  16.021  66.214  1.00  0.00    -0.313 C  
ATOM      2  SD  MET A   1     -11.090  15.594  67.625  1.00  0.00    -0.269 SA 
ENDROOT
BRANCH   2   3
ATOM      3  CG  MET A   1     -10.400  16.747  68.863  1.00  0.00    -0.317 C  
BRANCH   3   4
ATOM      4  CB  MET A   1      -9.189  17.444  68.237  1.00  0.00    -0.271 C  
BRANCH   4   5
ATOM      5  CA  MET A   1      -9.366  18.953  68.043  1.00  0.00    -0.308 C  
ATOM      6  C   MET A   1      -8.330  19.513  67.056  1.00  0.00    -0.287 C  
ATOM      7  N   MET A   1     -10.726  19.204  67.471  1.00  0.00    -0.473 NA 
ATOM      8  O   MET A   1      -8.850  19.616  65.804  1.00  0.00    -0.393 OA 
ATOM      9  OXT MET A   1      -7.182  19.808  67.339  1.00  0.00    -0.216 OA 
ATOM     10  H1  MET A   1     -10.844  20.208  67.342  1.00  0.00     0.000 HD 
ATOM     11  H2  MET A   1     -11.469  18.792  68.036  1.00  0.00     0.000 HD 
ENDBRANCH   4   5
ENDBRANCH   3   4
ENDBRANCH   2   3
TORSDOF 3
ENDMDL
MODEL      106
REMARK 921   NORMALIZED FREE ENERGY PREDICTED BY IDOCK:   -2.36 KCAL/MOL
REMARK 922        TOTAL FREE ENERGY PREDICTED BY IDOCK:   -2.88 KCAL/MOL
REMARK 923 INTER-LIGAND FREE ENERGY PREDICTED BY IDOCK:   -2.74 KCAL/MOL
REMARK 924 INTRA-LIGAND FREE ENERGY PREDICTED BY IDOCK:   -0.14 KCAL/MOL
REMARK 927      BINDING AFFINITY PREDICTED BY RF-SCORE:    0.00 PKD
ROOT
ATOM      1  CE  MET A   1      -8.038  15.297  69.191  1.00  0.00    -0.228 C  
ATOM      2  SD  MET A   1      -8.032  13.830  68.136  1.00  0.00    -0.163 SA 
ENDROOT
BRANCH   2   3
ATOM      3  CG  MET A   1      -9.669  14.027  67.348  1.00  0.00    -0.233 C  
BRANCH   3   4
ATOM      4  CB  MET A   1     -10.650  13.089  68.056  1.00  0.00    -0.246 C  
BRANCH   4   5
ATOM      5  CA  MET A   1     -12.015  13.717  68.350  1.00  0.00    -0.360 C  
ATOM      6  C   MET A   1     -11.972  14.572  69.626  1.00  0.00    -0.328 C  
ATOM      7  N   MET A   1     -12.383  14.614  67.210  1.00  0.00    -0.502 NA 
ATOM      8  O   MET A   1     -11.790  15.886  69.332  1.00  0.00    -0.362 OA 
ATOM      9  OXT MET A   1     -12.063  14.138  70.762  1.00  0.00    -0.322 OA 
ATOM     10  H1  MET A   1     -13.292  15.032  67.407  1.00  0.00     0.000 HD 
ATOM     11  H2  MET A   1     -12.359  14.133  66.312  1.00  0.00     0.000 HD 
ENDBRANCH   4   5
ENDBRANCH   3   4
ENDBRANCH   2   3
TORSDOF 3
ENDMDL
MODEL      107
REMARK 921   NORMALIZED FREE ENERGY PREDICTED BY IDOCK:   -2.35 KCAL/MOL
REMARK 922        TOTAL FREE ENERGY PREDICTED BY IDOCK:   -2.87 KCAL/MOL
REMARK 923 INTER-LIGAND FREE ENERGY PREDICTED BY IDOCK:   -2.95 KCAL/MOL
REMARK 924 INTRA-LIGAND FREE ENERGY PREDICTED BY IDOCK:    0.07 KCAL/MOL
REMARK 927      BINDING AFFINITY PREDICTED BY RF-SCORE:    0.00 PKD
ROOT
ATOM      1  CE  MET A   1     -12.913  10.708  71.639  1.00  0.00    -0.477 C  
ATOM      2  SD  MET A   1     -11.992  10.559  70.092  1.00  0.00    -0.316 SA 
ENDROOT
BRANCH   2   3
ATOM      3  CG  MET A   1     -10.742   9.332  70.609  1.00  0.00    -0.269 C  
BRANCH   3   4
ATOM      4  CB  MET A   1     -11.162   8.774  71.972  1.00  0.00    -0.443 C  
BRANCH   4   5
ATOM      5  CA  MET A   1     -10.266   7.645  72.490  1.00  0.00    -0.243 C  
ATOM      6  C   MET A   1      -8.805   8.104  72.613  1.00  0.00    -0.219 C  
ATOM      7  N   MET A   1     -10.738   7.250  73.854  1.00  0.00    -0.556 NA 
ATOM      8  O   MET A   1      -8.514   8.485  73.884  1.00  0.00    -0.320 OA 
ATOM      9  OXT MET A   1      -8.007   8.150  71.692  1.00  0.00    -0.102 OA 
ATOM     10  H1  MET A   1     -10.142   6.498  74.199  1.00  0.00     0.000 HD 
ATOM     11  H2  MET A   1     -11.727   7.003  73.869  1.00  0.00     0.000 HD 
ENDBRANCH   4   5
ENDBRANCH   3   4
ENDBRANCH   2   3
TORSDOF 3
ENDMDL
MODEL      108
REMARK 921   NORMALIZED FREE ENERGY PREDICTED BY IDOCK:   -2.35 KCAL/MOL
REMARK 922        TOTAL FREE ENERGY PREDICTED BY IDOCK:   -2.87 KCAL/MOL
REMARK 923 INTER-LIGAND FREE ENERGY PREDICTED BY IDOCK:   -2.80 KCAL/MOL
REMARK 924 INTRA-LIGAND FREE ENERGY PREDICTED BY IDOCK:   -0.07 KCAL/MOL
REMARK 927      BINDING AFFINITY PREDICTED BY RF-SCORE:    0.00 PKD
ROOT
ATOM      1  CE  MET A   1     -12.069  11.135  69.362  1.00  0.00    -0.326 C  
ATOM      2  SD  MET A   1     -10.662  10.709  68.313  1.00  0.00    -0.240 SA 
ENDROOT
BRANCH   2   3
ATOM      3  CG  MET A   1      -9.977  12.381  68.044  1.00  0.00    -0.207 C  
BRANCH   3   4
ATOM      4  CB  MET A   1      -9.550  12.487  66.578  1.00  0.00    -0.242 C  
BRANCH   4   5
ATOM      5  CA  MET A   1     -10.253  13.604  65.799  1.00  0.00    -0.308 C  
ATOM      6  C   MET A   1     -11.768  13.363  65.726  1.00  0.00    -0.349 C  
ATOM      7  N   MET A   1     -10.029  14.898  66.516  1.00  0.00    -0.255 NA 
ATOM      8  O   MET A   1     -12.424  14.061  66.691  1.00  0.00    -0.420 OA 
ATOM      9  OXT MET A   1     -12.322  12.625  64.929  1.00  0.00    -0.457 OA 
ATOM     10  H1  MET A   1     -10.497  15.642  65.998  1.00  0.00     0.000 HD 
ATOM     11  H2  MET A   1      -9.040  15.093  66.671  1.00  0.00     0.000 HD 
ENDBRANCH   4   5
ENDBRANCH   3   4
ENDBRANCH   2   3
TORSDOF 3
ENDMDL
MODEL      109
REMARK 921   NORMALIZED FREE ENERGY PREDICTED BY IDOCK:   -2.35 KCAL/MOL
REMARK 922        TOTAL FREE ENERGY PREDICTED BY IDOCK:   -2.87 KCAL/MOL
REMARK 923 INTER-LIGAND FREE ENERGY PREDICTED BY IDOCK:   -2.78 KCAL/MOL
REMARK 924 INTRA-LIGAND FREE ENERGY PREDICTED BY IDOCK:   -0.09 KCAL/MOL
REMARK 927      BINDING AFFINITY PREDICTED BY RF-SCORE:    0.00 PKD
ROOT
ATOM      1  CE  MET A   1     -12.410  12.458  63.920  1.00  0.00    -0.508 C  
ATOM      2  SD  MET A   1     -10.616  12.662  63.965  1.00  0.00    -0.424 SA 
ENDROOT
BRANCH   2   3
ATOM      3  CG  MET A   1     -10.367  12.693  65.774  1.00  0.00    -0.279 C  
BRANCH   3   4
ATOM      4  CB  MET A   1     -10.889  11.371  66.345  1.00  0.00    -0.323 C  
BRANCH   4   5
ATOM      5  CA  MET A   1      -9.796  10.333  66.620  1.00  0.00    -0.204 C  
ATOM      6  C   MET A   1     -10.063   9.578  67.931  1.00  0.00    -0.191 C  
ATOM      7  N   MET A   1      -9.798   9.334  65.507  1.00  0.00    -0.452 NA 
ATOM      8  O   MET A   1     -10.683   8.391  67.697  1.00  0.00    -0.218 OA 
ATOM      9  OXT MET A   1      -9.783   9.988  69.045  1.00  0.00    -0.179 OA 
ATOM     10  H1  MET A   1      -9.070   8.642  65.690  1.00  0.00     0.000 HD 
ATOM     11  H2  MET A   1      -9.701   9.770  64.590  1.00  0.00     0.000 HD 
ENDBRANCH   4   5
ENDBRANCH   3   4
ENDBRANCH   2   3
TORSDOF 3
ENDMDL
MODEL      110
REMARK 921   NORMALIZED FREE ENERGY PREDICTED BY IDOCK:   -2.34 KCAL/MOL
REMARK 922        TOTAL FREE ENERGY PREDICTED BY IDOCK:   -2.86 KCAL/MOL
REMARK 923 INTER-LIGAND FREE ENERGY PREDICTED BY IDOCK:   -2.70 KCAL/MOL
REMARK 924 INTRA-LIGAND FREE ENERGY PREDICTED BY IDOCK:   -0.15 KCAL/MOL
REMARK 927      BINDING AFFINITY PREDICTED BY RF-SCORE:    0.00 PKD
ROOT
ATOM      1  CE  MET A   1     -10.606  16.799  65.577  1.00  0.00    -0.230 C  
ATOM      2  SD  MET A   1     -10.368  15.221  66.426  1.00  0.00    -0.302 SA 
ENDROOT
BRANCH   2   3
ATOM      3  CG  MET A   1     -11.915  14.385  65.932  1.00  0.00    -0.359 C  
BRANCH   3   4
ATOM      4  CB  MET A   1     -11.863  12.947  66.456  1.00  0.00    -0.473 C  
BRANCH   4   5
ATOM      5  CA  MET A   1     -11.021  12.773  67.724  1.00  0.00    -0.237 C  
ATOM      6  C   MET A   1     -11.896  12.831  68.986  1.00  0.00    -0.297 C  
ATOM      7  N   MET A   1     -10.368  11.427  67.681  1.00  0.00    -0.179 NA 
ATOM      8  O   MET A   1     -12.221  11.584  69.417  1.00  0.00    -0.289 OA 
ATOM      9  OXT MET A   1     -12.276  13.856  69.526  1.00  0.00    -0.336 OA 
ATOM     10  H1  MET A   1      -9.808  11.311  68.525  1.00  0.00     0.000 HD 
ATOM     11  H2  MET A   1      -9.827  11.282  66.829  1.00  0.00     0.000 HD 
ENDBRANCH   4   5
ENDBRANCH   3   4
ENDBRANCH   2   3
TORSDOF 3
ENDMDL
MODEL      111
REMARK 921   NORMALIZED FREE ENERGY PREDICTED BY IDOCK:   -2.33 KCAL/MOL
REMARK 922        TOTAL FREE ENERGY PREDICTED BY IDOCK:   -2.85 KCAL/MOL
REMARK 923 INTER-LIGAND FREE ENERGY PREDICTED BY IDOCK:   -2.73 KCAL/MOL
REMARK 924 INTRA-LIGAND FREE ENERGY PREDICTED BY IDOCK:   -0.12 KCAL/MOL
REMARK 927      BINDING AFFINITY PREDICTED BY RF-SCORE:    0.00 PKD
ROOT
ATOM      1  CE  MET A   1     -10.611  16.518  65.797  1.00  0.00    -0.296 C  
ATOM      2  SD  MET A   1      -9.972  15.380  67.046  1.00  0.00    -0.242 SA 
ENDROOT
BRANCH   2   3
ATOM      3  CG  MET A   1      -8.799  16.497  67.891  1.00  0.00    -0.193 C  
BRANCH   3   4
ATOM      4  CB  MET A   1      -8.451  17.634  66.926  1.00  0.00    -0.261 C  
BRANCH   4   5
ATOM      5  CA  MET A   1      -8.182  18.977  67.612  1.00  0.00    -0.275 C  
ATOM      6  C   MET A   1      -9.493  19.671  68.013  1.00  0.00    -0.354 C  
ATOM      7  N   MET A   1      -7.396  18.725  68.860  1.00  0.00    -0.307 NA 
ATOM      8  O   MET A   1      -9.797  19.432  69.315  1.00  0.00    -0.394 OA 
ATOM      9  OXT MET A   1     -10.192  20.332  67.264  1.00  0.00    -0.412 OA 
ATOM     10  H1  MET A   1      -7.217  19.619  69.317  1.00  0.00     0.000 HD 
ATOM     11  H2  MET A   1      -6.542  18.197  68.684  1.00  0.00     0.000 HD 
ENDBRANCH   4   5
ENDBRANCH   3   4
ENDBRANCH   2   3
TORSDOF 3
ENDMDL
MODEL      112
REMARK 921   NORMALIZED FREE ENERGY PREDICTED BY IDOCK:   -2.33 KCAL/MOL
REMARK 922        TOTAL FREE ENERGY PREDICTED BY IDOCK:   -2.85 KCAL/MOL
REMARK 923 INTER-LIGAND FREE ENERGY PREDICTED BY IDOCK:   -2.79 KCAL/MOL
REMARK 924 INTRA-LIGAND FREE ENERGY PREDICTED BY IDOCK:   -0.06 KCAL/MOL
REMARK 927      BINDING AFFINITY PREDICTED BY RF-SCORE:    0.00 PKD
ROOT
ATOM      1  CE  MET A   1     -10.326   8.071  67.323  1.00  0.00    -0.301 C  
ATOM      2  SD  MET A   1      -9.649   9.065  65.975  1.00  0.00    -0.255 SA 
ENDROOT
BRANCH   2   3
ATOM      3  CG  MET A   1     -10.444  10.664  66.359  1.00  0.00    -0.213 C  
BRANCH   3   4
ATOM      4  CB  MET A   1      -9.860  11.721  65.418  1.00  0.00    -0.261 C  
BRANCH   4   5
ATOM      5  CA  MET A   1     -10.571  13.076  65.479  1.00  0.00    -0.282 C  
ATOM      6  C   MET A   1     -10.052  13.926  66.649  1.00  0.00    -0.273 C  
ATOM      7  N   MET A   1     -10.290  13.820  64.212  1.00  0.00    -0.697 NA 
ATOM      8  O   MET A   1      -9.102  14.805  66.234  1.00  0.00    -0.269 OA 
ATOM      9  OXT MET A   1     -10.417  13.819  67.807  1.00  0.00    -0.235 OA 
ATOM     10  H1  MET A   1     -10.763  14.722  64.253  1.00  0.00     0.000 HD 
ATOM     11  H2  MET A   1     -10.539  13.284  63.381  1.00  0.00     0.000 HD 
ENDBRANCH   4   5
ENDBRANCH   3   4
ENDBRANCH   2   3
TORSDOF 3
ENDMDL
MODEL      113
REMARK 921   NORMALIZED FREE ENERGY PREDICTED BY IDOCK:   -2.32 KCAL/MOL
REMARK 922        TOTAL FREE ENERGY PREDICTED BY IDOCK:   -2.84 KCAL/MOL
REMARK 923 INTER-LIGAND FREE ENERGY PREDICTED BY IDOCK:   -2.76 KCAL/MOL
REMARK 924 INTRA-LIGAND FREE ENERGY PREDICTED BY IDOCK:   -0.07 KCAL/MOL
REMARK 927      BINDING AFFINITY PREDICTED BY RF-SCORE:    0.00 PKD
ROOT
ATOM      1  CE  MET A   1     -10.371  18.889  66.024  1.00  0.00    -0.429 C  
ATOM      2  SD  MET A   1      -9.775  17.954  67.451  1.00  0.00    -0.298 SA 
ENDROOT
BRANCH   2   3
ATOM      3  CG  MET A   1     -11.060  16.657  67.511  1.00  0.00    -0.055 C  
BRANCH   3   4
ATOM      4  CB  MET A   1     -10.599  15.580  68.497  1.00  0.00    -0.246 C  
BRANCH   4   5
ATOM      5  CA  MET A   1     -11.699  14.598  68.911  1.00  0.00    -0.309 C  
ATOM      6  C   MET A   1     -11.645  13.314  68.069  1.00  0.00    -0.336 C  
ATOM      7  N   MET A   1     -11.484  14.217  70.342  1.00  0.00    -0.491 NA 
ATOM      8  O   MET A   1     -10.967  12.329  68.716  1.00  0.00    -0.220 OA 
ATOM      9  OXT MET A   1     -12.121  13.187  66.954  1.00  0.00    -0.379 OA 
ATOM     10  H1  MET A   1     -12.216  13.562  70.617  1.00  0.00     0.000 HD 
ATOM     11  H2  MET A   1     -11.431  15.027  70.958  1.00  0.00     0.000 HD 
ENDBRANCH   4   5
ENDBRANCH   3   4
ENDBRANCH   2   3
TORSDOF 3
ENDMDL
MODEL      114
REMARK 921   NORMALIZED FREE ENERGY PREDICTED BY IDOCK:   -2.31 KCAL/MOL
REMARK 922        TOTAL FREE ENERGY PREDICTED BY IDOCK:   -2.83 KCAL/MOL
REMARK 923 INTER-LIGAND FREE ENERGY PREDICTED BY IDOCK:   -2.72 KCAL/MOL
REMARK 924 INTRA-LIGAND FREE ENERGY PREDICTED BY IDOCK:   -0.11 KCAL/MOL
REMARK 927      BINDING AFFINITY PREDICTED BY RF-SCORE:    0.00 PKD
ROOT
ATOM      1  CE  MET A   1      -6.572  14.670  70.065  1.00  0.00    -0.161 C  
ATOM      2  SD  MET A   1      -7.912  15.092  68.929  1.00  0.00    -0.192 SA 
ENDROOT
BRANCH   2   3
ATOM      3  CG  MET A   1      -7.492  16.842  68.614  1.00  0.00    -0.219 C  
BRANCH   3   4
ATOM      4  CB  MET A   1      -8.046  17.221  67.238  1.00  0.00    -0.210 C  
BRANCH   4   5
ATOM      5  CA  MET A   1      -9.568  17.091  67.118  1.00  0.00    -0.253 C  
ATOM      6  C   MET A   1     -10.261  18.446  67.326  1.00  0.00    -0.374 C  
ATOM      7  N   MET A   1      -9.898  16.614  65.739  1.00  0.00    -0.536 NA 
ATOM      8  O   MET A   1     -10.540  19.043  66.137  1.00  0.00    -0.439 OA 
ATOM      9  OXT MET A   1     -10.512  18.945  68.409  1.00  0.00    -0.336 OA 
ATOM     10  H1  MET A   1     -10.911  16.527  65.659  1.00  0.00     0.000 HD 
ATOM     11  H2  MET A   1      -9.411  15.751  65.497  1.00  0.00     0.000 HD 
ENDBRANCH   4   5
ENDBRANCH   3   4
ENDBRANCH   2   3
TORSDOF 3
ENDMDL
MODEL      115
REMARK 921   NORMALIZED FREE ENERGY PREDICTED BY IDOCK:   -2.30 KCAL/MOL
REMARK 922        TOTAL FREE ENERGY PREDICTED BY IDOCK:   -2.81 KCAL/MOL
REMARK 923 INTER-LIGAND FREE ENERGY PREDICTED BY IDOCK:   -2.89 KCAL/MOL
REMARK 924 INTRA-LIGAND FREE ENERGY PREDICTED BY IDOCK:    0.08 KCAL/MOL
REMARK 927      BINDING AFFINITY PREDICTED BY RF-SCORE:    0.00 PKD
ROOT
ATOM      1  CE  MET A   1     -10.670   5.615  69.820  1.00  0.00    -0.331 C  
ATOM      2  SD  MET A   1      -9.301   4.804  70.674  1.00  0.00    -0.167 SA 
ENDROOT
BRANCH   2   3
ATOM      3  CG  MET A   1      -9.301   5.773  72.222  1.00  0.00    -0.144 C  
BRANCH   3   4
ATOM      4  CB  MET A   1     -10.745   6.184  72.522  1.00  0.00    -0.257 C  
BRANCH   4   5
ATOM      5  CA  MET A   1     -10.888   7.595  73.101  1.00  0.00    -0.382 C  
ATOM      6  C   MET A   1      -9.990   8.596  72.357  1.00  0.00    -0.249 C  
ATOM      7  N   MET A   1     -12.307   8.038  72.932  1.00  0.00    -0.638 NA 
ATOM      8  O   MET A   1     -10.687   9.264  71.401  1.00  0.00    -0.317 OA 
ATOM      9  OXT MET A   1      -8.801   8.761  72.569  1.00  0.00    -0.402 OA 
ATOM     10  H1  MET A   1     -12.402   8.978  73.317  1.00  0.00     0.000 HD 
ATOM     11  H2  MET A   1     -12.973   7.380  73.336  1.00  0.00     0.000 HD 
ENDBRANCH   4   5
ENDBRANCH   3   4
ENDBRANCH   2   3
TORSDOF 3
ENDMDL
MODEL      116
REMARK 921   NORMALIZED FREE ENERGY PREDICTED BY IDOCK:   -2.30 KCAL/MOL
REMARK 922        TOTAL FREE ENERGY PREDICTED BY IDOCK:   -2.81 KCAL/MOL
REMARK 923 INTER-LIGAND FREE ENERGY PREDICTED BY IDOCK:   -2.75 KCAL/MOL
REMARK 924 INTRA-LIGAND FREE ENERGY PREDICTED BY IDOCK:   -0.06 KCAL/MOL
REMARK 927      BINDING AFFINITY PREDICTED BY RF-SCORE:    0.00 PKD
ROOT
ATOM      1  CE  MET A   1      -6.796  16.245  69.324  1.00  0.00    -0.211 C  
ATOM      2  SD  MET A   1      -5.617  16.665  68.021  1.00  0.00    -0.128 SA 
ENDROOT
BRANCH   2   3
ATOM      3  CG  MET A   1      -6.256  18.315  67.565  1.00  0.00    -0.180 C  
BRANCH   3   4
ATOM      4  CB  MET A   1      -7.664  18.455  68.150  1.00  0.00    -0.304 C  
BRANCH   4   5
ATOM      5  CA  MET A   1      -8.710  18.957  67.151  1.00  0.00    -0.284 C  
ATOM      6  C   MET A   1     -10.127  18.872  67.738  1.00  0.00    -0.369 C  
ATOM      7  N   MET A   1      -8.426  20.394  66.845  1.00  0.00    -0.490 NA 
ATOM      8  O   MET A   1     -10.517  20.066  68.256  1.00  0.00    -0.406 OA 
ATOM      9  OXT MET A   1     -10.814  17.865  67.764  1.00  0.00    -0.374 OA 
ATOM     10  H1  MET A   1      -9.123  20.728  66.180  1.00  0.00     0.000 HD 
ATOM     11  H2  MET A   1      -7.471  20.543  66.520  1.00  0.00     0.000 HD 
ENDBRANCH   4   5
ENDBRANCH   3   4
ENDBRANCH   2   3
TORSDOF 3
ENDMDL
MODEL      117
REMARK 921   NORMALIZED FREE ENERGY PREDICTED BY IDOCK:   -2.29 KCAL/MOL
REMARK 922        TOTAL FREE ENERGY PREDICTED BY IDOCK:   -2.81 KCAL/MOL
REMARK 923 INTER-LIGAND FREE ENERGY PREDICTED BY IDOCK:   -2.73 KCAL/MOL
REMARK 924 INTRA-LIGAND FREE ENERGY PREDICTED BY IDOCK:   -0.07 KCAL/MOL
REMARK 927      BINDING AFFINITY PREDICTED BY RF-SCORE:    0.00 PKD
ROOT
ATOM      1  CE  MET A   1     -11.513  13.393  68.329  1.00  0.00    -0.315 C  
ATOM      2  SD  MET A   1      -9.863  13.665  67.644  1.00  0.00    -0.233 SA 
ENDROOT
BRANCH   2   3
ATOM      3  CG  MET A   1      -9.290  11.933  67.557  1.00  0.00    -0.177 C  
BRANCH   3   4
ATOM      4  CB  MET A   1      -8.986  11.609  66.091  1.00  0.00    -0.180 C  
BRANCH   4   5
ATOM      5  CA  MET A   1     -10.140  10.933  65.346  1.00  0.00    -0.277 C  
ATOM      6  C   MET A   1     -10.226  11.421  63.892  1.00  0.00    -0.363 C  
ATOM      7  N   MET A   1      -9.893   9.458  65.321  1.00  0.00    -0.438 NA 
ATOM      8  O   MET A   1      -9.601  10.559  63.047  1.00  0.00    -0.307 OA 
ATOM      9  OXT MET A   1     -10.760  12.456  63.531  1.00  0.00    -0.442 OA 
ATOM     10  H1  MET A   1     -10.662   9.008  64.825  1.00  0.00     0.000 HD 
ATOM     11  H2  MET A   1      -9.749   9.070  66.253  1.00  0.00     0.000 HD 
ENDBRANCH   4   5
ENDBRANCH   3   4
ENDBRANCH   2   3
TORSDOF 3
ENDMDL
MODEL      118
REMARK 921   NORMALIZED FREE ENERGY PREDICTED BY IDOCK:   -2.29 KCAL/MOL
REMARK 922        TOTAL FREE ENERGY PREDICTED BY IDOCK:   -2.81 KCAL/MOL
REMARK 923 INTER-LIGAND FREE ENERGY PREDICTED BY IDOCK:   -2.66 KCAL/MOL
REMARK 924 INTRA-LIGAND FREE ENERGY PREDICTED BY IDOCK:   -0.14 KCAL/MOL
REMARK 927      BINDING AFFINITY PREDICTED BY RF-SCORE:    0.00 PKD
ROOT
ATOM      1  CE  MET A   1      -7.506  18.326  68.477  1.00  0.00    -0.288 C  
ATOM      2  SD  MET A   1      -9.158  19.014  68.229  1.00  0.00    -0.340 SA 
ENDROOT
BRANCH   2   3
ATOM      3  CG  MET A   1     -10.099  17.460  68.036  1.00  0.00    -0.326 C  
BRANCH   3   4
ATOM      4  CB  MET A   1     -10.423  16.926  69.434  1.00  0.00    -0.283 C  
BRANCH   4   5
ATOM      5  CA  MET A   1     -10.281  15.407  69.572  1.00  0.00    -0.270 C  
ATOM      6  C   MET A   1     -11.635  14.703  69.398  1.00  0.00    -0.305 C  
ATOM      7  N   MET A   1      -9.365  14.914  68.497  1.00  0.00    -0.190 NA 
ATOM      8  O   MET A   1     -11.792  14.249  68.127  1.00  0.00    -0.327 OA 
ATOM      9  OXT MET A   1     -12.478  14.581  70.270  1.00  0.00    -0.333 OA 
ATOM     10  H1  MET A   1      -9.271  13.903  68.589  1.00  0.00     0.000 HD 
ATOM     11  H2  MET A   1      -8.465  15.393  68.499  1.00  0.00     0.000 HD 
ENDBRANCH   4   5
ENDBRANCH   3   4
ENDBRANCH   2   3
TORSDOF 3
ENDMDL
MODEL      119
REMARK 921   NORMALIZED FREE ENERGY PREDICTED BY IDOCK:   -2.29 KCAL/MOL
REMARK 922        TOTAL FREE ENERGY PREDICTED BY IDOCK:   -2.80 KCAL/MOL
REMARK 923 INTER-LIGAND FREE ENERGY PREDICTED BY IDOCK:   -2.65 KCAL/MOL
REMARK 924 INTRA-LIGAND FREE ENERGY PREDICTED BY IDOCK:   -0.15 KCAL/MOL
REMARK 927      BINDING AFFINITY PREDICTED BY RF-SCORE:    0.00 PKD
ROOT
ATOM      1  CE  MET A   1     -10.153   8.468  66.711  1.00  0.00    -0.299 C  
ATOM      2  SD  MET A   1      -9.861   9.743  65.464  1.00  0.00    -0.252 SA 
ENDROOT
BRANCH   2   3
ATOM      3  CG  MET A   1      -9.880  11.219  66.540  1.00  0.00    -0.208 C  
BRANCH   3   4
ATOM      4  CB  MET A   1     -11.126  11.142  67.426  1.00  0.00    -0.370 C  
BRANCH   4   5
ATOM      5  CA  MET A   1     -10.913  11.657  68.852  1.00  0.00    -0.233 C  
ATOM      6  C   MET A   1     -11.479  10.675  69.890  1.00  0.00    -0.317 C  
ATOM      7  N   MET A   1      -9.443  11.787  69.098  1.00  0.00    -0.377 NA 
ATOM      8  O   MET A   1     -10.505   9.864  70.380  1.00  0.00    -0.274 OA 
ATOM      9  OXT MET A   1     -12.650  10.604  70.221  1.00  0.00    -0.324 OA 
ATOM     10  H1  MET A   1      -9.301  12.129  70.048  1.00  0.00     0.000 HD 
ATOM     11  H2  MET A   1      -8.979  12.367  68.399  1.00  0.00     0.000 HD 
ENDBRANCH   4   5
ENDBRANCH   3   4
ENDBRANCH   2   3
TORSDOF 3
ENDMDL
MODEL      120
REMARK 921   NORMALIZED FREE ENERGY PREDICTED BY IDOCK:   -2.29 KCAL/MOL
REMARK 922        TOTAL FREE ENERGY PREDICTED BY IDOCK:   -2.80 KCAL/MOL
REMARK 923 INTER-LIGAND FREE ENERGY PREDICTED BY IDOCK:   -2.77 KCAL/MOL
REMARK 924 INTRA-LIGAND FREE ENERGY PREDICTED BY IDOCK:   -0.03 KCAL/MOL
REMARK 927      BINDING AFFINITY PREDICTED BY RF-SCORE:    0.00 PKD
ROOT
ATOM      1  CE  MET A   1     -11.378  16.082  70.236  1.00  0.00    -0.382 C  
ATOM      2  SD  MET A   1     -10.556  15.766  68.659  1.00  0.00    -0.264 SA 
ENDROOT
BRANCH   2   3
ATOM      3  CG  MET A   1     -10.865  17.368  67.838  1.00  0.00    -0.270 C  
BRANCH   3   4
ATOM      4  CB  MET A   1      -9.744  17.603  66.823  1.00  0.00    -0.300 C  
BRANCH   4   5
ATOM      5  CA  MET A   1      -8.430  18.089  67.442  1.00  0.00    -0.240 C  
ATOM      6  C   MET A   1      -7.712  19.084  66.518  1.00  0.00    -0.259 C  
ATOM      7  N   MET A   1      -8.740  18.796  68.724  1.00  0.00    -0.312 NA 
ATOM      8  O   MET A   1      -7.981  20.367  66.874  1.00  0.00    -0.309 OA 
ATOM      9  OXT MET A   1      -7.009  18.777  65.570  1.00  0.00    -0.433 OA 
ATOM     10  H1  MET A   1      -7.865  19.119  69.137  1.00  0.00     0.000 HD 
ATOM     11  H2  MET A   1      -9.286  18.221  69.365  1.00  0.00     0.000 HD 
ENDBRANCH   4   5
ENDBRANCH   3   4
ENDBRANCH   2   3
TORSDOF 3
ENDMDL
MODEL      121
REMARK 921   NORMALIZED FREE ENERGY PREDICTED BY IDOCK:   -2.28 KCAL/MOL
REMARK 922        TOTAL FREE ENERGY PREDICTED BY IDOCK:   -2.80 KCAL/MOL
REMARK 923 INTER-LIGAND FREE ENERGY PREDICTED BY IDOCK:   -2.72 KCAL/MOL
REMARK 924 INTRA-LIGAND FREE ENERGY PREDICTED BY IDOCK:   -0.07 KCAL/MOL
REMARK 927      BINDING AFFINITY PREDICTED BY RF-SCORE:    0.00 PKD
ROOT
ATOM      1  CE  MET A   1      -9.357   3.786  69.713  1.00  0.00    -0.175 C  
ATOM      2  SD  MET A   1      -8.427   4.750  70.926  1.00  0.00    -0.108 SA 
ENDROOT
BRANCH   2   3
ATOM      3  CG  MET A   1      -9.435   6.273  70.929  1.00  0.00    -0.172 C  
BRANCH   3   4
ATOM      4  CB  MET A   1     -10.801   5.935  71.533  1.00  0.00    -0.325 C  
BRANCH   4   5
ATOM      5  CA  MET A   1     -11.956   6.777  70.983  1.00  0.00    -0.379 C  
ATOM      6  C   MET A   1     -11.867   8.231  71.470  1.00  0.00    -0.293 C  
ATOM      7  N   MET A   1     -11.868   6.788  69.489  1.00  0.00    -0.633 NA 
ATOM      8  O   MET A   1     -11.270   9.025  70.542  1.00  0.00    -0.255 OA 
ATOM      9  OXT MET A   1     -12.254   8.631  72.554  1.00  0.00    -0.381 OA 
ATOM     10  H1  MET A   1     -12.636   7.348  69.122  1.00  0.00     0.000 HD 
ATOM     11  H2  MET A   1     -11.844   5.849  69.092  1.00  0.00     0.000 HD 
ENDBRANCH   4   5
ENDBRANCH   3   4
ENDBRANCH   2   3
TORSDOF 3
ENDMDL
MODEL      122
REMARK 921   NORMALIZED FREE ENERGY PREDICTED BY IDOCK:   -2.28 KCAL/MOL
REMARK 922        TOTAL FREE ENERGY PREDICTED BY IDOCK:   -2.79 KCAL/MOL
REMARK 923 INTER-LIGAND FREE ENERGY PREDICTED BY IDOCK:   -2.67 KCAL/MOL
REMARK 924 INTRA-LIGAND FREE ENERGY PREDICTED BY IDOCK:   -0.12 KCAL/MOL
REMARK 927      BINDING AFFINITY PREDICTED BY RF-SCORE:    0.00 PKD
ROOT
ATOM      1  CE  MET A   1     -10.802  10.655  67.100  1.00  0.00    -0.270 C  
ATOM      2  SD  MET A   1     -10.570  12.296  66.380  1.00  0.00    -0.249 SA 
ENDROOT
BRANCH   2   3
ATOM      3  CG  MET A   1     -11.373  13.303  67.675  1.00  0.00    -0.296 C  
BRANCH   3   4
ATOM      4  CB  MET A   1     -11.442  14.749  67.175  1.00  0.00    -0.375 C  
BRANCH   4   5
ATOM      5  CA  MET A   1     -10.355  15.662  67.749  1.00  0.00    -0.266 C  
ATOM      6  C   MET A   1      -9.213  15.870  66.742  1.00  0.00    -0.240 C  
ATOM      7  N   MET A   1     -10.959  16.999  68.039  1.00  0.00    -0.324 NA 
ATOM      8  O   MET A   1      -9.372  17.030  66.052  1.00  0.00    -0.449 OA 
ATOM      9  OXT MET A   1      -8.292  15.093  66.558  1.00  0.00    -0.203 OA 
ATOM     10  H1  MET A   1     -10.235  17.608  68.421  1.00  0.00     0.000 HD 
ATOM     11  H2  MET A   1     -11.777  16.936  68.646  1.00  0.00     0.000 HD 
ENDBRANCH   4   5
ENDBRANCH   3   4
ENDBRANCH   2   3
TORSDOF 3
ENDMDL
MODEL      123
REMARK 921   NORMALIZED FREE ENERGY PREDICTED BY IDOCK:   -2.28 KCAL/MOL
REMARK 922        TOTAL FREE ENERGY PREDICTED BY IDOCK:   -2.79 KCAL/MOL
REMARK 923 INTER-LIGAND FREE ENERGY PREDICTED BY IDOCK:   -2.71 KCAL/MOL
REMARK 924 INTRA-LIGAND FREE ENERGY PREDICTED BY IDOCK:   -0.08 KCAL/MOL
REMARK 927      BINDING AFFINITY PREDICTED BY RF-SCORE:    0.00 PKD
ROOT
ATOM      1  CE  MET A   1      -9.051   9.581  64.862  1.00  0.00    -0.223 C  
ATOM      2  SD  MET A   1     -10.250  10.890  64.526  1.00  0.00    -0.360 SA 
ENDROOT
BRANCH   2   3
ATOM      3  CG  MET A   1     -10.450  11.548  66.219  1.00  0.00    -0.251 C  
BRANCH   3   4
ATOM      4  CB  MET A   1     -10.079  13.033  66.195  1.00  0.00    -0.287 C  
BRANCH   4   5
ATOM      5  CA  MET A   1      -9.963  13.672  67.582  1.00  0.00    -0.239 C  
ATOM      6  C   MET A   1     -11.200  14.522  67.910  1.00  0.00    -0.295 C  
ATOM      7  N   MET A   1      -9.874  12.581  68.603  1.00  0.00    -0.397 NA 
ATOM      8  O   MET A   1     -12.093  13.824  68.659  1.00  0.00    -0.359 OA 
ATOM      9  OXT MET A   1     -11.381  15.667  67.532  1.00  0.00    -0.300 OA 
ATOM     10  H1  MET A   1      -9.797  13.006  69.527  1.00  0.00     0.000 HD 
ATOM     11  H2  MET A   1      -9.117  11.925  68.410  1.00  0.00     0.000 HD 
ENDBRANCH   4   5
ENDBRANCH   3   4
ENDBRANCH   2   3
TORSDOF 3
ENDMDL
MODEL      124
REMARK 921   NORMALIZED FREE ENERGY PREDICTED BY IDOCK:   -2.25 KCAL/MOL
REMARK 922        TOTAL FREE ENERGY PREDICTED BY IDOCK:   -2.75 KCAL/MOL
REMARK 923 INTER-LIGAND FREE ENERGY PREDICTED BY IDOCK:   -2.64 KCAL/MOL
REMARK 924 INTRA-LIGAND FREE ENERGY PREDICTED BY IDOCK:   -0.11 KCAL/MOL
REMARK 927      BINDING AFFINITY PREDICTED BY RF-SCORE:    0.00 PKD
ROOT
ATOM      1  CE  MET A   1     -12.735  10.367  71.493  1.00  0.00    -0.459 C  
ATOM      2  SD  MET A   1     -13.295   8.802  72.203  1.00  0.00    -0.436 SA 
ENDROOT
BRANCH   2   3
ATOM      3  CG  MET A   1     -11.857   7.757  71.784  1.00  0.00    -0.290 C  
BRANCH   3   4
ATOM      4  CB  MET A   1     -11.002   7.602  73.045  1.00  0.00    -0.457 C  
BRANCH   4   5
ATOM      5  CA  MET A   1      -9.508   7.854  72.823  1.00  0.00    -0.241 C  
ATOM      6  C   MET A   1      -8.840   6.662  72.120  1.00  0.00    -0.134 C  
ATOM      7  N   MET A   1      -9.352   9.052  71.940  1.00  0.00    -0.363 NA 
ATOM      8  O   MET A   1      -8.746   6.870  70.781  1.00  0.00    -0.143 OA 
ATOM      9  OXT MET A   1      -8.461   5.645  72.676  1.00  0.00    -0.120 OA 
ATOM     10  H1  MET A   1      -8.357   9.220  71.792  1.00  0.00     0.000 HD 
ATOM     11  H2  MET A   1      -9.837   9.872  72.305  1.00  0.00     0.000 HD 
ENDBRANCH   4   5
ENDBRANCH   3   4
ENDBRANCH   2   3
TORSDOF 3
ENDMDL
MODEL      125
REMARK 921   NORMALIZED FREE ENERGY PREDICTED BY IDOCK:   -2.24 KCAL/MOL
REMARK 922        TOTAL FREE ENERGY PREDICTED BY IDOCK:   -2.74 KCAL/MOL
REMARK 923 INTER-LIGAND FREE ENERGY PREDICTED BY IDOCK:   -2.75 KCAL/MOL
REMARK 924 INTRA-LIGAND FREE ENERGY PREDICTED BY IDOCK:    0.01 KCAL/MOL
REMARK 927      BINDING AFFINITY PREDICTED BY RF-SCORE:    0.00 PKD
ROOT
ATOM      1  CE  MET A   1      -8.200   7.378  74.509  1.00  0.00    -0.198 C  
ATOM      2  SD  MET A   1      -8.371   8.069  72.849  1.00  0.00    -0.187 SA 
ENDROOT
BRANCH   2   3
ATOM      3  CG  MET A   1      -9.800   7.092  72.267  1.00  0.00    -0.153 C  
BRANCH   3   4
ATOM      4  CB  MET A   1     -11.061   7.662  72.924  1.00  0.00    -0.448 C  
BRANCH   4   5
ATOM      5  CA  MET A   1     -12.076   8.240  71.934  1.00  0.00    -0.332 C  
ATOM      6  C   MET A   1     -12.734   7.131  71.099  1.00  0.00    -0.315 C  
ATOM      7  N   MET A   1     -13.154   8.933  72.707  1.00  0.00    -0.636 NA 
ATOM      8  O   MET A   1     -13.935   6.768  71.623  1.00  0.00    -0.226 OA 
ATOM      9  OXT MET A   1     -12.245   6.617  70.108  1.00  0.00    -0.253 OA 
ATOM     10  H1  MET A   1     -13.830   9.318  72.048  1.00  0.00     0.000 HD 
ATOM     11  H2  MET A   1     -12.786   9.637  73.346  1.00  0.00     0.000 HD 
ENDBRANCH   4   5
ENDBRANCH   3   4
ENDBRANCH   2   3
TORSDOF 3
ENDMDL
MODEL      126
REMARK 921   NORMALIZED FREE ENERGY PREDICTED BY IDOCK:   -2.23 KCAL/MOL
REMARK 922        TOTAL FREE ENERGY PREDICTED BY IDOCK:   -2.73 KCAL/MOL
REMARK 923 INTER-LIGAND FREE ENERGY PREDICTED BY IDOCK:   -2.62 KCAL/MOL
REMARK 924 INTRA-LIGAND FREE ENERGY PREDICTED BY IDOCK:   -0.11 KCAL/MOL
REMARK 927      BINDING AFFINITY PREDICTED BY RF-SCORE:    0.00 PKD
ROOT
ATOM      1  CE  MET A   1     -10.379  12.534  64.276  1.00  0.00    -0.370 C  
ATOM      2  SD  MET A   1     -10.630  13.768  65.571  1.00  0.00    -0.320 SA 
ENDROOT
BRANCH   2   3
ATOM      3  CG  MET A   1      -9.093  13.513  66.525  1.00  0.00    -0.113 C  
BRANCH   3   4
ATOM      4  CB  MET A   1      -8.812  14.792  67.319  1.00  0.00    -0.218 C  
BRANCH   4   5
ATOM      5  CA  MET A   1      -9.495  16.041  66.756  1.00  0.00    -0.231 C  
ATOM      6  C   MET A   1      -9.960  16.977  67.883  1.00  0.00    -0.281 C  
ATOM      7  N   MET A   1      -8.507  16.789  65.918  1.00  0.00    -0.476 NA 
ATOM      8  O   MET A   1      -9.054  17.965  68.106  1.00  0.00    -0.264 OA 
ATOM      9  OXT MET A   1     -10.992  16.848  68.519  1.00  0.00    -0.350 OA 
ATOM     10  H1  MET A   1      -8.962  17.621  65.543  1.00  0.00     0.000 HD 
ATOM     11  H2  MET A   1      -8.094  16.207  65.189  1.00  0.00     0.000 HD 
ENDBRANCH   4   5
ENDBRANCH   3   4
ENDBRANCH   2   3
TORSDOF 3
ENDMDL
MODEL      127
REMARK 921   NORMALIZED FREE ENERGY PREDICTED BY IDOCK:   -2.23 KCAL/MOL
REMARK 922        TOTAL FREE ENERGY PREDICTED BY IDOCK:   -2.73 KCAL/MOL
REMARK 923 INTER-LIGAND FREE ENERGY PREDICTED BY IDOCK:   -2.65 KCAL/MOL
REMARK 924 INTRA-LIGAND FREE ENERGY PREDICTED BY IDOCK:   -0.08 KCAL/MOL
REMARK 927      BINDING AFFINITY PREDICTED BY RF-SCORE:    0.00 PKD
ROOT
ATOM      1  CE  MET A   1     -11.840  13.106  68.394  1.00  0.00    -0.351 C  
ATOM      2  SD  MET A   1     -11.166  12.883  66.732  1.00  0.00    -0.313 SA 
ENDROOT
BRANCH   2   3
ATOM      3  CG  MET A   1      -9.759  14.044  66.827  1.00  0.00    -0.278 C  
BRANCH   3   4
ATOM      4  CB  MET A   1     -10.323  15.464  66.929  1.00  0.00    -0.277 C  
BRANCH   4   5
ATOM      5  CA  MET A   1      -9.402  16.454  67.647  1.00  0.00    -0.212 C  
ATOM      6  C   MET A   1     -10.197  17.628  68.237  1.00  0.00    -0.374 C  
ATOM      7  N   MET A   1      -8.728  15.743  68.779  1.00  0.00    -0.188 NA 
ATOM      8  O   MET A   1     -10.473  17.425  69.552  1.00  0.00    -0.248 OA 
ATOM      9  OXT MET A   1     -10.562  18.610  67.613  1.00  0.00    -0.407 OA 
ATOM     10  H1  MET A   1      -8.115  16.402  69.258  1.00  0.00     0.000 HD 
ATOM     11  H2  MET A   1      -8.238  14.901  68.475  1.00  0.00     0.000 HD 
ENDBRANCH   4   5
ENDBRANCH   3   4
ENDBRANCH   2   3
TORSDOF 3
ENDMDL
MODEL      128
REMARK 921   NORMALIZED FREE ENERGY PREDICTED BY IDOCK:   -2.22 KCAL/MOL
REMARK 922        TOTAL FREE ENERGY PREDICTED BY IDOCK:   -2.72 KCAL/MOL
REMARK 923 INTER-LIGAND FREE ENERGY PREDICTED BY IDOCK:   -2.60 KCAL/MOL
REMARK 924 INTRA-LIGAND FREE ENERGY PREDICTED BY IDOCK:   -0.12 KCAL/MOL
REMARK 927      BINDING AFFINITY PREDICTED BY RF-SCORE:    0.00 PKD
ROOT
ATOM      1  CE  MET A   1     -11.155   6.090  69.865  1.00  0.00    -0.399 C  
ATOM      2  SD  MET A   1      -9.575   5.925  69.006  1.00  0.00    -0.133 SA 
ENDROOT
BRANCH   2   3
ATOM      3  CG  MET A   1      -9.123   7.690  68.876  1.00  0.00    -0.140 C  
BRANCH   3   4
ATOM      4  CB  MET A   1     -10.390   8.520  69.099  1.00  0.00    -0.227 C  
BRANCH   4   5
ATOM      5  CA  MET A   1     -10.222   9.660  70.109  1.00  0.00    -0.264 C  
ATOM      6  C   MET A   1     -10.228   9.132  71.552  1.00  0.00    -0.333 C  
ATOM      7  N   MET A   1      -8.901  10.319  69.867  1.00  0.00    -0.379 NA 
ATOM      8  O   MET A   1      -8.963   8.963  72.018  1.00  0.00    -0.365 OA 
ATOM      9  OXT MET A   1     -11.229   8.871  72.197  1.00  0.00    -0.360 OA 
ATOM     10  H1  MET A   1      -8.789  11.078  70.539  1.00  0.00     0.000 HD 
ATOM     11  H2  MET A   1      -8.791  10.631  68.903  1.00  0.00     0.000 HD 
ENDBRANCH   4   5
ENDBRANCH   3   4
ENDBRANCH   2   3
TORSDOF 3
ENDMDL
MODEL      129
REMARK 921   NORMALIZED FREE ENERGY PREDICTED BY IDOCK:   -2.21 KCAL/MOL
REMARK 922        TOTAL FREE ENERGY PREDICTED BY IDOCK:   -2.71 KCAL/MOL
REMARK 923 INTER-LIGAND FREE ENERGY PREDICTED BY IDOCK:   -2.51 KCAL/MOL
REMARK 924 INTRA-LIGAND FREE ENERGY PREDICTED BY IDOCK:   -0.20 KCAL/MOL
REMARK 927      BINDING AFFINITY PREDICTED BY RF-SCORE:    0.00 PKD
ROOT
ATOM      1  CE  MET A   1      -8.934   6.092  69.489  1.00  0.00    -0.131 C  
ATOM      2  SD  MET A   1     -10.666   6.249  69.000  1.00  0.00    -0.336 SA 
ENDROOT
BRANCH   2   3
ATOM      3  CG  MET A   1     -11.006   7.922  69.651  1.00  0.00    -0.110 C  
BRANCH   3   4
ATOM      4  CB  MET A   1     -10.625   7.938  71.134  1.00  0.00    -0.238 C  
BRANCH   4   5
ATOM      5  CA  MET A   1     -11.598   7.177  72.039  1.00  0.00    -0.280 C  
ATOM      6  C   MET A   1     -10.855   6.188  72.950  1.00  0.00    -0.260 C  
ATOM      7  N   MET A   1     -12.305   8.163  72.915  1.00  0.00    -0.647 NA 
ATOM      8  O   MET A   1     -10.633   6.723  74.179  1.00  0.00    -0.312 OA 
ATOM      9  OXT MET A   1     -10.484   5.075  72.619  1.00  0.00    -0.193 OA 
ATOM     10  H1  MET A   1     -12.953   7.657  73.518  1.00  0.00     0.000 HD 
ATOM     11  H2  MET A   1     -12.763   8.902  72.381  1.00  0.00     0.000 HD 
ENDBRANCH   4   5
ENDBRANCH   3   4
ENDBRANCH   2   3
TORSDOF 3
ENDMDL
MODEL      130
REMARK 921   NORMALIZED FREE ENERGY PREDICTED BY IDOCK:   -2.20 KCAL/MOL
REMARK 922        TOTAL FREE ENERGY PREDICTED BY IDOCK:   -2.69 KCAL/MOL
REMARK 923 INTER-LIGAND FREE ENERGY PREDICTED BY IDOCK:   -2.58 KCAL/MOL
REMARK 924 INTRA-LIGAND FREE ENERGY PREDICTED BY IDOCK:   -0.11 KCAL/MOL
REMARK 927      BINDING AFFINITY PREDICTED BY RF-SCORE:    0.00 PKD
ROOT
ATOM      1  CE  MET A   1      -5.983  12.897  67.484  1.00  0.00    -0.128 C  
ATOM      2  SD  MET A   1      -7.724  12.923  67.964  1.00  0.00    -0.158 SA 
ENDROOT
BRANCH   2   3
ATOM      3  CG  MET A   1      -8.384  11.730  66.749  1.00  0.00    -0.165 C  
BRANCH   3   4
ATOM      4  CB  MET A   1      -9.684  12.304  66.180  1.00  0.00    -0.256 C  
BRANCH   4   5
ATOM      5  CA  MET A   1     -10.765  12.568  67.233  1.00  0.00    -0.233 C  
ATOM      6  C   MET A   1     -11.322  13.995  67.114  1.00  0.00    -0.331 C  
ATOM      7  N   MET A   1     -11.895  11.614  67.007  1.00  0.00    -0.575 NA 
ATOM      8  O   MET A   1     -12.474  14.014  66.393  1.00  0.00    -0.452 OA 
ATOM      9  OXT MET A   1     -10.798  14.992  67.579  1.00  0.00    -0.281 OA 
ATOM     10  H1  MET A   1     -12.615  11.790  67.708  1.00  0.00     0.000 HD 
ATOM     11  H2  MET A   1     -11.589  10.641  66.995  1.00  0.00     0.000 HD 
ENDBRANCH   4   5
ENDBRANCH   3   4
ENDBRANCH   2   3
TORSDOF 3
ENDMDL
MODEL      131
REMARK 921   NORMALIZED FREE ENERGY PREDICTED BY IDOCK:   -2.18 KCAL/MOL
REMARK 922        TOTAL FREE ENERGY PREDICTED BY IDOCK:   -2.67 KCAL/MOL
REMARK 923 INTER-LIGAND FREE ENERGY PREDICTED BY IDOCK:   -2.58 KCAL/MOL
REMARK 924 INTRA-LIGAND FREE ENERGY PREDICTED BY IDOCK:   -0.09 KCAL/MOL
REMARK 927      BINDING AFFINITY PREDICTED BY RF-SCORE:    0.00 PKD
ROOT
ATOM      1  CE  MET A   1      -8.555   8.083  66.805  1.00  0.00    -0.130 C  
ATOM      2  SD  MET A   1     -10.247   8.463  67.311  1.00  0.00    -0.305 SA 
ENDROOT
BRANCH   2   3
ATOM      3  CG  MET A   1      -9.892   9.506  68.768  1.00  0.00    -0.169 C  
BRANCH   3   4
ATOM      4  CB  MET A   1     -10.984   9.251  69.810  1.00  0.00    -0.213 C  
BRANCH   4   5
ATOM      5  CA  MET A   1     -10.841   7.919  70.553  1.00  0.00    -0.241 C  
ATOM      6  C   MET A   1     -10.693   8.138  72.067  1.00  0.00    -0.278 C  
ATOM      7  N   MET A   1     -12.081   7.111  70.327  1.00  0.00    -0.588 NA 
ATOM      8  O   MET A   1     -11.885   7.998  72.703  1.00  0.00    -0.377 OA 
ATOM      9  OXT MET A   1      -9.652   8.426  72.633  1.00  0.00    -0.277 OA 
ATOM     10  H1  MET A   1     -11.986   6.225  70.822  1.00  0.00     0.000 HD 
ATOM     11  H2  MET A   1     -12.290   6.986  69.337  1.00  0.00     0.000 HD 
ENDBRANCH   4   5
ENDBRANCH   3   4
ENDBRANCH   2   3
TORSDOF 3
ENDMDL
MODEL      132
REMARK 921   NORMALIZED FREE ENERGY PREDICTED BY IDOCK:   -2.17 KCAL/MOL
REMARK 922        TOTAL FREE ENERGY PREDICTED BY IDOCK:   -2.67 KCAL/MOL
REMARK 923 INTER-LIGAND FREE ENERGY PREDICTED BY IDOCK:   -2.56 KCAL/MOL
REMARK 924 INTRA-LIGAND FREE ENERGY PREDICTED BY IDOCK:   -0.10 KCAL/MOL
REMARK 927      BINDING AFFINITY PREDICTED BY RF-SCORE:    0.00 PKD
ROOT
ATOM      1  CE  MET A   1     -11.195  11.596  64.034  1.00  0.00    -0.369 C  
ATOM      2  SD  MET A   1     -12.226  12.852  64.823  1.00  0.00    -0.462 SA 
ENDROOT
BRANCH   2   3
ATOM      3  CG  MET A   1     -11.885  12.457  66.574  1.00  0.00    -0.339 C  
BRANCH   3   4
ATOM      4  CB  MET A   1     -10.868  13.474  67.099  1.00  0.00    -0.291 C  
BRANCH   4   5
ATOM      5  CA  MET A   1      -9.916  12.916  68.161  1.00  0.00    -0.234 C  
ATOM      6  C   MET A   1      -8.640  12.347  67.523  1.00  0.00    -0.177 C  
ATOM      7  N   MET A   1      -9.514  14.032  69.073  1.00  0.00    -0.403 NA 
ATOM      8  O   MET A   1      -7.628  13.253  67.554  1.00  0.00    -0.151 OA 
ATOM      9  OXT MET A   1      -8.541  11.237  67.027  1.00  0.00    -0.139 OA 
ATOM     10  H1  MET A   1      -8.880  13.661  69.781  1.00  0.00     0.000 HD 
ATOM     11  H2  MET A   1     -10.316  14.513  69.480  1.00  0.00     0.000 HD 
ENDBRANCH   4   5
ENDBRANCH   3   4
ENDBRANCH   2   3
TORSDOF 3
ENDMDL
MODEL      133
REMARK 921   NORMALIZED FREE ENERGY PREDICTED BY IDOCK:   -2.17 KCAL/MOL
REMARK 922        TOTAL FREE ENERGY PREDICTED BY IDOCK:   -2.66 KCAL/MOL
REMARK 923 INTER-LIGAND FREE ENERGY PREDICTED BY IDOCK:   -2.54 KCAL/MOL
REMARK 924 INTRA-LIGAND FREE ENERGY PREDICTED BY IDOCK:   -0.11 KCAL/MOL
REMARK 927      BINDING AFFINITY PREDICTED BY RF-SCORE:    0.00 PKD
ROOT
ATOM      1  CE  MET A   1     -10.015   9.808  65.972  1.00  0.00    -0.272 C  
ATOM      2  SD  MET A   1      -9.577  11.372  66.763  1.00  0.00    -0.191 SA 
ENDROOT
BRANCH   2   3
ATOM      3  CG  MET A   1     -11.245  11.933  67.253  1.00  0.00    -0.317 C  
BRANCH   3   4
ATOM      4  CB  MET A   1     -11.823  10.902  68.226  1.00  0.00    -0.157 C  
BRANCH   4   5
ATOM      5  CA  MET A   1     -11.272  11.007  69.651  1.00  0.00    -0.278 C  
ATOM      6  C   MET A   1     -12.134  11.941  70.514  1.00  0.00    -0.331 C  
ATOM      7  N   MET A   1     -11.302   9.647  70.275  1.00  0.00    -0.260 NA 
ATOM      8  O   MET A   1     -13.028  11.237  71.256  1.00  0.00    -0.381 OA 
ATOM      9  OXT MET A   1     -12.053  13.157  70.524  1.00  0.00    -0.357 OA 
ATOM     10  H1  MET A   1     -10.935   9.717  71.224  1.00  0.00     0.000 HD 
ATOM     11  H2  MET A   1     -10.812   8.950  69.716  1.00  0.00     0.000 HD 
ENDBRANCH   4   5
ENDBRANCH   3   4
ENDBRANCH   2   3
TORSDOF 3
ENDMDL
MODEL      134
REMARK 921   NORMALIZED FREE ENERGY PREDICTED BY IDOCK:   -2.15 KCAL/MOL
REMARK 922        TOTAL FREE ENERGY PREDICTED BY IDOCK:   -2.64 KCAL/MOL
REMARK 923 INTER-LIGAND FREE ENERGY PREDICTED BY IDOCK:   -2.50 KCAL/MOL
REMARK 924 INTRA-LIGAND FREE ENERGY PREDICTED BY IDOCK:   -0.13 KCAL/MOL
REMARK 927      BINDING AFFINITY PREDICTED BY RF-SCORE:    0.00 PKD
ROOT
ATOM      1  CE  MET A   1      -8.702   8.719  65.166  1.00  0.00    -0.167 C  
ATOM      2  SD  MET A   1      -8.556   8.772  66.966  1.00  0.00    -0.116 SA 
ENDROOT
BRANCH   2   3
ATOM      3  CG  MET A   1     -10.093   7.893  67.413  1.00  0.00    -0.226 C  
BRANCH   3   4
ATOM      4  CB  MET A   1     -10.638   8.518  68.700  1.00  0.00    -0.154 C  
BRANCH   4   5
ATOM      5  CA  MET A   1     -10.301  10.003  68.867  1.00  0.00    -0.202 C  
ATOM      6  C   MET A   1     -11.562  10.875  68.764  1.00  0.00    -0.309 C  
ATOM      7  N   MET A   1      -9.711  10.209  70.226  1.00  0.00    -0.387 NA 
ATOM      8  O   MET A   1     -12.051  11.178  69.995  1.00  0.00    -0.309 OA 
ATOM      9  OXT MET A   1     -12.081  11.235  67.721  1.00  0.00    -0.631 OA 
ATOM     10  H1  MET A   1      -9.487  11.197  70.337  1.00  0.00     0.000 HD 
ATOM     11  H2  MET A   1      -8.909   9.604  70.400  1.00  0.00     0.000 HD 
ENDBRANCH   4   5
ENDBRANCH   3   4
ENDBRANCH   2   3
TORSDOF 3
ENDMDL
MODEL      135
REMARK 921   NORMALIZED FREE ENERGY PREDICTED BY IDOCK:   -2.15 KCAL/MOL
REMARK 922        TOTAL FREE ENERGY PREDICTED BY IDOCK:   -2.63 KCAL/MOL
REMARK 923 INTER-LIGAND FREE ENERGY PREDICTED BY IDOCK:   -2.56 KCAL/MOL
REMARK 924 INTRA-LIGAND FREE ENERGY PREDICTED BY IDOCK:   -0.07 KCAL/MOL
REMARK 927      BINDING AFFINITY PREDICTED BY RF-SCORE:    0.00 PKD
ROOT
ATOM      1  CE  MET A   1     -13.037  13.431  71.822  1.00  0.00    -0.388 C  
ATOM      2  SD  MET A   1     -12.302  13.926  70.247  1.00  0.00    -0.326 SA 
ENDROOT
BRANCH   2   3
ATOM      3  CG  MET A   1     -12.081  12.277  69.494  1.00  0.00    -0.198 C  
BRANCH   3   4
ATOM      4  CB  MET A   1     -11.762  12.474  68.009  1.00  0.00    -0.410 C  
BRANCH   4   5
ATOM      5  CA  MET A   1     -10.494  11.756  67.540  1.00  0.00    -0.202 C  
ATOM      6  C   MET A   1      -9.879  12.452  66.316  1.00  0.00    -0.247 C  
ATOM      7  N   MET A   1      -9.485  11.798  68.645  1.00  0.00    -0.347 NA 
ATOM      8  O   MET A   1      -8.880  13.297  66.681  1.00  0.00    -0.173 OA 
ATOM      9  OXT MET A   1     -10.247  12.295  65.164  1.00  0.00    -0.271 OA 
ATOM     10  H1  MET A   1      -8.641  11.320  68.332  1.00  0.00     0.000 HD 
ATOM     11  H2  MET A   1      -9.848  11.420  69.519  1.00  0.00     0.000 HD 
ENDBRANCH   4   5
ENDBRANCH   3   4
ENDBRANCH   2   3
TORSDOF 3
ENDMDL
MODEL      136
REMARK 921   NORMALIZED FREE ENERGY PREDICTED BY IDOCK:   -2.14 KCAL/MOL
REMARK 922        TOTAL FREE ENERGY PREDICTED BY IDOCK:   -2.62 KCAL/MOL
REMARK 923 INTER-LIGAND FREE ENERGY PREDICTED BY IDOCK:   -2.53 KCAL/MOL
REMARK 924 INTRA-LIGAND FREE ENERGY PREDICTED BY IDOCK:   -0.09 KCAL/MOL
REMARK 927      BINDING AFFINITY PREDICTED BY RF-SCORE:    0.00 PKD
ROOT
ATOM      1  CE  MET A   1      -9.486  10.363  63.187  1.00  0.00    -0.327 C  
ATOM      2  SD  MET A   1     -10.649  11.421  64.078  1.00  0.00    -0.409 SA 
ENDROOT
BRANCH   2   3
ATOM      3  CG  MET A   1     -10.111  11.075  65.789  1.00  0.00    -0.252 C  
BRANCH   3   4
ATOM      4  CB  MET A   1      -9.831   9.574  65.902  1.00  0.00    -0.360 C  
BRANCH   4   5
ATOM      5  CA  MET A   1     -10.464   8.909  67.128  1.00  0.00    -0.274 C  
ATOM      6  C   MET A   1      -9.393   8.331  68.065  1.00  0.00    -0.132 C  
ATOM      7  N   MET A   1     -11.229   9.945  67.890  1.00  0.00    -0.509 NA 
ATOM      8  O   MET A   1      -9.109   9.192  69.077  1.00  0.00    -0.140 OA 
ATOM      9  OXT MET A   1      -8.841   7.254  67.917  1.00  0.00    -0.129 OA 
ATOM     10  H1  MET A   1     -11.651   9.502  68.706  1.00  0.00     0.000 HD 
ATOM     11  H2  MET A   1     -11.913  10.431  67.311  1.00  0.00     0.000 HD 
ENDBRANCH   4   5
ENDBRANCH   3   4
ENDBRANCH   2   3
TORSDOF 3
ENDMDL
MODEL      137
REMARK 921   NORMALIZED FREE ENERGY PREDICTED BY IDOCK:   -2.12 KCAL/MOL
REMARK 922        TOTAL FREE ENERGY PREDICTED BY IDOCK:   -2.60 KCAL/MOL
REMARK 923 INTER-LIGAND FREE ENERGY PREDICTED BY IDOCK:   -2.52 KCAL/MOL
REMARK 924 INTRA-LIGAND FREE ENERGY PREDICTED BY IDOCK:   -0.08 KCAL/MOL
REMARK 927      BINDING AFFINITY PREDICTED BY RF-SCORE:    0.00 PKD
ROOT
ATOM      1  CE  MET A   1     -10.162   9.158  71.427  1.00  0.00    -0.332 C  
ATOM      2  SD  MET A   1     -11.947   9.258  71.686  1.00  0.00    -0.395 SA 
ENDROOT
BRANCH   2   3
ATOM      3  CG  MET A   1     -12.310   7.485  71.933  1.00  0.00    -0.310 C  
BRANCH   3   4
ATOM      4  CB  MET A   1     -11.213   6.899  72.826  1.00  0.00    -0.277 C  
BRANCH   4   5
ATOM      5  CA  MET A   1     -11.201   5.368  72.880  1.00  0.00    -0.314 C  
ATOM      6  C   MET A   1     -10.046   4.790  72.049  1.00  0.00    -0.195 C  
ATOM      7  N   MET A   1     -11.001   4.943  74.301  1.00  0.00    -0.363 NA 
ATOM      8  O   MET A   1      -8.972   4.505  72.831  1.00  0.00    -0.117 OA 
ATOM      9  OXT MET A   1     -10.067   4.625  70.841  1.00  0.00    -0.216 OA 
ATOM     10  H1  MET A   1     -10.993   3.923  74.337  1.00  0.00     0.000 HD 
ATOM     11  H2  MET A   1     -11.690   5.351  74.932  1.00  0.00     0.000 HD 
ENDBRANCH   4   5
ENDBRANCH   3   4
ENDBRANCH   2   3
TORSDOF 3
ENDMDL
MODEL      138
REMARK 921   NORMALIZED FREE ENERGY PREDICTED BY IDOCK:   -2.12 KCAL/MOL
REMARK 922        TOTAL FREE ENERGY PREDICTED BY IDOCK:   -2.60 KCAL/MOL
REMARK 923 INTER-LIGAND FREE ENERGY PREDICTED BY IDOCK:   -2.53 KCAL/MOL
REMARK 924 INTRA-LIGAND FREE ENERGY PREDICTED BY IDOCK:   -0.07 KCAL/MOL
REMARK 927      BINDING AFFINITY PREDICTED BY RF-SCORE:    0.00 PKD
ROOT
ATOM      1  CE  MET A   1     -10.835  11.737  64.827  1.00  0.00    -0.302 C  
ATOM      2  SD  MET A   1     -11.783  13.094  65.553  1.00  0.00    -0.379 SA 
ENDROOT
BRANCH   2   3
ATOM      3  CG  MET A   1     -10.490  14.384  65.565  1.00  0.00    -0.350 C  
BRANCH   3   4
ATOM      4  CB  MET A   1     -10.900  15.454  66.580  1.00  0.00    -0.302 C  
BRANCH   4   5
ATOM      5  CA  MET A   1     -10.610  15.080  68.037  1.00  0.00    -0.250 C  
ATOM      6  C   MET A   1      -9.149  15.374  68.408  1.00  0.00    -0.191 C  
ATOM      7  N   MET A   1     -11.484  15.909  68.925  1.00  0.00    -0.371 NA 
ATOM      8  O   MET A   1      -9.032  16.577  69.030  1.00  0.00    -0.257 OA 
ATOM      9  OXT MET A   1      -8.203  14.645  68.160  1.00  0.00    -0.129 OA 
ATOM     10  H1  MET A   1     -11.291  15.660  69.895  1.00  0.00     0.000 HD 
ATOM     11  H2  MET A   1     -12.472  15.826  68.688  1.00  0.00     0.000 HD 
ENDBRANCH   4   5
ENDBRANCH   3   4
ENDBRANCH   2   3
TORSDOF 3
ENDMDL
MODEL      139
REMARK 921   NORMALIZED FREE ENERGY PREDICTED BY IDOCK:   -2.12 KCAL/MOL
REMARK 922        TOTAL FREE ENERGY PREDICTED BY IDOCK:   -2.60 KCAL/MOL
REMARK 923 INTER-LIGAND FREE ENERGY PREDICTED BY IDOCK:   -2.60 KCAL/MOL
REMARK 924 INTRA-LIGAND FREE ENERGY PREDICTED BY IDOCK:   -0.00 KCAL/MOL
REMARK 927      BINDING AFFINITY PREDICTED BY RF-SCORE:    0.00 PKD
ROOT
ATOM      1  CE  MET A   1      -6.574  16.133  69.368  1.00  0.00    -0.197 C  
ATOM      2  SD  MET A   1      -5.244  16.759  68.317  1.00  0.00    -0.118 SA 
ENDROOT
BRANCH   2   3
ATOM      3  CG  MET A   1      -5.767  18.504  68.187  1.00  0.00    -0.184 C  
BRANCH   3   4
ATOM      4  CB  MET A   1      -7.191  18.613  68.740  1.00  0.00    -0.330 C  
BRANCH   4   5
ATOM      5  CA  MET A   1      -8.112  19.525  67.923  1.00  0.00    -0.305 C  
ATOM      6  C   MET A   1      -8.311  18.984  66.499  1.00  0.00    -0.305 C  
ATOM      7  N   MET A   1      -9.451  19.569  68.589  1.00  0.00    -0.392 NA 
ATOM      8  O   MET A   1      -9.463  18.270  66.401  1.00  0.00    -0.305 OA 
ATOM      9  OXT MET A   1      -7.534  19.145  65.574  1.00  0.00    -0.462 OA 
ATOM     10  H1  MET A   1     -10.064  20.176  68.045  1.00  0.00     0.000 HD 
ATOM     11  H2  MET A   1      -9.392  19.848  69.568  1.00  0.00     0.000 HD 
ENDBRANCH   4   5
ENDBRANCH   3   4
ENDBRANCH   2   3
TORSDOF 3
ENDMDL
MODEL      140
REMARK 921   NORMALIZED FREE ENERGY PREDICTED BY IDOCK:   -2.11 KCAL/MOL
REMARK 922        TOTAL FREE ENERGY PREDICTED BY IDOCK:   -2.59 KCAL/MOL
REMARK 923 INTER-LIGAND FREE ENERGY PREDICTED BY IDOCK:   -2.51 KCAL/MOL
REMARK 924 INTRA-LIGAND FREE ENERGY PREDICTED BY IDOCK:   -0.07 KCAL/MOL
REMARK 927      BINDING AFFINITY PREDICTED BY RF-SCORE:    0.00 PKD
ROOT
ATOM      1  CE  MET A   1      -9.581   8.547  66.274  1.00  0.00    -0.236 C  
ATOM      2  SD  MET A   1      -9.571   9.446  67.841  1.00  0.00    -0.136 SA 
ENDROOT
BRANCH   2   3
ATOM      3  CG  MET A   1     -10.994  10.554  67.555  1.00  0.00    -0.303 C  
BRANCH   3   4
ATOM      4  CB  MET A   1     -10.520  11.996  67.763  1.00  0.00    -0.223 C  
BRANCH   4   5
ATOM      5  CA  MET A   1     -10.603  12.869  66.508  1.00  0.00    -0.259 C  
ATOM      6  C   MET A   1     -11.342  14.186  66.793  1.00  0.00    -0.343 C  
ATOM      7  N   MET A   1      -9.212  13.210  66.073  1.00  0.00    -0.467 NA 
ATOM      8  O   MET A   1     -10.468  15.195  67.048  1.00  0.00    -0.271 OA 
ATOM      9  OXT MET A   1     -12.554  14.317  66.815  1.00  0.00    -0.276 OA 
ATOM     10  H1  MET A   1      -9.267  13.792  65.237  1.00  0.00     0.000 HD 
ATOM     11  H2  MET A   1      -8.632  12.382  65.936  1.00  0.00     0.000 HD 
ENDBRANCH   4   5
ENDBRANCH   3   4
ENDBRANCH   2   3
TORSDOF 3
ENDMDL
MODEL      141
REMARK 921   NORMALIZED FREE ENERGY PREDICTED BY IDOCK:   -2.11 KCAL/MOL
REMARK 922        TOTAL FREE ENERGY PREDICTED BY IDOCK:   -2.59 KCAL/MOL
REMARK 923 INTER-LIGAND FREE ENERGY PREDICTED BY IDOCK:   -2.64 KCAL/MOL
REMARK 924 INTRA-LIGAND FREE ENERGY PREDICTED BY IDOCK:    0.06 KCAL/MOL
REMARK 927      BINDING AFFINITY PREDICTED BY RF-SCORE:    0.00 PKD
ROOT
ATOM      1  CE  MET A   1     -11.154  13.801  68.477  1.00  0.00    -0.267 C  
ATOM      2  SD  MET A   1     -11.593  15.481  67.979  1.00  0.00    -0.184 SA 
ENDROOT
BRANCH   2   3
ATOM      3  CG  MET A   1     -10.251  16.397  68.814  1.00  0.00    -0.258 C  
BRANCH   3   4
ATOM      4  CB  MET A   1      -9.062  16.473  67.852  1.00  0.00    -0.206 C  
BRANCH   4   5
ATOM      5  CA  MET A   1      -9.124  17.647  66.870  1.00  0.00    -0.253 C  
ATOM      6  C   MET A   1      -9.188  18.991  67.611  1.00  0.00    -0.294 C  
ATOM      7  N   MET A   1      -7.879  17.640  66.040  1.00  0.00    -0.511 NA 
ATOM      8  O   MET A   1      -7.956  19.557  67.710  1.00  0.00    -0.279 OA 
ATOM      9  OXT MET A   1     -10.200  19.486  68.077  1.00  0.00    -0.391 OA 
ATOM     10  H1  MET A   1      -7.921  18.421  65.386  1.00  0.00     0.000 HD 
ATOM     11  H2  MET A   1      -7.726  16.746  65.573  1.00  0.00     0.000 HD 
ENDBRANCH   4   5
ENDBRANCH   3   4
ENDBRANCH   2   3
TORSDOF 3
ENDMDL
MODEL      142
REMARK 921   NORMALIZED FREE ENERGY PREDICTED BY IDOCK:   -2.10 KCAL/MOL
REMARK 922        TOTAL FREE ENERGY PREDICTED BY IDOCK:   -2.58 KCAL/MOL
REMARK 923 INTER-LIGAND FREE ENERGY PREDICTED BY IDOCK:   -2.50 KCAL/MOL
REMARK 924 INTRA-LIGAND FREE ENERGY PREDICTED BY IDOCK:   -0.08 KCAL/MOL
REMARK 927      BINDING AFFINITY PREDICTED BY RF-SCORE:    0.00 PKD
ROOT
ATOM      1  CE  MET A   1      -9.863  10.584  67.305  1.00  0.00    -0.177 C  
ATOM      2  SD  MET A   1     -10.981  11.295  68.533  1.00  0.00    -0.242 SA 
ENDROOT
BRANCH   2   3
ATOM      3  CG  MET A   1     -11.777  12.576  67.503  1.00  0.00    -0.374 C  
BRANCH   3   4
ATOM      4  CB  MET A   1     -11.819  13.875  68.312  1.00  0.00    -0.412 C  
BRANCH   4   5
ATOM      5  CA  MET A   1     -11.489  15.130  67.499  1.00  0.00    -0.298 C  
ATOM      6  C   MET A   1     -10.121  15.706  67.894  1.00  0.00    -0.225 C  
ATOM      7  N   MET A   1     -11.429  14.758  66.051  1.00  0.00    -0.343 NA 
ATOM      8  O   MET A   1      -9.148  15.289  67.042  1.00  0.00    -0.201 OA 
ATOM      9  OXT MET A   1      -9.916  16.425  68.857  1.00  0.00    -0.233 OA 
ATOM     10  H1  MET A   1     -11.209  15.594  65.509  1.00  0.00     0.000 HD 
ATOM     11  H2  MET A   1     -12.280  14.297  65.730  1.00  0.00     0.000 HD 
ENDBRANCH   4   5
ENDBRANCH   3   4
ENDBRANCH   2   3
TORSDOF 3
ENDMDL
MODEL      143
REMARK 921   NORMALIZED FREE ENERGY PREDICTED BY IDOCK:   -2.10 KCAL/MOL
REMARK 922        TOTAL FREE ENERGY PREDICTED BY IDOCK:   -2.57 KCAL/MOL
REMARK 923 INTER-LIGAND FREE ENERGY PREDICTED BY IDOCK:   -2.49 KCAL/MOL
REMARK 924 INTRA-LIGAND FREE ENERGY PREDICTED BY IDOCK:   -0.09 KCAL/MOL
REMARK 927      BINDING AFFINITY PREDICTED BY RF-SCORE:    0.00 PKD
ROOT
ATOM      1  CE  MET A   1      -9.232  18.534  67.837  1.00  0.00    -0.290 C  
ATOM      2  SD  MET A   1      -9.957  17.259  68.892  1.00  0.00    -0.286 SA 
ENDROOT
BRANCH   2   3
ATOM      3  CG  MET A   1      -9.496  15.779  67.925  1.00  0.00    -0.212 C  
BRANCH   3   4
ATOM      4  CB  MET A   1     -10.766  14.961  67.678  1.00  0.00    -0.270 C  
BRANCH   4   5
ATOM      5  CA  MET A   1     -10.585  13.451  67.866  1.00  0.00    -0.245 C  
ATOM      6  C   MET A   1     -10.688  12.707  66.526  1.00  0.00    -0.250 C  
ATOM      7  N   MET A   1      -9.221  13.201  68.426  1.00  0.00    -0.314 NA 
ATOM      8  O   MET A   1      -9.458  12.464  66.003  1.00  0.00    -0.232 OA 
ATOM      9  OXT MET A   1     -11.731  12.390  65.979  1.00  0.00    -0.389 OA 
ATOM     10  H1  MET A   1      -9.100  12.196  68.551  1.00  0.00     0.000 HD 
ATOM     11  H2  MET A   1      -9.048  13.725  69.283  1.00  0.00     0.000 HD 
ENDBRANCH   4   5
ENDBRANCH   3   4
ENDBRANCH   2   3
TORSDOF 3
ENDMDL
MODEL      144
REMARK 921   NORMALIZED FREE ENERGY PREDICTED BY IDOCK:   -2.09 KCAL/MOL
REMARK 922        TOTAL FREE ENERGY PREDICTED BY IDOCK:   -2.57 KCAL/MOL
REMARK 923 INTER-LIGAND FREE ENERGY PREDICTED BY IDOCK:   -2.48 KCAL/MOL
REMARK 924 INTRA-LIGAND FREE ENERGY PREDICTED BY IDOCK:   -0.09 KCAL/MOL
REMARK 927      BINDING AFFINITY PREDICTED BY RF-SCORE:    0.00 PKD
ROOT
ATOM      1  CE  MET A   1      -9.658   4.131  67.110  1.00  0.00    -0.197 C  
ATOM      2  SD  MET A   1      -9.306   5.782  66.465  1.00  0.00    -0.154 SA 
ENDROOT
BRANCH   2   3
ATOM      3  CG  MET A   1     -10.892   6.598  66.860  1.00  0.00    -0.345 C  
BRANCH   3   4
ATOM      4  CB  MET A   1     -10.593   7.807  67.749  1.00  0.00    -0.254 C  
BRANCH   4   5
ATOM      5  CA  MET A   1     -10.525   7.483  69.245  1.00  0.00    -0.214 C  
ATOM      6  C   MET A   1     -10.361   8.759  70.085  1.00  0.00    -0.208 C  
ATOM      7  N   MET A   1     -11.809   6.830  69.649  1.00  0.00    -0.646 NA 
ATOM      8  O   MET A   1     -11.558   9.191  70.561  1.00  0.00    -0.263 OA 
ATOM      9  OXT MET A   1      -9.305   9.333  70.287  1.00  0.00    -0.201 OA 
ATOM     10  H1  MET A   1     -11.764   6.614  70.645  1.00  0.00     0.000 HD 
ATOM     11  H2  MET A   1     -12.027   6.011  69.081  1.00  0.00     0.000 HD 
ENDBRANCH   4   5
ENDBRANCH   3   4
ENDBRANCH   2   3
TORSDOF 3
ENDMDL
MODEL      145
REMARK 921   NORMALIZED FREE ENERGY PREDICTED BY IDOCK:   -2.09 KCAL/MOL
REMARK 922        TOTAL FREE ENERGY PREDICTED BY IDOCK:   -2.57 KCAL/MOL
REMARK 923 INTER-LIGAND FREE ENERGY PREDICTED BY IDOCK:   -2.46 KCAL/MOL
REMARK 924 INTRA-LIGAND FREE ENERGY PREDICTED BY IDOCK:   -0.11 KCAL/MOL
REMARK 927      BINDING AFFINITY PREDICTED BY RF-SCORE:    0.00 PKD
ROOT
ATOM      1  CE  MET A   1      -8.255   9.365  70.082  1.00  0.00    -0.168 C  
ATOM      2  SD  MET A   1      -9.828   9.856  69.341  1.00  0.00    -0.230 SA 
ENDROOT
BRANCH   2   3
ATOM      3  CG  MET A   1      -9.298  10.015  67.601  1.00  0.00    -0.144 C  
BRANCH   3   4
ATOM      4  CB  MET A   1     -10.548  10.233  66.744  1.00  0.00    -0.252 C  
BRANCH   4   5
ATOM      5  CA  MET A   1     -10.455  11.430  65.793  1.00  0.00    -0.262 C  
ATOM      6  C   MET A   1     -11.118  12.677  66.399  1.00  0.00    -0.287 C  
ATOM      7  N   MET A   1      -9.010  11.745  65.564  1.00  0.00    -0.411 NA 
ATOM      8  O   MET A   1     -10.199  13.484  66.990  1.00  0.00    -0.245 OA 
ATOM      9  OXT MET A   1     -12.314  12.912  66.381  1.00  0.00    -0.463 OA 
ATOM     10  H1  MET A   1      -8.948  12.542  64.930  1.00  0.00     0.000 HD 
ATOM     11  H2  MET A   1      -8.482  10.939  65.231  1.00  0.00     0.000 HD 
ENDBRANCH   4   5
ENDBRANCH   3   4
ENDBRANCH   2   3
TORSDOF 3
ENDMDL
MODEL      146
REMARK 921   NORMALIZED FREE ENERGY PREDICTED BY IDOCK:   -2.08 KCAL/MOL
REMARK 922        TOTAL FREE ENERGY PREDICTED BY IDOCK:   -2.56 KCAL/MOL
REMARK 923 INTER-LIGAND FREE ENERGY PREDICTED BY IDOCK:   -2.47 KCAL/MOL
REMARK 924 INTRA-LIGAND FREE ENERGY PREDICTED BY IDOCK:   -0.08 KCAL/MOL
REMARK 927      BINDING AFFINITY PREDICTED BY RF-SCORE:    0.00 PKD
ROOT
ATOM      1  CE  MET A   1     -10.503  18.848  66.166  1.00  0.00    -0.457 C  
ATOM      2  SD  MET A   1      -9.678  17.874  67.445  1.00  0.00    -0.298 SA 
ENDROOT
BRANCH   2   3
ATOM      3  CG  MET A   1     -11.133  17.037  68.165  1.00  0.00    -0.163 C  
BRANCH   3   4
ATOM      4  CB  MET A   1     -10.633  15.853  68.998  1.00  0.00    -0.247 C  
BRANCH   4   5
ATOM      5  CA  MET A   1     -11.671  14.745  69.196  1.00  0.00    -0.313 C  
ATOM      6  C   MET A   1     -12.456  14.942  70.502  1.00  0.00    -0.363 C  
ATOM      7  N   MET A   1     -12.647  14.797  68.062  1.00  0.00    -0.185 NA 
ATOM      8  O   MET A   1     -13.640  15.568  70.273  1.00  0.00    -0.109 OA 
ATOM      9  OXT MET A   1     -12.068  14.609  71.608  1.00  0.00    -0.336 OA 
ATOM     10  H1  MET A   1     -13.338  14.059  68.194  1.00  0.00     0.000 HD 
ATOM     11  H2  MET A   1     -12.191  14.748  67.152  1.00  0.00     0.000 HD 
ENDBRANCH   4   5
ENDBRANCH   3   4
ENDBRANCH   2   3
TORSDOF 3
ENDMDL
MODEL      147
REMARK 921   NORMALIZED FREE ENERGY PREDICTED BY IDOCK:   -2.08 KCAL/MOL
REMARK 922        TOTAL FREE ENERGY PREDICTED BY IDOCK:   -2.55 KCAL/MOL
REMARK 923 INTER-LIGAND FREE ENERGY PREDICTED BY IDOCK:   -2.71 KCAL/MOL
REMARK 924 INTRA-LIGAND FREE ENERGY PREDICTED BY IDOCK:    0.16 KCAL/MOL
REMARK 927      BINDING AFFINITY PREDICTED BY RF-SCORE:    0.00 PKD
ROOT
ATOM      1  CE  MET A   1      -8.216   4.371  73.183  1.00  0.00    -0.095 C  
ATOM      2  SD  MET A   1      -9.267   5.595  73.996  1.00  0.00    -0.128 SA 
ENDROOT
BRANCH   2   3
ATOM      3  CG  MET A   1      -9.701   6.620  72.547  1.00  0.00    -0.157 C  
BRANCH   3   4
ATOM      4  CB  MET A   1     -10.236   7.960  73.059  1.00  0.00    -0.394 C  
BRANCH   4   5
ATOM      5  CA  MET A   1     -11.375   8.543  72.217  1.00  0.00    -0.371 C  
ATOM      6  C   MET A   1     -11.476   7.840  70.855  1.00  0.00    -0.279 C  
ATOM      7  N   MET A   1     -12.665   8.324  72.943  1.00  0.00    -0.664 NA 
ATOM      8  O   MET A   1     -12.421   6.864  70.874  1.00  0.00    -0.378 OA 
ATOM      9  OXT MET A   1     -10.788   8.098  69.882  1.00  0.00    -0.247 OA 
ATOM     10  H1  MET A   1     -13.423   8.712  72.382  1.00  0.00     0.000 HD 
ATOM     11  H2  MET A   1     -12.648   8.699  73.891  1.00  0.00     0.000 HD 
ENDBRANCH   4   5
ENDBRANCH   3   4
ENDBRANCH   2   3
TORSDOF 3
ENDMDL
MODEL      148
REMARK 921   NORMALIZED FREE ENERGY PREDICTED BY IDOCK:   -2.06 KCAL/MOL
REMARK 922        TOTAL FREE ENERGY PREDICTED BY IDOCK:   -2.53 KCAL/MOL
REMARK 923 INTER-LIGAND FREE ENERGY PREDICTED BY IDOCK:   -2.47 KCAL/MOL
REMARK 924 INTRA-LIGAND FREE ENERGY PREDICTED BY IDOCK:   -0.07 KCAL/MOL
REMARK 927      BINDING AFFINITY PREDICTED BY RF-SCORE:    0.00 PKD
ROOT
ATOM      1  CE  MET A   1      -9.888   5.263  66.348  1.00  0.00    -0.186 C  
ATOM      2  SD  MET A   1     -10.842   6.452  67.318  1.00  0.00    -0.398 SA 
ENDROOT
BRANCH   2   3
ATOM      3  CG  MET A   1     -10.347   5.929  68.997  1.00  0.00    -0.233 C  
BRANCH   3   4
ATOM      4  CB  MET A   1     -11.170   6.735  70.005  1.00  0.00    -0.380 C  
BRANCH   4   5
ATOM      5  CA  MET A   1     -10.379   7.829  70.728  1.00  0.00    -0.203 C  
ATOM      6  C   MET A   1     -11.128   9.170  70.699  1.00  0.00    -0.265 C  
ATOM      7  N   MET A   1     -10.212   7.429  72.160  1.00  0.00    -0.189 NA 
ATOM      8  O   MET A   1     -11.829   9.367  71.846  1.00  0.00    -0.373 OA 
ATOM      9  OXT MET A   1     -11.123   9.954  69.765  1.00  0.00    -0.239 OA 
ATOM     10  H1  MET A   1      -9.685   8.157  72.642  1.00  0.00     0.000 HD 
ATOM     11  H2  MET A   1      -9.787   6.507  72.261  1.00  0.00     0.000 HD 
ENDBRANCH   4   5
ENDBRANCH   3   4
ENDBRANCH   2   3
TORSDOF 3
ENDMDL
MODEL      149
REMARK 921   NORMALIZED FREE ENERGY PREDICTED BY IDOCK:   -2.05 KCAL/MOL
REMARK 922        TOTAL FREE ENERGY PREDICTED BY IDOCK:   -2.52 KCAL/MOL
REMARK 923 INTER-LIGAND FREE ENERGY PREDICTED BY IDOCK:   -2.38 KCAL/MOL
REMARK 924 INTRA-LIGAND FREE ENERGY PREDICTED BY IDOCK:   -0.14 KCAL/MOL
REMARK 927      BINDING AFFINITY PREDICTED BY RF-SCORE:    0.00 PKD
ROOT
ATOM      1  CE  MET A   1     -11.393   7.827  72.695  1.00  0.00    -0.393 C  
ATOM      2  SD  MET A   1     -10.304   8.891  71.724  1.00  0.00    -0.337 SA 
ENDROOT
BRANCH   2   3
ATOM      3  CG  MET A   1      -9.680   7.661  70.526  1.00  0.00    -0.182 C  
BRANCH   3   4
ATOM      4  CB  MET A   1     -10.752   7.461  69.452  1.00  0.00    -0.220 C  
BRANCH   4   5
ATOM      5  CA  MET A   1     -10.977   5.998  69.056  1.00  0.00    -0.339 C  
ATOM      6  C   MET A   1     -10.357   5.690  67.685  1.00  0.00    -0.212 C  
ATOM      7  N   MET A   1     -10.308   5.123  70.069  1.00  0.00    -0.289 NA 
ATOM      8  O   MET A   1      -9.125   5.131  67.816  1.00  0.00    -0.109 OA 
ATOM      9  OXT MET A   1     -10.879   5.934  66.610  1.00  0.00    -0.301 OA 
ATOM     10  H1  MET A   1     -10.457   4.149  69.805  1.00  0.00     0.000 HD 
ATOM     11  H2  MET A   1     -10.614   5.322  71.021  1.00  0.00     0.000 HD 
ENDBRANCH   4   5
ENDBRANCH   3   4
ENDBRANCH   2   3
TORSDOF 3
ENDMDL
MODEL      150
REMARK 921   NORMALIZED FREE ENERGY PREDICTED BY IDOCK:   -2.05 KCAL/MOL
REMARK 922        TOTAL FREE ENERGY PREDICTED BY IDOCK:   -2.52 KCAL/MOL
REMARK 923 INTER-LIGAND FREE ENERGY PREDICTED BY IDOCK:   -2.40 KCAL/MOL
REMARK 924 INTRA-LIGAND FREE ENERGY PREDICTED BY IDOCK:   -0.12 KCAL/MOL
REMARK 927      BINDING AFFINITY PREDICTED BY RF-SCORE:    0.00 PKD
ROOT
ATOM      1  CE  MET A   1     -11.827  12.523  67.291  1.00  0.00    -0.311 C  
ATOM      2  SD  MET A   1     -12.176  13.409  65.756  1.00  0.00    -0.463 SA 
ENDROOT
BRANCH   2   3
ATOM      3  CG  MET A   1     -11.097  12.470  64.621  1.00  0.00    -0.306 C  
BRANCH   3   4
ATOM      4  CB  MET A   1     -10.104  11.668  65.468  1.00  0.00    -0.285 C  
BRANCH   4   5
ATOM      5  CA  MET A   1      -9.953  10.206  65.038  1.00  0.00    -0.305 C  
ATOM      6  C   MET A   1      -8.786  10.031  64.053  1.00  0.00    -0.224 C  
ATOM      7  N   MET A   1      -9.655   9.381  66.251  1.00  0.00    -0.213 NA 
ATOM      8  O   MET A   1      -7.659   9.625  64.694  1.00  0.00    -0.115 OA 
ATOM      9  OXT MET A   1      -8.844  10.250  62.855  1.00  0.00    -0.176 OA 
ATOM     10  H1  MET A   1      -9.555   8.407  65.965  1.00  0.00     0.000 HD 
ATOM     11  H2  MET A   1     -10.351   9.503  66.987  1.00  0.00     0.000 HD 
ENDBRANCH   4   5
ENDBRANCH   3   4
ENDBRANCH   2   3
TORSDOF 3
ENDMDL
MODEL      151
REMARK 921   NORMALIZED FREE ENERGY PREDICTED BY IDOCK:   -2.04 KCAL/MOL
REMARK 922        TOTAL FREE ENERGY PREDICTED BY IDOCK:   -2.50 KCAL/MOL
REMARK 923 INTER-LIGAND FREE ENERGY PREDICTED BY IDOCK:   -2.55 KCAL/MOL
REMARK 924 INTRA-LIGAND FREE ENERGY PREDICTED BY IDOCK:    0.05 KCAL/MOL
REMARK 927      BINDING AFFINITY PREDICTED BY RF-SCORE:    0.00 PKD
ROOT
ATOM      1  CE  MET A   1     -12.262  13.281  70.476  1.00  0.00    -0.340 C  
ATOM      2  SD  MET A   1     -11.473  14.770  69.824  1.00  0.00    -0.306 SA 
ENDROOT
BRANCH   2   3
ATOM      3  CG  MET A   1     -10.572  14.035  68.415  1.00  0.00    -0.254 C  
BRANCH   3   4
ATOM      4  CB  MET A   1     -10.778  14.940  67.198  1.00  0.00    -0.296 C  
BRANCH   4   5
ATOM      5  CA  MET A   1      -9.574  15.002  66.253  1.00  0.00    -0.307 C  
ATOM      6  C   MET A   1      -8.275  15.290  67.021  1.00  0.00    -0.233 C  
ATOM      7  N   MET A   1      -9.425  13.671  65.584  1.00  0.00    -0.498 NA 
ATOM      8  O   MET A   1      -7.599  14.143  67.290  1.00  0.00    -0.177 OA 
ATOM      9  OXT MET A   1      -7.901  16.395  67.373  1.00  0.00    -0.139 OA 
ATOM     10  H1  MET A   1      -8.624  13.712  64.954  1.00  0.00     0.000 HD 
ATOM     11  H2  MET A   1     -10.278  13.373  65.112  1.00  0.00     0.000 HD 
ENDBRANCH   4   5
ENDBRANCH   3   4
ENDBRANCH   2   3
TORSDOF 3
ENDMDL
MODEL      152
REMARK 921   NORMALIZED FREE ENERGY PREDICTED BY IDOCK:   -2.03 KCAL/MOL
REMARK 922        TOTAL FREE ENERGY PREDICTED BY IDOCK:   -2.50 KCAL/MOL
REMARK 923 INTER-LIGAND FREE ENERGY PREDICTED BY IDOCK:   -2.43 KCAL/MOL
REMARK 924 INTRA-LIGAND FREE ENERGY PREDICTED BY IDOCK:   -0.07 KCAL/MOL
REMARK 927      BINDING AFFINITY PREDICTED BY RF-SCORE:    0.00 PKD
ROOT
ATOM      1  CE  MET A   1      -9.400   3.685  67.169  1.00  0.00    -0.200 C  
ATOM      2  SD  MET A   1     -10.321   4.929  66.237  1.00  0.00    -0.282 SA 
ENDROOT
BRANCH   2   3
ATOM      3  CG  MET A   1     -10.092   6.361  67.349  1.00  0.00    -0.158 C  
BRANCH   3   4
ATOM      4  CB  MET A   1     -11.115   6.248  68.482  1.00  0.00    -0.397 C  
BRANCH   4   5
ATOM      5  CA  MET A   1     -10.710   6.979  69.766  1.00  0.00    -0.241 C  
ATOM      6  C   MET A   1     -11.665   6.644  70.922  1.00  0.00    -0.375 C  
ATOM      7  N   MET A   1      -9.339   6.528  70.159  1.00  0.00    -0.158 NA 
ATOM      8  O   MET A   1     -11.159   5.656  71.707  1.00  0.00    -0.256 OA 
ATOM      9  OXT MET A   1     -12.749   7.170  71.110  1.00  0.00    -0.367 OA 
ATOM     10  H1  MET A   1      -9.069   7.015  71.014  1.00  0.00     0.000 HD 
ATOM     11  H2  MET A   1      -8.658   6.648  69.409  1.00  0.00     0.000 HD 
ENDBRANCH   4   5
ENDBRANCH   3   4
ENDBRANCH   2   3
TORSDOF 3
ENDMDL
MODEL      153
REMARK 921   NORMALIZED FREE ENERGY PREDICTED BY IDOCK:   -2.03 KCAL/MOL
REMARK 922        TOTAL FREE ENERGY PREDICTED BY IDOCK:   -2.50 KCAL/MOL
REMARK 923 INTER-LIGAND FREE ENERGY PREDICTED BY IDOCK:   -2.49 KCAL/MOL
REMARK 924 INTRA-LIGAND FREE ENERGY PREDICTED BY IDOCK:   -0.01 KCAL/MOL
REMARK 927      BINDING AFFINITY PREDICTED BY RF-SCORE:    0.00 PKD
ROOT
ATOM      1  CE  MET A   1      -9.736  12.600  64.821  1.00  0.00     0.077 C  
ATOM      2  SD  MET A   1     -10.373  13.795  66.016  1.00  0.00    -0.316 SA 
ENDROOT
BRANCH   2   3
ATOM      3  CG  MET A   1      -9.676  13.081  67.547  1.00  0.00    -0.206 C  
BRANCH   3   4
ATOM      4  CB  MET A   1     -10.302  13.813  68.737  1.00  0.00    -0.198 C  
BRANCH   4   5
ATOM      5  CA  MET A   1     -11.795  13.530  68.932  1.00  0.00    -0.345 C  
ATOM      6  C   MET A   1     -12.043  12.051  69.266  1.00  0.00    -0.190 C  
ATOM      7  N   MET A   1     -12.289  14.348  70.083  1.00  0.00    -0.338 NA 
ATOM      8  O   MET A   1     -12.160  11.862  70.606  1.00  0.00    -0.373 OA 
ATOM      9  OXT MET A   1     -12.103  11.149  68.447  1.00  0.00    -0.605 OA 
ATOM     10  H1  MET A   1     -13.283  14.160  70.213  1.00  0.00     0.000 HD 
ATOM     11  H2  MET A   1     -12.091  15.342  69.969  1.00  0.00     0.000 HD 
ENDBRANCH   4   5
ENDBRANCH   3   4
ENDBRANCH   2   3
TORSDOF 3
ENDMDL
MODEL      154
REMARK 921   NORMALIZED FREE ENERGY PREDICTED BY IDOCK:   -2.02 KCAL/MOL
REMARK 922        TOTAL FREE ENERGY PREDICTED BY IDOCK:   -2.48 KCAL/MOL
REMARK 923 INTER-LIGAND FREE ENERGY PREDICTED BY IDOCK:   -2.40 KCAL/MOL
REMARK 924 INTRA-LIGAND FREE ENERGY PREDICTED BY IDOCK:   -0.08 KCAL/MOL
REMARK 927      BINDING AFFINITY PREDICTED BY RF-SCORE:    0.00 PKD
ROOT
ATOM      1  CE  MET A   1     -11.229  15.444  67.569  1.00  0.00    -0.302 C  
ATOM      2  SD  MET A   1     -11.575  13.837  68.319  1.00  0.00    -0.359 SA 
ENDROOT
BRANCH   2   3
ATOM      3  CG  MET A   1      -9.886  13.143  68.322  1.00  0.00    -0.227 C  
BRANCH   3   4
ATOM      4  CB  MET A   1      -9.552  12.703  66.894  1.00  0.00    -0.232 C  
BRANCH   4   5
ATOM      5  CA  MET A   1      -8.986  11.284  66.791  1.00  0.00    -0.171 C  
ATOM      6  C   MET A   1     -10.042  10.299  66.268  1.00  0.00    -0.236 C  
ATOM      7  N   MET A   1      -7.848  11.293  65.820  1.00  0.00    -0.371 NA 
ATOM      8  O   MET A   1      -9.911  10.102  64.930  1.00  0.00    -0.329 OA 
ATOM      9  OXT MET A   1     -10.907   9.773  66.949  1.00  0.00    -0.170 OA 
ATOM     10  H1  MET A   1      -7.471  10.348  65.752  1.00  0.00     0.000 HD 
ATOM     11  H2  MET A   1      -7.135  11.983  66.060  1.00  0.00     0.000 HD 
ENDBRANCH   4   5
ENDBRANCH   3   4
ENDBRANCH   2   3
TORSDOF 3
ENDMDL
MODEL      155
REMARK 921   NORMALIZED FREE ENERGY PREDICTED BY IDOCK:   -2.00 KCAL/MOL
REMARK 922        TOTAL FREE ENERGY PREDICTED BY IDOCK:   -2.46 KCAL/MOL
REMARK 923 INTER-LIGAND FREE ENERGY PREDICTED BY IDOCK:   -2.60 KCAL/MOL
REMARK 924 INTRA-LIGAND FREE ENERGY PREDICTED BY IDOCK:    0.15 KCAL/MOL
REMARK 927      BINDING AFFINITY PREDICTED BY RF-SCORE:    0.00 PKD
ROOT
ATOM      1  CE  MET A   1     -11.355   5.970  72.629  1.00  0.00    -0.277 C  
ATOM      2  SD  MET A   1     -11.705   7.743  72.616  1.00  0.00    -0.256 SA 
ENDROOT
BRANCH   2   3
ATOM      3  CG  MET A   1     -11.552   8.061  70.824  1.00  0.00    -0.242 C  
BRANCH   3   4
ATOM      4  CB  MET A   1     -11.312   9.561  70.629  1.00  0.00    -0.364 C  
BRANCH   4   5
ATOM      5  CA  MET A   1     -10.660   9.922  69.291  1.00  0.00    -0.224 C  
ATOM      6  C   MET A   1      -9.937   8.712  68.678  1.00  0.00    -0.183 C  
ATOM      7  N   MET A   1     -11.732  10.346  68.337  1.00  0.00    -0.717 NA 
ATOM      8  O   MET A   1     -10.720   8.085  67.761  1.00  0.00    -0.198 OA 
ATOM      9  OXT MET A   1      -8.818   8.337  68.983  1.00  0.00    -0.142 OA 
ATOM     10  H1  MET A   1     -11.298  10.587  67.446  1.00  0.00     0.000 HD 
ATOM     11  H2  MET A   1     -12.308  11.101  68.708  1.00  0.00     0.000 HD 
ENDBRANCH   4   5
ENDBRANCH   3   4
ENDBRANCH   2   3
TORSDOF 3
ENDMDL
MODEL      156
REMARK 921   NORMALIZED FREE ENERGY PREDICTED BY IDOCK:   -1.99 KCAL/MOL
REMARK 922        TOTAL FREE ENERGY PREDICTED BY IDOCK:   -2.45 KCAL/MOL
REMARK 923 INTER-LIGAND FREE ENERGY PREDICTED BY IDOCK:   -2.30 KCAL/MOL
REMARK 924 INTRA-LIGAND FREE ENERGY PREDICTED BY IDOCK:   -0.15 KCAL/MOL
REMARK 927      BINDING AFFINITY PREDICTED BY RF-SCORE:    0.00 PKD
ROOT
ATOM      1  CE  MET A   1      -8.337  13.284  67.129  1.00  0.00    -0.135 C  
ATOM      2  SD  MET A   1      -9.332  14.765  67.412  1.00  0.00    -0.203 SA 
ENDROOT
BRANCH   2   3
ATOM      3  CG  MET A   1     -10.996  14.010  67.399  1.00  0.00    -0.293 C  
BRANCH   3   4
ATOM      4  CB  MET A   1     -10.827  12.498  67.227  1.00  0.00    -0.277 C  
BRANCH   4   5
ATOM      5  CA  MET A   1     -11.346  11.672  68.408  1.00  0.00    -0.279 C  
ATOM      6  C   MET A   1     -10.599  10.334  68.523  1.00  0.00    -0.213 C  
ATOM      7  N   MET A   1     -11.108  12.441  69.669  1.00  0.00    -0.470 NA 
ATOM      8  O   MET A   1      -9.593  10.411  69.434  1.00  0.00    -0.217 OA 
ATOM      9  OXT MET A   1     -10.849   9.335  67.872  1.00  0.00    -0.216 OA 
ATOM     10  H1  MET A   1     -11.453  11.890  70.455  1.00  0.00     0.000 HD 
ATOM     11  H2  MET A   1     -11.511  13.376  69.639  1.00  0.00     0.000 HD 
ENDBRANCH   4   5
ENDBRANCH   3   4
ENDBRANCH   2   3
TORSDOF 3
ENDMDL
MODEL      157
REMARK 921   NORMALIZED FREE ENERGY PREDICTED BY IDOCK:   -1.98 KCAL/MOL
REMARK 922        TOTAL FREE ENERGY PREDICTED BY IDOCK:   -2.43 KCAL/MOL
REMARK 923 INTER-LIGAND FREE ENERGY PREDICTED BY IDOCK:   -2.35 KCAL/MOL
REMARK 924 INTRA-LIGAND FREE ENERGY PREDICTED BY IDOCK:   -0.08 KCAL/MOL
REMARK 927      BINDING AFFINITY PREDICTED BY RF-SCORE:    0.00 PKD
ROOT
ATOM      1  CE  MET A   1      -7.251  10.150  63.464  1.00  0.00    -0.120 C  
ATOM      2  SD  MET A   1      -8.221   8.691  63.902  1.00  0.00    -0.112 SA 
ENDROOT
BRANCH   2   3
ATOM      3  CG  MET A   1      -9.381   9.453  65.090  1.00  0.00    -0.221 C  
BRANCH   3   4
ATOM      4  CB  MET A   1      -9.394  10.962  64.836  1.00  0.00    -0.258 C  
BRANCH   4   5
ATOM      5  CA  MET A   1      -9.945  11.789  66.001  1.00  0.00    -0.229 C  
ATOM      6  C   MET A   1     -11.095  12.699  65.545  1.00  0.00    -0.294 C  
ATOM      7  N   MET A   1     -10.485  10.853  67.037  1.00  0.00    -0.232 NA 
ATOM      8  O   MET A   1     -12.303  12.130  65.798  1.00  0.00    -0.564 OA 
ATOM      9  OXT MET A   1     -10.957  13.782  65.002  1.00  0.00    -0.322 OA 
ATOM     10  H1  MET A   1     -10.851  11.403  67.813  1.00  0.00     0.000 HD 
ATOM     11  H2  MET A   1      -9.796  10.163  67.337  1.00  0.00     0.000 HD 
ENDBRANCH   4   5
ENDBRANCH   3   4
ENDBRANCH   2   3
TORSDOF 3
ENDMDL
MODEL      158
REMARK 921   NORMALIZED FREE ENERGY PREDICTED BY IDOCK:   -1.97 KCAL/MOL
REMARK 922        TOTAL FREE ENERGY PREDICTED BY IDOCK:   -2.42 KCAL/MOL
REMARK 923 INTER-LIGAND FREE ENERGY PREDICTED BY IDOCK:   -2.32 KCAL/MOL
REMARK 924 INTRA-LIGAND FREE ENERGY PREDICTED BY IDOCK:   -0.10 KCAL/MOL
REMARK 927      BINDING AFFINITY PREDICTED BY RF-SCORE:    0.00 PKD
ROOT
ATOM      1  CE  MET A   1     -11.616  15.802  70.998  1.00  0.00    -0.411 C  
ATOM      2  SD  MET A   1     -11.939  14.276  70.086  1.00  0.00    -0.344 SA 
ENDROOT
BRANCH   2   3
ATOM      3  CG  MET A   1     -12.353  14.988  68.455  1.00  0.00     0.131 C  
BRANCH   3   4
ATOM      4  CB  MET A   1     -11.171  14.737  67.515  1.00  0.00    -0.339 C  
BRANCH   4   5
ATOM      5  CA  MET A   1     -10.015  15.726  67.685  1.00  0.00    -0.239 C  
ATOM      6  C   MET A   1      -8.872  15.422  66.705  1.00  0.00    -0.295 C  
ATOM      7  N   MET A   1     -10.518  17.104  67.388  1.00  0.00    -0.343 NA 
ATOM      8  O   MET A   1      -8.954  16.203  65.596  1.00  0.00    -0.370 OA 
ATOM      9  OXT MET A   1      -8.011  14.575  66.874  1.00  0.00    -0.115 OA 
ATOM     10  H1  MET A   1      -9.748  17.763  67.501  1.00  0.00     0.000 HD 
ATOM     11  H2  MET A   1     -11.331  17.353  67.950  1.00  0.00     0.000 HD 
ENDBRANCH   4   5
ENDBRANCH   3   4
ENDBRANCH   2   3
TORSDOF 3
ENDMDL
MODEL      159
REMARK 921   NORMALIZED FREE ENERGY PREDICTED BY IDOCK:   -1.97 KCAL/MOL
REMARK 922        TOTAL FREE ENERGY PREDICTED BY IDOCK:   -2.42 KCAL/MOL
REMARK 923 INTER-LIGAND FREE ENERGY PREDICTED BY IDOCK:   -2.35 KCAL/MOL
REMARK 924 INTRA-LIGAND FREE ENERGY PREDICTED BY IDOCK:   -0.07 KCAL/MOL
REMARK 927      BINDING AFFINITY PREDICTED BY RF-SCORE:    0.00 PKD
ROOT
ATOM      1  CE  MET A   1      -7.109   6.073  68.440  1.00  0.00    -0.082 C  
ATOM      2  SD  MET A   1      -7.302   7.754  69.072  1.00  0.00    -0.091 SA 
ENDROOT
BRANCH   2   3
ATOM      3  CG  MET A   1      -8.323   7.401  70.545  1.00  0.00    -0.132 C  
BRANCH   3   4
ATOM      4  CB  MET A   1      -9.766   7.801  70.226  1.00  0.00    -0.179 C  
BRANCH   4   5
ATOM      5  CA  MET A   1     -10.823   6.915  70.892  1.00  0.00    -0.244 C  
ATOM      6  C   MET A   1     -11.552   7.666  72.017  1.00  0.00    -0.291 C  
ATOM      7  N   MET A   1     -11.841   6.532  69.863  1.00  0.00    -0.615 NA 
ATOM      8  O   MET A   1     -12.728   8.187  71.579  1.00  0.00    -0.311 OA 
ATOM      9  OXT MET A   1     -11.130   7.805  73.152  1.00  0.00    -0.409 OA 
ATOM     10  H1  MET A   1     -12.545   5.942  70.307  1.00  0.00     0.000 HD 
ATOM     11  H2  MET A   1     -11.422   6.092  69.044  1.00  0.00     0.000 HD 
ENDBRANCH   4   5
ENDBRANCH   3   4
ENDBRANCH   2   3
TORSDOF 3
ENDMDL
MODEL      160
REMARK 921   NORMALIZED FREE ENERGY PREDICTED BY IDOCK:   -1.97 KCAL/MOL
REMARK 922        TOTAL FREE ENERGY PREDICTED BY IDOCK:   -2.42 KCAL/MOL
REMARK 923 INTER-LIGAND FREE ENERGY PREDICTED BY IDOCK:   -2.34 KCAL/MOL
REMARK 924 INTRA-LIGAND FREE ENERGY PREDICTED BY IDOCK:   -0.08 KCAL/MOL
REMARK 927      BINDING AFFINITY PREDICTED BY RF-SCORE:    0.00 PKD
ROOT
ATOM      1  CE  MET A   1     -10.674  15.218  65.932  1.00  0.00    -0.334 C  
ATOM      2  SD  MET A   1     -11.693  14.077  66.893  1.00  0.00    -0.431 SA 
ENDROOT
BRANCH   2   3
ATOM      3  CG  MET A   1     -10.439  13.495  68.087  1.00  0.00    -0.244 C  
BRANCH   3   4
ATOM      4  CB  MET A   1      -9.058  13.869  67.542  1.00  0.00    -0.201 C  
BRANCH   4   5
ATOM      5  CA  MET A   1      -7.980  14.023  68.619  1.00  0.00    -0.122 C  
ATOM      6  C   MET A   1      -6.785  14.838  68.101  1.00  0.00    -0.129 C  
ATOM      7  N   MET A   1      -8.568  14.760  69.781  1.00  0.00    -0.407 NA 
ATOM      8  O   MET A   1      -6.884  16.142  68.468  1.00  0.00    -0.127 OA 
ATOM      9  OXT MET A   1      -5.874  14.391  67.425  1.00  0.00    -0.346 OA 
ATOM     10  H1  MET A   1      -7.850  14.862  70.498  1.00  0.00     0.000 HD 
ATOM     11  H2  MET A   1      -9.416  14.318  70.136  1.00  0.00     0.000 HD 
ENDBRANCH   4   5
ENDBRANCH   3   4
ENDBRANCH   2   3
TORSDOF 3
ENDMDL
MODEL      161
REMARK 921   NORMALIZED FREE ENERGY PREDICTED BY IDOCK:   -1.95 KCAL/MOL
REMARK 922        TOTAL FREE ENERGY PREDICTED BY IDOCK:   -2.41 KCAL/MOL
REMARK 923 INTER-LIGAND FREE ENERGY PREDICTED BY IDOCK:   -2.25 KCAL/MOL
REMARK 924 INTRA-LIGAND FREE ENERGY PREDICTED BY IDOCK:   -0.16 KCAL/MOL
REMARK 927      BINDING AFFINITY PREDICTED BY RF-SCORE:    0.00 PKD
ROOT
ATOM      1  CE  MET A   1     -12.132  12.496  68.315  1.00  0.00    -0.069 C  
ATOM      2  SD  MET A   1     -11.014  11.554  69.377  1.00  0.00    -0.125 SA 
ENDROOT
BRANCH   2   3
ATOM      3  CG  MET A   1     -12.114  11.304  70.814  1.00  0.00    -0.349 C  
BRANCH   3   4
ATOM      4  CB  MET A   1     -12.990  12.551  70.962  1.00  0.00    -0.154 C  
BRANCH   4   5
ATOM      5  CA  MET A   1     -12.578  13.473  72.113  1.00  0.00    -0.014 C  
ATOM      6  C   MET A   1     -12.237  14.882  71.604  1.00  0.00    -0.345 C  
ATOM      7  N   MET A   1     -13.728  13.595  73.062  1.00  0.00    -0.388 NA 
ATOM      8  O   MET A   1     -13.297  15.722  71.736  1.00  0.00    -0.481 OA 
ATOM      9  OXT MET A   1     -11.168  15.211  71.120  1.00  0.00    -0.323 OA 
ATOM     10  H1  MET A   1     -13.454  14.209  73.829  1.00  0.00     0.000 HD 
ATOM     11  H2  MET A   1     -14.064  12.688  73.387  1.00  0.00     0.000 HD 
ENDBRANCH   4   5
ENDBRANCH   3   4
ENDBRANCH   2   3
TORSDOF 3
ENDMDL
MODEL      162
REMARK 921   NORMALIZED FREE ENERGY PREDICTED BY IDOCK:   -1.93 KCAL/MOL
REMARK 922        TOTAL FREE ENERGY PREDICTED BY IDOCK:   -2.37 KCAL/MOL
REMARK 923 INTER-LIGAND FREE ENERGY PREDICTED BY IDOCK:   -2.29 KCAL/MOL
REMARK 924 INTRA-LIGAND FREE ENERGY PREDICTED BY IDOCK:   -0.08 KCAL/MOL
REMARK 927      BINDING AFFINITY PREDICTED BY RF-SCORE:    0.00 PKD
ROOT
ATOM      1  CE  MET A   1      -8.402   6.992  66.508  1.00  0.00    -0.121 C  
ATOM      2  SD  MET A   1      -9.477   7.804  67.712  1.00  0.00    -0.146 SA 
ENDROOT
BRANCH   2   3
ATOM      3  CG  MET A   1     -10.387   8.921  66.589  1.00  0.00    -0.223 C  
BRANCH   3   4
ATOM      4  CB  MET A   1      -9.935  10.355  66.878  1.00  0.00    -0.254 C  
BRANCH   4   5
ATOM      5  CA  MET A   1      -9.251  11.047  65.696  1.00  0.00    -0.210 C  
ATOM      6  C   MET A   1     -10.280  11.702  64.762  1.00  0.00    -0.275 C  
ATOM      7  N   MET A   1      -8.360  12.126  66.225  1.00  0.00    -0.389 NA 
ATOM      8  O   MET A   1     -10.422  13.025  65.039  1.00  0.00    -0.304 OA 
ATOM      9  OXT MET A   1     -10.912  11.119  63.897  1.00  0.00    -0.374 OA 
ATOM     10  H1  MET A   1      -7.904  12.586  65.438  1.00  0.00     0.000 HD 
ATOM     11  H2  MET A   1      -7.693  11.779  66.915  1.00  0.00     0.000 HD 
ENDBRANCH   4   5
ENDBRANCH   3   4
ENDBRANCH   2   3
TORSDOF 3
ENDMDL
MODEL      163
REMARK 921   NORMALIZED FREE ENERGY PREDICTED BY IDOCK:   -1.92 KCAL/MOL
REMARK 922        TOTAL FREE ENERGY PREDICTED BY IDOCK:   -2.37 KCAL/MOL
REMARK 923 INTER-LIGAND FREE ENERGY PREDICTED BY IDOCK:   -2.30 KCAL/MOL
REMARK 924 INTRA-LIGAND FREE ENERGY PREDICTED BY IDOCK:   -0.07 KCAL/MOL
REMARK 927      BINDING AFFINITY PREDICTED BY RF-SCORE:    0.00 PKD
ROOT
ATOM      1  CE  MET A   1     -11.443  16.077  71.144  1.00  0.00    -0.419 C  
ATOM      2  SD  MET A   1     -12.375  15.075  69.964  1.00  0.00    -0.283 SA 
ENDROOT
BRANCH   2   3
ATOM      3  CG  MET A   1     -11.364  15.362  68.470  1.00  0.00    -0.335 C  
BRANCH   3   4
ATOM      4  CB  MET A   1      -9.899  15.460  68.902  1.00  0.00    -0.216 C  
BRANCH   4   5
ATOM      5  CA  MET A   1      -8.943  14.593  68.077  1.00  0.00    -0.174 C  
ATOM      6  C   MET A   1      -7.797  15.431  67.489  1.00  0.00    -0.170 C  
ATOM      7  N   MET A   1      -8.340  13.560  68.977  1.00  0.00    -0.334 NA 
ATOM      8  O   MET A   1      -6.684  15.355  68.264  1.00  0.00    -0.107 OA 
ATOM      9  OXT MET A   1      -7.871  16.101  66.473  1.00  0.00    -0.260 OA 
ATOM     10  H1  MET A   1      -7.703  12.983  68.427  1.00  0.00     0.000 HD 
ATOM     11  H2  MET A   1      -9.044  13.009  69.466  1.00  0.00     0.000 HD 
ENDBRANCH   4   5
ENDBRANCH   3   4
ENDBRANCH   2   3
TORSDOF 3
ENDMDL
MODEL      164
REMARK 921   NORMALIZED FREE ENERGY PREDICTED BY IDOCK:   -1.89 KCAL/MOL
REMARK 922        TOTAL FREE ENERGY PREDICTED BY IDOCK:   -2.33 KCAL/MOL
REMARK 923 INTER-LIGAND FREE ENERGY PREDICTED BY IDOCK:   -2.23 KCAL/MOL
REMARK 924 INTRA-LIGAND FREE ENERGY PREDICTED BY IDOCK:   -0.09 KCAL/MOL
REMARK 927      BINDING AFFINITY PREDICTED BY RF-SCORE:    0.00 PKD
ROOT
ATOM      1  CE  MET A   1     -10.568  19.172  66.257  1.00  0.00    -0.434 C  
ATOM      2  SD  MET A   1      -8.862  19.759  66.357  1.00  0.00    -0.369 SA 
ENDROOT
BRANCH   2   3
ATOM      3  CG  MET A   1      -8.018  18.166  66.649  1.00  0.00    -0.251 C  
BRANCH   3   4
ATOM      4  CB  MET A   1      -7.966  17.928  68.160  1.00  0.00    -0.265 C  
BRANCH   4   5
ATOM      5  CA  MET A   1      -6.597  17.474  68.676  1.00  0.00    -0.206 C  
ATOM      6  C   MET A   1      -6.433  15.951  68.558  1.00  0.00    -0.111 C  
ATOM      7  N   MET A   1      -5.535  18.116  67.839  1.00  0.00    -0.155 NA 
ATOM      8  O   MET A   1      -5.760  15.616  67.426  1.00  0.00    -0.298 OA 
ATOM      9  OXT MET A   1      -6.867  15.137  69.354  1.00  0.00    -0.142 OA 
ATOM     10  H1  MET A   1      -4.624  17.813  68.182  1.00  0.00     0.000 HD 
ATOM     11  H2  MET A   1      -5.624  19.131  67.805  1.00  0.00     0.000 HD 
ENDBRANCH   4   5
ENDBRANCH   3   4
ENDBRANCH   2   3
TORSDOF 3
ENDMDL
MODEL      165
REMARK 921   NORMALIZED FREE ENERGY PREDICTED BY IDOCK:   -1.88 KCAL/MOL
REMARK 922        TOTAL FREE ENERGY PREDICTED BY IDOCK:   -2.32 KCAL/MOL
REMARK 923 INTER-LIGAND FREE ENERGY PREDICTED BY IDOCK:   -2.24 KCAL/MOL
REMARK 924 INTRA-LIGAND FREE ENERGY PREDICTED BY IDOCK:   -0.08 KCAL/MOL
REMARK 927      BINDING AFFINITY PREDICTED BY RF-SCORE:    0.00 PKD
ROOT
ATOM      1  CE  MET A   1      -8.421   9.262  65.774  1.00  0.00    -0.135 C  
ATOM      2  SD  MET A   1      -9.898   9.220  66.813  1.00  0.00    -0.247 SA 
ENDROOT
BRANCH   2   3
ATOM      3  CG  MET A   1      -9.170   8.511  68.331  1.00  0.00    -0.135 C  
BRANCH   3   4
ATOM      4  CB  MET A   1     -10.250   8.508  69.417  1.00  0.00    -0.211 C  
BRANCH   4   5
ATOM      5  CA  MET A   1      -9.943   9.420  70.608  1.00  0.00    -0.284 C  
ATOM      6  C   MET A   1     -10.015   8.647  71.934  1.00  0.00    -0.322 C  
ATOM      7  N   MET A   1      -8.550   9.947  70.459  1.00  0.00    -0.367 NA 
ATOM      8  O   MET A   1      -8.781   8.245  72.336  1.00  0.00    -0.177 OA 
ATOM      9  OXT MET A   1     -11.041   8.399  72.545  1.00  0.00    -0.361 OA 
ATOM     10  H1  MET A   1      -8.346  10.554  71.253  1.00  0.00     0.000 HD 
ATOM     11  H2  MET A   1      -8.402  10.410  69.563  1.00  0.00     0.000 HD 
ENDBRANCH   4   5
ENDBRANCH   3   4
ENDBRANCH   2   3
TORSDOF 3
ENDMDL
MODEL      166
REMARK 921   NORMALIZED FREE ENERGY PREDICTED BY IDOCK:   -1.88 KCAL/MOL
REMARK 922        TOTAL FREE ENERGY PREDICTED BY IDOCK:   -2.32 KCAL/MOL
REMARK 923 INTER-LIGAND FREE ENERGY PREDICTED BY IDOCK:   -2.19 KCAL/MOL
REMARK 924 INTRA-LIGAND FREE ENERGY PREDICTED BY IDOCK:   -0.13 KCAL/MOL
REMARK 927      BINDING AFFINITY PREDICTED BY RF-SCORE:    0.00 PKD
ROOT
ATOM      1  CE  MET A   1      -9.586   4.045  66.833  1.00  0.00    -0.207 C  
ATOM      2  SD  MET A   1      -9.123   5.786  66.696  1.00  0.00    -0.136 SA 
ENDROOT
BRANCH   2   3
ATOM      3  CG  MET A   1     -10.708   6.552  67.184  1.00  0.00    -0.368 C  
BRANCH   3   4
ATOM      4  CB  MET A   1     -10.638   8.042  66.840  1.00  0.00    -0.324 C  
BRANCH   4   5
ATOM      5  CA  MET A   1     -10.608   8.966  68.061  1.00  0.00    -0.168 C  
ATOM      6  C   MET A   1      -9.184   9.469  68.344  1.00  0.00    -0.130 C  
ATOM      7  N   MET A   1     -11.467  10.158  67.779  1.00  0.00    -0.604 NA 
ATOM      8  O   MET A   1      -8.982  10.701  67.809  1.00  0.00    -0.138 OA 
ATOM      9  OXT MET A   1      -8.328   8.844  68.948  1.00  0.00    -0.119 OA 
ATOM     10  H1  MET A   1     -11.447  10.773  68.592  1.00  0.00     0.000 HD 
ATOM     11  H2  MET A   1     -12.415   9.900  67.507  1.00  0.00     0.000 HD 
ENDBRANCH   4   5
ENDBRANCH   3   4
ENDBRANCH   2   3
TORSDOF 3
ENDMDL
MODEL      167
REMARK 921   NORMALIZED FREE ENERGY PREDICTED BY IDOCK:   -1.88 KCAL/MOL
REMARK 922        TOTAL FREE ENERGY PREDICTED BY IDOCK:   -2.32 KCAL/MOL
REMARK 923 INTER-LIGAND FREE ENERGY PREDICTED BY IDOCK:   -2.21 KCAL/MOL
REMARK 924 INTRA-LIGAND FREE ENERGY PREDICTED BY IDOCK:   -0.11 KCAL/MOL
REMARK 927      BINDING AFFINITY PREDICTED BY RF-SCORE:    0.00 PKD
ROOT
ATOM      1  CE  MET A   1      -6.228  10.387  68.641  1.00  0.00    -0.047 C  
ATOM      2  SD  MET A   1      -7.528  10.213  69.884  1.00  0.00    -0.158 SA 
ENDROOT
BRANCH   2   3
ATOM      3  CG  MET A   1      -8.486   8.858  69.121  1.00  0.00    -0.132 C  
BRANCH   3   4
ATOM      4  CB  MET A   1      -9.217   8.109  70.238  1.00  0.00    -0.151 C  
BRANCH   4   5
ATOM      5  CA  MET A   1     -10.743   8.201  70.160  1.00  0.00    -0.243 C  
ATOM      6  C   MET A   1     -11.330   8.826  71.436  1.00  0.00    -0.294 C  
ATOM      7  N   MET A   1     -11.109   9.083  69.008  1.00  0.00    -0.436 NA 
ATOM      8  O   MET A   1     -11.562  10.154  71.270  1.00  0.00    -0.364 OA 
ATOM      9  OXT MET A   1     -11.541   8.226  72.476  1.00  0.00    -0.383 OA 
ATOM     10  H1  MET A   1     -12.126   9.144  68.956  1.00  0.00     0.000 HD 
ATOM     11  H2  MET A   1     -10.691   8.774  68.131  1.00  0.00     0.000 HD 
ENDBRANCH   4   5
ENDBRANCH   3   4
ENDBRANCH   2   3
TORSDOF 3
ENDMDL
MODEL      168
REMARK 921   NORMALIZED FREE ENERGY PREDICTED BY IDOCK:   -1.88 KCAL/MOL
REMARK 922        TOTAL FREE ENERGY PREDICTED BY IDOCK:   -2.32 KCAL/MOL
REMARK 923 INTER-LIGAND FREE ENERGY PREDICTED BY IDOCK:   -2.46 KCAL/MOL
REMARK 924 INTRA-LIGAND FREE ENERGY PREDICTED BY IDOCK:    0.14 KCAL/MOL
REMARK 927      BINDING AFFINITY PREDICTED BY RF-SCORE:    0.00 PKD
ROOT
ATOM      1  CE  MET A   1      -9.483  15.245  66.782  1.00  0.00    -0.245 C  
ATOM      2  SD  MET A   1      -9.049  15.456  68.523  1.00  0.00    -0.207 SA 
ENDROOT
BRANCH   2   3
ATOM      3  CG  MET A   1      -8.883  17.275  68.568  1.00  0.00    -0.269 C  
BRANCH   3   4
ATOM      4  CB  MET A   1      -9.120  17.806  67.152  1.00  0.00    -0.247 C  
BRANCH   4   5
ATOM      5  CA  MET A   1      -8.155  18.918  66.730  1.00  0.00    -0.269 C  
ATOM      6  C   MET A   1      -7.191  19.281  67.870  1.00  0.00    -0.253 C  
ATOM      7  N   MET A   1      -7.338  18.429  65.577  1.00  0.00    -0.531 NA 
ATOM      8  O   MET A   1      -6.002  18.638  67.731  1.00  0.00    -0.185 OA 
ATOM      9  OXT MET A   1      -7.454  20.028  68.798  1.00  0.00    -0.254 OA 
ATOM     10  H1  MET A   1      -6.695  19.170  65.296  1.00  0.00     0.000 HD 
ATOM     11  H2  MET A   1      -7.913  18.096  64.803  1.00  0.00     0.000 HD 
ENDBRANCH   4   5
ENDBRANCH   3   4
ENDBRANCH   2   3
TORSDOF 3
ENDMDL
MODEL      169
REMARK 921   NORMALIZED FREE ENERGY PREDICTED BY IDOCK:   -1.87 KCAL/MOL
REMARK 922        TOTAL FREE ENERGY PREDICTED BY IDOCK:   -2.31 KCAL/MOL
REMARK 923 INTER-LIGAND FREE ENERGY PREDICTED BY IDOCK:   -2.24 KCAL/MOL
REMARK 924 INTRA-LIGAND FREE ENERGY PREDICTED BY IDOCK:   -0.07 KCAL/MOL
REMARK 927      BINDING AFFINITY PREDICTED BY RF-SCORE:    0.00 PKD
ROOT
ATOM      1  CE  MET A   1      -8.642   9.212  66.476  1.00  0.00    -0.127 C  
ATOM      2  SD  MET A   1     -10.397   9.438  66.839  1.00  0.00    -0.216 SA 
ENDROOT
BRANCH   2   3
ATOM      3  CG  MET A   1     -10.408   8.913  68.588  1.00  0.00    -0.204 C  
BRANCH   3   4
ATOM      4  CB  MET A   1      -9.778   7.520  68.668  1.00  0.00    -0.154 C  
BRANCH   4   5
ATOM      5  CA  MET A   1     -10.794   6.377  68.758  1.00  0.00    -0.317 C  
ATOM      6  C   MET A   1     -10.161   5.114  69.361  1.00  0.00    -0.234 C  
ATOM      7  N   MET A   1     -11.912   6.804  69.657  1.00  0.00    -0.605 NA 
ATOM      8  O   MET A   1     -10.420   5.021  70.692  1.00  0.00    -0.234 OA 
ATOM      9  OXT MET A   1      -9.490   4.305  68.744  1.00  0.00    -0.146 OA 
ATOM     10  H1  MET A   1     -12.588   6.043  69.718  1.00  0.00     0.000 HD 
ATOM     11  H2  MET A   1     -12.336   7.683  69.363  1.00  0.00     0.000 HD 
ENDBRANCH   4   5
ENDBRANCH   3   4
ENDBRANCH   2   3
TORSDOF 3
ENDMDL
MODEL      170
REMARK 921   NORMALIZED FREE ENERGY PREDICTED BY IDOCK:   -1.87 KCAL/MOL
REMARK 922        TOTAL FREE ENERGY PREDICTED BY IDOCK:   -2.31 KCAL/MOL
REMARK 923 INTER-LIGAND FREE ENERGY PREDICTED BY IDOCK:   -2.26 KCAL/MOL
REMARK 924 INTRA-LIGAND FREE ENERGY PREDICTED BY IDOCK:   -0.05 KCAL/MOL
REMARK 927      BINDING AFFINITY PREDICTED BY RF-SCORE:    0.00 PKD
ROOT
ATOM      1  CE  MET A   1      -8.071   9.389  70.116  1.00  0.00    -0.157 C  
ATOM      2  SD  MET A   1      -7.884  10.609  68.796  1.00  0.00    -0.134 SA 
ENDROOT
BRANCH   2   3
ATOM      3  CG  MET A   1      -9.430  10.289  67.877  1.00  0.00    -0.141 C  
BRANCH   3   4
ATOM      4  CB  MET A   1      -9.261  10.844  66.460  1.00  0.00    -0.189 C  
BRANCH   4   5
ATOM      5  CA  MET A   1     -10.003  10.046  65.383  1.00  0.00    -0.294 C  
ATOM      6  C   MET A   1      -9.957  10.766  64.026  1.00  0.00    -0.342 C  
ATOM      7  N   MET A   1      -9.328   8.720  65.222  1.00  0.00    -0.445 NA 
ATOM      8  O   MET A   1      -8.958  10.277  63.245  1.00  0.00    -0.192 OA 
ATOM      9  OXT MET A   1     -10.697  11.674  63.690  1.00  0.00    -0.363 OA 
ATOM     10  H1  MET A   1      -9.822   8.190  64.505  1.00  0.00     0.000 HD 
ATOM     11  H2  MET A   1      -9.251   8.212  66.102  1.00  0.00     0.000 HD 
ENDBRANCH   4   5
ENDBRANCH   3   4
ENDBRANCH   2   3
TORSDOF 3
ENDMDL
MODEL      171
REMARK 921   NORMALIZED FREE ENERGY PREDICTED BY IDOCK:   -1.87 KCAL/MOL
REMARK 922        TOTAL FREE ENERGY PREDICTED BY IDOCK:   -2.31 KCAL/MOL
REMARK 923 INTER-LIGAND FREE ENERGY PREDICTED BY IDOCK:   -2.22 KCAL/MOL
REMARK 924 INTRA-LIGAND FREE ENERGY PREDICTED BY IDOCK:   -0.09 KCAL/MOL
REMARK 927      BINDING AFFINITY PREDICTED BY RF-SCORE:    0.00 PKD
ROOT
ATOM      1  CE  MET A   1      -8.691   3.216  70.894  1.00  0.00    -0.075 C  
ATOM      2  SD  MET A   1      -8.121   4.829  71.476  1.00  0.00    -0.105 SA 
ENDROOT
BRANCH   2   3
ATOM      3  CG  MET A   1      -9.738   5.624  71.773  1.00  0.00    -0.158 C  
BRANCH   3   4
ATOM      4  CB  MET A   1      -9.645   7.077  71.298  1.00  0.00    -0.164 C  
BRANCH   4   5
ATOM      5  CA  MET A   1      -9.964   8.112  72.381  1.00  0.00    -0.275 C  
ATOM      6  C   MET A   1     -11.182   8.965  71.995  1.00  0.00    -0.352 C  
ATOM      7  N   MET A   1     -10.295   7.388  73.648  1.00  0.00    -0.349 NA 
ATOM      8  O   MET A   1     -12.318   8.489  72.568  1.00  0.00    -0.388 OA 
ATOM      9  OXT MET A   1     -11.152   9.932  71.253  1.00  0.00    -0.351 OA 
ATOM     10  H1  MET A   1     -10.508   8.077  74.370  1.00  0.00     0.000 HD 
ATOM     11  H2  MET A   1      -9.561   6.739  73.931  1.00  0.00     0.000 HD 
ENDBRANCH   4   5
ENDBRANCH   3   4
ENDBRANCH   2   3
TORSDOF 3
ENDMDL
MODEL      172
REMARK 921   NORMALIZED FREE ENERGY PREDICTED BY IDOCK:   -1.87 KCAL/MOL
REMARK 922        TOTAL FREE ENERGY PREDICTED BY IDOCK:   -2.30 KCAL/MOL
REMARK 923 INTER-LIGAND FREE ENERGY PREDICTED BY IDOCK:   -2.44 KCAL/MOL
REMARK 924 INTRA-LIGAND FREE ENERGY PREDICTED BY IDOCK:    0.14 KCAL/MOL
REMARK 927      BINDING AFFINITY PREDICTED BY RF-SCORE:    0.00 PKD
ROOT
ATOM      1  CE  MET A   1      -8.164   7.845  67.714  1.00  0.00    -0.129 C  
ATOM      2  SD  MET A   1      -8.872   9.502  67.580  1.00  0.00    -0.117 SA 
ENDROOT
BRANCH   2   3
ATOM      3  CG  MET A   1      -9.862   9.278  66.062  1.00  0.00    -0.293 C  
BRANCH   3   4
ATOM      4  CB  MET A   1     -10.376  10.653  65.625  1.00  0.00    -0.285 C  
BRANCH   4   5
ATOM      5  CA  MET A   1      -9.767  11.163  64.316  1.00  0.00    -0.271 C  
ATOM      6  C   MET A   1      -8.646  10.234  63.823  1.00  0.00    -0.187 C  
ATOM      7  N   MET A   1     -10.837  11.185  63.270  1.00  0.00    -0.787 NA 
ATOM      8  O   MET A   1      -9.108   9.357  62.893  1.00  0.00    -0.234 OA 
ATOM      9  OXT MET A   1      -7.495  10.253  64.224  1.00  0.00    -0.136 OA 
ATOM     10  H1  MET A   1     -10.431  11.524  62.397  1.00  0.00     0.000 HD 
ATOM     11  H2  MET A   1     -11.653  11.723  63.557  1.00  0.00     0.000 HD 
ENDBRANCH   4   5
ENDBRANCH   3   4
ENDBRANCH   2   3
TORSDOF 3
ENDMDL
MODEL      173
REMARK 921   NORMALIZED FREE ENERGY PREDICTED BY IDOCK:   -1.85 KCAL/MOL
REMARK 922        TOTAL FREE ENERGY PREDICTED BY IDOCK:   -2.28 KCAL/MOL
REMARK 923 INTER-LIGAND FREE ENERGY PREDICTED BY IDOCK:   -2.18 KCAL/MOL
REMARK 924 INTRA-LIGAND FREE ENERGY PREDICTED BY IDOCK:   -0.10 KCAL/MOL
REMARK 927      BINDING AFFINITY PREDICTED BY RF-SCORE:    0.00 PKD
ROOT
ATOM      1  CE  MET A   1      -9.859  13.969  66.122  1.00  0.00    -0.303 C  
ATOM      2  SD  MET A   1     -11.617  13.556  66.144  1.00  0.00    -0.360 SA 
ENDROOT
BRANCH   2   3
ATOM      3  CG  MET A   1     -11.512  11.851  66.790  1.00  0.00    -0.316 C  
BRANCH   3   4
ATOM      4  CB  MET A   1     -10.383  11.806  67.823  1.00  0.00    -0.211 C  
BRANCH   4   5
ATOM      5  CA  MET A   1      -9.601  10.489  67.839  1.00  0.00    -0.150 C  
ATOM      6  C   MET A   1      -9.686   9.807  69.214  1.00  0.00    -0.196 C  
ATOM      7  N   MET A   1     -10.206   9.564  66.831  1.00  0.00    -0.242 NA 
ATOM      8  O   MET A   1     -10.659   8.858  69.232  1.00  0.00    -0.227 OA 
ATOM      9  OXT MET A   1      -8.995  10.088  70.178  1.00  0.00    -0.173 OA 
ATOM     10  H1  MET A   1      -9.686   8.687  66.841  1.00  0.00     0.000 HD 
ATOM     11  H2  MET A   1     -10.255   9.978  65.900  1.00  0.00     0.000 HD 
ENDBRANCH   4   5
ENDBRANCH   3   4
ENDBRANCH   2   3
TORSDOF 3
ENDMDL
MODEL      174
REMARK 921   NORMALIZED FREE ENERGY PREDICTED BY IDOCK:   -1.84 KCAL/MOL
REMARK 922        TOTAL FREE ENERGY PREDICTED BY IDOCK:   -2.27 KCAL/MOL
REMARK 923 INTER-LIGAND FREE ENERGY PREDICTED BY IDOCK:   -2.13 KCAL/MOL
REMARK 924 INTRA-LIGAND FREE ENERGY PREDICTED BY IDOCK:   -0.14 KCAL/MOL
REMARK 927      BINDING AFFINITY PREDICTED BY RF-SCORE:    0.00 PKD
ROOT
ATOM      1  CE  MET A   1      -9.822   7.840  69.470  1.00  0.00    -0.179 C  
ATOM      2  SD  MET A   1     -10.518   8.304  67.869  1.00  0.00    -0.160 SA 
ENDROOT
BRANCH   2   3
ATOM      3  CG  MET A   1      -9.162   9.363  67.253  1.00  0.00    -0.130 C  
BRANCH   3   4
ATOM      4  CB  MET A   1      -9.561  10.823  67.483  1.00  0.00    -0.176 C  
BRANCH   4   5
ATOM      5  CA  MET A   1     -11.067  11.084  67.383  1.00  0.00    -0.305 C  
ATOM      6  C   MET A   1     -11.527  12.104  68.436  1.00  0.00    -0.304 C  
ATOM      7  N   MET A   1     -11.363  11.656  66.032  1.00  0.00    -0.271 NA 
ATOM      8  O   MET A   1     -11.600  13.355  67.909  1.00  0.00    -0.297 OA 
ATOM      9  OXT MET A   1     -11.774  11.844  69.601  1.00  0.00    -0.304 OA 
ATOM     10  H1  MET A   1     -12.365  11.830  65.965  1.00  0.00     0.000 HD 
ATOM     11  H2  MET A   1     -11.016  11.067  65.274  1.00  0.00     0.000 HD 
ENDBRANCH   4   5
ENDBRANCH   3   4
ENDBRANCH   2   3
TORSDOF 3
ENDMDL
MODEL      175
REMARK 921   NORMALIZED FREE ENERGY PREDICTED BY IDOCK:   -1.83 KCAL/MOL
REMARK 922        TOTAL FREE ENERGY PREDICTED BY IDOCK:   -2.26 KCAL/MOL
REMARK 923 INTER-LIGAND FREE ENERGY PREDICTED BY IDOCK:   -2.19 KCAL/MOL
REMARK 924 INTRA-LIGAND FREE ENERGY PREDICTED BY IDOCK:   -0.07 KCAL/MOL
REMARK 927      BINDING AFFINITY PREDICTED BY RF-SCORE:    0.00 PKD
ROOT
ATOM      1  CE  MET A   1      -6.921   4.841  66.813  1.00  0.00    -0.067 C  
ATOM      2  SD  MET A   1      -8.171   3.645  67.335  1.00  0.00    -0.091 SA 
ENDROOT
BRANCH   2   3
ATOM      3  CG  MET A   1      -9.672   4.650  67.062  1.00  0.00    -0.195 C  
BRANCH   3   4
ATOM      4  CB  MET A   1     -10.094   5.245  68.408  1.00  0.00    -0.224 C  
BRANCH   4   5
ATOM      5  CA  MET A   1     -10.900   6.542  68.294  1.00  0.00    -0.288 C  
ATOM      6  C   MET A   1     -10.029   7.770  68.601  1.00  0.00    -0.182 C  
ATOM      7  N   MET A   1     -11.397   6.673  66.888  1.00  0.00    -0.824 NA 
ATOM      8  O   MET A   1      -9.561   8.338  67.459  1.00  0.00    -0.145 OA 
ATOM      9  OXT MET A   1      -9.763   8.177  69.719  1.00  0.00    -0.171 OA 
ATOM     10  H1  MET A   1     -11.934   7.536  66.812  1.00  0.00     0.000 HD 
ATOM     11  H2  MET A   1     -11.924   5.855  66.583  1.00  0.00     0.000 HD 
ENDBRANCH   4   5
ENDBRANCH   3   4
ENDBRANCH   2   3
TORSDOF 3
ENDMDL
MODEL      176
REMARK 921   NORMALIZED FREE ENERGY PREDICTED BY IDOCK:   -1.83 KCAL/MOL
REMARK 922        TOTAL FREE ENERGY PREDICTED BY IDOCK:   -2.26 KCAL/MOL
REMARK 923 INTER-LIGAND FREE ENERGY PREDICTED BY IDOCK:   -2.13 KCAL/MOL
REMARK 924 INTRA-LIGAND FREE ENERGY PREDICTED BY IDOCK:   -0.13 KCAL/MOL
REMARK 927      BINDING AFFINITY PREDICTED BY RF-SCORE:    0.00 PKD
ROOT
ATOM      1  CE  MET A   1      -6.462   6.458  64.969  1.00  0.00    -0.038 C  
ATOM      2  SD  MET A   1      -8.145   6.192  65.571  1.00  0.00    -0.136 SA 
ENDROOT
BRANCH   2   3
ATOM      3  CG  MET A   1      -7.965   4.489  66.206  1.00  0.00    -0.103 C  
BRANCH   3   4
ATOM      4  CB  MET A   1      -9.231   3.711  65.839  1.00  0.00    -0.161 C  
BRANCH   4   5
ATOM      5  CA  MET A   1      -9.924   4.207  64.566  1.00  0.00    -0.161 C  
ATOM      6  C   MET A   1      -9.867   3.150  63.452  1.00  0.00    -0.122 C  
ATOM      7  N   MET A   1     -11.364   4.467  64.878  1.00  0.00    -1.085 NA 
ATOM      8  O   MET A   1     -11.013   2.421  63.407  1.00  0.00    -0.233 OA 
ATOM      9  OXT MET A   1      -8.915   2.962  62.714  1.00  0.00    -0.088 OA 
ATOM     10  H1  MET A   1     -11.826   4.797  64.031  1.00  0.00     0.000 HD 
ATOM     11  H2  MET A   1     -11.485   5.106  65.664  1.00  0.00     0.000 HD 
ENDBRANCH   4   5
ENDBRANCH   3   4
ENDBRANCH   2   3
TORSDOF 3
ENDMDL
MODEL      177
REMARK 921   NORMALIZED FREE ENERGY PREDICTED BY IDOCK:   -1.83 KCAL/MOL
REMARK 922        TOTAL FREE ENERGY PREDICTED BY IDOCK:   -2.26 KCAL/MOL
REMARK 923 INTER-LIGAND FREE ENERGY PREDICTED BY IDOCK:   -2.17 KCAL/MOL
REMARK 924 INTRA-LIGAND FREE ENERGY PREDICTED BY IDOCK:   -0.08 KCAL/MOL
REMARK 927      BINDING AFFINITY PREDICTED BY RF-SCORE:    0.00 PKD
ROOT
ATOM      1  CE  MET A   1     -11.775  11.500  69.475  1.00  0.00    -0.346 C  
ATOM      2  SD  MET A   1     -10.406  10.322  69.453  1.00  0.00    -0.248 SA 
ENDROOT
BRANCH   2   3
ATOM      3  CG  MET A   1     -10.996   9.159  70.732  1.00  0.00    -0.270 C  
BRANCH   3   4
ATOM      4  CB  MET A   1     -11.242   7.804  70.061  1.00  0.00    -0.126 C  
BRANCH   4   5
ATOM      5  CA  MET A   1     -10.302   7.507  68.888  1.00  0.00    -0.211 C  
ATOM      6  C   MET A   1      -9.475   6.237  69.145  1.00  0.00    -0.133 C  
ATOM      7  N   MET A   1     -11.129   7.275  67.663  1.00  0.00    -0.543 NA 
ATOM      8  O   MET A   1     -10.040   5.154  68.550  1.00  0.00    -0.171 OA 
ATOM      9  OXT MET A   1      -8.457   6.189  69.814  1.00  0.00    -0.124 OA 
ATOM     10  H1  MET A   1     -10.503   7.077  66.882  1.00  0.00     0.000 HD 
ATOM     11  H2  MET A   1     -11.764   8.048  67.468  1.00  0.00     0.000 HD 
ENDBRANCH   4   5
ENDBRANCH   3   4
ENDBRANCH   2   3
TORSDOF 3
ENDMDL
MODEL      178
REMARK 921   NORMALIZED FREE ENERGY PREDICTED BY IDOCK:   -1.79 KCAL/MOL
REMARK 922        TOTAL FREE ENERGY PREDICTED BY IDOCK:   -2.21 KCAL/MOL
REMARK 923 INTER-LIGAND FREE ENERGY PREDICTED BY IDOCK:   -2.12 KCAL/MOL
REMARK 924 INTRA-LIGAND FREE ENERGY PREDICTED BY IDOCK:   -0.09 KCAL/MOL
REMARK 927      BINDING AFFINITY PREDICTED BY RF-SCORE:    0.00 PKD
ROOT
ATOM      1  CE  MET A   1      -9.793  12.682  68.394  1.00  0.00    -0.200 C  
ATOM      2  SD  MET A   1     -11.369  12.092  67.738  1.00  0.00    -0.330 SA 
ENDROOT
BRANCH   2   3
ATOM      3  CG  MET A   1     -10.977  10.316  67.578  1.00  0.00    -0.280 C  
BRANCH   3   4
ATOM      4  CB  MET A   1      -9.730  10.029  68.420  1.00  0.00    -0.157 C  
BRANCH   4   5
ATOM      5  CA  MET A   1      -9.686   8.619  69.015  1.00  0.00    -0.173 C  
ATOM      6  C   MET A   1      -9.593   8.663  70.548  1.00  0.00    -0.181 C  
ATOM      7  N   MET A   1     -10.953   7.909  68.653  1.00  0.00    -0.416 NA 
ATOM      8  O   MET A   1     -10.818   8.519  71.119  1.00  0.00    -0.225 OA 
ATOM      9  OXT MET A   1      -8.565   8.830  71.182  1.00  0.00    -0.161 OA 
ATOM     10  H1  MET A   1     -10.924   6.970  69.049  1.00  0.00     0.000 HD 
ATOM     11  H2  MET A   1     -11.125   7.905  67.648  1.00  0.00     0.000 HD 
ENDBRANCH   4   5
ENDBRANCH   3   4
ENDBRANCH   2   3
TORSDOF 3
ENDMDL
MODEL      179
REMARK 921   NORMALIZED FREE ENERGY PREDICTED BY IDOCK:   -1.78 KCAL/MOL
REMARK 922        TOTAL FREE ENERGY PREDICTED BY IDOCK:   -2.20 KCAL/MOL
REMARK 923 INTER-LIGAND FREE ENERGY PREDICTED BY IDOCK:   -2.08 KCAL/MOL
REMARK 924 INTRA-LIGAND FREE ENERGY PREDICTED BY IDOCK:   -0.12 KCAL/MOL
REMARK 927      BINDING AFFINITY PREDICTED BY RF-SCORE:    0.00 PKD
ROOT
ATOM      1  CE  MET A   1      -9.527   3.687  69.979  1.00  0.00    -0.190 C  
ATOM      2  SD  MET A   1      -8.534   4.706  71.094  1.00  0.00    -0.109 SA 
ENDROOT
BRANCH   2   3
ATOM      3  CG  MET A   1      -8.536   6.268  70.147  1.00  0.00    -0.134 C  
BRANCH   3   4
ATOM      4  CB  MET A   1      -9.072   7.373  71.061  1.00  0.00    -0.152 C  
BRANCH   4   5
ATOM      5  CA  MET A   1     -10.362   8.030  70.561  1.00  0.00    -0.202 C  
ATOM      6  C   MET A   1     -11.575   7.576  71.387  1.00  0.00    -0.275 C  
ATOM      7  N   MET A   1     -10.232   9.513  70.713  1.00  0.00    -0.293 NA 
ATOM      8  O   MET A   1     -11.873   8.479  72.359  1.00  0.00    -0.380 OA 
ATOM      9  OXT MET A   1     -12.185   6.534  71.221  1.00  0.00    -0.340 OA 
ATOM     10  H1  MET A   1     -11.092   9.950  70.379  1.00  0.00     0.000 HD 
ATOM     11  H2  MET A   1      -9.401   9.882  70.251  1.00  0.00     0.000 HD 
ENDBRANCH   4   5
ENDBRANCH   3   4
ENDBRANCH   2   3
TORSDOF 3
ENDMDL
MODEL      180
REMARK 921   NORMALIZED FREE ENERGY PREDICTED BY IDOCK:   -1.77 KCAL/MOL
REMARK 922        TOTAL FREE ENERGY PREDICTED BY IDOCK:   -2.19 KCAL/MOL
REMARK 923 INTER-LIGAND FREE ENERGY PREDICTED BY IDOCK:   -2.06 KCAL/MOL
REMARK 924 INTRA-LIGAND FREE ENERGY PREDICTED BY IDOCK:   -0.14 KCAL/MOL
REMARK 927      BINDING AFFINITY PREDICTED BY RF-SCORE:    0.00 PKD
ROOT
ATOM      1  CE  MET A   1      -9.835   8.755  66.334  1.00  0.00    -0.282 C  
ATOM      2  SD  MET A   1      -9.938  10.418  67.035  1.00  0.00    -0.215 SA 
ENDROOT
BRANCH   2   3
ATOM      3  CG  MET A   1      -9.516  10.034  68.770  1.00  0.00    -0.162 C  
BRANCH   3   4
ATOM      4  CB  MET A   1      -9.185   8.541  68.857  1.00  0.00    -0.146 C  
BRANCH   4   5
ATOM      5  CA  MET A   1     -10.038   7.769  69.868  1.00  0.00    -0.203 C  
ATOM      6  C   MET A   1      -9.470   7.896  71.289  1.00  0.00    -0.157 C  
ATOM      7  N   MET A   1     -11.417   8.352  69.871  1.00  0.00    -0.444 NA 
ATOM      8  O   MET A   1     -10.104   8.875  71.987  1.00  0.00    -0.332 OA 
ATOM      9  OXT MET A   1      -8.553   7.229  71.738  1.00  0.00    -0.115 OA 
ATOM     10  H1  MET A   1     -11.985   7.837  70.544  1.00  0.00     0.000 HD 
ATOM     11  H2  MET A   1     -11.835   8.373  68.942  1.00  0.00     0.000 HD 
ENDBRANCH   4   5
ENDBRANCH   3   4
ENDBRANCH   2   3
TORSDOF 3
ENDMDL
MODEL      181
REMARK 921   NORMALIZED FREE ENERGY PREDICTED BY IDOCK:   -1.74 KCAL/MOL
REMARK 922        TOTAL FREE ENERGY PREDICTED BY IDOCK:   -2.16 KCAL/MOL
REMARK 923 INTER-LIGAND FREE ENERGY PREDICTED BY IDOCK:   -2.14 KCAL/MOL
REMARK 924 INTRA-LIGAND FREE ENERGY PREDICTED BY IDOCK:   -0.02 KCAL/MOL
REMARK 927      BINDING AFFINITY PREDICTED BY RF-SCORE:    0.00 PKD
ROOT
ATOM      1  CE  MET A   1      -8.340   7.266  74.444  1.00  0.00    -0.190 C  
ATOM      2  SD  MET A   1      -8.113   7.622  72.687  1.00  0.00    -0.128 SA 
ENDROOT
BRANCH   2   3
ATOM      3  CG  MET A   1      -9.709   7.001  72.052  1.00  0.00    -0.155 C  
BRANCH   3   4
ATOM      4  CB  MET A   1     -10.661   8.192  71.918  1.00  0.00    -0.329 C  
BRANCH   4   5
ATOM      5  CA  MET A   1     -11.225   8.388  70.508  1.00  0.00    -0.238 C  
ATOM      6  C   MET A   1     -10.101   8.602  69.483  1.00  0.00    -0.203 C  
ATOM      7  N   MET A   1     -11.972   7.151  70.117  1.00  0.00    -0.578 NA 
ATOM      8  O   MET A   1      -9.786   7.442  68.848  1.00  0.00    -0.148 OA 
ATOM      9  OXT MET A   1      -9.538   9.663  69.273  1.00  0.00    -0.167 OA 
ATOM     10  H1  MET A   1     -12.347   7.282  69.177  1.00  0.00     0.000 HD 
ATOM     11  H2  MET A   1     -12.691   6.899  70.794  1.00  0.00     0.000 HD 
ENDBRANCH   4   5
ENDBRANCH   3   4
ENDBRANCH   2   3
TORSDOF 3
ENDMDL
MODEL      182
REMARK 921   NORMALIZED FREE ENERGY PREDICTED BY IDOCK:   -1.74 KCAL/MOL
REMARK 922        TOTAL FREE ENERGY PREDICTED BY IDOCK:   -2.16 KCAL/MOL
REMARK 923 INTER-LIGAND FREE ENERGY PREDICTED BY IDOCK:   -2.26 KCAL/MOL
REMARK 924 INTRA-LIGAND FREE ENERGY PREDICTED BY IDOCK:    0.10 KCAL/MOL
REMARK 927      BINDING AFFINITY PREDICTED BY RF-SCORE:    0.00 PKD
ROOT
ATOM      1  CE  MET A   1      -9.260   4.649  71.858  1.00  0.00    -0.137 C  
ATOM      2  SD  MET A   1      -9.935   6.135  71.082  1.00  0.00    -0.186 SA 
ENDROOT
BRANCH   2   3
ATOM      3  CG  MET A   1     -10.601   5.393  69.552  1.00  0.00    -0.246 C  
BRANCH   3   4
ATOM      4  CB  MET A   1     -10.764   6.509  68.517  1.00  0.00    -0.329 C  
BRANCH   4   5
ATOM      5  CA  MET A   1     -10.179   6.178  67.140  1.00  0.00    -0.199 C  
ATOM      6  C   MET A   1      -9.087   5.103  67.243  1.00  0.00    -0.113 C  
ATOM      7  N   MET A   1     -11.274   5.638  66.275  1.00  0.00    -0.749 NA 
ATOM      8  O   MET A   1      -9.585   3.868  66.973  1.00  0.00    -0.198 OA 
ATOM      9  OXT MET A   1      -7.926   5.312  67.551  1.00  0.00    -0.099 OA 
ATOM     10  H1  MET A   1     -10.884   5.417  65.358  1.00  0.00     0.000 HD 
ATOM     11  H2  MET A   1     -12.074   6.267  66.219  1.00  0.00     0.000 HD 
ENDBRANCH   4   5
ENDBRANCH   3   4
ENDBRANCH   2   3
TORSDOF 3
ENDMDL
MODEL      183
REMARK 921   NORMALIZED FREE ENERGY PREDICTED BY IDOCK:   -1.71 KCAL/MOL
REMARK 922        TOTAL FREE ENERGY PREDICTED BY IDOCK:   -2.12 KCAL/MOL
REMARK 923 INTER-LIGAND FREE ENERGY PREDICTED BY IDOCK:   -2.06 KCAL/MOL
REMARK 924 INTRA-LIGAND FREE ENERGY PREDICTED BY IDOCK:   -0.06 KCAL/MOL
REMARK 927      BINDING AFFINITY PREDICTED BY RF-SCORE:    0.00 PKD
ROOT
ATOM      1  CE  MET A   1     -10.160   7.619  66.839  1.00  0.00    -0.278 C  
ATOM      2  SD  MET A   1      -9.001   7.268  68.179  1.00  0.00    -0.131 SA 
ENDROOT
BRANCH   2   3
ATOM      3  CG  MET A   1      -9.904   8.048  69.562  1.00  0.00    -0.181 C  
BRANCH   3   4
ATOM      4  CB  MET A   1      -9.951   7.048  70.721  1.00  0.00    -0.197 C  
BRANCH   4   5
ATOM      5  CA  MET A   1     -10.903   7.446  71.853  1.00  0.00    -0.229 C  
ATOM      6  C   MET A   1     -12.159   6.561  71.861  1.00  0.00    -0.339 C  
ATOM      7  N   MET A   1     -10.198   7.252  73.159  1.00  0.00    -0.263 NA 
ATOM      8  O   MET A   1     -12.037   5.543  72.753  1.00  0.00    -0.192 OA 
ATOM      9  OXT MET A   1     -13.134   6.724  71.148  1.00  0.00    -0.249 OA 
ATOM     10  H1  MET A   1     -10.831   7.516  73.913  1.00  0.00     0.000 HD 
ATOM     11  H2  MET A   1      -9.310   7.752  73.201  1.00  0.00     0.000 HD 
ENDBRANCH   4   5
ENDBRANCH   3   4
ENDBRANCH   2   3
TORSDOF 3
ENDMDL
MODEL      184
REMARK 921   NORMALIZED FREE ENERGY PREDICTED BY IDOCK:   -1.71 KCAL/MOL
REMARK 922        TOTAL FREE ENERGY PREDICTED BY IDOCK:   -2.12 KCAL/MOL
REMARK 923 INTER-LIGAND FREE ENERGY PREDICTED BY IDOCK:   -2.22 KCAL/MOL
REMARK 924 INTRA-LIGAND FREE ENERGY PREDICTED BY IDOCK:    0.10 KCAL/MOL
REMARK 927      BINDING AFFINITY PREDICTED BY RF-SCORE:    0.00 PKD
ROOT
ATOM      1  CE  MET A   1      -9.815  13.145  68.206  1.00  0.00    -0.227 C  
ATOM      2  SD  MET A   1     -11.564  12.713  68.070  1.00  0.00    -0.357 SA 
ENDROOT
BRANCH   2   3
ATOM      3  CG  MET A   1     -11.410  10.900  67.914  1.00  0.00    -0.308 C  
BRANCH   3   4
ATOM      4  CB  MET A   1     -10.158  10.464  68.680  1.00  0.00    -0.188 C  
BRANCH   4   5
ATOM      5  CA  MET A   1      -9.295   9.439  67.938  1.00  0.00    -0.129 C  
ATOM      6  C   MET A   1     -10.094   8.735  66.830  1.00  0.00    -0.288 C  
ATOM      7  N   MET A   1      -8.151  10.156  67.293  1.00  0.00    -0.113 NA 
ATOM      8  O   MET A   1      -9.875   9.316  65.621  1.00  0.00    -0.289 OA 
ATOM      9  OXT MET A   1     -10.849   7.794  67.002  1.00  0.00    -0.316 OA 
ATOM     10  H1  MET A   1      -7.576   9.474  66.798  1.00  0.00     0.000 HD 
ATOM     11  H2  MET A   1      -7.614  10.712  67.957  1.00  0.00     0.000 HD 
ENDBRANCH   4   5
ENDBRANCH   3   4
ENDBRANCH   2   3
TORSDOF 3
ENDMDL
MODEL      185
REMARK 921   NORMALIZED FREE ENERGY PREDICTED BY IDOCK:   -1.68 KCAL/MOL
REMARK 922        TOTAL FREE ENERGY PREDICTED BY IDOCK:   -2.09 KCAL/MOL
REMARK 923 INTER-LIGAND FREE ENERGY PREDICTED BY IDOCK:   -2.03 KCAL/MOL
REMARK 924 INTRA-LIGAND FREE ENERGY PREDICTED BY IDOCK:   -0.06 KCAL/MOL
REMARK 927      BINDING AFFINITY PREDICTED BY RF-SCORE:    0.00 PKD
ROOT
ATOM      1  CE  MET A   1      -9.528   2.651  69.006  1.00  0.00    -0.088 C  
ATOM      2  SD  MET A   1      -9.169   4.325  69.583  1.00  0.00    -0.153 SA 
ENDROOT
BRANCH   2   3
ATOM      3  CG  MET A   1      -9.629   4.136  71.341  1.00  0.00    -0.168 C  
BRANCH   3   4
ATOM      4  CB  MET A   1      -9.189   5.402  72.083  1.00  0.00    -0.157 C  
BRANCH   4   5
ATOM      5  CA  MET A   1     -10.101   5.792  73.250  1.00  0.00    -0.188 C  
ATOM      6  C   MET A   1     -10.133   7.315  73.447  1.00  0.00    -0.320 C  
ATOM      7  N   MET A   1     -11.494   5.341  72.938  1.00  0.00    -0.372 NA 
ATOM      8  O   MET A   1     -11.215   7.867  72.837  1.00  0.00    -0.398 OA 
ATOM      9  OXT MET A   1      -9.292   7.961  74.049  1.00  0.00    -0.184 OA 
ATOM     10  H1  MET A   1     -12.101   5.601  73.715  1.00  0.00     0.000 HD 
ATOM     11  H2  MET A   1     -11.543   4.346  72.719  1.00  0.00     0.000 HD 
ENDBRANCH   4   5
ENDBRANCH   3   4
ENDBRANCH   2   3
TORSDOF 3
ENDMDL
MODEL      186
REMARK 921   NORMALIZED FREE ENERGY PREDICTED BY IDOCK:   -1.68 KCAL/MOL
REMARK 922        TOTAL FREE ENERGY PREDICTED BY IDOCK:   -2.09 KCAL/MOL
REMARK 923 INTER-LIGAND FREE ENERGY PREDICTED BY IDOCK:   -1.97 KCAL/MOL
REMARK 924 INTRA-LIGAND FREE ENERGY PREDICTED BY IDOCK:   -0.12 KCAL/MOL
REMARK 927      BINDING AFFINITY PREDICTED BY RF-SCORE:    0.00 PKD
ROOT
ATOM      1  CE  MET A   1     -11.958  14.136  68.810  1.00  0.00    -0.332 C  
ATOM      2  SD  MET A   1     -10.908  15.383  68.031  1.00  0.00    -0.302 SA 
ENDROOT
BRANCH   2   3
ATOM      3  CG  MET A   1      -9.313  14.956  68.812  1.00  0.00    -0.203 C  
BRANCH   3   4
ATOM      4  CB  MET A   1      -8.952  13.526  68.399  1.00  0.00    -0.146 C  
BRANCH   4   5
ATOM      5  CA  MET A   1      -8.294  13.420  67.020  1.00  0.00    -0.075 C  
ATOM      6  C   MET A   1      -6.940  12.699  67.102  1.00  0.00    -0.024 C  
ATOM      7  N   MET A   1      -9.187  12.618  66.126  1.00  0.00    -0.423 NA 
ATOM      8  O   MET A   1      -7.065  11.382  66.788  1.00  0.00    -0.138 OA 
ATOM      9  OXT MET A   1      -5.888  13.220  67.428  1.00  0.00    -0.327 OA 
ATOM     10  H1  MET A   1      -8.749  12.548  65.208  1.00  0.00     0.000 HD 
ATOM     11  H2  MET A   1     -10.134  12.995  66.080  1.00  0.00     0.000 HD 
ENDBRANCH   4   5
ENDBRANCH   3   4
ENDBRANCH   2   3
TORSDOF 3
ENDMDL
MODEL      187
REMARK 921   NORMALIZED FREE ENERGY PREDICTED BY IDOCK:   -1.68 KCAL/MOL
REMARK 922        TOTAL FREE ENERGY PREDICTED BY IDOCK:   -2.08 KCAL/MOL
REMARK 923 INTER-LIGAND FREE ENERGY PREDICTED BY IDOCK:   -1.99 KCAL/MOL
REMARK 924 INTRA-LIGAND FREE ENERGY PREDICTED BY IDOCK:   -0.09 KCAL/MOL
REMARK 927      BINDING AFFINITY PREDICTED BY RF-SCORE:    0.00 PKD
ROOT
ATOM      1  CE  MET A   1     -10.426  11.109  68.741  1.00  0.00    -0.203 C  
ATOM      2  SD  MET A   1      -9.338  11.685  67.418  1.00  0.00    -0.170 SA 
ENDROOT
BRANCH   2   3
ATOM      3  CG  MET A   1     -10.540  11.721  66.043  1.00  0.00    -0.260 C  
BRANCH   3   4
ATOM      4  CB  MET A   1      -9.932  12.547  64.905  1.00  0.00    -0.190 C  
BRANCH   4   5
ATOM      5  CA  MET A   1      -9.985  11.862  63.536  1.00  0.00    -0.400 C  
ATOM      6  C   MET A   1      -8.823  10.873  63.363  1.00  0.00    -0.123 C  
ATOM      7  N   MET A   1     -11.263  11.090  63.439  1.00  0.00    -0.609 NA 
ATOM      8  O   MET A   1      -9.210   9.603  63.655  1.00  0.00    -0.247 OA 
ATOM      9  OXT MET A   1      -7.689  11.175  63.031  1.00  0.00     0.212 OA 
ATOM     10  H1  MET A   1     -11.298  10.634  62.528  1.00  0.00     0.000 HD 
ATOM     11  H2  MET A   1     -12.083  11.668  63.620  1.00  0.00     0.000 HD 
ENDBRANCH   4   5
ENDBRANCH   3   4
ENDBRANCH   2   3
TORSDOF 3
ENDMDL
MODEL      188
REMARK 921   NORMALIZED FREE ENERGY PREDICTED BY IDOCK:   -1.67 KCAL/MOL
REMARK 922        TOTAL FREE ENERGY PREDICTED BY IDOCK:   -2.08 KCAL/MOL
REMARK 923 INTER-LIGAND FREE ENERGY PREDICTED BY IDOCK:   -1.99 KCAL/MOL
REMARK 924 INTRA-LIGAND FREE ENERGY PREDICTED BY IDOCK:   -0.09 KCAL/MOL
REMARK 927      BINDING AFFINITY PREDICTED BY RF-SCORE:    0.00 PKD
ROOT
ATOM      1  CE  MET A   1      -6.428   5.743  67.002  1.00  0.00    -0.047 C  
ATOM      2  SD  MET A   1      -7.965   5.946  67.929  1.00  0.00    -0.105 SA 
ENDROOT
BRANCH   2   3
ATOM      3  CG  MET A   1      -8.350   7.676  67.488  1.00  0.00    -0.120 C  
BRANCH   3   4
ATOM      4  CB  MET A   1      -9.787   7.968  67.929  1.00  0.00    -0.204 C  
BRANCH   4   5
ATOM      5  CA  MET A   1     -10.577   8.843  66.951  1.00  0.00    -0.184 C  
ATOM      6  C   MET A   1     -10.719  10.280  67.477  1.00  0.00    -0.294 C  
ATOM      7  N   MET A   1      -9.832   8.900  65.654  1.00  0.00    -0.453 NA 
ATOM      8  O   MET A   1      -9.773  11.095  66.940  1.00  0.00    -0.187 OA 
ATOM      9  OXT MET A   1     -11.550  10.649  68.288  1.00  0.00    -0.393 OA 
ATOM     10  H1  MET A   1     -10.359   9.483  65.003  1.00  0.00     0.000 HD 
ATOM     11  H2  MET A   1      -9.632   7.974  65.278  1.00  0.00     0.000 HD 
ENDBRANCH   4   5
ENDBRANCH   3   4
ENDBRANCH   2   3
TORSDOF 3
ENDMDL
MODEL      189
REMARK 921   NORMALIZED FREE ENERGY PREDICTED BY IDOCK:   -1.66 KCAL/MOL
REMARK 922        TOTAL FREE ENERGY PREDICTED BY IDOCK:   -2.06 KCAL/MOL
REMARK 923 INTER-LIGAND FREE ENERGY PREDICTED BY IDOCK:   -2.10 KCAL/MOL
REMARK 924 INTRA-LIGAND FREE ENERGY PREDICTED BY IDOCK:    0.04 KCAL/MOL
REMARK 927      BINDING AFFINITY PREDICTED BY RF-SCORE:    0.00 PKD
ROOT
ATOM      1  CE  MET A   1     -12.275  12.674  65.655  1.00  0.00    -0.411 C  
ATOM      2  SD  MET A   1     -11.359  13.733  66.797  1.00  0.00    -0.344 SA 
ENDROOT
BRANCH   2   3
ATOM      3  CG  MET A   1      -9.658  13.207  66.389  1.00  0.00    -0.255 C  
BRANCH   3   4
ATOM      4  CB  MET A   1      -8.860  13.138  67.693  1.00  0.00    -0.191 C  
BRANCH   4   5
ATOM      5  CA  MET A   1      -7.867  11.973  67.759  1.00  0.00    -0.145 C  
ATOM      6  C   MET A   1      -8.558  10.634  67.460  1.00  0.00    -0.122 C  
ATOM      7  N   MET A   1      -6.812  12.187  66.719  1.00  0.00    -0.374 NA 
ATOM      8  O   MET A   1      -8.397  10.278  66.158  1.00  0.00    -0.131 OA 
ATOM      9  OXT MET A   1      -9.193   9.979  68.268  1.00  0.00    -0.128 OA 
ATOM     10  H1  MET A   1      -6.151  11.411  66.763  1.00  0.00     0.000 HD 
ATOM     11  H2  MET A   1      -6.356  13.095  66.806  1.00  0.00     0.000 HD 
ENDBRANCH   4   5
ENDBRANCH   3   4
ENDBRANCH   2   3
TORSDOF 3
ENDMDL
MODEL      190
REMARK 921   NORMALIZED FREE ENERGY PREDICTED BY IDOCK:   -1.65 KCAL/MOL
REMARK 922        TOTAL FREE ENERGY PREDICTED BY IDOCK:   -2.05 KCAL/MOL
REMARK 923 INTER-LIGAND FREE ENERGY PREDICTED BY IDOCK:   -1.96 KCAL/MOL
REMARK 924 INTRA-LIGAND FREE ENERGY PREDICTED BY IDOCK:   -0.09 KCAL/MOL
REMARK 927      BINDING AFFINITY PREDICTED BY RF-SCORE:    0.00 PKD
ROOT
ATOM      1  CE  MET A   1     -10.947  16.240  69.783  1.00  0.00    -0.354 C  
ATOM      2  SD  MET A   1     -10.444  17.196  68.334  1.00  0.00    -0.383 SA 
ENDROOT
BRANCH   2   3
ATOM      3  CG  MET A   1      -9.557  15.891  67.413  1.00  0.00    -0.221 C  
BRANCH   3   4
ATOM      4  CB  MET A   1      -9.678  14.587  68.206  1.00  0.00    -0.218 C  
BRANCH   4   5
ATOM      5  CA  MET A   1      -8.346  13.867  68.433  1.00  0.00    -0.157 C  
ATOM      6  C   MET A   1      -8.449  12.377  68.072  1.00  0.00    -0.176 C  
ATOM      7  N   MET A   1      -7.312  14.484  67.544  1.00  0.00    -0.184 NA 
ATOM      8  O   MET A   1      -7.992  12.144  66.813  1.00  0.00    -0.126 OA 
ATOM      9  OXT MET A   1      -8.902  11.510  68.799  1.00  0.00    -0.138 OA 
ATOM     10  H1  MET A   1      -6.425  14.004  67.695  1.00  0.00     0.000 HD 
ATOM     11  H2  MET A   1      -7.239  15.493  67.672  1.00  0.00     0.000 HD 
ENDBRANCH   4   5
ENDBRANCH   3   4
ENDBRANCH   2   3
TORSDOF 3
ENDMDL
MODEL      191
REMARK 921   NORMALIZED FREE ENERGY PREDICTED BY IDOCK:   -1.65 KCAL/MOL
REMARK 922        TOTAL FREE ENERGY PREDICTED BY IDOCK:   -2.05 KCAL/MOL
REMARK 923 INTER-LIGAND FREE ENERGY PREDICTED BY IDOCK:   -1.86 KCAL/MOL
REMARK 924 INTRA-LIGAND FREE ENERGY PREDICTED BY IDOCK:   -0.19 KCAL/MOL
REMARK 927      BINDING AFFINITY PREDICTED BY RF-SCORE:    0.00 PKD
ROOT
ATOM      1  CE  MET A   1      -7.352   5.951  69.463  1.00  0.00    -0.075 C  
ATOM      2  SD  MET A   1      -8.705   6.900  70.193  1.00  0.00    -0.141 SA 
ENDROOT
BRANCH   2   3
ATOM      3  CG  MET A   1      -8.689   8.344  69.075  1.00  0.00    -0.142 C  
BRANCH   3   4
ATOM      4  CB  MET A   1      -8.505   7.832  67.644  1.00  0.00    -0.121 C  
BRANCH   4   5
ATOM      5  CA  MET A   1      -9.807   7.733  66.842  1.00  0.00    -0.235 C  
ATOM      6  C   MET A   1     -10.403   6.319  66.921  1.00  0.00    -0.244 C  
ATOM      7  N   MET A   1     -10.802   8.683  67.430  1.00  0.00    -0.463 NA 
ATOM      8  O   MET A   1     -11.364   6.243  67.879  1.00  0.00    -0.257 OA 
ATOM      9  OXT MET A   1     -10.053   5.373  66.237  1.00  0.00    -0.178 OA 
ATOM     10  H1  MET A   1     -11.669   8.617  66.896  1.00  0.00     0.000 HD 
ATOM     11  H2  MET A   1     -10.447   9.638  67.483  1.00  0.00     0.000 HD 
ENDBRANCH   4   5
ENDBRANCH   3   4
ENDBRANCH   2   3
TORSDOF 3
ENDMDL
MODEL      192
REMARK 921   NORMALIZED FREE ENERGY PREDICTED BY IDOCK:   -1.63 KCAL/MOL
REMARK 922        TOTAL FREE ENERGY PREDICTED BY IDOCK:   -2.02 KCAL/MOL
REMARK 923 INTER-LIGAND FREE ENERGY PREDICTED BY IDOCK:   -2.21 KCAL/MOL
REMARK 924 INTRA-LIGAND FREE ENERGY PREDICTED BY IDOCK:    0.19 KCAL/MOL
REMARK 927      BINDING AFFINITY PREDICTED BY RF-SCORE:    0.00 PKD
ROOT
ATOM      1  CE  MET A   1      -7.601  16.444  69.079  1.00  0.00    -0.232 C  
ATOM      2  SD  MET A   1      -5.946  17.149  69.245  1.00  0.00    -0.220 SA 
ENDROOT
BRANCH   2   3
ATOM      3  CG  MET A   1      -6.384  18.921  69.302  1.00  0.00    -0.275 C  
BRANCH   3   4
ATOM      4  CB  MET A   1      -7.715  19.103  68.568  1.00  0.00    -0.376 C  
BRANCH   4   5
ATOM      5  CA  MET A   1      -7.570  19.511  67.099  1.00  0.00    -0.244 C  
ATOM      6  C   MET A   1      -6.112  19.852  66.757  1.00  0.00    -0.171 C  
ATOM      7  N   MET A   1      -7.984  18.357  66.240  1.00  0.00    -0.373 NA 
ATOM      8  O   MET A   1      -5.478  18.791  66.191  1.00  0.00    -0.148 OA 
ATOM      9  OXT MET A   1      -5.573  20.923  66.981  1.00  0.00    -0.173 OA 
ATOM     10  H1  MET A   1      -7.887  18.628  65.262  1.00  0.00     0.000 HD 
ATOM     11  H2  MET A   1      -8.921  18.021  66.462  1.00  0.00     0.000 HD 
ENDBRANCH   4   5
ENDBRANCH   3   4
ENDBRANCH   2   3
TORSDOF 3
ENDMDL
MODEL      193
REMARK 921   NORMALIZED FREE ENERGY PREDICTED BY IDOCK:   -1.60 KCAL/MOL
REMARK 922        TOTAL FREE ENERGY PREDICTED BY IDOCK:   -1.99 KCAL/MOL
REMARK 923 INTER-LIGAND FREE ENERGY PREDICTED BY IDOCK:   -2.00 KCAL/MOL
REMARK 924 INTRA-LIGAND FREE ENERGY PREDICTED BY IDOCK:    0.01 KCAL/MOL
REMARK 927      BINDING AFFINITY PREDICTED BY RF-SCORE:    0.00 PKD
ROOT
ATOM      1  CE  MET A   1      -8.894   6.788  74.475  1.00  0.00    -0.187 C  
ATOM      2  SD  MET A   1      -8.172   5.715  73.213  1.00  0.00    -0.117 SA 
ENDROOT
BRANCH   2   3
ATOM      3  CG  MET A   1      -9.385   4.350  73.258  1.00  0.00    -0.119 C  
BRANCH   3   4
ATOM      4  CB  MET A   1     -10.355   4.541  72.088  1.00  0.00    -0.233 C  
BRANCH   4   5
ATOM      5  CA  MET A   1     -10.514   5.997  71.638  1.00  0.00    -0.228 C  
ATOM      6  C   MET A   1     -10.286   6.140  70.126  1.00  0.00    -0.212 C  
ATOM      7  N   MET A   1     -11.913   6.438  71.935  1.00  0.00    -0.338 NA 
ATOM      8  O   MET A   1     -11.465   6.139  69.449  1.00  0.00    -0.423 OA 
ATOM      9  OXT MET A   1      -9.196   6.221  69.587  1.00  0.00    -0.140 OA 
ATOM     10  H1  MET A   1     -12.019   7.407  71.635  1.00  0.00     0.000 HD 
ATOM     11  H2  MET A   1     -12.167   6.301  72.913  1.00  0.00     0.000 HD 
ENDBRANCH   4   5
ENDBRANCH   3   4
ENDBRANCH   2   3
TORSDOF 3
ENDMDL
MODEL      194
REMARK 921   NORMALIZED FREE ENERGY PREDICTED BY IDOCK:   -1.59 KCAL/MOL
REMARK 922        TOTAL FREE ENERGY PREDICTED BY IDOCK:   -1.97 KCAL/MOL
REMARK 923 INTER-LIGAND FREE ENERGY PREDICTED BY IDOCK:   -1.92 KCAL/MOL
REMARK 924 INTRA-LIGAND FREE ENERGY PREDICTED BY IDOCK:   -0.06 KCAL/MOL
REMARK 927      BINDING AFFINITY PREDICTED BY RF-SCORE:    0.00 PKD
ROOT
ATOM      1  CE  MET A   1      -9.506   2.337  68.822  1.00  0.00    -0.117 C  
ATOM      2  SD  MET A   1      -9.199   4.107  68.630  1.00  0.00    -0.157 SA 
ENDROOT
BRANCH   2   3
ATOM      3  CG  MET A   1     -10.096   4.723  70.098  1.00  0.00    -0.240 C  
BRANCH   3   4
ATOM      4  CB  MET A   1     -10.711   6.079  69.741  1.00  0.00    -0.399 C  
BRANCH   4   5
ATOM      5  CA  MET A   1      -9.794   7.274  70.016  1.00  0.00    -0.175 C  
ATOM      6  C   MET A   1     -10.544   8.604  69.845  1.00  0.00    -0.224 C  
ATOM      7  N   MET A   1      -9.319   7.195  71.433  1.00  0.00    -0.155 NA 
ATOM      8  O   MET A   1     -10.985   9.077  71.040  1.00  0.00    -0.242 OA 
ATOM      9  OXT MET A   1     -10.748   9.161  68.780  1.00  0.00    -0.207 OA 
ATOM     10  H1  MET A   1      -8.708   7.991  71.616  1.00  0.00     0.000 HD 
ATOM     11  H2  MET A   1      -8.874   6.303  71.647  1.00  0.00     0.000 HD 
ENDBRANCH   4   5
ENDBRANCH   3   4
ENDBRANCH   2   3
TORSDOF 3
ENDMDL
MODEL      195
REMARK 921   NORMALIZED FREE ENERGY PREDICTED BY IDOCK:   -1.58 KCAL/MOL
REMARK 922        TOTAL FREE ENERGY PREDICTED BY IDOCK:   -1.97 KCAL/MOL
REMARK 923 INTER-LIGAND FREE ENERGY PREDICTED BY IDOCK:   -1.88 KCAL/MOL
REMARK 924 INTRA-LIGAND FREE ENERGY PREDICTED BY IDOCK:   -0.09 KCAL/MOL
REMARK 927      BINDING AFFINITY PREDICTED BY RF-SCORE:    0.00 PKD
ROOT
ATOM      1  CE  MET A   1     -10.370   5.744  73.890  1.00  0.00    -0.272 C  
ATOM      2  SD  MET A   1      -9.394   7.257  74.042  1.00  0.00    -0.226 SA 
ENDROOT
BRANCH   2   3
ATOM      3  CG  MET A   1      -8.173   6.955  72.718  1.00  0.00    -0.108 C  
BRANCH   3   4
ATOM      4  CB  MET A   1      -8.925   6.891  71.386  1.00  0.00    -0.141 C  
BRANCH   4   5
ATOM      5  CA  MET A   1      -8.636   8.066  70.447  1.00  0.00    -0.131 C  
ATOM      6  C   MET A   1      -9.936   8.695  69.923  1.00  0.00    -0.186 C  
ATOM      7  N   MET A   1      -7.895   9.117  71.213  1.00  0.00    -0.324 NA 
ATOM      8  O   MET A   1     -10.286   9.784  70.657  1.00  0.00    -0.279 OA 
ATOM      9  OXT MET A   1     -10.593   8.268  68.989  1.00  0.00    -0.215 OA 
ATOM     10  H1  MET A   1      -7.702   9.899  70.587  1.00  0.00     0.000 HD 
ATOM     11  H2  MET A   1      -7.052   8.755  71.658  1.00  0.00     0.000 HD 
ENDBRANCH   4   5
ENDBRANCH   3   4
ENDBRANCH   2   3
TORSDOF 3
ENDMDL
MODEL      196
REMARK 921   NORMALIZED FREE ENERGY PREDICTED BY IDOCK:   -1.53 KCAL/MOL
REMARK 922        TOTAL FREE ENERGY PREDICTED BY IDOCK:   -1.91 KCAL/MOL
REMARK 923 INTER-LIGAND FREE ENERGY PREDICTED BY IDOCK:   -1.82 KCAL/MOL
REMARK 924 INTRA-LIGAND FREE ENERGY PREDICTED BY IDOCK:   -0.09 KCAL/MOL
REMARK 927      BINDING AFFINITY PREDICTED BY RF-SCORE:    0.00 PKD
ROOT
ATOM      1  CE  MET A   1      -7.346   5.673  68.369  1.00  0.00    -0.076 C  
ATOM      2  SD  MET A   1      -8.215   5.261  69.898  1.00  0.00    -0.095 SA 
ENDROOT
BRANCH   2   3
ATOM      3  CG  MET A   1      -9.545   6.511  69.828  1.00  0.00    -0.152 C  
BRANCH   3   4
ATOM      4  CB  MET A   1     -10.374   6.392  71.110  1.00  0.00    -0.244 C  
BRANCH   4   5
ATOM      5  CA  MET A   1     -10.715   7.735  71.762  1.00  0.00    -0.223 C  
ATOM      6  C   MET A   1      -9.796   8.023  72.959  1.00  0.00    -0.282 C  
ATOM      7  N   MET A   1     -10.508   8.821  70.754  1.00  0.00    -0.208 NA 
ATOM      8  O   MET A   1      -8.759   8.825  72.601  1.00  0.00    -0.408 OA 
ATOM      9  OXT MET A   1      -9.950   7.577  74.083  1.00  0.00    -0.130 OA 
ATOM     10  H1  MET A   1     -10.735   9.716  71.188  1.00  0.00     0.000 HD 
ATOM     11  H2  MET A   1     -11.031   8.660  69.893  1.00  0.00     0.000 HD 
ENDBRANCH   4   5
ENDBRANCH   3   4
ENDBRANCH   2   3
TORSDOF 3
ENDMDL
MODEL      197
REMARK 921   NORMALIZED FREE ENERGY PREDICTED BY IDOCK:   -1.53 KCAL/MOL
REMARK 922        TOTAL FREE ENERGY PREDICTED BY IDOCK:   -1.90 KCAL/MOL
REMARK 923 INTER-LIGAND FREE ENERGY PREDICTED BY IDOCK:   -1.86 KCAL/MOL
REMARK 924 INTRA-LIGAND FREE ENERGY PREDICTED BY IDOCK:   -0.04 KCAL/MOL
REMARK 927      BINDING AFFINITY PREDICTED BY RF-SCORE:    0.00 PKD
ROOT
ATOM      1  CE  MET A   1      -9.457   2.332  68.791  1.00  0.00    -0.117 C  
ATOM      2  SD  MET A   1      -8.631   3.934  68.666  1.00  0.00    -0.099 SA 
ENDROOT
BRANCH   2   3
ATOM      3  CG  MET A   1      -9.633   4.877  69.868  1.00  0.00    -0.182 C  
BRANCH   3   4
ATOM      4  CB  MET A   1      -9.497   6.365  69.532  1.00  0.00    -0.151 C  
BRANCH   4   5
ATOM      5  CA  MET A   1     -10.794   7.016  69.040  1.00  0.00    -0.182 C  
ATOM      6  C   MET A   1     -10.547   8.453  68.556  1.00  0.00    -0.106 C  
ATOM      7  N   MET A   1     -11.314   6.226  67.880  1.00  0.00    -0.565 NA 
ATOM      8  O   MET A   1     -10.390   8.499  67.207  1.00  0.00    -0.253 OA 
ATOM      9  OXT MET A   1     -10.474   9.432  69.280  1.00  0.00    -0.207 OA 
ATOM     10  H1  MET A   1     -12.177   6.659  67.552  1.00  0.00     0.000 HD 
ATOM     11  H2  MET A   1     -11.432   5.238  68.102  1.00  0.00     0.000 HD 
ENDBRANCH   4   5
ENDBRANCH   3   4
ENDBRANCH   2   3
TORSDOF 3
ENDMDL
MODEL      198
REMARK 921   NORMALIZED FREE ENERGY PREDICTED BY IDOCK:   -1.52 KCAL/MOL
REMARK 922        TOTAL FREE ENERGY PREDICTED BY IDOCK:   -1.90 KCAL/MOL
REMARK 923 INTER-LIGAND FREE ENERGY PREDICTED BY IDOCK:   -1.81 KCAL/MOL
REMARK 924 INTRA-LIGAND FREE ENERGY PREDICTED BY IDOCK:   -0.09 KCAL/MOL
REMARK 927      BINDING AFFINITY PREDICTED BY RF-SCORE:    0.00 PKD
ROOT
ATOM      1  CE  MET A   1     -10.672  11.139  64.545  1.00  0.00    -0.297 C  
ATOM      2  SD  MET A   1     -11.479  12.223  65.743  1.00  0.00    -0.368 SA 
ENDROOT
BRANCH   2   3
ATOM      3  CG  MET A   1     -10.370  11.964  67.171  1.00  0.00    -0.210 C  
BRANCH   3   4
ATOM      4  CB  MET A   1      -9.768  10.561  67.054  1.00  0.00    -0.212 C  
BRANCH   4   5
ATOM      5  CA  MET A   1      -8.593  10.302  68.002  1.00  0.00    -0.118 C  
ATOM      6  C   MET A   1      -9.002   9.376  69.157  1.00  0.00    -0.147 C  
ATOM      7  N   MET A   1      -7.502   9.624  67.235  1.00  0.00    -0.088 NA 
ATOM      8  O   MET A   1      -8.660   8.086  68.898  1.00  0.00    -0.130 OA 
ATOM      9  OXT MET A   1      -9.581   9.733  70.169  1.00  0.00    -0.240 OA 
ATOM     10  H1  MET A   1      -6.720   9.451  67.866  1.00  0.00     0.000 HD 
ATOM     11  H2  MET A   1      -7.227  10.145  66.403  1.00  0.00     0.000 HD 
ENDBRANCH   4   5
ENDBRANCH   3   4
ENDBRANCH   2   3
TORSDOF 3
ENDMDL
MODEL      199
REMARK 921   NORMALIZED FREE ENERGY PREDICTED BY IDOCK:   -1.52 KCAL/MOL
REMARK 922        TOTAL FREE ENERGY PREDICTED BY IDOCK:   -1.89 KCAL/MOL
REMARK 923 INTER-LIGAND FREE ENERGY PREDICTED BY IDOCK:   -1.77 KCAL/MOL
REMARK 924 INTRA-LIGAND FREE ENERGY PREDICTED BY IDOCK:   -0.13 KCAL/MOL
REMARK 927      BINDING AFFINITY PREDICTED BY RF-SCORE:    0.00 PKD
ROOT
ATOM      1  CE  MET A   1     -10.961   5.856  72.208  1.00  0.00    -0.265 C  
ATOM      2  SD  MET A   1     -11.662   7.152  71.163  1.00  0.00    -0.330 SA 
ENDROOT
BRANCH   2   3
ATOM      3  CG  MET A   1     -10.680   8.574  71.757  1.00  0.00    -0.303 C  
BRANCH   3   4
ATOM      4  CB  MET A   1      -9.848   9.097  70.583  1.00  0.00    -0.308 C  
BRANCH   4   5
ATOM      5  CA  MET A   1      -8.783   8.116  70.083  1.00  0.00    -0.130 C  
ATOM      6  C   MET A   1      -8.715   8.101  68.549  1.00  0.00    -0.134 C  
ATOM      7  N   MET A   1      -7.449   8.558  70.597  1.00  0.00    -0.060 NA 
ATOM      8  O   MET A   1      -7.723   8.910  68.092  1.00  0.00    -0.098 OA 
ATOM      9  OXT MET A   1      -9.463   7.470  67.821  1.00  0.00    -0.140 OA 
ATOM     10  H1  MET A   1      -6.740   7.904  70.264  1.00  0.00     0.000 HD 
ATOM     11  H2  MET A   1      -7.436   8.666  71.611  1.00  0.00     0.000 HD 
ENDBRANCH   4   5
ENDBRANCH   3   4
ENDBRANCH   2   3
TORSDOF 3
ENDMDL
MODEL      200
REMARK 921   NORMALIZED FREE ENERGY PREDICTED BY IDOCK:   -1.51 KCAL/MOL
REMARK 922        TOTAL FREE ENERGY PREDICTED BY IDOCK:   -1.89 KCAL/MOL
REMARK 923 INTER-LIGAND FREE ENERGY PREDICTED BY IDOCK:   -1.74 KCAL/MOL
REMARK 924 INTRA-LIGAND FREE ENERGY PREDICTED BY IDOCK:   -0.15 KCAL/MOL
REMARK 927      BINDING AFFINITY PREDICTED BY RF-SCORE:    0.00 PKD
ROOT
ATOM      1  CE  MET A   1      -8.111   7.371  69.542  1.00  0.00    -0.129 C  
ATOM      2  SD  MET A   1      -7.300   6.870  68.007  1.00  0.00    -0.099 SA 
ENDROOT
BRANCH   2   3
ATOM      3  CG  MET A   1      -8.238   7.901  66.827  1.00  0.00    -0.116 C  
BRANCH   3   4
ATOM      4  CB  MET A   1      -8.437   9.281  67.459  1.00  0.00    -0.115 C  
BRANCH   4   5
ATOM      5  CA  MET A   1      -9.857   9.836  67.317  1.00  0.00    -0.181 C  
ATOM      6  C   MET A   1      -9.948  10.847  66.163  1.00  0.00    -0.233 C  
ATOM      7  N   MET A   1     -10.784   8.703  67.006  1.00  0.00    -0.352 NA 
ATOM      8  O   MET A   1     -10.409  10.258  65.029  1.00  0.00    -0.288 OA 
ATOM      9  OXT MET A   1      -9.627  12.021  66.235  1.00  0.00    -0.222 OA 
ATOM     10  H1  MET A   1     -11.729   9.072  66.911  1.00  0.00     0.000 HD 
ATOM     11  H2  MET A   1     -10.724   7.951  67.692  1.00  0.00     0.000 HD 
ENDBRANCH   4   5
ENDBRANCH   3   4
ENDBRANCH   2   3
TORSDOF 3
ENDMDL
MODEL      201
REMARK 921   NORMALIZED FREE ENERGY PREDICTED BY IDOCK:   -1.45 KCAL/MOL
REMARK 922        TOTAL FREE ENERGY PREDICTED BY IDOCK:   -1.81 KCAL/MOL
REMARK 923 INTER-LIGAND FREE ENERGY PREDICTED BY IDOCK:   -1.78 KCAL/MOL
REMARK 924 INTRA-LIGAND FREE ENERGY PREDICTED BY IDOCK:   -0.03 KCAL/MOL
REMARK 927      BINDING AFFINITY PREDICTED BY RF-SCORE:    0.00 PKD
ROOT
ATOM      1  CE  MET A   1      -8.403   9.838  69.437  1.00  0.00    -0.152 C  
ATOM      2  SD  MET A   1      -7.189   8.514  69.240  1.00  0.00    -0.064 SA 
ENDROOT
BRANCH   2   3
ATOM      3  CG  MET A   1      -7.996   7.221  70.248  1.00  0.00    -0.115 C  
BRANCH   3   4
ATOM      4  CB  MET A   1      -9.191   7.857  70.964  1.00  0.00    -0.164 C  
BRANCH   4   5
ATOM      5  CA  MET A   1     -10.148   6.847  71.604  1.00  0.00    -0.190 C  
ATOM      6  C   MET A   1     -10.901   6.040  70.536  1.00  0.00    -0.314 C  
ATOM      7  N   MET A   1      -9.347   5.886  72.425  1.00  0.00    -0.144 NA 
ATOM      8  O   MET A   1     -10.300   4.842  70.310  1.00  0.00    -0.254 OA 
ATOM      9  OXT MET A   1     -11.896   6.421  69.943  1.00  0.00    -0.384 OA 
ATOM     10  H1  MET A   1      -9.984   5.213  72.851  1.00  0.00     0.000 HD 
ATOM     11  H2  MET A   1      -8.757   6.355  73.112  1.00  0.00     0.000 HD 
ENDBRANCH   4   5
ENDBRANCH   3   4
ENDBRANCH   2   3
TORSDOF 3
ENDMDL
MODEL      202
REMARK 921   NORMALIZED FREE ENERGY PREDICTED BY IDOCK:   -1.44 KCAL/MOL
REMARK 922        TOTAL FREE ENERGY PREDICTED BY IDOCK:   -1.81 KCAL/MOL
REMARK 923 INTER-LIGAND FREE ENERGY PREDICTED BY IDOCK:   -1.66 KCAL/MOL
REMARK 924 INTRA-LIGAND FREE ENERGY PREDICTED BY IDOCK:   -0.15 KCAL/MOL
REMARK 927      BINDING AFFINITY PREDICTED BY RF-SCORE:    0.00 PKD
ROOT
ATOM      1  CE  MET A   1     -10.326   8.343  69.394  1.00  0.00    -0.215 C  
ATOM      2  SD  MET A   1      -8.687   7.757  69.879  1.00  0.00    -0.142 SA 
ENDROOT
BRANCH   2   3
ATOM      3  CG  MET A   1      -9.124   6.067  70.416  1.00  0.00    -0.149 C  
BRANCH   3   4
ATOM      4  CB  MET A   1      -8.285   5.732  71.652  1.00  0.00    -0.119 C  
BRANCH   4   5
ATOM      5  CA  MET A   1      -9.101   5.567  72.937  1.00  0.00    -0.122 C  
ATOM      6  C   MET A   1      -9.411   6.929  73.578  1.00  0.00    -0.178 C  
ATOM      7  N   MET A   1     -10.403   4.914  72.595  1.00  0.00    -0.190 NA 
ATOM      8  O   MET A   1     -10.650   7.365  73.229  1.00  0.00    -0.337 OA 
ATOM      9  OXT MET A   1      -8.647   7.558  74.289  1.00  0.00    -0.206 OA 
ATOM     10  H1  MET A   1     -10.947   4.805  73.451  1.00  0.00     0.000 HD 
ATOM     11  H2  MET A   1     -10.279   4.034  72.095  1.00  0.00     0.000 HD 
ENDBRANCH   4   5
ENDBRANCH   3   4
ENDBRANCH   2   3
TORSDOF 3
ENDMDL
MODEL      203
REMARK 921   NORMALIZED FREE ENERGY PREDICTED BY IDOCK:   -1.44 KCAL/MOL
REMARK 922        TOTAL FREE ENERGY PREDICTED BY IDOCK:   -1.80 KCAL/MOL
REMARK 923 INTER-LIGAND FREE ENERGY PREDICTED BY IDOCK:   -1.68 KCAL/MOL
REMARK 924 INTRA-LIGAND FREE ENERGY PREDICTED BY IDOCK:   -0.12 KCAL/MOL
REMARK 927      BINDING AFFINITY PREDICTED BY RF-SCORE:    0.00 PKD
ROOT
ATOM      1  CE  MET A   1     -10.398   9.734  67.461  1.00  0.00    -0.237 C  
ATOM      2  SD  MET A   1      -8.654   9.910  67.898  1.00  0.00    -0.125 SA 
ENDROOT
BRANCH   2   3
ATOM      3  CG  MET A   1      -8.577   8.729  69.289  1.00  0.00    -0.130 C  
BRANCH   3   4
ATOM      4  CB  MET A   1      -9.377   7.484  68.897  1.00  0.00    -0.142 C  
BRANCH   4   5
ATOM      5  CA  MET A   1      -9.962   6.716  70.086  1.00  0.00    -0.173 C  
ATOM      6  C   MET A   1     -11.294   7.330  70.545  1.00  0.00    -0.280 C  
ATOM      7  N   MET A   1     -10.231   5.307  69.657  1.00  0.00    -0.259 NA 
ATOM      8  O   MET A   1     -12.352   6.667  70.009  1.00  0.00    -0.081 OA 
ATOM      9  OXT MET A   1     -11.402   8.300  71.276  1.00  0.00    -0.254 OA 
ATOM     10  H1  MET A   1     -10.621   4.796  70.449  1.00  0.00     0.000 HD 
ATOM     11  H2  MET A   1      -9.406   4.854  69.266  1.00  0.00     0.000 HD 
ENDBRANCH   4   5
ENDBRANCH   3   4
ENDBRANCH   2   3
TORSDOF 3
ENDMDL
MODEL      204
REMARK 921   NORMALIZED FREE ENERGY PREDICTED BY IDOCK:   -1.43 KCAL/MOL
REMARK 922        TOTAL FREE ENERGY PREDICTED BY IDOCK:   -1.80 KCAL/MOL
REMARK 923 INTER-LIGAND FREE ENERGY PREDICTED BY IDOCK:   -1.63 KCAL/MOL
REMARK 924 INTRA-LIGAND FREE ENERGY PREDICTED BY IDOCK:   -0.17 KCAL/MOL
REMARK 927      BINDING AFFINITY PREDICTED BY RF-SCORE:    0.00 PKD
ROOT
ATOM      1  CE  MET A   1      -9.850   8.733  72.075  1.00  0.00    -0.306 C  
ATOM      2  SD  MET A   1     -11.303   8.881  71.011  1.00  0.00    -0.308 SA 
ENDROOT
BRANCH   2   3
ATOM      3  CG  MET A   1     -11.419   7.155  70.426  1.00  0.00    -0.278 C  
BRANCH   3   4
ATOM      4  CB  MET A   1     -10.058   6.488  70.649  1.00  0.00    -0.212 C  
BRANCH   4   5
ATOM      5  CA  MET A   1      -9.237   6.299  69.370  1.00  0.00    -0.138 C  
ATOM      6  C   MET A   1      -8.245   7.454  69.168  1.00  0.00    -0.121 C  
ATOM      7  N   MET A   1      -8.448   5.033  69.493  1.00  0.00    -0.088 NA 
ATOM      8  O   MET A   1      -7.009   7.126  69.627  1.00  0.00    -0.049 OA 
ATOM      9  OXT MET A   1      -8.522   8.538  68.684  1.00  0.00    -0.128 OA 
ATOM     10  H1  MET A   1      -7.901   4.907  68.641  1.00  0.00     0.000 HD 
ATOM     11  H2  MET A   1      -9.035   4.226  69.705  1.00  0.00     0.000 HD 
ENDBRANCH   4   5
ENDBRANCH   3   4
ENDBRANCH   2   3
TORSDOF 3
ENDMDL
MODEL      205
REMARK 921   NORMALIZED FREE ENERGY PREDICTED BY IDOCK:   -1.38 KCAL/MOL
REMARK 922        TOTAL FREE ENERGY PREDICTED BY IDOCK:   -1.73 KCAL/MOL
REMARK 923 INTER-LIGAND FREE ENERGY PREDICTED BY IDOCK:   -1.68 KCAL/MOL
REMARK 924 INTRA-LIGAND FREE ENERGY PREDICTED BY IDOCK:   -0.06 KCAL/MOL
REMARK 927      BINDING AFFINITY PREDICTED BY RF-SCORE:    0.00 PKD
ROOT
ATOM      1  CE  MET A   1      -7.673   6.104  69.576  1.00  0.00    -0.099 C  
ATOM      2  SD  MET A   1      -8.895   5.885  70.888  1.00  0.00    -0.139 SA 
ENDROOT
BRANCH   2   3
ATOM      3  CG  MET A   1      -9.964   7.325  70.539  1.00  0.00    -0.190 C  
BRANCH   3   4
ATOM      4  CB  MET A   1      -9.392   8.054  69.321  1.00  0.00    -0.151 C  
BRANCH   4   5
ATOM      5  CA  MET A   1     -10.137   9.341  68.955  1.00  0.00    -0.195 C  
ATOM      6  C   MET A   1      -9.175  10.402  68.397  1.00  0.00    -0.147 C  
ATOM      7  N   MET A   1     -11.139   9.026  67.889  1.00  0.00    -0.480 NA 
ATOM      8  O   MET A   1      -9.173  10.398  67.038  1.00  0.00    -0.146 OA 
ATOM      9  OXT MET A   1      -8.481  11.142  69.073  1.00  0.00    -0.131 OA 
ATOM     10  H1  MET A   1     -11.635   9.883  67.646  1.00  0.00     0.000 HD 
ATOM     11  H2  MET A   1     -11.770   8.271  68.158  1.00  0.00     0.000 HD 
ENDBRANCH   4   5
ENDBRANCH   3   4
ENDBRANCH   2   3
TORSDOF 3
ENDMDL
MODEL      206
REMARK 921   NORMALIZED FREE ENERGY PREDICTED BY IDOCK:   -1.38 KCAL/MOL
REMARK 922        TOTAL FREE ENERGY PREDICTED BY IDOCK:   -1.73 KCAL/MOL
REMARK 923 INTER-LIGAND FREE ENERGY PREDICTED BY IDOCK:   -1.68 KCAL/MOL
REMARK 924 INTRA-LIGAND FREE ENERGY PREDICTED BY IDOCK:   -0.06 KCAL/MOL
REMARK 927      BINDING AFFINITY PREDICTED BY RF-SCORE:    0.00 PKD
ROOT
ATOM      1  CE  MET A   1      -6.382   5.908  71.086  1.00  0.00    -0.040 C  
ATOM      2  SD  MET A   1      -6.312   7.413  70.089  1.00  0.00    -0.034 SA 
ENDROOT
BRANCH   2   3
ATOM      3  CG  MET A   1      -7.772   8.281  70.761  1.00  0.00    -0.079 C  
BRANCH   3   4
ATOM      4  CB  MET A   1      -8.987   7.366  70.588  1.00  0.00    -0.155 C  
BRANCH   4   5
ATOM      5  CA  MET A   1     -10.316   8.003  71.005  1.00  0.00    -0.201 C  
ATOM      6  C   MET A   1     -11.085   7.101  71.982  1.00  0.00    -0.245 C  
ATOM      7  N   MET A   1     -10.027   9.294  71.704  1.00  0.00    -0.242 NA 
ATOM      8  O   MET A   1     -10.869   7.475  73.270  1.00  0.00    -0.386 OA 
ATOM      9  OXT MET A   1     -11.781   6.153  71.660  1.00  0.00    -0.296 OA 
ATOM     10  H1  MET A   1     -10.911   9.718  71.982  1.00  0.00     0.000 HD 
ATOM     11  H2  MET A   1      -9.450   9.922  71.144  1.00  0.00     0.000 HD 
ENDBRANCH   4   5
ENDBRANCH   3   4
ENDBRANCH   2   3
TORSDOF 3
ENDMDL
MODEL      207
REMARK 921   NORMALIZED FREE ENERGY PREDICTED BY IDOCK:   -1.38 KCAL/MOL
REMARK 922        TOTAL FREE ENERGY PREDICTED BY IDOCK:   -1.73 KCAL/MOL
REMARK 923 INTER-LIGAND FREE ENERGY PREDICTED BY IDOCK:   -1.65 KCAL/MOL
REMARK 924 INTRA-LIGAND FREE ENERGY PREDICTED BY IDOCK:   -0.08 KCAL/MOL
REMARK 927      BINDING AFFINITY PREDICTED BY RF-SCORE:    0.00 PKD
ROOT
ATOM      1  CE  MET A   1      -9.069   2.760  68.564  1.00  0.00    -0.163 C  
ATOM      2  SD  MET A   1      -8.419   4.438  68.399  1.00  0.00    -0.094 SA 
ENDROOT
BRANCH   2   3
ATOM      3  CG  MET A   1      -9.600   5.320  69.477  1.00  0.00    -0.152 C  
BRANCH   3   4
ATOM      4  CB  MET A   1      -9.722   4.535  70.786  1.00  0.00    -0.267 C  
BRANCH   4   5
ATOM      5  CA  MET A   1      -9.268   5.310  72.026  1.00  0.00    -0.137 C  
ATOM      6  C   MET A   1     -10.470   5.816  72.839  1.00  0.00    -0.214 C  
ATOM      7  N   MET A   1      -8.478   4.388  72.902  1.00  0.00    -0.101 NA 
ATOM      8  O   MET A   1     -10.758   4.974  73.866  1.00  0.00    -0.271 OA 
ATOM      9  OXT MET A   1     -11.106   6.826  72.591  1.00  0.00    -0.250 OA 
ATOM     10  H1  MET A   1      -8.176   4.904  73.728  1.00  0.00     0.000 HD 
ATOM     11  H2  MET A   1      -7.701   3.950  72.408  1.00  0.00     0.000 HD 
ENDBRANCH   4   5
ENDBRANCH   3   4
ENDBRANCH   2   3
TORSDOF 3
ENDMDL
MODEL      208
REMARK 921   NORMALIZED FREE ENERGY PREDICTED BY IDOCK:   -1.38 KCAL/MOL
REMARK 922        TOTAL FREE ENERGY PREDICTED BY IDOCK:   -1.73 KCAL/MOL
REMARK 923 INTER-LIGAND FREE ENERGY PREDICTED BY IDOCK:   -1.66 KCAL/MOL
REMARK 924 INTRA-LIGAND FREE ENERGY PREDICTED BY IDOCK:   -0.07 KCAL/MOL
REMARK 927      BINDING AFFINITY PREDICTED BY RF-SCORE:    0.00 PKD
ROOT
ATOM      1  CE  MET A   1      -6.034   5.747  71.024  1.00  0.00    -0.032 C  
ATOM      2  SD  MET A   1      -6.289   6.867  69.629  1.00  0.00    -0.040 SA 
ENDROOT
BRANCH   2   3
ATOM      3  CG  MET A   1      -8.114   6.831  69.553  1.00  0.00    -0.126 C  
BRANCH   3   4
ATOM      4  CB  MET A   1      -8.651   7.016  70.974  1.00  0.00    -0.134 C  
BRANCH   4   5
ATOM      5  CA  MET A   1      -9.998   6.332  71.229  1.00  0.00    -0.180 C  
ATOM      6  C   MET A   1     -11.128   7.019  70.448  1.00  0.00    -0.287 C  
ATOM      7  N   MET A   1      -9.910   4.915  70.757  1.00  0.00    -0.199 NA 
ATOM      8  O   MET A   1     -11.384   6.371  69.281  1.00  0.00    -0.379 OA 
ATOM      9  OXT MET A   1     -11.712   8.028  70.803  1.00  0.00    -0.278 OA 
ATOM     10  H1  MET A   1     -10.806   4.460  70.926  1.00  0.00     0.000 HD 
ATOM     11  H2  MET A   1      -9.129   4.411  71.177  1.00  0.00     0.000 HD 
ENDBRANCH   4   5
ENDBRANCH   3   4
ENDBRANCH   2   3
TORSDOF 3
ENDMDL
MODEL      209
REMARK 921   NORMALIZED FREE ENERGY PREDICTED BY IDOCK:   -1.38 KCAL/MOL
REMARK 922        TOTAL FREE ENERGY PREDICTED BY IDOCK:   -1.73 KCAL/MOL
REMARK 923 INTER-LIGAND FREE ENERGY PREDICTED BY IDOCK:   -1.59 KCAL/MOL
REMARK 924 INTRA-LIGAND FREE ENERGY PREDICTED BY IDOCK:   -0.14 KCAL/MOL
REMARK 927      BINDING AFFINITY PREDICTED BY RF-SCORE:    0.00 PKD
ROOT
ATOM      1  CE  MET A   1      -6.901   5.569  68.085  1.00  0.00    -0.060 C  
ATOM      2  SD  MET A   1      -8.014   6.370  69.261  1.00  0.00    -0.111 SA 
ENDROOT
BRANCH   2   3
ATOM      3  CG  MET A   1      -7.234   8.020  69.328  1.00  0.00    -0.076 C  
BRANCH   3   4
ATOM      4  CB  MET A   1      -8.122   8.995  68.549  1.00  0.00    -0.107 C  
BRANCH   4   5
ATOM      5  CA  MET A   1      -8.895   9.980  69.430  1.00  0.00    -0.190 C  
ATOM      6  C   MET A   1     -10.411   9.764  69.311  1.00  0.00    -0.219 C  
ATOM      7  N   MET A   1      -8.509   9.747  70.857  1.00  0.00    -0.350 NA 
ATOM      8  O   MET A   1     -10.878   8.988  70.324  1.00  0.00    -0.226 OA 
ATOM      9  OXT MET A   1     -11.112  10.204  68.416  1.00  0.00    -0.250 OA 
ATOM     10  H1  MET A   1      -9.024  10.403  71.445  1.00  0.00     0.000 HD 
ATOM     11  H2  MET A   1      -7.501   9.798  71.003  1.00  0.00     0.000 HD 
ENDBRANCH   4   5
ENDBRANCH   3   4
ENDBRANCH   2   3
TORSDOF 3
ENDMDL
MODEL      210
REMARK 921   NORMALIZED FREE ENERGY PREDICTED BY IDOCK:   -1.38 KCAL/MOL
REMARK 922        TOTAL FREE ENERGY PREDICTED BY IDOCK:   -1.73 KCAL/MOL
REMARK 923 INTER-LIGAND FREE ENERGY PREDICTED BY IDOCK:   -1.90 KCAL/MOL
REMARK 924 INTRA-LIGAND FREE ENERGY PREDICTED BY IDOCK:    0.18 KCAL/MOL
REMARK 927      BINDING AFFINITY PREDICTED BY RF-SCORE:    0.00 PKD
ROOT
ATOM      1  CE  MET A   1      -8.657   6.073  68.882  1.00  0.00    -0.116 C  
ATOM      2  SD  MET A   1     -10.303   5.963  69.619  1.00  0.00    -0.277 SA 
ENDROOT
BRANCH   2   3
ATOM      3  CG  MET A   1     -10.295   7.511  70.589  1.00  0.00    -0.208 C  
BRANCH   3   4
ATOM      4  CB  MET A   1      -8.984   7.568  71.378  1.00  0.00    -0.140 C  
BRANCH   4   5
ATOM      5  CA  MET A   1      -9.169   7.739  72.888  1.00  0.00    -0.208 C  
ATOM      6  C   MET A   1     -10.523   7.180  73.351  1.00  0.00    -0.368 C  
ATOM      7  N   MET A   1      -8.093   6.972  73.590  1.00  0.00    -0.106 NA 
ATOM      8  O   MET A   1     -10.394   5.916  73.834  1.00  0.00    -0.234 OA 
ATOM      9  OXT MET A   1     -11.586   7.772  73.277  1.00  0.00    -0.248 OA 
ATOM     10  H1  MET A   1      -8.216   7.085  74.596  1.00  0.00     0.000 HD 
ATOM     11  H2  MET A   1      -7.158   7.235  73.278  1.00  0.00     0.000 HD 
ENDBRANCH   4   5
ENDBRANCH   3   4
ENDBRANCH   2   3
TORSDOF 3
ENDMDL
MODEL      211
REMARK 921   NORMALIZED FREE ENERGY PREDICTED BY IDOCK:   -1.36 KCAL/MOL
REMARK 922        TOTAL FREE ENERGY PREDICTED BY IDOCK:   -1.71 KCAL/MOL
REMARK 923 INTER-LIGAND FREE ENERGY PREDICTED BY IDOCK:   -1.66 KCAL/MOL
REMARK 924 INTRA-LIGAND FREE ENERGY PREDICTED BY IDOCK:   -0.05 KCAL/MOL
REMARK 927      BINDING AFFINITY PREDICTED BY RF-SCORE:    0.00 PKD
ROOT
ATOM      1  CE  MET A   1      -7.553   5.372  66.075  1.00  0.00    -0.087 C  
ATOM      2  SD  MET A   1      -8.632   4.177  66.895  1.00  0.00    -0.110 SA 
ENDROOT
BRANCH   2   3
ATOM      3  CG  MET A   1      -9.005   5.114  68.418  1.00  0.00    -0.106 C  
BRANCH   3   4
ATOM      4  CB  MET A   1      -9.180   6.587  68.036  1.00  0.00    -0.111 C  
BRANCH   4   5
ATOM      5  CA  MET A   1     -10.640   7.043  67.956  1.00  0.00    -0.207 C  
ATOM      6  C   MET A   1     -11.249   7.211  69.357  1.00  0.00    -0.044 C  
ATOM      7  N   MET A   1     -10.686   8.375  67.275  1.00  0.00    -0.462 NA 
ATOM      8  O   MET A   1     -11.202   8.507  69.762  1.00  0.00    -0.129 OA 
ATOM      9  OXT MET A   1     -11.698   6.304  70.037  1.00  0.00    -0.408 OA 
ATOM     10  H1  MET A   1     -11.658   8.679  67.221  1.00  0.00     0.000 HD 
ATOM     11  H2  MET A   1     -10.229   8.363  66.363  1.00  0.00     0.000 HD 
ENDBRANCH   4   5
ENDBRANCH   3   4
ENDBRANCH   2   3
TORSDOF 3
ENDMDL
MODEL      212
REMARK 921   NORMALIZED FREE ENERGY PREDICTED BY IDOCK:   -1.36 KCAL/MOL
REMARK 922        TOTAL FREE ENERGY PREDICTED BY IDOCK:   -1.71 KCAL/MOL
REMARK 923 INTER-LIGAND FREE ENERGY PREDICTED BY IDOCK:   -1.86 KCAL/MOL
REMARK 924 INTRA-LIGAND FREE ENERGY PREDICTED BY IDOCK:    0.15 KCAL/MOL
REMARK 927      BINDING AFFINITY PREDICTED BY RF-SCORE:    0.00 PKD
ROOT
ATOM      1  CE  MET A   1      -7.632   6.897  66.550  1.00  0.00    -0.089 C  
ATOM      2  SD  MET A   1      -7.719   8.339  67.634  1.00  0.00    -0.100 SA 
ENDROOT
BRANCH   2   3
ATOM      3  CG  MET A   1      -7.830   9.653  66.370  1.00  0.00    -0.101 C  
BRANCH   3   4
ATOM      4  CB  MET A   1      -8.845   9.208  65.314  1.00  0.00    -0.240 C  
BRANCH   4   5
ATOM      5  CA  MET A   1     -10.158   9.996  65.336  1.00  0.00    -0.247 C  
ATOM      6  C   MET A   1     -10.083  11.177  66.316  1.00  0.00    -0.232 C  
ATOM      7  N   MET A   1     -10.405  10.551  63.968  1.00  0.00    -0.426 NA 
ATOM      8  O   MET A   1      -9.774  12.332  65.671  1.00  0.00    -0.245 OA 
ATOM      9  OXT MET A   1     -10.252  11.098  67.521  1.00  0.00    -0.179 OA 
ATOM     10  H1  MET A   1     -11.279  11.076  63.983  1.00  0.00     0.000 HD 
ATOM     11  H2  MET A   1     -10.393   9.831  63.247  1.00  0.00     0.000 HD 
ENDBRANCH   4   5
ENDBRANCH   3   4
ENDBRANCH   2   3
TORSDOF 3
ENDMDL
MODEL      213
REMARK 921   NORMALIZED FREE ENERGY PREDICTED BY IDOCK:   -1.34 KCAL/MOL
REMARK 922        TOTAL FREE ENERGY PREDICTED BY IDOCK:   -1.68 KCAL/MOL
REMARK 923 INTER-LIGAND FREE ENERGY PREDICTED BY IDOCK:   -1.57 KCAL/MOL
REMARK 924 INTRA-LIGAND FREE ENERGY PREDICTED BY IDOCK:   -0.11 KCAL/MOL
REMARK 927      BINDING AFFINITY PREDICTED BY RF-SCORE:    0.00 PKD
ROOT
ATOM      1  CE  MET A   1     -10.324  10.232  68.959  1.00  0.00    -0.211 C  
ATOM      2  SD  MET A   1      -9.033   9.203  68.223  1.00  0.00    -0.128 SA 
ENDROOT
BRANCH   2   3
ATOM      3  CG  MET A   1      -7.936  10.518  67.585  1.00  0.00    -0.106 C  
BRANCH   3   4
ATOM      4  CB  MET A   1      -8.204  10.670  66.086  1.00  0.00    -0.156 C  
BRANCH   4   5
ATOM      5  CA  MET A   1      -7.283   9.831  65.196  1.00  0.00    -0.122 C  
ATOM      6  C   MET A   1      -8.049   8.674  64.535  1.00  0.00    -0.162 C  
ATOM      7  N   MET A   1      -6.744  10.705  64.108  1.00  0.00    -0.352 NA 
ATOM      8  O   MET A   1      -8.437   9.000  63.274  1.00  0.00    -0.193 OA 
ATOM      9  OXT MET A   1      -8.303   7.608  65.068  1.00  0.00    -0.135 OA 
ATOM     10  H1  MET A   1      -6.130  10.146  63.516  1.00  0.00     0.000 HD 
ATOM     11  H2  MET A   1      -6.284  11.540  64.469  1.00  0.00     0.000 HD 
ENDBRANCH   4   5
ENDBRANCH   3   4
ENDBRANCH   2   3
TORSDOF 3
ENDMDL
MODEL      214
REMARK 921   NORMALIZED FREE ENERGY PREDICTED BY IDOCK:   -1.32 KCAL/MOL
REMARK 922        TOTAL FREE ENERGY PREDICTED BY IDOCK:   -1.66 KCAL/MOL
REMARK 923 INTER-LIGAND FREE ENERGY PREDICTED BY IDOCK:   -1.50 KCAL/MOL
REMARK 924 INTRA-LIGAND FREE ENERGY PREDICTED BY IDOCK:   -0.16 KCAL/MOL
REMARK 927      BINDING AFFINITY PREDICTED BY RF-SCORE:    0.00 PKD
ROOT
ATOM      1  CE  MET A   1      -8.773  10.697  68.909  1.00  0.00    -0.161 C  
ATOM      2  SD  MET A   1     -10.023   9.591  69.601  1.00  0.00    -0.220 SA 
ENDROOT
BRANCH   2   3
ATOM      3  CG  MET A   1      -9.295   9.322  71.255  1.00  0.00    -0.130 C  
BRANCH   3   4
ATOM      4  CB  MET A   1      -9.908   8.046  71.839  1.00  0.00    -0.251 C  
BRANCH   4   5
ATOM      5  CA  MET A   1      -9.022   6.804  71.697  1.00  0.00    -0.136 C  
ATOM      6  C   MET A   1      -9.593   5.829  70.656  1.00  0.00    -0.174 C  
ATOM      7  N   MET A   1      -7.668   7.236  71.228  1.00  0.00    -0.087 NA 
ATOM      8  O   MET A   1      -8.997   5.997  69.447  1.00  0.00    -0.125 OA 
ATOM      9  OXT MET A   1     -10.481   5.021  70.867  1.00  0.00    -0.216 OA 
ATOM     10  H1  MET A   1      -7.079   6.409  71.133  1.00  0.00     0.000 HD 
ATOM     11  H2  MET A   1      -7.253   7.945  71.831  1.00  0.00     0.000 HD 
ENDBRANCH   4   5
ENDBRANCH   3   4
ENDBRANCH   2   3
TORSDOF 3
ENDMDL
MODEL      215
REMARK 921   NORMALIZED FREE ENERGY PREDICTED BY IDOCK:   -1.31 KCAL/MOL
REMARK 922        TOTAL FREE ENERGY PREDICTED BY IDOCK:   -1.65 KCAL/MOL
REMARK 923 INTER-LIGAND FREE ENERGY PREDICTED BY IDOCK:   -1.57 KCAL/MOL
REMARK 924 INTRA-LIGAND FREE ENERGY PREDICTED BY IDOCK:   -0.08 KCAL/MOL
REMARK 927      BINDING AFFINITY PREDICTED BY RF-SCORE:    0.00 PKD
ROOT
ATOM      1  CE  MET A   1      -9.186   7.692  68.631  1.00  0.00    -0.141 C  
ATOM      2  SD  MET A   1      -7.746   7.334  67.600  1.00  0.00    -0.113 SA 
ENDROOT
BRANCH   2   3
ATOM      3  CG  MET A   1      -8.591   6.590  66.161  1.00  0.00    -0.145 C  
BRANCH   3   4
ATOM      4  CB  MET A   1      -9.883   5.935  66.659  1.00  0.00    -0.197 C  
BRANCH   4   5
ATOM      5  CA  MET A   1      -9.936   4.419  66.453  1.00  0.00    -0.232 C  
ATOM      6  C   MET A   1     -10.171   4.064  64.976  1.00  0.00    -0.181 C  
ATOM      7  N   MET A   1      -8.618   3.836  66.860  1.00  0.00    -0.105 NA 
ATOM      8  O   MET A   1      -9.000   3.786  64.345  1.00  0.00    -0.116 OA 
ATOM      9  OXT MET A   1     -11.257   4.054  64.424  1.00  0.00    -0.338 OA 
ATOM     10  H1  MET A   1      -8.653   2.826  66.723  1.00  0.00     0.000 HD 
ATOM     11  H2  MET A   1      -8.355   4.093  67.811  1.00  0.00     0.000 HD 
ENDBRANCH   4   5
ENDBRANCH   3   4
ENDBRANCH   2   3
TORSDOF 3
ENDMDL
MODEL      216
REMARK 921   NORMALIZED FREE ENERGY PREDICTED BY IDOCK:   -1.31 KCAL/MOL
REMARK 922        TOTAL FREE ENERGY PREDICTED BY IDOCK:   -1.65 KCAL/MOL
REMARK 923 INTER-LIGAND FREE ENERGY PREDICTED BY IDOCK:   -1.59 KCAL/MOL
REMARK 924 INTRA-LIGAND FREE ENERGY PREDICTED BY IDOCK:   -0.05 KCAL/MOL
REMARK 927      BINDING AFFINITY PREDICTED BY RF-SCORE:    0.00 PKD
ROOT
ATOM      1  CE  MET A   1     -12.737  10.224  70.959  1.00  0.00    -0.396 C  
ATOM      2  SD  MET A   1     -11.202   9.276  70.860  1.00  0.00    -0.334 SA 
ENDROOT
BRANCH   2   3
ATOM      3  CG  MET A   1     -10.520   9.979  69.318  1.00  0.00    -0.225 C  
BRANCH   3   4
ATOM      4  CB  MET A   1      -9.131   9.374  69.096  1.00  0.00    -0.148 C  
BRANCH   4   5
ATOM      5  CA  MET A   1      -8.709   9.297  67.626  1.00  0.00    -0.116 C  
ATOM      6  C   MET A   1      -7.357   9.991  67.397  1.00  0.00    -0.090 C  
ATOM      7  N   MET A   1      -8.554   7.857  67.249  1.00  0.00    -0.127 NA 
ATOM      8  O   MET A   1      -6.337   9.094  67.404  1.00  0.00    -0.058 OA 
ATOM      9  OXT MET A   1      -7.203  11.192  67.252  1.00  0.00    -0.100 OA 
ATOM     10  H1  MET A   1      -8.273   7.806  66.270  1.00  0.00     0.000 HD 
ATOM     11  H2  MET A   1      -9.392   7.310  67.444  1.00  0.00     0.000 HD 
ENDBRANCH   4   5
ENDBRANCH   3   4
ENDBRANCH   2   3
TORSDOF 3
ENDMDL
MODEL      217
REMARK 921   NORMALIZED FREE ENERGY PREDICTED BY IDOCK:   -1.30 KCAL/MOL
REMARK 922        TOTAL FREE ENERGY PREDICTED BY IDOCK:   -1.64 KCAL/MOL
REMARK 923 INTER-LIGAND FREE ENERGY PREDICTED BY IDOCK:   -1.81 KCAL/MOL
REMARK 924 INTRA-LIGAND FREE ENERGY PREDICTED BY IDOCK:    0.18 KCAL/MOL
REMARK 927      BINDING AFFINITY PREDICTED BY RF-SCORE:    0.00 PKD
ROOT
ATOM      1  CE  MET A   1      -6.388  12.441  68.997  1.00  0.00    -0.092 C  
ATOM      2  SD  MET A   1      -8.109  12.164  68.521  1.00  0.00    -0.067 SA 
ENDROOT
BRANCH   2   3
ATOM      3  CG  MET A   1      -7.877  10.764  67.372  1.00  0.00    -0.111 C  
BRANCH   3   4
ATOM      4  CB  MET A   1      -8.525  11.136  66.036  1.00  0.00    -0.138 C  
BRANCH   4   5
ATOM      5  CA  MET A   1      -9.787  10.333  65.707  1.00  0.00    -0.257 C  
ATOM      6  C   MET A   1     -10.689  10.182  66.942  1.00  0.00    -0.161 C  
ATOM      7  N   MET A   1     -10.562  11.071  64.661  1.00  0.00    -0.326 NA 
ATOM      8  O   MET A   1     -11.674  11.118  66.948  1.00  0.00    -0.410 OA 
ATOM      9  OXT MET A   1     -10.538   9.352  67.822  1.00  0.00    -0.252 OA 
ATOM     10  H1  MET A   1     -11.403  10.536  64.442  1.00  0.00     0.000 HD 
ATOM     11  H2  MET A   1     -10.004  11.277  63.834  1.00  0.00     0.000 HD 
ENDBRANCH   4   5
ENDBRANCH   3   4
ENDBRANCH   2   3
TORSDOF 3
ENDMDL
MODEL      218
REMARK 921   NORMALIZED FREE ENERGY PREDICTED BY IDOCK:   -1.29 KCAL/MOL
REMARK 922        TOTAL FREE ENERGY PREDICTED BY IDOCK:   -1.63 KCAL/MOL
REMARK 923 INTER-LIGAND FREE ENERGY PREDICTED BY IDOCK:   -1.55 KCAL/MOL
REMARK 924 INTRA-LIGAND FREE ENERGY PREDICTED BY IDOCK:   -0.08 KCAL/MOL
REMARK 927      BINDING AFFINITY PREDICTED BY RF-SCORE:    0.00 PKD
ROOT
ATOM      1  CE  MET A   1     -11.160   6.194  68.823  1.00  0.00    -0.319 C  
ATOM      2  SD  MET A   1      -9.890   5.634  67.666  1.00  0.00    -0.146 SA 
ENDROOT
BRANCH   2   3
ATOM      3  CG  MET A   1      -8.526   6.742  68.165  1.00  0.00    -0.121 C  
BRANCH   3   4
ATOM      4  CB  MET A   1      -9.098   8.153  68.325  1.00  0.00    -0.135 C  
BRANCH   4   5
ATOM      5  CA  MET A   1      -9.199   8.940  67.015  1.00  0.00    -0.137 C  
ATOM      6  C   MET A   1     -10.037  10.215  67.194  1.00  0.00    -0.209 C  
ATOM      7  N   MET A   1      -7.822   9.352  66.598  1.00  0.00    -0.104 NA 
ATOM      8  O   MET A   1      -9.244  11.298  67.409  1.00  0.00    -0.159 OA 
ATOM      9  OXT MET A   1     -11.255  10.261  67.173  1.00  0.00    -0.215 OA 
ATOM     10  H1  MET A   1      -7.889   9.876  65.726  1.00  0.00     0.000 HD 
ATOM     11  H2  MET A   1      -7.181   8.561  66.531  1.00  0.00     0.000 HD 
ENDBRANCH   4   5
ENDBRANCH   3   4
ENDBRANCH   2   3
TORSDOF 3
ENDMDL
MODEL      219
REMARK 921   NORMALIZED FREE ENERGY PREDICTED BY IDOCK:   -1.28 KCAL/MOL
REMARK 922        TOTAL FREE ENERGY PREDICTED BY IDOCK:   -1.61 KCAL/MOL
REMARK 923 INTER-LIGAND FREE ENERGY PREDICTED BY IDOCK:   -1.50 KCAL/MOL
REMARK 924 INTRA-LIGAND FREE ENERGY PREDICTED BY IDOCK:   -0.11 KCAL/MOL
REMARK 927      BINDING AFFINITY PREDICTED BY RF-SCORE:    0.00 PKD
ROOT
ATOM      1  CE  MET A   1      -9.448   3.765  66.866  1.00  0.00    -0.199 C  
ATOM      2  SD  MET A   1     -10.517   5.143  66.396  1.00  0.00    -0.258 SA 
ENDROOT
BRANCH   2   3
ATOM      3  CG  MET A   1      -9.927   6.395  67.588  1.00  0.00    -0.126 C  
BRANCH   3   4
ATOM      4  CB  MET A   1     -10.400   5.979  68.983  1.00  0.00    -0.283 C  
BRANCH   4   5
ATOM      5  CA  MET A   1      -9.430   6.348  70.110  1.00  0.00    -0.160 C  
ATOM      6  C   MET A   1      -9.028   5.110  70.927  1.00  0.00    -0.135 C  
ATOM      7  N   MET A   1      -8.188   6.918  69.501  1.00  0.00    -0.130 NA 
ATOM      8  O   MET A   1      -7.840   4.606  70.503  1.00  0.00    -0.053 OA 
ATOM      9  OXT MET A   1      -9.691   4.619  71.825  1.00  0.00    -0.153 OA 
ATOM     10  H1  MET A   1      -7.541   7.163  70.250  1.00  0.00     0.000 HD 
ATOM     11  H2  MET A   1      -8.382   7.702  68.879  1.00  0.00     0.000 HD 
ENDBRANCH   4   5
ENDBRANCH   3   4
ENDBRANCH   2   3
TORSDOF 3
ENDMDL
MODEL      220
REMARK 921   NORMALIZED FREE ENERGY PREDICTED BY IDOCK:   -1.28 KCAL/MOL
REMARK 922        TOTAL FREE ENERGY PREDICTED BY IDOCK:   -1.61 KCAL/MOL
REMARK 923 INTER-LIGAND FREE ENERGY PREDICTED BY IDOCK:   -1.66 KCAL/MOL
REMARK 924 INTRA-LIGAND FREE ENERGY PREDICTED BY IDOCK:    0.05 KCAL/MOL
REMARK 927      BINDING AFFINITY PREDICTED BY RF-SCORE:    0.00 PKD
ROOT
ATOM      1  CE  MET A   1      -6.340   4.074  66.922  1.00  0.00    -0.040 C  
ATOM      2  SD  MET A   1      -7.838   5.047  66.652  1.00  0.00    -0.100 SA 
ENDROOT
BRANCH   2   3
ATOM      3  CG  MET A   1      -8.079   5.693  68.344  1.00  0.00    -0.103 C  
BRANCH   3   4
ATOM      4  CB  MET A   1      -8.263   7.210  68.249  1.00  0.00    -0.124 C  
BRANCH   4   5
ATOM      5  CA  MET A   1      -9.634   7.706  68.719  1.00  0.00    -0.153 C  
ATOM      6  C   MET A   1     -10.742   6.705  68.358  1.00  0.00    -0.258 C  
ATOM      7  N   MET A   1      -9.607   7.842  70.209  1.00  0.00    -0.175 NA 
ATOM      8  O   MET A   1     -11.033   5.893  69.408  1.00  0.00    -0.342 OA 
ATOM      9  OXT MET A   1     -11.282   6.621  67.268  1.00  0.00    -0.366 OA 
ATOM     10  H1  MET A   1     -10.519   8.172  70.521  1.00  0.00     0.000 HD 
ATOM     11  H2  MET A   1      -8.844   8.436  70.533  1.00  0.00     0.000 HD 
ENDBRANCH   4   5
ENDBRANCH   3   4
ENDBRANCH   2   3
TORSDOF 3
ENDMDL
MODEL      221
REMARK 921   NORMALIZED FREE ENERGY PREDICTED BY IDOCK:   -1.28 KCAL/MOL
REMARK 922        TOTAL FREE ENERGY PREDICTED BY IDOCK:   -1.61 KCAL/MOL
REMARK 923 INTER-LIGAND FREE ENERGY PREDICTED BY IDOCK:   -1.53 KCAL/MOL
REMARK 924 INTRA-LIGAND FREE ENERGY PREDICTED BY IDOCK:   -0.08 KCAL/MOL
REMARK 927      BINDING AFFINITY PREDICTED BY RF-SCORE:    0.00 PKD
ROOT
ATOM      1  CE  MET A   1     -11.113   5.977  72.453  1.00  0.00    -0.277 C  
ATOM      2  SD  MET A   1     -11.167   7.626  71.716  1.00  0.00    -0.256 SA 
ENDROOT
BRANCH   2   3
ATOM      3  CG  MET A   1     -10.686   7.202  70.006  1.00  0.00    -0.248 C  
BRANCH   3   4
ATOM      4  CB  MET A   1     -10.296   8.497  69.289  1.00  0.00    -0.227 C  
BRANCH   4   5
ATOM      5  CA  MET A   1      -9.357   8.295  68.096  1.00  0.00    -0.133 C  
ATOM      6  C   MET A   1      -7.899   8.590  68.479  1.00  0.00    -0.108 C  
ATOM      7  N   MET A   1      -9.437   6.864  67.664  1.00  0.00    -0.123 NA 
ATOM      8  O   MET A   1      -7.230   7.448  68.788  1.00  0.00    -0.084 OA 
ATOM      9  OXT MET A   1      -7.399   9.701  68.527  1.00  0.00    -0.077 OA 
ATOM     10  H1  MET A   1      -8.811   6.729  66.870  1.00  0.00     0.000 HD 
ATOM     11  H2  MET A   1     -10.392   6.569  67.465  1.00  0.00     0.000 HD 
ENDBRANCH   4   5
ENDBRANCH   3   4
ENDBRANCH   2   3
TORSDOF 3
ENDMDL
MODEL      222
REMARK 921   NORMALIZED FREE ENERGY PREDICTED BY IDOCK:   -1.27 KCAL/MOL
REMARK 922        TOTAL FREE ENERGY PREDICTED BY IDOCK:   -1.61 KCAL/MOL
REMARK 923 INTER-LIGAND FREE ENERGY PREDICTED BY IDOCK:   -1.57 KCAL/MOL
REMARK 924 INTRA-LIGAND FREE ENERGY PREDICTED BY IDOCK:   -0.03 KCAL/MOL
REMARK 927      BINDING AFFINITY PREDICTED BY RF-SCORE:    0.00 PKD
ROOT
ATOM      1  CE  MET A   1     -10.587   5.404  73.545  1.00  0.00    -0.270 C  
ATOM      2  SD  MET A   1     -10.867   6.914  72.595  1.00  0.00    -0.273 SA 
ENDROOT
BRANCH   2   3
ATOM      3  CG  MET A   1     -10.580   6.262  70.913  1.00  0.00    -0.241 C  
BRANCH   3   4
ATOM      4  CB  MET A   1     -10.286   4.764  71.030  1.00  0.00    -0.239 C  
BRANCH   4   5
ATOM      5  CA  MET A   1      -9.072   4.299  70.220  1.00  0.00    -0.101 C  
ATOM      6  C   MET A   1      -9.195   4.713  68.745  1.00  0.00    -0.129 C  
ATOM      7  N   MET A   1      -7.847   4.952  70.779  1.00  0.00    -0.077 NA 
ATOM      8  O   MET A   1      -8.514   5.864  68.500  1.00  0.00    -0.111 OA 
ATOM      9  OXT MET A   1      -9.836   4.112  67.900  1.00  0.00    -0.132 OA 
ATOM     10  H1  MET A   1      -7.039   4.642  70.239  1.00  0.00     0.000 HD 
ATOM     11  H2  MET A   1      -7.737   4.785  71.779  1.00  0.00     0.000 HD 
ENDBRANCH   4   5
ENDBRANCH   3   4
ENDBRANCH   2   3
TORSDOF 3
ENDMDL
MODEL      223
REMARK 921   NORMALIZED FREE ENERGY PREDICTED BY IDOCK:   -1.27 KCAL/MOL
REMARK 922        TOTAL FREE ENERGY PREDICTED BY IDOCK:   -1.60 KCAL/MOL
REMARK 923 INTER-LIGAND FREE ENERGY PREDICTED BY IDOCK:   -1.51 KCAL/MOL
REMARK 924 INTRA-LIGAND FREE ENERGY PREDICTED BY IDOCK:   -0.10 KCAL/MOL
REMARK 927      BINDING AFFINITY PREDICTED BY RF-SCORE:    0.00 PKD
ROOT
ATOM      1  CE  MET A   1      -9.316  10.083  66.631  1.00  0.00    -0.166 C  
ATOM      2  SD  MET A   1      -8.773   8.747  65.543  1.00  0.00    -0.182 SA 
ENDROOT
BRANCH   2   3
ATOM      3  CG  MET A   1      -8.388   7.479  66.801  1.00  0.00    -0.126 C  
BRANCH   3   4
ATOM      4  CB  MET A   1      -8.761   8.046  68.173  1.00  0.00    -0.126 C  
BRANCH   4   5
ATOM      5  CA  MET A   1      -8.862   6.993  69.280  1.00  0.00    -0.139 C  
ATOM      6  C   MET A   1     -10.308   6.501  69.451  1.00  0.00    -0.205 C  
ATOM      7  N   MET A   1      -8.020   5.816  68.897  1.00  0.00    -0.097 NA 
ATOM      8  O   MET A   1     -10.517   5.343  68.772  1.00  0.00    -0.197 OA 
ATOM      9  OXT MET A   1     -11.172   7.077  70.089  1.00  0.00    -0.273 OA 
ATOM     10  H1  MET A   1      -8.088   5.114  69.633  1.00  0.00     0.000 HD 
ATOM     11  H2  MET A   1      -7.056   6.076  68.691  1.00  0.00     0.000 HD 
ENDBRANCH   4   5
ENDBRANCH   3   4
ENDBRANCH   2   3
TORSDOF 3
ENDMDL
MODEL      224
REMARK 921   NORMALIZED FREE ENERGY PREDICTED BY IDOCK:   -1.27 KCAL/MOL
REMARK 922        TOTAL FREE ENERGY PREDICTED BY IDOCK:   -1.60 KCAL/MOL
REMARK 923 INTER-LIGAND FREE ENERGY PREDICTED BY IDOCK:   -1.57 KCAL/MOL
REMARK 924 INTRA-LIGAND FREE ENERGY PREDICTED BY IDOCK:   -0.03 KCAL/MOL
REMARK 927      BINDING AFFINITY PREDICTED BY RF-SCORE:    0.00 PKD
ROOT
ATOM      1  CE  MET A   1      -8.346   9.882  69.326  1.00  0.00    -0.151 C  
ATOM      2  SD  MET A   1      -7.001   8.744  68.930  1.00  0.00    -0.062 SA 
ENDROOT
BRANCH   2   3
ATOM      3  CG  MET A   1      -7.900   7.161  69.077  1.00  0.00    -0.114 C  
BRANCH   3   4
ATOM      4  CB  MET A   1      -9.366   7.477  69.387  1.00  0.00    -0.152 C  
BRANCH   4   5
ATOM      5  CA  MET A   1     -10.345   6.374  68.974  1.00  0.00    -0.199 C  
ATOM      6  C   MET A   1     -10.417   6.236  67.446  1.00  0.00    -0.248 C  
ATOM      7  N   MET A   1      -9.860   5.073  69.530  1.00  0.00    -0.192 NA 
ATOM      8  O   MET A   1      -9.607   5.238  67.004  1.00  0.00    -0.127 OA 
ATOM      9  OXT MET A   1     -11.088   6.939  66.710  1.00  0.00    -0.321 OA 
ATOM     10  H1  MET A   1     -10.512   4.338  69.255  1.00  0.00     0.000 HD 
ATOM     11  H2  MET A   1      -9.714   5.109  70.539  1.00  0.00     0.000 HD 
ENDBRANCH   4   5
ENDBRANCH   3   4
ENDBRANCH   2   3
TORSDOF 3
ENDMDL
MODEL      225
REMARK 921   NORMALIZED FREE ENERGY PREDICTED BY IDOCK:   -1.26 KCAL/MOL
REMARK 922        TOTAL FREE ENERGY PREDICTED BY IDOCK:   -1.59 KCAL/MOL
REMARK 923 INTER-LIGAND FREE ENERGY PREDICTED BY IDOCK:   -1.55 KCAL/MOL
REMARK 924 INTRA-LIGAND FREE ENERGY PREDICTED BY IDOCK:   -0.04 KCAL/MOL
REMARK 927      BINDING AFFINITY PREDICTED BY RF-SCORE:    0.00 PKD
ROOT
ATOM      1  CE  MET A   1      -9.715   9.281  65.783  1.00  0.00    -0.269 C  
ATOM      2  SD  MET A   1      -9.593  11.078  65.913  1.00  0.00    -0.230 SA 
ENDROOT
BRANCH   2   3
ATOM      3  CG  MET A   1      -8.446  11.195  67.330  1.00  0.00    -0.137 C  
BRANCH   3   4
ATOM      4  CB  MET A   1      -7.999  12.653  67.458  1.00  0.00    -0.174 C  
BRANCH   4   5
ATOM      5  CA  MET A   1      -6.479  12.844  67.469  1.00  0.00    -0.160 C  
ATOM      6  C   MET A   1      -6.100  14.283  67.852  1.00  0.00    -0.148 C  
ATOM      7  N   MET A   1      -5.891  11.927  68.495  1.00  0.00    -0.049 NA 
ATOM      8  O   MET A   1      -5.799  14.377  69.174  1.00  0.00    -0.090 OA 
ATOM      9  OXT MET A   1      -6.091  15.231  67.086  1.00  0.00    -0.292 OA 
ATOM     10  H1  MET A   1      -4.879  12.054  68.503  1.00  0.00     0.000 HD 
ATOM     11  H2  MET A   1      -6.163  10.954  68.352  1.00  0.00     0.000 HD 
ENDBRANCH   4   5
ENDBRANCH   3   4
ENDBRANCH   2   3
TORSDOF 3
ENDMDL
MODEL      226
REMARK 921   NORMALIZED FREE ENERGY PREDICTED BY IDOCK:   -1.26 KCAL/MOL
REMARK 922        TOTAL FREE ENERGY PREDICTED BY IDOCK:   -1.59 KCAL/MOL
REMARK 923 INTER-LIGAND FREE ENERGY PREDICTED BY IDOCK:   -1.51 KCAL/MOL
REMARK 924 INTRA-LIGAND FREE ENERGY PREDICTED BY IDOCK:   -0.07 KCAL/MOL
REMARK 927      BINDING AFFINITY PREDICTED BY RF-SCORE:    0.00 PKD
ROOT
ATOM      1  CE  MET A   1      -5.771   5.515  66.709  1.00  0.00    -0.017 C  
ATOM      2  SD  MET A   1      -7.287   5.382  67.684  1.00  0.00    -0.077 SA 
ENDROOT
BRANCH   2   3
ATOM      3  CG  MET A   1      -7.077   6.845  68.757  1.00  0.00    -0.089 C  
BRANCH   3   4
ATOM      4  CB  MET A   1      -8.438   7.535  68.887  1.00  0.00    -0.129 C  
BRANCH   4   5
ATOM      5  CA  MET A   1      -8.990   7.566  70.315  1.00  0.00    -0.147 C  
ATOM      6  C   MET A   1      -8.904   8.977  70.916  1.00  0.00    -0.240 C  
ATOM      7  N   MET A   1     -10.434   7.172  70.276  1.00  0.00    -0.213 NA 
ATOM      8  O   MET A   1     -10.084   9.639  70.788  1.00  0.00    -0.278 OA 
ATOM      9  OXT MET A   1      -7.906   9.462  71.422  1.00  0.00    -0.325 OA 
ATOM     10  H1  MET A   1     -10.802   7.193  71.227  1.00  0.00     0.000 HD 
ATOM     11  H2  MET A   1     -10.581   6.273  69.819  1.00  0.00     0.000 HD 
ENDBRANCH   4   5
ENDBRANCH   3   4
ENDBRANCH   2   3
TORSDOF 3
ENDMDL
MODEL      227
REMARK 921   NORMALIZED FREE ENERGY PREDICTED BY IDOCK:   -1.25 KCAL/MOL
REMARK 922        TOTAL FREE ENERGY PREDICTED BY IDOCK:   -1.58 KCAL/MOL
REMARK 923 INTER-LIGAND FREE ENERGY PREDICTED BY IDOCK:   -1.75 KCAL/MOL
REMARK 924 INTRA-LIGAND FREE ENERGY PREDICTED BY IDOCK:    0.17 KCAL/MOL
REMARK 927      BINDING AFFINITY PREDICTED BY RF-SCORE:    0.00 PKD
ROOT
ATOM      1  CE  MET A   1     -11.041  10.247  70.059  1.00  0.00    -0.311 C  
ATOM      2  SD  MET A   1     -11.124   9.131  71.477  1.00  0.00    -0.384 SA 
ENDROOT
BRANCH   2   3
ATOM      3  CG  MET A   1      -9.588   8.182  71.197  1.00  0.00    -0.160 C  
BRANCH   3   4
ATOM      4  CB  MET A   1      -9.433   7.184  72.347  1.00  0.00    -0.166 C  
BRANCH   4   5
ATOM      5  CA  MET A   1      -8.030   7.149  72.960  1.00  0.00    -0.101 C  
ATOM      6  C   MET A   1      -7.033   7.963  72.120  1.00  0.00    -0.070 C  
ATOM      7  N   MET A   1      -8.090   7.765  74.323  1.00  0.00    -0.206 NA 
ATOM      8  O   MET A   1      -6.873   9.215  72.623  1.00  0.00    -0.313 OA 
ATOM      9  OXT MET A   1      -6.471   7.559  71.116  1.00  0.00    -0.039 OA 
ATOM     10  H1  MET A   1      -7.156   7.742  74.732  1.00  0.00     0.000 HD 
ATOM     11  H2  MET A   1      -8.789   7.325  74.920  1.00  0.00     0.000 HD 
ENDBRANCH   4   5
ENDBRANCH   3   4
ENDBRANCH   2   3
TORSDOF 3
ENDMDL
MODEL      228
REMARK 921   NORMALIZED FREE ENERGY PREDICTED BY IDOCK:   -1.24 KCAL/MOL
REMARK 922        TOTAL FREE ENERGY PREDICTED BY IDOCK:   -1.57 KCAL/MOL
REMARK 923 INTER-LIGAND FREE ENERGY PREDICTED BY IDOCK:   -1.50 KCAL/MOL
REMARK 924 INTRA-LIGAND FREE ENERGY PREDICTED BY IDOCK:   -0.07 KCAL/MOL
REMARK 927      BINDING AFFINITY PREDICTED BY RF-SCORE:    0.00 PKD
ROOT
ATOM      1  CE  MET A   1      -9.799  12.612  68.499  1.00  0.00    -0.148 C  
ATOM      2  SD  MET A   1     -11.409  12.152  67.822  1.00  0.00    -0.330 SA 
ENDROOT
BRANCH   2   3
ATOM      3  CG  MET A   1     -11.050  10.423  67.356  1.00  0.00    -0.226 C  
BRANCH   3   4
ATOM      4  CB  MET A   1      -9.689  10.046  67.947  1.00  0.00    -0.168 C  
BRANCH   4   5
ATOM      5  CA  MET A   1      -9.533   8.555  68.261  1.00  0.00    -0.134 C  
ATOM      6  C   MET A   1      -8.078   8.096  68.077  1.00  0.00    -0.128 C  
ATOM      7  N   MET A   1      -9.908   8.327  69.691  1.00  0.00    -0.181 NA 
ATOM      8  O   MET A   1      -7.413   8.086  69.262  1.00  0.00    -0.089 OA 
ATOM      9  OXT MET A   1      -7.567   7.801  67.011  1.00  0.00    -0.096 OA 
ATOM     10  H1  MET A   1      -9.804   7.334  69.900  1.00  0.00     0.000 HD 
ATOM     11  H2  MET A   1     -10.840   8.678  69.911  1.00  0.00     0.000 HD 
ENDBRANCH   4   5
ENDBRANCH   3   4
ENDBRANCH   2   3
TORSDOF 3
ENDMDL
MODEL      229
REMARK 921   NORMALIZED FREE ENERGY PREDICTED BY IDOCK:   -1.24 KCAL/MOL
REMARK 922        TOTAL FREE ENERGY PREDICTED BY IDOCK:   -1.56 KCAL/MOL
REMARK 923 INTER-LIGAND FREE ENERGY PREDICTED BY IDOCK:   -1.50 KCAL/MOL
REMARK 924 INTRA-LIGAND FREE ENERGY PREDICTED BY IDOCK:   -0.06 KCAL/MOL
REMARK 927      BINDING AFFINITY PREDICTED BY RF-SCORE:    0.00 PKD
ROOT
ATOM      1  CE  MET A   1      -9.849   9.310  66.403  1.00  0.00    -0.277 C  
ATOM      2  SD  MET A   1      -8.545   8.254  65.733  1.00  0.00    -0.162 SA 
ENDROOT
BRANCH   2   3
ATOM      3  CG  MET A   1      -7.577   7.977  67.258  1.00  0.00    -0.097 C  
BRANCH   3   4
ATOM      4  CB  MET A   1      -8.529   8.105  68.451  1.00  0.00    -0.126 C  
BRANCH   4   5
ATOM      5  CA  MET A   1      -7.865   7.860  69.809  1.00  0.00    -0.104 C  
ATOM      6  C   MET A   1      -8.189   8.989  70.800  1.00  0.00    -0.181 C  
ATOM      7  N   MET A   1      -8.401   6.583  70.378  1.00  0.00    -0.125 NA 
ATOM      8  O   MET A   1      -9.229   8.651  71.607  1.00  0.00    -0.210 OA 
ATOM      9  OXT MET A   1      -7.613  10.062  70.849  1.00  0.00    -0.222 OA 
ATOM     10  H1  MET A   1      -7.959   6.420  71.283  1.00  0.00     0.000 HD 
ATOM     11  H2  MET A   1      -8.291   5.795  69.741  1.00  0.00     0.000 HD 
ENDBRANCH   4   5
ENDBRANCH   3   4
ENDBRANCH   2   3
TORSDOF 3
ENDMDL
MODEL      230
REMARK 921   NORMALIZED FREE ENERGY PREDICTED BY IDOCK:   -1.19 KCAL/MOL
REMARK 922        TOTAL FREE ENERGY PREDICTED BY IDOCK:   -1.51 KCAL/MOL
REMARK 923 INTER-LIGAND FREE ENERGY PREDICTED BY IDOCK:   -1.45 KCAL/MOL
REMARK 924 INTRA-LIGAND FREE ENERGY PREDICTED BY IDOCK:   -0.06 KCAL/MOL
REMARK 927      BINDING AFFINITY PREDICTED BY RF-SCORE:    0.00 PKD
ROOT
ATOM      1  CE  MET A   1      -9.864   6.991  67.534  1.00  0.00    -0.148 C  
ATOM      2  SD  MET A   1     -10.527   7.714  69.052  1.00  0.00    -0.177 SA 
ENDROOT
BRANCH   2   3
ATOM      3  CG  MET A   1     -10.975   6.180  69.938  1.00  0.00    -0.389 C  
BRANCH   3   4
ATOM      4  CB  MET A   1      -9.681   5.514  70.414  1.00  0.00    -0.242 C  
BRANCH   4   5
ATOM      5  CA  MET A   1      -9.706   3.984  70.355  1.00  0.00    -0.193 C  
ATOM      6  C   MET A   1      -8.336   3.419  69.952  1.00  0.00    -0.051 C  
ATOM      7  N   MET A   1     -10.035   3.460  71.717  1.00  0.00    -0.157 NA 
ATOM      8  O   MET A   1      -7.618   3.045  71.044  1.00  0.00    -0.036 OA 
ATOM      9  OXT MET A   1      -7.922   3.334  68.808  1.00  0.00    -0.057 OA 
ATOM     10  H1  MET A   1     -10.052   2.441  71.678  1.00  0.00     0.000 HD 
ATOM     11  H2  MET A   1     -10.901   3.851  72.088  1.00  0.00     0.000 HD 
ENDBRANCH   4   5
ENDBRANCH   3   4
ENDBRANCH   2   3
TORSDOF 3
ENDMDL
MODEL      231
REMARK 921   NORMALIZED FREE ENERGY PREDICTED BY IDOCK:   -1.19 KCAL/MOL
REMARK 922        TOTAL FREE ENERGY PREDICTED BY IDOCK:   -1.51 KCAL/MOL
REMARK 923 INTER-LIGAND FREE ENERGY PREDICTED BY IDOCK:   -1.38 KCAL/MOL
REMARK 924 INTRA-LIGAND FREE ENERGY PREDICTED BY IDOCK:   -0.14 KCAL/MOL
REMARK 927      BINDING AFFINITY PREDICTED BY RF-SCORE:    0.00 PKD
ROOT
ATOM      1  CE  MET A   1      -7.138   6.580  69.343  1.00  0.00    -0.077 C  
ATOM      2  SD  MET A   1      -8.720   6.919  70.147  1.00  0.00    -0.141 SA 
ENDROOT
BRANCH   2   3
ATOM      3  CG  MET A   1      -8.942   8.660  69.640  1.00  0.00    -0.145 C  
BRANCH   3   4
ATOM      4  CB  MET A   1      -9.529   8.670  68.226  1.00  0.00    -0.150 C  
BRANCH   4   5
ATOM      5  CA  MET A   1      -8.665   9.400  67.194  1.00  0.00    -0.128 C  
ATOM      6  C   MET A   1      -9.491  10.424  66.400  1.00  0.00    -0.169 C  
ATOM      7  N   MET A   1      -7.586  10.143  67.917  1.00  0.00    -0.089 NA 
ATOM      8  O   MET A   1      -9.358  11.673  66.921  1.00  0.00    -0.180 OA 
ATOM      9  OXT MET A   1     -10.197  10.162  65.442  1.00  0.00    -0.298 OA 
ATOM     10  H1  MET A   1      -7.010  10.630  67.230  1.00  0.00     0.000 HD 
ATOM     11  H2  MET A   1      -7.038   9.539  68.529  1.00  0.00     0.000 HD 
ENDBRANCH   4   5
ENDBRANCH   3   4
ENDBRANCH   2   3
TORSDOF 3
ENDMDL
MODEL      232
REMARK 921   NORMALIZED FREE ENERGY PREDICTED BY IDOCK:   -1.18 KCAL/MOL
REMARK 922        TOTAL FREE ENERGY PREDICTED BY IDOCK:   -1.50 KCAL/MOL
REMARK 923 INTER-LIGAND FREE ENERGY PREDICTED BY IDOCK:   -1.56 KCAL/MOL
REMARK 924 INTRA-LIGAND FREE ENERGY PREDICTED BY IDOCK:    0.06 KCAL/MOL
REMARK 927      BINDING AFFINITY PREDICTED BY RF-SCORE:    0.00 PKD
ROOT
ATOM      1  CE  MET A   1      -8.754   8.785  68.603  1.00  0.00    -0.134 C  
ATOM      2  SD  MET A   1      -7.392   8.039  67.681  1.00  0.00    -0.094 SA 
ENDROOT
BRANCH   2   3
ATOM      3  CG  MET A   1      -8.345   7.229  66.350  1.00  0.00    -0.124 C  
BRANCH   3   4
ATOM      4  CB  MET A   1      -7.627   5.929  65.978  1.00  0.00    -0.086 C  
BRANCH   4   5
ATOM      5  CA  MET A   1      -8.564   4.740  65.747  1.00  0.00    -0.124 C  
ATOM      6  C   MET A   1      -9.674   4.691  66.808  1.00  0.00    -0.198 C  
ATOM      7  N   MET A   1      -9.216   4.899  64.410  1.00  0.00    -0.340 NA 
ATOM      8  O   MET A   1     -10.817   5.268  66.352  1.00  0.00    -0.292 OA 
ATOM      9  OXT MET A   1      -9.553   4.221  67.927  1.00  0.00    -0.162 OA 
ATOM     10  H1  MET A   1      -9.840   4.108  64.256  1.00  0.00     0.000 HD 
ATOM     11  H2  MET A   1      -8.539   5.016  63.656  1.00  0.00     0.000 HD 
ENDBRANCH   4   5
ENDBRANCH   3   4
ENDBRANCH   2   3
TORSDOF 3
ENDMDL
MODEL      233
REMARK 921   NORMALIZED FREE ENERGY PREDICTED BY IDOCK:   -1.17 KCAL/MOL
REMARK 922        TOTAL FREE ENERGY PREDICTED BY IDOCK:   -1.49 KCAL/MOL
REMARK 923 INTER-LIGAND FREE ENERGY PREDICTED BY IDOCK:   -1.36 KCAL/MOL
REMARK 924 INTRA-LIGAND FREE ENERGY PREDICTED BY IDOCK:   -0.13 KCAL/MOL
REMARK 927      BINDING AFFINITY PREDICTED BY RF-SCORE:    0.00 PKD
ROOT
ATOM      1  CE  MET A   1      -9.336  10.095  67.432  1.00  0.00    -0.148 C  
ATOM      2  SD  MET A   1      -7.918  11.149  67.053  1.00  0.00    -0.151 SA 
ENDROOT
BRANCH   2   3
ATOM      3  CG  MET A   1      -7.078  11.109  68.675  1.00  0.00    -0.090 C  
BRANCH   3   4
ATOM      4  CB  MET A   1      -7.962  10.321  69.646  1.00  0.00    -0.164 C  
BRANCH   4   5
ATOM      5  CA  MET A   1      -7.239   9.179  70.366  1.00  0.00    -0.084 C  
ATOM      6  C   MET A   1      -8.163   8.482  71.376  1.00  0.00    -0.147 C  
ATOM      7  N   MET A   1      -6.822   8.163  69.350  1.00  0.00    -0.042 NA 
ATOM      8  O   MET A   1      -8.720   7.364  70.842  1.00  0.00    -0.141 OA 
ATOM      9  OXT MET A   1      -8.396   8.883  72.504  1.00  0.00    -0.388 OA 
ATOM     10  H1  MET A   1      -6.340   7.402  69.829  1.00  0.00     0.000 HD 
ATOM     11  H2  MET A   1      -6.264   8.568  68.599  1.00  0.00     0.000 HD 
ENDBRANCH   4   5
ENDBRANCH   3   4
ENDBRANCH   2   3
TORSDOF 3
ENDMDL
MODEL      234
REMARK 921   NORMALIZED FREE ENERGY PREDICTED BY IDOCK:   -1.17 KCAL/MOL
REMARK 922        TOTAL FREE ENERGY PREDICTED BY IDOCK:   -1.48 KCAL/MOL
REMARK 923 INTER-LIGAND FREE ENERGY PREDICTED BY IDOCK:   -1.41 KCAL/MOL
REMARK 924 INTRA-LIGAND FREE ENERGY PREDICTED BY IDOCK:   -0.07 KCAL/MOL
REMARK 927      BINDING AFFINITY PREDICTED BY RF-SCORE:    0.00 PKD
ROOT
ATOM      1  CE  MET A   1      -8.825   8.801  68.679  1.00  0.00    -0.138 C  
ATOM      2  SD  MET A   1      -7.848   7.781  67.553  1.00  0.00    -0.124 SA 
ENDROOT
BRANCH   2   3
ATOM      3  CG  MET A   1      -9.155   7.317  66.365  1.00  0.00    -0.158 C  
BRANCH   3   4
ATOM      4  CB  MET A   1      -8.832   5.920  65.828  1.00  0.00    -0.145 C  
BRANCH   4   5
ATOM      5  CA  MET A   1     -10.037   4.977  65.773  1.00  0.00    -0.123 C  
ATOM      6  C   MET A   1      -9.630   3.532  66.102  1.00  0.00    -0.092 C  
ATOM      7  N   MET A   1     -11.034   5.416  66.799  1.00  0.00    -0.453 NA 
ATOM      8  O   MET A   1      -9.867   3.239  67.407  1.00  0.00    -0.037 OA 
ATOM      9  OXT MET A   1      -9.135   2.748  65.311  1.00  0.00    -0.143 OA 
ATOM     10  H1  MET A   1     -11.837   4.788  66.763  1.00  0.00     0.000 HD 
ATOM     11  H2  MET A   1     -11.298   6.395  66.693  1.00  0.00     0.000 HD 
ENDBRANCH   4   5
ENDBRANCH   3   4
ENDBRANCH   2   3
TORSDOF 3
ENDMDL
MODEL      235
REMARK 921   NORMALIZED FREE ENERGY PREDICTED BY IDOCK:   -1.14 KCAL/MOL
REMARK 922        TOTAL FREE ENERGY PREDICTED BY IDOCK:   -1.45 KCAL/MOL
REMARK 923 INTER-LIGAND FREE ENERGY PREDICTED BY IDOCK:   -1.38 KCAL/MOL
REMARK 924 INTRA-LIGAND FREE ENERGY PREDICTED BY IDOCK:   -0.07 KCAL/MOL
REMARK 927      BINDING AFFINITY PREDICTED BY RF-SCORE:    0.00 PKD
ROOT
ATOM      1  CE  MET A   1     -10.408   4.707  73.394  1.00  0.00    -0.185 C  
ATOM      2  SD  MET A   1     -10.312   6.448  73.868  1.00  0.00    -0.309 SA 
ENDROOT
BRANCH   2   3
ATOM      3  CG  MET A   1     -10.173   7.199  72.209  1.00  0.00    -0.190 C  
BRANCH   3   4
ATOM      4  CB  MET A   1      -9.131   6.405  71.417  1.00  0.00    -0.145 C  
BRANCH   4   5
ATOM      5  CA  MET A   1      -7.995   7.258  70.845  1.00  0.00    -0.098 C  
ATOM      6  C   MET A   1      -7.037   7.725  71.952  1.00  0.00    -0.067 C  
ATOM      7  N   MET A   1      -7.210   6.424  69.882  1.00  0.00    -0.072 NA 
ATOM      8  O   MET A   1      -5.952   6.912  72.038  1.00  0.00    -0.037 OA 
ATOM      9  OXT MET A   1      -7.226   8.683  72.682  1.00  0.00    -0.280 OA 
ATOM     10  H1  MET A   1      -6.453   6.992  69.502  1.00  0.00     0.000 HD 
ATOM     11  H2  MET A   1      -7.795   6.013  69.155  1.00  0.00     0.000 HD 
ENDBRANCH   4   5
ENDBRANCH   3   4
ENDBRANCH   2   3
TORSDOF 3
ENDMDL
MODEL      236
REMARK 921   NORMALIZED FREE ENERGY PREDICTED BY IDOCK:   -1.13 KCAL/MOL
REMARK 922        TOTAL FREE ENERGY PREDICTED BY IDOCK:   -1.44 KCAL/MOL
REMARK 923 INTER-LIGAND FREE ENERGY PREDICTED BY IDOCK:   -1.30 KCAL/MOL
REMARK 924 INTRA-LIGAND FREE ENERGY PREDICTED BY IDOCK:   -0.14 KCAL/MOL
REMARK 927      BINDING AFFINITY PREDICTED BY RF-SCORE:    0.00 PKD
ROOT
ATOM      1  CE  MET A   1      -7.890  13.797  68.188  1.00  0.00    -0.149 C  
ATOM      2  SD  MET A   1      -7.201  15.129  69.195  1.00  0.00    -0.179 SA 
ENDROOT
BRANCH   2   3
ATOM      3  CG  MET A   1      -6.219  15.989  67.917  1.00  0.00    -0.131 C  
BRANCH   3   4
ATOM      4  CB  MET A   1      -6.037  17.443  68.358  1.00  0.00    -0.160 C  
BRANCH   4   5
ATOM      5  CA  MET A   1      -6.888  17.841  69.568  1.00  0.00    -0.043 C  
ATOM      6  C   MET A   1      -6.026  18.467  70.675  1.00  0.00     0.125 C  
ATOM      7  N   MET A   1      -7.887  18.866  69.131  1.00  0.00    -0.186 NA 
ATOM      8  O   MET A   1      -6.055  19.824  70.612  1.00  0.00    -0.275 OA 
ATOM      9  OXT MET A   1      -5.375  17.840  71.493  1.00  0.00    -0.304 OA 
ATOM     10  H1  MET A   1      -8.454  19.132  69.937  1.00  0.00     0.000 HD 
ATOM     11  H2  MET A   1      -8.452  18.551  68.343  1.00  0.00     0.000 HD 
ENDBRANCH   4   5
ENDBRANCH   3   4
ENDBRANCH   2   3
TORSDOF 3
ENDMDL
MODEL      237
REMARK 921   NORMALIZED FREE ENERGY PREDICTED BY IDOCK:   -1.12 KCAL/MOL
REMARK 922        TOTAL FREE ENERGY PREDICTED BY IDOCK:   -1.42 KCAL/MOL
REMARK 923 INTER-LIGAND FREE ENERGY PREDICTED BY IDOCK:   -1.31 KCAL/MOL
REMARK 924 INTRA-LIGAND FREE ENERGY PREDICTED BY IDOCK:   -0.11 KCAL/MOL
REMARK 927      BINDING AFFINITY PREDICTED BY RF-SCORE:    0.00 PKD
ROOT
ATOM      1  CE  MET A   1      -9.533   9.189  65.531  1.00  0.00    -0.206 C  
ATOM      2  SD  MET A   1      -8.177   9.985  64.641  1.00  0.00    -0.170 SA 
ENDROOT
BRANCH   2   3
ATOM      3  CG  MET A   1      -6.960  10.100  65.998  1.00  0.00    -0.117 C  
BRANCH   3   4
ATOM      4  CB  MET A   1      -7.603   9.520  67.261  1.00  0.00    -0.091 C  
BRANCH   4   5
ATOM      5  CA  MET A   1      -7.715  10.514  68.420  1.00  0.00    -0.104 C  
ATOM      6  C   MET A   1      -9.000  10.283  69.231  1.00  0.00    -0.179 C  
ATOM      7  N   MET A   1      -6.551  10.309  69.338  1.00  0.00    -0.051 NA 
ATOM      8  O   MET A   1      -8.757   9.521  70.330  1.00  0.00    -0.207 OA 
ATOM      9  OXT MET A   1     -10.104  10.700  68.927  1.00  0.00    -0.184 OA 
ATOM     10  H1  MET A   1      -6.626  10.971  70.110  1.00  0.00     0.000 HD 
ATOM     11  H2  MET A   1      -5.656  10.372  68.854  1.00  0.00     0.000 HD 
ENDBRANCH   4   5
ENDBRANCH   3   4
ENDBRANCH   2   3
TORSDOF 3
ENDMDL
MODEL      238
REMARK 921   NORMALIZED FREE ENERGY PREDICTED BY IDOCK:   -1.11 KCAL/MOL
REMARK 922        TOTAL FREE ENERGY PREDICTED BY IDOCK:   -1.42 KCAL/MOL
REMARK 923 INTER-LIGAND FREE ENERGY PREDICTED BY IDOCK:   -1.33 KCAL/MOL
REMARK 924 INTRA-LIGAND FREE ENERGY PREDICTED BY IDOCK:   -0.09 KCAL/MOL
REMARK 927      BINDING AFFINITY PREDICTED BY RF-SCORE:    0.00 PKD
ROOT
ATOM      1  CE  MET A   1      -9.283   2.791  70.002  1.00  0.00    -0.135 C  
ATOM      2  SD  MET A   1      -7.899   3.775  70.619  1.00  0.00    -0.054 SA 
ENDROOT
BRANCH   2   3
ATOM      3  CG  MET A   1      -7.788   5.005  69.274  1.00  0.00    -0.076 C  
BRANCH   3   4
ATOM      4  CB  MET A   1      -9.207   5.481  68.950  1.00  0.00    -0.141 C  
BRANCH   4   5
ATOM      5  CA  MET A   1      -9.610   5.298  67.484  1.00  0.00    -0.134 C  
ATOM      6  C   MET A   1     -10.023   6.634  66.848  1.00  0.00    -0.180 C  
ATOM      7  N   MET A   1      -8.430   4.775  66.727  1.00  0.00    -0.106 NA 
ATOM      8  O   MET A   1      -8.991   7.190  66.161  1.00  0.00    -0.159 OA 
ATOM      9  OXT MET A   1     -11.121   7.152  66.958  1.00  0.00    -0.345 OA 
ATOM     10  H1  MET A   1      -8.699   4.653  65.751  1.00  0.00     0.000 HD 
ATOM     11  H2  MET A   1      -8.049   3.923  67.138  1.00  0.00     0.000 HD 
ENDBRANCH   4   5
ENDBRANCH   3   4
ENDBRANCH   2   3
TORSDOF 3
ENDMDL
MODEL      239
REMARK 921   NORMALIZED FREE ENERGY PREDICTED BY IDOCK:   -1.11 KCAL/MOL
REMARK 922        TOTAL FREE ENERGY PREDICTED BY IDOCK:   -1.42 KCAL/MOL
REMARK 923 INTER-LIGAND FREE ENERGY PREDICTED BY IDOCK:   -1.38 KCAL/MOL
REMARK 924 INTRA-LIGAND FREE ENERGY PREDICTED BY IDOCK:   -0.04 KCAL/MOL
REMARK 927      BINDING AFFINITY PREDICTED BY RF-SCORE:    0.00 PKD
ROOT
ATOM      1  CE  MET A   1     -11.026  12.606  68.052  1.00  0.00    -0.235 C  
ATOM      2  SD  MET A   1      -9.394  12.741  67.288  1.00  0.00    -0.207 SA 
ENDROOT
BRANCH   2   3
ATOM      3  CG  MET A   1      -8.687  11.142  67.816  1.00  0.00    -0.132 C  
BRANCH   3   4
ATOM      4  CB  MET A   1      -8.098  10.454  66.581  1.00  0.00    -0.122 C  
BRANCH   4   5
ATOM      5  CA  MET A   1      -8.802   9.150  66.195  1.00  0.00    -0.158 C  
ATOM      6  C   MET A   1      -8.325   8.643  64.826  1.00  0.00    -0.157 C  
ATOM      7  N   MET A   1      -8.465   8.106  67.213  1.00  0.00    -0.124 NA 
ATOM      8  O   MET A   1      -7.353   7.703  64.961  1.00  0.00    -0.066 OA 
ATOM      9  OXT MET A   1      -8.737   9.041  63.750  1.00  0.00    -0.175 OA 
ATOM     10  H1  MET A   1      -8.933   7.238  66.956  1.00  0.00     0.000 HD 
ATOM     11  H2  MET A   1      -8.684   8.403  68.164  1.00  0.00     0.000 HD 
ENDBRANCH   4   5
ENDBRANCH   3   4
ENDBRANCH   2   3
TORSDOF 3
ENDMDL
MODEL      240
REMARK 921   NORMALIZED FREE ENERGY PREDICTED BY IDOCK:   -1.11 KCAL/MOL
REMARK 922        TOTAL FREE ENERGY PREDICTED BY IDOCK:   -1.41 KCAL/MOL
REMARK 923 INTER-LIGAND FREE ENERGY PREDICTED BY IDOCK:   -1.48 KCAL/MOL
REMARK 924 INTRA-LIGAND FREE ENERGY PREDICTED BY IDOCK:    0.07 KCAL/MOL
REMARK 927      BINDING AFFINITY PREDICTED BY RF-SCORE:    0.00 PKD
ROOT
ATOM      1  CE  MET A   1      -9.996   9.837  66.229  1.00  0.00    -0.262 C  
ATOM      2  SD  MET A   1      -9.128  11.420  66.284  1.00  0.00    -0.204 SA 
ENDROOT
BRANCH   2   3
ATOM      3  CG  MET A   1      -8.480  11.342  67.990  1.00  0.00    -0.145 C  
BRANCH   3   4
ATOM      4  CB  MET A   1      -8.624   9.901  68.485  1.00  0.00    -0.117 C  
BRANCH   4   5
ATOM      5  CA  MET A   1      -7.334   9.303  69.055  1.00  0.00    -0.072 C  
ATOM      6  C   MET A   1      -6.792  10.151  70.215  1.00  0.00    -0.148 C  
ATOM      7  N   MET A   1      -7.637   7.938  69.589  1.00  0.00    -0.095 NA 
ATOM      8  O   MET A   1      -7.177   9.646  71.416  1.00  0.00    -0.315 OA 
ATOM      9  OXT MET A   1      -6.122  11.163  70.089  1.00  0.00    -0.118 OA 
ATOM     10  H1  MET A   1      -6.778   7.539  69.969  1.00  0.00     0.000 HD 
ATOM     11  H2  MET A   1      -8.074   7.334  68.893  1.00  0.00     0.000 HD 
ENDBRANCH   4   5
ENDBRANCH   3   4
ENDBRANCH   2   3
TORSDOF 3
ENDMDL
MODEL      241
REMARK 921   NORMALIZED FREE ENERGY PREDICTED BY IDOCK:   -1.11 KCAL/MOL
REMARK 922        TOTAL FREE ENERGY PREDICTED BY IDOCK:   -1.41 KCAL/MOL
REMARK 923 INTER-LIGAND FREE ENERGY PREDICTED BY IDOCK:   -1.26 KCAL/MOL
REMARK 924 INTRA-LIGAND FREE ENERGY PREDICTED BY IDOCK:   -0.15 KCAL/MOL
REMARK 927      BINDING AFFINITY PREDICTED BY RF-SCORE:    0.00 PKD
ROOT
ATOM      1  CE  MET A   1      -7.368   3.968  68.004  1.00  0.00    -0.063 C  
ATOM      2  SD  MET A   1      -8.447   5.273  68.632  1.00  0.00    -0.087 SA 
ENDROOT
BRANCH   2   3
ATOM      3  CG  MET A   1      -7.395   5.899  69.988  1.00  0.00    -0.074 C  
BRANCH   3   4
ATOM      4  CB  MET A   1      -7.971   7.240  70.452  1.00  0.00    -0.104 C  
BRANCH   4   5
ATOM      5  CA  MET A   1      -8.849   7.145  71.703  1.00  0.00    -0.118 C  
ATOM      6  C   MET A   1     -10.330   7.376  71.364  1.00  0.00    -0.194 C  
ATOM      7  N   MET A   1      -8.719   5.767  72.273  1.00  0.00    -0.132 NA 
ATOM      8  O   MET A   1     -10.987   6.197  71.204  1.00  0.00    -0.261 OA 
ATOM      9  OXT MET A   1     -10.854   8.468  71.228  1.00  0.00    -0.229 OA 
ATOM     10  H1  MET A   1      -9.304   5.704  73.106  1.00  0.00     0.000 HD 
ATOM     11  H2  MET A   1      -7.750   5.509  72.455  1.00  0.00     0.000 HD 
ENDBRANCH   4   5
ENDBRANCH   3   4
ENDBRANCH   2   3
TORSDOF 3
ENDMDL
MODEL      242
REMARK 921   NORMALIZED FREE ENERGY PREDICTED BY IDOCK:   -1.11 KCAL/MOL
REMARK 922        TOTAL FREE ENERGY PREDICTED BY IDOCK:   -1.41 KCAL/MOL
REMARK 923 INTER-LIGAND FREE ENERGY PREDICTED BY IDOCK:   -1.26 KCAL/MOL
REMARK 924 INTRA-LIGAND FREE ENERGY PREDICTED BY IDOCK:   -0.15 KCAL/MOL
REMARK 927      BINDING AFFINITY PREDICTED BY RF-SCORE:    0.00 PKD
ROOT
ATOM      1  CE  MET A   1      -9.285   3.997  64.568  1.00  0.00    -0.151 C  
ATOM      2  SD  MET A   1      -8.998   5.346  65.735  1.00  0.00    -0.151 SA 
ENDROOT
BRANCH   2   3
ATOM      3  CG  MET A   1     -10.621   5.362  66.573  1.00  0.00    -0.289 C  
BRANCH   3   4
ATOM      4  CB  MET A   1     -10.375   5.261  68.081  1.00  0.00    -0.181 C  
BRANCH   4   5
ATOM      5  CA  MET A   1      -9.155   4.418  68.462  1.00  0.00    -0.124 C  
ATOM      6  C   MET A   1      -8.497   4.938  69.749  1.00  0.00    -0.083 C  
ATOM      7  N   MET A   1      -9.605   3.013  68.713  1.00  0.00    -0.100 NA 
ATOM      8  O   MET A   1      -8.918   4.237  70.835  1.00  0.00    -0.100 OA 
ATOM      9  OXT MET A   1      -7.717   5.873  69.808  1.00  0.00    -0.085 OA 
ATOM     10  H1  MET A   1      -8.793   2.452  68.967  1.00  0.00     0.000 HD 
ATOM     11  H2  MET A   1     -10.121   2.622  67.926  1.00  0.00     0.000 HD 
ENDBRANCH   4   5
ENDBRANCH   3   4
ENDBRANCH   2   3
TORSDOF 3
ENDMDL
MODEL      243
REMARK 921   NORMALIZED FREE ENERGY PREDICTED BY IDOCK:   -1.10 KCAL/MOL
REMARK 922        TOTAL FREE ENERGY PREDICTED BY IDOCK:   -1.40 KCAL/MOL
REMARK 923 INTER-LIGAND FREE ENERGY PREDICTED BY IDOCK:   -1.32 KCAL/MOL
REMARK 924 INTRA-LIGAND FREE ENERGY PREDICTED BY IDOCK:   -0.08 KCAL/MOL
REMARK 927      BINDING AFFINITY PREDICTED BY RF-SCORE:    0.00 PKD
ROOT
ATOM      1  CE  MET A   1      -7.194   3.957  66.622  1.00  0.00    -0.068 C  
ATOM      2  SD  MET A   1      -7.970   3.278  68.105  1.00  0.00    -0.070 SA 
ENDROOT
BRANCH   2   3
ATOM      3  CG  MET A   1      -9.514   4.254  68.105  1.00  0.00    -0.157 C  
BRANCH   3   4
ATOM      4  CB  MET A   1      -9.928   4.485  69.560  1.00  0.00    -0.235 C  
BRANCH   4   5
ATOM      5  CA  MET A   1     -10.195   5.952  69.911  1.00  0.00    -0.218 C  
ATOM      6  C   MET A   1      -9.382   6.388  71.139  1.00  0.00    -0.160 C  
ATOM      7  N   MET A   1      -9.771   6.802  68.755  1.00  0.00    -0.132 NA 
ATOM      8  O   MET A   1      -8.236   7.018  70.771  1.00  0.00    -0.118 OA 
ATOM      9  OXT MET A   1      -9.699   6.181  72.298  1.00  0.00    -0.157 OA 
ATOM     10  H1  MET A   1      -9.949   7.779  68.988  1.00  0.00     0.000 HD 
ATOM     11  H2  MET A   1     -10.215   6.522  67.880  1.00  0.00     0.000 HD 
ENDBRANCH   4   5
ENDBRANCH   3   4
ENDBRANCH   2   3
TORSDOF 3
ENDMDL
MODEL      244
REMARK 921   NORMALIZED FREE ENERGY PREDICTED BY IDOCK:   -1.09 KCAL/MOL
REMARK 922        TOTAL FREE ENERGY PREDICTED BY IDOCK:   -1.39 KCAL/MOL
REMARK 923 INTER-LIGAND FREE ENERGY PREDICTED BY IDOCK:   -1.33 KCAL/MOL
REMARK 924 INTRA-LIGAND FREE ENERGY PREDICTED BY IDOCK:   -0.06 KCAL/MOL
REMARK 927      BINDING AFFINITY PREDICTED BY RF-SCORE:    0.00 PKD
ROOT
ATOM      1  CE  MET A   1      -5.710   3.624  64.172  1.00  0.00    -0.014 C  
ATOM      2  SD  MET A   1      -5.664   2.388  65.490  1.00  0.00    -0.018 SA 
ENDROOT
BRANCH   2   3
ATOM      3  CG  MET A   1      -7.364   2.574  66.130  1.00  0.00    -0.066 C  
BRANCH   3   4
ATOM      4  CB  MET A   1      -7.597   4.057  66.429  1.00  0.00    -0.089 C  
BRANCH   4   5
ATOM      5  CA  MET A   1      -8.861   4.340  67.247  1.00  0.00    -0.113 C  
ATOM      6  C   MET A   1      -9.789   5.323  66.518  1.00  0.00    -0.185 C  
ATOM      7  N   MET A   1      -9.607   3.056  67.431  1.00  0.00    -0.369 NA 
ATOM      8  O   MET A   1     -10.764   4.666  65.838  1.00  0.00    -0.307 OA 
ATOM      9  OXT MET A   1      -9.664   6.536  66.519  1.00  0.00    -0.167 OA 
ATOM     10  H1  MET A   1     -10.448   3.245  67.976  1.00  0.00     0.000 HD 
ATOM     11  H2  MET A   1      -9.029   2.324  67.844  1.00  0.00     0.000 HD 
ENDBRANCH   4   5
ENDBRANCH   3   4
ENDBRANCH   2   3
TORSDOF 3
ENDMDL
MODEL      245
REMARK 921   NORMALIZED FREE ENERGY PREDICTED BY IDOCK:   -1.08 KCAL/MOL
REMARK 922        TOTAL FREE ENERGY PREDICTED BY IDOCK:   -1.38 KCAL/MOL
REMARK 923 INTER-LIGAND FREE ENERGY PREDICTED BY IDOCK:   -1.24 KCAL/MOL
REMARK 924 INTRA-LIGAND FREE ENERGY PREDICTED BY IDOCK:   -0.14 KCAL/MOL
REMARK 927      BINDING AFFINITY PREDICTED BY RF-SCORE:    0.00 PKD
ROOT
ATOM      1  CE  MET A   1      -7.158   6.037  68.332  1.00  0.00    -0.082 C  
ATOM      2  SD  MET A   1      -7.790   7.727  68.432  1.00  0.00    -0.122 SA 
ENDROOT
BRANCH   2   3
ATOM      3  CG  MET A   1      -9.009   7.507  69.775  1.00  0.00    -0.141 C  
BRANCH   3   4
ATOM      4  CB  MET A   1      -8.600   8.416  70.937  1.00  0.00    -0.167 C  
BRANCH   4   5
ATOM      5  CA  MET A   1      -7.863   7.692  72.068  1.00  0.00    -0.096 C  
ATOM      6  C   MET A   1      -6.438   8.239  72.245  1.00  0.00    -0.074 C  
ATOM      7  N   MET A   1      -8.605   7.925  73.347  1.00  0.00    -0.201 NA 
ATOM      8  O   MET A   1      -6.387   9.165  73.238  1.00  0.00    -0.319 OA 
ATOM      9  OXT MET A   1      -5.475   7.912  71.573  1.00  0.00    -0.034 OA 
ATOM     10  H1  MET A   1      -8.114   7.443  74.100  1.00  0.00     0.000 HD 
ATOM     11  H2  MET A   1      -9.586   7.655  73.283  1.00  0.00     0.000 HD 
ENDBRANCH   4   5
ENDBRANCH   3   4
ENDBRANCH   2   3
TORSDOF 3
ENDMDL
MODEL      246
REMARK 921   NORMALIZED FREE ENERGY PREDICTED BY IDOCK:   -1.07 KCAL/MOL
REMARK 922        TOTAL FREE ENERGY PREDICTED BY IDOCK:   -1.37 KCAL/MOL
REMARK 923 INTER-LIGAND FREE ENERGY PREDICTED BY IDOCK:   -1.47 KCAL/MOL
REMARK 924 INTRA-LIGAND FREE ENERGY PREDICTED BY IDOCK:    0.11 KCAL/MOL
REMARK 927      BINDING AFFINITY PREDICTED BY RF-SCORE:    0.00 PKD
ROOT
ATOM      1  CE  MET A   1     -10.000   9.300  66.293  1.00  0.00    -0.286 C  
ATOM      2  SD  MET A   1      -8.426   8.468  65.984  1.00  0.00    -0.149 SA 
ENDROOT
BRANCH   2   3
ATOM      3  CG  MET A   1      -7.673   8.635  67.640  1.00  0.00    -0.102 C  
BRANCH   3   4
ATOM      4  CB  MET A   1      -8.792   8.947  68.639  1.00  0.00    -0.137 C  
BRANCH   4   5
ATOM      5  CA  MET A   1      -8.466  10.088  69.607  1.00  0.00    -0.180 C  
ATOM      6  C   MET A   1      -6.981  10.475  69.533  1.00  0.00    -0.114 C  
ATOM      7  N   MET A   1      -9.272  11.287  69.219  1.00  0.00    -0.388 NA 
ATOM      8  O   MET A   1      -6.792  11.544  68.715  1.00  0.00    -0.070 OA 
ATOM      9  OXT MET A   1      -6.077   9.894  70.107  1.00  0.00    -0.048 OA 
ATOM     10  H1  MET A   1      -9.056  12.047  69.863  1.00  0.00     0.000 HD 
ATOM     11  H2  MET A   1     -10.271  11.088  69.171  1.00  0.00     0.000 HD 
ENDBRANCH   4   5
ENDBRANCH   3   4
ENDBRANCH   2   3
TORSDOF 3
ENDMDL
MODEL      247
REMARK 921   NORMALIZED FREE ENERGY PREDICTED BY IDOCK:   -1.04 KCAL/MOL
REMARK 922        TOTAL FREE ENERGY PREDICTED BY IDOCK:   -1.34 KCAL/MOL
REMARK 923 INTER-LIGAND FREE ENERGY PREDICTED BY IDOCK:   -1.27 KCAL/MOL
REMARK 924 INTRA-LIGAND FREE ENERGY PREDICTED BY IDOCK:   -0.06 KCAL/MOL
REMARK 927      BINDING AFFINITY PREDICTED BY RF-SCORE:    0.00 PKD
ROOT
ATOM      1  CE  MET A   1      -5.416   3.018  63.573  1.00  0.00    -0.009 C  
ATOM      2  SD  MET A   1      -6.325   1.969  64.729  1.00  0.00    -0.019 SA 
ENDROOT
BRANCH   2   3
ATOM      3  CG  MET A   1      -8.027   2.506  64.340  1.00  0.00    -0.078 C  
BRANCH   3   4
ATOM      4  CB  MET A   1      -8.518   3.391  65.490  1.00  0.00    -0.108 C  
BRANCH   4   5
ATOM      5  CA  MET A   1      -9.528   4.462  65.068  1.00  0.00    -0.167 C  
ATOM      6  C   MET A   1      -9.796   5.456  66.209  1.00  0.00    -0.164 C  
ATOM      7  N   MET A   1      -8.957   5.229  63.916  1.00  0.00    -0.351 NA 
ATOM      8  O   MET A   1      -9.037   6.575  66.073  1.00  0.00    -0.151 OA 
ATOM      9  OXT MET A   1     -10.566   5.268  67.134  1.00  0.00    -0.227 OA 
ATOM     10  H1  MET A   1      -9.630   5.942  63.636  1.00  0.00     0.000 HD 
ATOM     11  H2  MET A   1      -8.682   4.624  63.143  1.00  0.00     0.000 HD 
ENDBRANCH   4   5
ENDBRANCH   3   4
ENDBRANCH   2   3
TORSDOF 3
ENDMDL
MODEL      248
REMARK 921   NORMALIZED FREE ENERGY PREDICTED BY IDOCK:   -1.03 KCAL/MOL
REMARK 922        TOTAL FREE ENERGY PREDICTED BY IDOCK:   -1.33 KCAL/MOL
REMARK 923 INTER-LIGAND FREE ENERGY PREDICTED BY IDOCK:   -1.23 KCAL/MOL
REMARK 924 INTRA-LIGAND FREE ENERGY PREDICTED BY IDOCK:   -0.09 KCAL/MOL
REMARK 927      BINDING AFFINITY PREDICTED BY RF-SCORE:    0.00 PKD
ROOT
ATOM      1  CE  MET A   1      -5.522   5.570  69.763  1.00  0.00    -0.004 C  
ATOM      2  SD  MET A   1      -6.268   5.804  71.392  1.00  0.00    -0.040 SA 
ENDROOT
BRANCH   2   3
ATOM      3  CG  MET A   1      -7.957   6.274  70.879  1.00  0.00    -0.112 C  
BRANCH   3   4
ATOM      4  CB  MET A   1      -8.022   6.208  69.350  1.00  0.00    -0.104 C  
BRANCH   4   5
ATOM      5  CA  MET A   1      -8.791   7.366  68.706  1.00  0.00    -0.130 C  
ATOM      6  C   MET A   1     -10.303   7.228  68.938  1.00  0.00    -0.201 C  
ATOM      7  N   MET A   1      -8.344   8.646  69.340  1.00  0.00    -0.113 NA 
ATOM      8  O   MET A   1     -10.707   7.974  70.000  1.00  0.00    -0.240 OA 
ATOM      9  OXT MET A   1     -11.051   6.526  68.280  1.00  0.00    -0.290 OA 
ATOM     10  H1  MET A   1      -8.856   9.417  68.911  1.00  0.00     0.000 HD 
ATOM     11  H2  MET A   1      -7.334   8.773  69.293  1.00  0.00     0.000 HD 
ENDBRANCH   4   5
ENDBRANCH   3   4
ENDBRANCH   2   3
TORSDOF 3
ENDMDL
MODEL      249
REMARK 921   NORMALIZED FREE ENERGY PREDICTED BY IDOCK:   -1.01 KCAL/MOL
REMARK 922        TOTAL FREE ENERGY PREDICTED BY IDOCK:   -1.30 KCAL/MOL
REMARK 923 INTER-LIGAND FREE ENERGY PREDICTED BY IDOCK:   -1.20 KCAL/MOL
REMARK 924 INTRA-LIGAND FREE ENERGY PREDICTED BY IDOCK:   -0.10 KCAL/MOL
REMARK 927      BINDING AFFINITY PREDICTED BY RF-SCORE:    0.00 PKD
ROOT
ATOM      1  CE  MET A   1      -6.276  13.035  68.072  1.00  0.00    -0.112 C  
ATOM      2  SD  MET A   1      -7.309  11.567  68.278  1.00  0.00    -0.098 SA 
ENDROOT
BRANCH   2   3
ATOM      3  CG  MET A   1      -6.312  10.368  67.326  1.00  0.00    -0.062 C  
BRANCH   3   4
ATOM      4  CB  MET A   1      -7.268   9.346  66.705  1.00  0.00    -0.086 C  
BRANCH   4   5
ATOM      5  CA  MET A   1      -8.212   8.680  67.710  1.00  0.00    -0.118 C  
ATOM      6  C   MET A   1      -9.572   8.362  67.071  1.00  0.00    -0.190 C  
ATOM      7  N   MET A   1      -7.601   7.388  68.154  1.00  0.00    -0.112 NA 
ATOM      8  O   MET A   1      -9.628   7.071  66.651  1.00  0.00    -0.168 OA 
ATOM      9  OXT MET A   1     -10.483   9.160  66.930  1.00  0.00    -0.253 OA 
ATOM     10  H1  MET A   1      -8.229   6.944  68.823  1.00  0.00     0.000 HD 
ATOM     11  H2  MET A   1      -6.658   7.508  68.523  1.00  0.00     0.000 HD 
ENDBRANCH   4   5
ENDBRANCH   3   4
ENDBRANCH   2   3
TORSDOF 3
ENDMDL
MODEL      250
REMARK 921   NORMALIZED FREE ENERGY PREDICTED BY IDOCK:   -1.00 KCAL/MOL
REMARK 922        TOTAL FREE ENERGY PREDICTED BY IDOCK:   -1.29 KCAL/MOL
REMARK 923 INTER-LIGAND FREE ENERGY PREDICTED BY IDOCK:   -1.19 KCAL/MOL
REMARK 924 INTRA-LIGAND FREE ENERGY PREDICTED BY IDOCK:   -0.10 KCAL/MOL
REMARK 927      BINDING AFFINITY PREDICTED BY RF-SCORE:    0.00 PKD
ROOT
ATOM      1  CE  MET A   1      -7.899   4.710  65.895  1.00  0.00    -0.095 C  
ATOM      2  SD  MET A   1      -9.398   4.135  66.724  1.00  0.00    -0.189 SA 
ENDROOT
BRANCH   2   3
ATOM      3  CG  MET A   1     -10.151   5.749  67.127  1.00  0.00    -0.181 C  
BRANCH   3   4
ATOM      4  CB  MET A   1      -9.061   6.643  67.726  1.00  0.00    -0.113 C  
BRANCH   4   5
ATOM      5  CA  MET A   1      -8.804   6.402  69.217  1.00  0.00    -0.128 C  
ATOM      6  C   MET A   1      -8.055   7.584  69.851  1.00  0.00    -0.129 C  
ATOM      7  N   MET A   1     -10.123   6.269  69.912  1.00  0.00    -0.168 NA 
ATOM      8  O   MET A   1      -8.915   8.438  70.466  1.00  0.00    -0.140 OA 
ATOM      9  OXT MET A   1      -6.850   7.759  69.797  1.00  0.00    -0.045 OA 
ATOM     10  H1  MET A   1      -9.952   6.109  70.905  1.00  0.00     0.000 HD 
ATOM     11  H2  MET A   1     -10.713   5.549  69.496  1.00  0.00     0.000 HD 
ENDBRANCH   4   5
ENDBRANCH   3   4
ENDBRANCH   2   3
TORSDOF 3
ENDMDL
MODEL      251
REMARK 921   NORMALIZED FREE ENERGY PREDICTED BY IDOCK:   -0.99 KCAL/MOL
REMARK 922        TOTAL FREE ENERGY PREDICTED BY IDOCK:   -1.28 KCAL/MOL
REMARK 923 INTER-LIGAND FREE ENERGY PREDICTED BY IDOCK:   -1.21 KCAL/MOL
REMARK 924 INTRA-LIGAND FREE ENERGY PREDICTED BY IDOCK:   -0.07 KCAL/MOL
REMARK 927      BINDING AFFINITY PREDICTED BY RF-SCORE:    0.00 PKD
ROOT
ATOM      1  CE  MET A   1      -6.247  13.030  68.061  1.00  0.00    -0.112 C  
ATOM      2  SD  MET A   1      -7.234  11.519  67.988  1.00  0.00    -0.091 SA 
ENDROOT
BRANCH   2   3
ATOM      3  CG  MET A   1      -6.120  10.487  66.974  1.00  0.00    -0.058 C  
BRANCH   3   4
ATOM      4  CB  MET A   1      -6.985   9.630  66.045  1.00  0.00    -0.093 C  
BRANCH   4   5
ATOM      5  CA  MET A   1      -7.068  10.151  64.608  1.00  0.00    -0.124 C  
ATOM      6  C   MET A   1      -7.108   8.995  63.597  1.00  0.00    -0.092 C  
ATOM      7  N   MET A   1      -8.333  10.936  64.457  1.00  0.00    -0.374 NA 
ATOM      8  O   MET A   1      -8.385   8.711  63.226  1.00  0.00    -0.182 OA 
ATOM      9  OXT MET A   1      -6.134   8.386  63.190  1.00  0.00    -0.080 OA 
ATOM     10  H1  MET A   1      -8.388  11.284  63.500  1.00  0.00     0.000 HD 
ATOM     11  H2  MET A   1      -8.415  11.681  65.149  1.00  0.00     0.000 HD 
ENDBRANCH   4   5
ENDBRANCH   3   4
ENDBRANCH   2   3
TORSDOF 3
ENDMDL
MODEL      252
REMARK 921   NORMALIZED FREE ENERGY PREDICTED BY IDOCK:   -0.98 KCAL/MOL
REMARK 922        TOTAL FREE ENERGY PREDICTED BY IDOCK:   -1.26 KCAL/MOL
REMARK 923 INTER-LIGAND FREE ENERGY PREDICTED BY IDOCK:   -1.38 KCAL/MOL
REMARK 924 INTRA-LIGAND FREE ENERGY PREDICTED BY IDOCK:    0.12 KCAL/MOL
REMARK 927      BINDING AFFINITY PREDICTED BY RF-SCORE:    0.00 PKD
ROOT
ATOM      1  CE  MET A   1     -10.254   6.052  69.976  1.00  0.00    -0.205 C  
ATOM      2  SD  MET A   1      -8.636   5.251  69.904  1.00  0.00    -0.102 SA 
ENDROOT
BRANCH   2   3
ATOM      3  CG  MET A   1      -7.630   6.667  69.341  1.00  0.00    -0.096 C  
BRANCH   3   4
ATOM      4  CB  MET A   1      -7.955   6.921  67.866  1.00  0.00    -0.114 C  
BRANCH   4   5
ATOM      5  CA  MET A   1      -9.033   7.985  67.637  1.00  0.00    -0.135 C  
ATOM      6  C   MET A   1      -8.431   9.271  67.052  1.00  0.00    -0.124 C  
ATOM      7  N   MET A   1     -10.025   7.453  66.651  1.00  0.00    -0.370 NA 
ATOM      8  O   MET A   1      -8.564   9.306  65.700  1.00  0.00    -0.137 OA 
ATOM      9  OXT MET A   1      -7.880  10.144  67.701  1.00  0.00    -0.098 OA 
ATOM     10  H1  MET A   1     -10.743   8.161  66.498  1.00  0.00     0.000 HD 
ATOM     11  H2  MET A   1     -10.415   6.555  66.935  1.00  0.00     0.000 HD 
ENDBRANCH   4   5
ENDBRANCH   3   4
ENDBRANCH   2   3
TORSDOF 3
ENDMDL
MODEL      253
REMARK 921   NORMALIZED FREE ENERGY PREDICTED BY IDOCK:   -0.96 KCAL/MOL
REMARK 922        TOTAL FREE ENERGY PREDICTED BY IDOCK:   -1.23 KCAL/MOL
REMARK 923 INTER-LIGAND FREE ENERGY PREDICTED BY IDOCK:   -1.21 KCAL/MOL
REMARK 924 INTRA-LIGAND FREE ENERGY PREDICTED BY IDOCK:   -0.02 KCAL/MOL
REMARK 927      BINDING AFFINITY PREDICTED BY RF-SCORE:    0.00 PKD
ROOT
ATOM      1  CE  MET A   1      -9.351  10.100  66.640  1.00  0.00    -0.162 C  
ATOM      2  SD  MET A   1      -8.782   8.693  65.659  1.00  0.00    -0.182 SA 
ENDROOT
BRANCH   2   3
ATOM      3  CG  MET A   1      -8.560   7.470  66.998  1.00  0.00    -0.122 C  
BRANCH   3   4
ATOM      4  CB  MET A   1      -9.067   8.097  68.300  1.00  0.00    -0.135 C  
BRANCH   4   5
ATOM      5  CA  MET A   1      -9.345   7.085  69.415  1.00  0.00    -0.146 C  
ATOM      6  C   MET A   1      -8.038   6.510  69.984  1.00  0.00    -0.121 C  
ATOM      7  N   MET A   1     -10.060   7.785  70.527  1.00  0.00    -0.192 NA 
ATOM      8  O   MET A   1      -7.663   7.167  71.113  1.00  0.00    -0.088 OA 
ATOM      9  OXT MET A   1      -7.398   5.601  69.485  1.00  0.00    -0.064 OA 
ATOM     10  H1  MET A   1     -10.245   7.111  71.270  1.00  0.00     0.000 HD 
ATOM     11  H2  MET A   1     -10.905   8.260  70.210  1.00  0.00     0.000 HD 
ENDBRANCH   4   5
ENDBRANCH   3   4
ENDBRANCH   2   3
TORSDOF 3
ENDMDL
MODEL      254
REMARK 921   NORMALIZED FREE ENERGY PREDICTED BY IDOCK:   -0.95 KCAL/MOL
REMARK 922        TOTAL FREE ENERGY PREDICTED BY IDOCK:   -1.22 KCAL/MOL
REMARK 923 INTER-LIGAND FREE ENERGY PREDICTED BY IDOCK:   -1.18 KCAL/MOL
REMARK 924 INTRA-LIGAND FREE ENERGY PREDICTED BY IDOCK:   -0.04 KCAL/MOL
REMARK 927      BINDING AFFINITY PREDICTED BY RF-SCORE:    0.00 PKD
ROOT
ATOM      1  CE  MET A   1     -10.902   5.953  69.483  1.00  0.00    -0.372 C  
ATOM      2  SD  MET A   1      -9.643   5.018  68.586  1.00  0.00    -0.158 SA 
ENDROOT
BRANCH   2   3
ATOM      3  CG  MET A   1      -8.521   4.627  69.973  1.00  0.00    -0.073 C  
BRANCH   3   4
ATOM      4  CB  MET A   1      -8.280   5.915  70.765  1.00  0.00    -0.124 C  
BRANCH   4   5
ATOM      5  CA  MET A   1      -7.277   5.767  71.912  1.00  0.00    -0.091 C  
ATOM      6  C   MET A   1      -7.440   6.893  72.944  1.00  0.00    -0.082 C  
ATOM      7  N   MET A   1      -7.535   4.467  72.607  1.00  0.00    -0.082 NA 
ATOM      8  O   MET A   1      -8.208   6.492  73.991  1.00  0.00    -0.116 OA 
ATOM      9  OXT MET A   1      -6.969   8.012  72.839  1.00  0.00    -0.082 OA 
ATOM     10  H1  MET A   1      -6.867   4.368  73.371  1.00  0.00     0.000 HD 
ATOM     11  H2  MET A   1      -7.520   3.672  71.968  1.00  0.00     0.000 HD 
ENDBRANCH   4   5
ENDBRANCH   3   4
ENDBRANCH   2   3
TORSDOF 3
ENDMDL
MODEL      255
REMARK 921   NORMALIZED FREE ENERGY PREDICTED BY IDOCK:   -0.95 KCAL/MOL
REMARK 922        TOTAL FREE ENERGY PREDICTED BY IDOCK:   -1.22 KCAL/MOL
REMARK 923 INTER-LIGAND FREE ENERGY PREDICTED BY IDOCK:   -1.13 KCAL/MOL
REMARK 924 INTRA-LIGAND FREE ENERGY PREDICTED BY IDOCK:   -0.09 KCAL/MOL
REMARK 927      BINDING AFFINITY PREDICTED BY RF-SCORE:    0.00 PKD
ROOT
ATOM      1  CE  MET A   1      -9.040   5.280  71.232  1.00  0.00    -0.144 C  
ATOM      2  SD  MET A   1      -9.146   6.531  69.932  1.00  0.00    -0.142 SA 
ENDROOT
BRANCH   2   3
ATOM      3  CG  MET A   1      -9.779   5.490  68.571  1.00  0.00    -0.134 C  
BRANCH   3   4
ATOM      4  CB  MET A   1      -9.672   6.294  67.273  1.00  0.00    -0.150 C  
BRANCH   4   5
ATOM      5  CA  MET A   1      -8.260   6.344  66.682  1.00  0.00    -0.111 C  
ATOM      6  C   MET A   1      -8.063   5.259  65.613  1.00  0.00    -0.117 C  
ATOM      7  N   MET A   1      -8.065   7.675  66.025  1.00  0.00    -0.112 NA 
ATOM      8  O   MET A   1      -8.256   5.758  64.364  1.00  0.00    -0.132 OA 
ATOM      9  OXT MET A   1      -7.794   4.092  65.842  1.00  0.00    -0.089 OA 
ATOM     10  H1  MET A   1      -7.125   7.709  65.632  1.00  0.00     0.000 HD 
ATOM     11  H2  MET A   1      -8.254   8.453  66.656  1.00  0.00     0.000 HD 
ENDBRANCH   4   5
ENDBRANCH   3   4
ENDBRANCH   2   3
TORSDOF 3
ENDMDL
MODEL      256
REMARK 921   NORMALIZED FREE ENERGY PREDICTED BY IDOCK:   -0.94 KCAL/MOL
REMARK 922        TOTAL FREE ENERGY PREDICTED BY IDOCK:   -1.22 KCAL/MOL
REMARK 923 INTER-LIGAND FREE ENERGY PREDICTED BY IDOCK:   -1.14 KCAL/MOL
REMARK 924 INTRA-LIGAND FREE ENERGY PREDICTED BY IDOCK:   -0.08 KCAL/MOL
REMARK 927      BINDING AFFINITY PREDICTED BY RF-SCORE:    0.00 PKD
ROOT
ATOM      1  CE  MET A   1      -8.107   6.820  67.492  1.00  0.00    -0.115 C  
ATOM      2  SD  MET A   1      -9.413   7.103  68.708  1.00  0.00    -0.140 SA 
ENDROOT
BRANCH   2   3
ATOM      3  CG  MET A   1      -9.460   8.929  68.670  1.00  0.00    -0.151 C  
BRANCH   3   4
ATOM      4  CB  MET A   1      -8.263   9.416  67.850  1.00  0.00    -0.115 C  
BRANCH   4   5
ATOM      5  CA  MET A   1      -7.975  10.914  67.991  1.00  0.00    -0.109 C  
ATOM      6  C   MET A   1      -6.678  11.160  68.777  1.00  0.00    -0.067 C  
ATOM      7  N   MET A   1      -7.800  11.496  66.624  1.00  0.00    -0.253 NA 
ATOM      8  O   MET A   1      -5.627  11.364  67.940  1.00  0.00    -0.043 OA 
ATOM      9  OXT MET A   1      -6.584  11.152  69.993  1.00  0.00    -0.149 OA 
ATOM     10  H1  MET A   1      -7.608  12.494  66.718  1.00  0.00     0.000 HD 
ATOM     11  H2  MET A   1      -8.594  11.307  66.013  1.00  0.00     0.000 HD 
ENDBRANCH   4   5
ENDBRANCH   3   4
ENDBRANCH   2   3
TORSDOF 3
ENDMDL
MODEL      257
REMARK 921   NORMALIZED FREE ENERGY PREDICTED BY IDOCK:   -0.94 KCAL/MOL
REMARK 922        TOTAL FREE ENERGY PREDICTED BY IDOCK:   -1.21 KCAL/MOL
REMARK 923 INTER-LIGAND FREE ENERGY PREDICTED BY IDOCK:   -1.01 KCAL/MOL
REMARK 924 INTRA-LIGAND FREE ENERGY PREDICTED BY IDOCK:   -0.21 KCAL/MOL
REMARK 927      BINDING AFFINITY PREDICTED BY RF-SCORE:    0.00 PKD
ROOT
ATOM      1  CE  MET A   1      -7.242   6.336  71.588  1.00  0.00    -0.087 C  
ATOM      2  SD  MET A   1      -8.959   5.867  71.281  1.00  0.00    -0.140 SA 
ENDROOT
BRANCH   2   3
ATOM      3  CG  MET A   1      -8.690   4.553  70.041  1.00  0.00    -0.080 C  
BRANCH   3   4
ATOM      4  CB  MET A   1      -9.464   4.932  68.775  1.00  0.00    -0.202 C  
BRANCH   4   5
ATOM      5  CA  MET A   1      -8.575   5.245  67.568  1.00  0.00    -0.104 C  
ATOM      6  C   MET A   1      -8.204   6.735  67.520  1.00  0.00    -0.122 C  
ATOM      7  N   MET A   1      -7.307   4.461  67.694  1.00  0.00    -0.068 NA 
ATOM      8  O   MET A   1      -6.981   6.955  68.071  1.00  0.00    -0.077 OA 
ATOM      9  OXT MET A   1      -8.914   7.619  67.071  1.00  0.00    -0.126 OA 
ATOM     10  H1  MET A   1      -6.715   4.669  66.890  1.00  0.00     0.000 HD 
ATOM     11  H2  MET A   1      -7.475   3.461  67.808  1.00  0.00     0.000 HD 
ENDBRANCH   4   5
ENDBRANCH   3   4
ENDBRANCH   2   3
TORSDOF 3
ENDMDL
MODEL      258
REMARK 921   NORMALIZED FREE ENERGY PREDICTED BY IDOCK:   -0.93 KCAL/MOL
REMARK 922        TOTAL FREE ENERGY PREDICTED BY IDOCK:   -1.21 KCAL/MOL
REMARK 923 INTER-LIGAND FREE ENERGY PREDICTED BY IDOCK:   -1.13 KCAL/MOL
REMARK 924 INTRA-LIGAND FREE ENERGY PREDICTED BY IDOCK:   -0.08 KCAL/MOL
REMARK 927      BINDING AFFINITY PREDICTED BY RF-SCORE:    0.00 PKD
ROOT
ATOM      1  CE  MET A   1      -5.659   3.653  64.113  1.00  0.00    -0.013 C  
ATOM      2  SD  MET A   1      -6.016   2.385  65.348  1.00  0.00    -0.019 SA 
ENDROOT
BRANCH   2   3
ATOM      3  CG  MET A   1      -7.795   2.711  65.601  1.00  0.00    -0.078 C  
BRANCH   3   4
ATOM      4  CB  MET A   1      -8.289   3.568  64.432  1.00  0.00    -0.093 C  
BRANCH   4   5
ATOM      5  CA  MET A   1      -9.704   4.126  64.618  1.00  0.00    -0.174 C  
ATOM      6  C   MET A   1     -10.595   3.800  63.410  1.00  0.00    -0.225 C  
ATOM      7  N   MET A   1     -10.314   3.483  65.824  1.00  0.00    -0.175 NA 
ATOM      8  O   MET A   1     -11.348   2.692  63.639  1.00  0.00    -0.235 OA 
ATOM      9  OXT MET A   1     -10.616   4.429  62.366  1.00  0.00    -0.119 OA 
ATOM     10  H1  MET A   1     -11.256   3.855  65.948  1.00  0.00     0.000 HD 
ATOM     11  H2  MET A   1      -9.738   3.592  66.658  1.00  0.00     0.000 HD 
ENDBRANCH   4   5
ENDBRANCH   3   4
ENDBRANCH   2   3
TORSDOF 3
ENDMDL
MODEL      259
REMARK 921   NORMALIZED FREE ENERGY PREDICTED BY IDOCK:   -0.92 KCAL/MOL
REMARK 922        TOTAL FREE ENERGY PREDICTED BY IDOCK:   -1.19 KCAL/MOL
REMARK 923 INTER-LIGAND FREE ENERGY PREDICTED BY IDOCK:   -1.26 KCAL/MOL
REMARK 924 INTRA-LIGAND FREE ENERGY PREDICTED BY IDOCK:    0.07 KCAL/MOL
REMARK 927      BINDING AFFINITY PREDICTED BY RF-SCORE:    0.00 PKD
ROOT
ATOM      1  CE  MET A   1     -11.563   6.425  72.311  1.00  0.00    -0.299 C  
ATOM      2  SD  MET A   1      -9.810   6.015  72.158  1.00  0.00    -0.160 SA 
ENDROOT
BRANCH   2   3
ATOM      3  CG  MET A   1      -9.709   5.820  70.345  1.00  0.00    -0.176 C  
BRANCH   3   4
ATOM      4  CB  MET A   1      -8.260   5.478  69.986  1.00  0.00    -0.104 C  
BRANCH   4   5
ATOM      5  CA  MET A   1      -7.434   6.676  69.509  1.00  0.00    -0.093 C  
ATOM      6  C   MET A   1      -8.337   7.809  68.999  1.00  0.00    -0.131 C  
ATOM      7  N   MET A   1      -6.648   7.204  70.668  1.00  0.00    -0.047 NA 
ATOM      8  O   MET A   1      -8.545   8.745  69.963  1.00  0.00    -0.123 OA 
ATOM      9  OXT MET A   1      -8.831   7.863  67.885  1.00  0.00    -0.124 OA 
ATOM     10  H1  MET A   1      -6.097   8.002  70.351  1.00  0.00     0.000 HD 
ATOM     11  H2  MET A   1      -6.076   6.486  71.112  1.00  0.00     0.000 HD 
ENDBRANCH   4   5
ENDBRANCH   3   4
ENDBRANCH   2   3
TORSDOF 3
ENDMDL
MODEL      260
REMARK 921   NORMALIZED FREE ENERGY PREDICTED BY IDOCK:   -0.88 KCAL/MOL
REMARK 922        TOTAL FREE ENERGY PREDICTED BY IDOCK:   -1.14 KCAL/MOL
REMARK 923 INTER-LIGAND FREE ENERGY PREDICTED BY IDOCK:   -1.04 KCAL/MOL
REMARK 924 INTRA-LIGAND FREE ENERGY PREDICTED BY IDOCK:   -0.10 KCAL/MOL
REMARK 927      BINDING AFFINITY PREDICTED BY RF-SCORE:    0.00 PKD
ROOT
ATOM      1  CE  MET A   1      -8.097  14.771  68.574  1.00  0.00    -0.146 C  
ATOM      2  SD  MET A   1      -6.480  14.839  67.773  1.00  0.00    -0.144 SA 
ENDROOT
BRANCH   2   3
ATOM      3  CG  MET A   1      -5.896  13.148  68.141  1.00  0.00    -0.097 C  
BRANCH   3   4
ATOM      4  CB  MET A   1      -6.974  12.446  68.971  1.00  0.00    -0.071 C  
BRANCH   4   5
ATOM      5  CA  MET A   1      -7.442  11.110  68.387  1.00  0.00    -0.102 C  
ATOM      6  C   MET A   1      -8.018  11.290  66.975  1.00  0.00    -0.150 C  
ATOM      7  N   MET A   1      -6.264  10.193  68.288  1.00  0.00    -0.049 NA 
ATOM      8  O   MET A   1      -7.087  11.011  66.025  1.00  0.00    -0.105 OA 
ATOM      9  OXT MET A   1      -9.153  11.658  66.723  1.00  0.00    -0.174 OA 
ATOM     10  H1  MET A   1      -6.576   9.303  67.900  1.00  0.00     0.000 HD 
ATOM     11  H2  MET A   1      -5.779  10.083  69.178  1.00  0.00     0.000 HD 
ENDBRANCH   4   5
ENDBRANCH   3   4
ENDBRANCH   2   3
TORSDOF 3
ENDMDL
MODEL      261
REMARK 921   NORMALIZED FREE ENERGY PREDICTED BY IDOCK:   -0.87 KCAL/MOL
REMARK 922        TOTAL FREE ENERGY PREDICTED BY IDOCK:   -1.14 KCAL/MOL
REMARK 923 INTER-LIGAND FREE ENERGY PREDICTED BY IDOCK:   -1.07 KCAL/MOL
REMARK 924 INTRA-LIGAND FREE ENERGY PREDICTED BY IDOCK:   -0.06 KCAL/MOL
REMARK 927      BINDING AFFINITY PREDICTED BY RF-SCORE:    0.00 PKD
ROOT
ATOM      1  CE  MET A   1     -11.576   6.421  72.258  1.00  0.00    -0.299 C  
ATOM      2  SD  MET A   1      -9.818   6.071  72.029  1.00  0.00    -0.155 SA 
ENDROOT
BRANCH   2   3
ATOM      3  CG  MET A   1      -9.780   5.931  70.208  1.00  0.00    -0.169 C  
BRANCH   3   4
ATOM      4  CB  MET A   1      -8.333   5.667  69.785  1.00  0.00    -0.107 C  
BRANCH   4   5
ATOM      5  CA  MET A   1      -7.582   6.914  69.308  1.00  0.00    -0.096 C  
ATOM      6  C   MET A   1      -6.441   6.545  68.347  1.00  0.00    -0.049 C  
ATOM      7  N   MET A   1      -8.540   7.792  68.566  1.00  0.00    -0.128 NA 
ATOM      8  O   MET A   1      -6.828   6.675  67.051  1.00  0.00    -0.061 OA 
ATOM      9  OXT MET A   1      -5.336   6.160  68.689  1.00  0.00    -0.007 OA 
ATOM     10  H1  MET A   1      -8.041   8.623  68.248  1.00  0.00     0.000 HD 
ATOM     11  H2  MET A   1      -9.368   8.020  69.116  1.00  0.00     0.000 HD 
ENDBRANCH   4   5
ENDBRANCH   3   4
ENDBRANCH   2   3
TORSDOF 3
ENDMDL
MODEL      262
REMARK 921   NORMALIZED FREE ENERGY PREDICTED BY IDOCK:   -0.86 KCAL/MOL
REMARK 922        TOTAL FREE ENERGY PREDICTED BY IDOCK:   -1.13 KCAL/MOL
REMARK 923 INTER-LIGAND FREE ENERGY PREDICTED BY IDOCK:   -1.08 KCAL/MOL
REMARK 924 INTRA-LIGAND FREE ENERGY PREDICTED BY IDOCK:   -0.04 KCAL/MOL
REMARK 927      BINDING AFFINITY PREDICTED BY RF-SCORE:    0.00 PKD
ROOT
ATOM      1  CE  MET A   1      -7.014   5.360  71.179  1.00  0.00    -0.060 C  
ATOM      2  SD  MET A   1      -7.400   5.394  69.414  1.00  0.00    -0.066 SA 
ENDROOT
BRANCH   2   3
ATOM      3  CG  MET A   1      -9.220   5.271  69.508  1.00  0.00    -0.118 C  
BRANCH   3   4
ATOM      4  CB  MET A   1      -9.726   4.720  68.172  1.00  0.00    -0.201 C  
BRANCH   4   5
ATOM      5  CA  MET A   1     -10.170   5.797  67.178  1.00  0.00    -0.207 C  
ATOM      6  C   MET A   1     -10.186   5.257  65.740  1.00  0.00     0.019 C  
ATOM      7  N   MET A   1     -11.564   6.219  67.524  1.00  0.00    -0.459 NA 
ATOM      8  O   MET A   1     -11.435   4.862  65.377  1.00  0.00     0.132 OA 
ATOM      9  OXT MET A   1      -9.209   5.165  65.016  1.00  0.00    -0.122 OA 
ATOM     10  H1  MET A   1     -11.860   6.937  66.862  1.00  0.00     0.000 HD 
ATOM     11  H2  MET A   1     -11.651   6.522  68.494  1.00  0.00     0.000 HD 
ENDBRANCH   4   5
ENDBRANCH   3   4
ENDBRANCH   2   3
TORSDOF 3
ENDMDL
MODEL      263
REMARK 921   NORMALIZED FREE ENERGY PREDICTED BY IDOCK:   -0.85 KCAL/MOL
REMARK 922        TOTAL FREE ENERGY PREDICTED BY IDOCK:   -1.11 KCAL/MOL
REMARK 923 INTER-LIGAND FREE ENERGY PREDICTED BY IDOCK:   -1.09 KCAL/MOL
REMARK 924 INTRA-LIGAND FREE ENERGY PREDICTED BY IDOCK:   -0.02 KCAL/MOL
REMARK 927      BINDING AFFINITY PREDICTED BY RF-SCORE:    0.00 PKD
ROOT
ATOM      1  CE  MET A   1      -9.367  10.085  66.587  1.00  0.00    -0.166 C  
ATOM      2  SD  MET A   1      -8.711   8.855  65.437  1.00  0.00    -0.187 SA 
ENDROOT
BRANCH   2   3
ATOM      3  CG  MET A   1      -8.208   7.570  66.634  1.00  0.00    -0.125 C  
BRANCH   3   4
ATOM      4  CB  MET A   1      -9.428   6.694  66.928  1.00  0.00    -0.184 C  
BRANCH   4   5
ATOM      5  CA  MET A   1      -9.092   5.354  67.590  1.00  0.00    -0.108 C  
ATOM      6  C   MET A   1      -8.728   5.539  69.071  1.00  0.00    -0.102 C  
ATOM      7  N   MET A   1     -10.300   4.473  67.522  1.00  0.00     0.040 NA 
ATOM      8  O   MET A   1      -9.798   5.302  69.874  1.00  0.00    -0.173 OA 
ATOM      9  OXT MET A   1      -7.632   5.879  69.484  1.00  0.00    -0.084 OA 
ATOM     10  H1  MET A   1     -10.076   3.581  67.962  1.00  0.00     0.000 HD 
ATOM     11  H2  MET A   1     -10.651   4.363  66.570  1.00  0.00     0.000 HD 
ENDBRANCH   4   5
ENDBRANCH   3   4
ENDBRANCH   2   3
TORSDOF 3
ENDMDL
MODEL      264
REMARK 921   NORMALIZED FREE ENERGY PREDICTED BY IDOCK:   -0.84 KCAL/MOL
REMARK 922        TOTAL FREE ENERGY PREDICTED BY IDOCK:   -1.10 KCAL/MOL
REMARK 923 INTER-LIGAND FREE ENERGY PREDICTED BY IDOCK:   -1.04 KCAL/MOL
REMARK 924 INTRA-LIGAND FREE ENERGY PREDICTED BY IDOCK:   -0.06 KCAL/MOL
REMARK 927      BINDING AFFINITY PREDICTED BY RF-SCORE:    0.00 PKD
ROOT
ATOM      1  CE  MET A   1     -10.838   6.387  69.959  1.00  0.00    -0.307 C  
ATOM      2  SD  MET A   1      -9.217   5.593  69.890  1.00  0.00    -0.149 SA 
ENDROOT
BRANCH   2   3
ATOM      3  CG  MET A   1      -8.213   7.017  69.342  1.00  0.00    -0.132 C  
BRANCH   3   4
ATOM      4  CB  MET A   1      -8.532   7.281  67.868  1.00  0.00    -0.118 C  
BRANCH   4   5
ATOM      5  CA  MET A   1      -7.406   7.979  67.098  1.00  0.00    -0.091 C  
ATOM      6  C   MET A   1      -6.731   7.019  66.107  1.00  0.00    -0.053 C  
ATOM      7  N   MET A   1      -7.995   9.109  66.314  1.00  0.00    -0.102 NA 
ATOM      8  O   MET A   1      -7.241   7.166  64.856  1.00  0.00    -0.064 OA 
ATOM      9  OXT MET A   1      -5.866   6.209  66.395  1.00  0.00    -0.022 OA 
ATOM     10  H1  MET A   1      -7.245   9.574  65.802  1.00  0.00     0.000 HD 
ATOM     11  H2  MET A   1      -8.528   9.753  66.897  1.00  0.00     0.000 HD 
ENDBRANCH   4   5
ENDBRANCH   3   4
ENDBRANCH   2   3
TORSDOF 3
ENDMDL
MODEL      265
REMARK 921   NORMALIZED FREE ENERGY PREDICTED BY IDOCK:   -0.84 KCAL/MOL
REMARK 922        TOTAL FREE ENERGY PREDICTED BY IDOCK:   -1.09 KCAL/MOL
REMARK 923 INTER-LIGAND FREE ENERGY PREDICTED BY IDOCK:   -1.19 KCAL/MOL
REMARK 924 INTRA-LIGAND FREE ENERGY PREDICTED BY IDOCK:    0.10 KCAL/MOL
REMARK 927      BINDING AFFINITY PREDICTED BY RF-SCORE:    0.00 PKD
ROOT
ATOM      1  CE  MET A   1      -7.944   6.982  69.492  1.00  0.00    -0.125 C  
ATOM      2  SD  MET A   1      -8.889   6.770  71.017  1.00  0.00    -0.141 SA 
ENDROOT
BRANCH   2   3
ATOM      3  CG  MET A   1     -10.218   5.684  70.393  1.00  0.00    -0.235 C  
BRANCH   3   4
ATOM      4  CB  MET A   1      -9.610   4.745  69.348  1.00  0.00    -0.249 C  
BRANCH   4   5
ATOM      5  CA  MET A   1      -8.596   3.747  69.918  1.00  0.00    -0.061 C  
ATOM      6  C   MET A   1      -9.234   2.366  70.133  1.00  0.00    -0.122 C  
ATOM      7  N   MET A   1      -7.480   3.588  68.934  1.00  0.00    -0.053 NA 
ATOM      8  O   MET A   1      -8.978   1.538  69.087  1.00  0.00    -0.066 OA 
ATOM      9  OXT MET A   1      -9.906   2.049  71.100  1.00  0.00    -0.136 OA 
ATOM     10  H1  MET A   1      -6.805   2.924  69.313  1.00  0.00     0.000 HD 
ATOM     11  H2  MET A   1      -7.053   4.478  68.681  1.00  0.00     0.000 HD 
ENDBRANCH   4   5
ENDBRANCH   3   4
ENDBRANCH   2   3
TORSDOF 3
ENDMDL
MODEL      266
REMARK 921   NORMALIZED FREE ENERGY PREDICTED BY IDOCK:   -0.82 KCAL/MOL
REMARK 922        TOTAL FREE ENERGY PREDICTED BY IDOCK:   -1.08 KCAL/MOL
REMARK 923 INTER-LIGAND FREE ENERGY PREDICTED BY IDOCK:   -0.99 KCAL/MOL
REMARK 924 INTRA-LIGAND FREE ENERGY PREDICTED BY IDOCK:   -0.09 KCAL/MOL
REMARK 927      BINDING AFFINITY PREDICTED BY RF-SCORE:    0.00 PKD
ROOT
ATOM      1  CE  MET A   1      -7.762   7.791  70.400  1.00  0.00    -0.088 C  
ATOM      2  SD  MET A   1      -9.070   7.805  69.154  1.00  0.00    -0.144 SA 
ENDROOT
BRANCH   2   3
ATOM      3  CG  MET A   1      -8.146   7.093  67.748  1.00  0.00    -0.115 C  
BRANCH   3   4
ATOM      4  CB  MET A   1      -7.224   5.999  68.294  1.00  0.00    -0.084 C  
BRANCH   4   5
ATOM      5  CA  MET A   1      -7.451   4.620  67.669  1.00  0.00    -0.078 C  
ATOM      6  C   MET A   1      -8.773   4.001  68.148  1.00  0.00    -0.101 C  
ATOM      7  N   MET A   1      -7.530   4.777  66.183  1.00  0.00    -0.085 NA 
ATOM      8  O   MET A   1      -9.770   4.216  67.250  1.00  0.00    -0.197 OA 
ATOM      9  OXT MET A   1      -8.927   3.412  69.204  1.00  0.00    -0.097 OA 
ATOM     10  H1  MET A   1      -7.681   3.858  65.766  1.00  0.00     0.000 HD 
ATOM     11  H2  MET A   1      -6.716   5.253  65.796  1.00  0.00     0.000 HD 
ENDBRANCH   4   5
ENDBRANCH   3   4
ENDBRANCH   2   3
TORSDOF 3
ENDMDL
MODEL      267
REMARK 921   NORMALIZED FREE ENERGY PREDICTED BY IDOCK:   -0.80 KCAL/MOL
REMARK 922        TOTAL FREE ENERGY PREDICTED BY IDOCK:   -1.05 KCAL/MOL
REMARK 923 INTER-LIGAND FREE ENERGY PREDICTED BY IDOCK:   -0.94 KCAL/MOL
REMARK 924 INTRA-LIGAND FREE ENERGY PREDICTED BY IDOCK:   -0.11 KCAL/MOL
REMARK 927      BINDING AFFINITY PREDICTED BY RF-SCORE:    0.00 PKD
ROOT
ATOM      1  CE  MET A   1     -10.971   5.973  69.520  1.00  0.00    -0.397 C  
ATOM      2  SD  MET A   1      -9.671   5.053  68.666  1.00  0.00    -0.159 SA 
ENDROOT
BRANCH   2   3
ATOM      3  CG  MET A   1      -8.650   4.581  70.105  1.00  0.00    -0.077 C  
BRANCH   3   4
ATOM      4  CB  MET A   1      -7.860   5.815  70.551  1.00  0.00    -0.100 C  
BRANCH   4   5
ATOM      5  CA  MET A   1      -7.098   6.512  69.420  1.00  0.00    -0.077 C  
ATOM      6  C   MET A   1      -6.569   7.884  69.867  1.00  0.00    -0.037 C  
ATOM      7  N   MET A   1      -5.920   5.667  69.047  1.00  0.00    -0.022 NA 
ATOM      8  O   MET A   1      -5.271   7.806  70.261  1.00  0.00    -0.023 OA 
ATOM      9  OXT MET A   1      -7.225   8.911  69.893  1.00  0.00    -0.049 OA 
ATOM     10  H1  MET A   1      -5.412   6.131  68.295  1.00  0.00     0.000 HD 
ATOM     11  H2  MET A   1      -6.185   4.711  68.810  1.00  0.00     0.000 HD 
ENDBRANCH   4   5
ENDBRANCH   3   4
ENDBRANCH   2   3
TORSDOF 3
ENDMDL
MODEL      268
REMARK 921   NORMALIZED FREE ENERGY PREDICTED BY IDOCK:   -0.79 KCAL/MOL
REMARK 922        TOTAL FREE ENERGY PREDICTED BY IDOCK:   -1.04 KCAL/MOL
REMARK 923 INTER-LIGAND FREE ENERGY PREDICTED BY IDOCK:   -1.19 KCAL/MOL
REMARK 924 INTRA-LIGAND FREE ENERGY PREDICTED BY IDOCK:    0.15 KCAL/MOL
REMARK 927      BINDING AFFINITY PREDICTED BY RF-SCORE:    0.00 PKD
ROOT
ATOM      1  CE  MET A   1      -5.930   5.604  71.027  1.00  0.00    -0.029 C  
ATOM      2  SD  MET A   1      -6.376   5.927  69.306  1.00  0.00    -0.043 SA 
ENDROOT
BRANCH   2   3
ATOM      3  CG  MET A   1      -8.015   5.124  69.270  1.00  0.00    -0.080 C  
BRANCH   3   4
ATOM      4  CB  MET A   1      -8.506   5.115  67.819  1.00  0.00    -0.104 C  
BRANCH   4   5
ATOM      5  CA  MET A   1      -9.704   6.033  67.558  1.00  0.00    -0.116 C  
ATOM      6  C   MET A   1      -9.471   7.434  68.144  1.00  0.00    -0.138 C  
ATOM      7  N   MET A   1      -9.879   6.179  66.079  1.00  0.00    -0.387 NA 
ATOM      8  O   MET A   1      -9.015   8.294  67.197  1.00  0.00    -0.134 OA 
ATOM      9  OXT MET A   1      -9.646   7.742  69.311  1.00  0.00    -0.159 OA 
ATOM     10  H1  MET A   1     -10.677   6.790  65.905  1.00  0.00     0.000 HD 
ATOM     11  H2  MET A   1      -9.964   5.280  65.605  1.00  0.00     0.000 HD 
ENDBRANCH   4   5
ENDBRANCH   3   4
ENDBRANCH   2   3
TORSDOF 3
ENDMDL
MODEL      269
REMARK 921   NORMALIZED FREE ENERGY PREDICTED BY IDOCK:   -0.74 KCAL/MOL
REMARK 922        TOTAL FREE ENERGY PREDICTED BY IDOCK:   -0.98 KCAL/MOL
REMARK 923 INTER-LIGAND FREE ENERGY PREDICTED BY IDOCK:   -0.97 KCAL/MOL
REMARK 924 INTRA-LIGAND FREE ENERGY PREDICTED BY IDOCK:   -0.00 KCAL/MOL
REMARK 927      BINDING AFFINITY PREDICTED BY RF-SCORE:    0.00 PKD
ROOT
ATOM      1  CE  MET A   1     -10.276   6.693  69.374  1.00  0.00    -0.183 C  
ATOM      2  SD  MET A   1      -8.982   5.520  68.914  1.00  0.00    -0.115 SA 
ENDROOT
BRANCH   2   3
ATOM      3  CG  MET A   1      -7.596   6.213  69.881  1.00  0.00    -0.088 C  
BRANCH   3   4
ATOM      4  CB  MET A   1      -7.831   7.719  70.030  1.00  0.00    -0.103 C  
BRANCH   4   5
ATOM      5  CA  MET A   1      -7.448   8.538  68.794  1.00  0.00    -0.092 C  
ATOM      6  C   MET A   1      -8.076   9.939  68.837  1.00  0.00    -0.105 C  
ATOM      7  N   MET A   1      -5.961   8.703  68.773  1.00  0.00    -0.044 NA 
ATOM      8  O   MET A   1      -7.199  10.857  69.320  1.00  0.00    -0.106 OA 
ATOM      9  OXT MET A   1      -9.220  10.203  68.507  1.00  0.00    -0.136 OA 
ATOM     10  H1  MET A   1      -5.706   9.248  67.950  1.00  0.00     0.000 HD 
ATOM     11  H2  MET A   1      -5.468   7.811  68.820  1.00  0.00     0.000 HD 
ENDBRANCH   4   5
ENDBRANCH   3   4
ENDBRANCH   2   3
TORSDOF 3
ENDMDL
MODEL      270
REMARK 921   NORMALIZED FREE ENERGY PREDICTED BY IDOCK:   -0.67 KCAL/MOL
REMARK 922        TOTAL FREE ENERGY PREDICTED BY IDOCK:   -0.89 KCAL/MOL
REMARK 923 INTER-LIGAND FREE ENERGY PREDICTED BY IDOCK:   -0.85 KCAL/MOL
REMARK 924 INTRA-LIGAND FREE ENERGY PREDICTED BY IDOCK:   -0.04 KCAL/MOL
REMARK 927      BINDING AFFINITY PREDICTED BY RF-SCORE:    0.00 PKD
ROOT
ATOM      1  CE  MET A   1     -11.428   6.432  72.411  1.00  0.00    -0.282 C  
ATOM      2  SD  MET A   1      -9.730   5.981  72.834  1.00  0.00    -0.155 SA 
ENDROOT
BRANCH   2   3
ATOM      3  CG  MET A   1      -9.066   5.722  71.152  1.00  0.00    -0.146 C  
BRANCH   3   4
ATOM      4  CB  MET A   1      -8.243   4.431  71.162  1.00  0.00    -0.083 C  
BRANCH   4   5
ATOM      5  CA  MET A   1      -7.762   3.984  69.778  1.00  0.00    -0.052 C  
ATOM      6  C   MET A   1      -6.341   3.404  69.843  1.00  0.00    -0.028 C  
ATOM      7  N   MET A   1      -8.675   2.907  69.282  1.00  0.00    -0.074 NA 
ATOM      8  O   MET A   1      -6.367   2.047  69.918  1.00  0.00    -0.024 OA 
ATOM      9  OXT MET A   1      -5.316   4.063  69.851  1.00  0.00    -0.007 OA 
ATOM     10  H1  MET A   1      -8.355   2.609  68.361  1.00  0.00     0.000 HD 
ATOM     11  H2  MET A   1      -9.654   3.193  69.283  1.00  0.00     0.000 HD 
ENDBRANCH   4   5
ENDBRANCH   3   4
ENDBRANCH   2   3
TORSDOF 3
ENDMDL
MODEL      271
REMARK 921   NORMALIZED FREE ENERGY PREDICTED BY IDOCK:   -0.63 KCAL/MOL
REMARK 922        TOTAL FREE ENERGY PREDICTED BY IDOCK:   -0.85 KCAL/MOL
REMARK 923 INTER-LIGAND FREE ENERGY PREDICTED BY IDOCK:   -0.77 KCAL/MOL
REMARK 924 INTRA-LIGAND FREE ENERGY PREDICTED BY IDOCK:   -0.07 KCAL/MOL
REMARK 927      BINDING AFFINITY PREDICTED BY RF-SCORE:    0.00 PKD
ROOT
ATOM      1  CE  MET A   1     -11.428   6.432  72.411  1.00  0.00    -0.282 C  
ATOM      2  SD  MET A   1      -9.730   5.981  72.834  1.00  0.00    -0.155 SA 
ENDROOT
BRANCH   2   3
ATOM      3  CG  MET A   1      -9.066   5.722  71.152  1.00  0.00    -0.146 C  
BRANCH   3   4
ATOM      4  CB  MET A   1      -8.243   4.431  71.162  1.00  0.00    -0.083 C  
BRANCH   4   5
ATOM      5  CA  MET A   1      -6.818   4.602  71.697  1.00  0.00    -0.039 C  
ATOM      6  C   MET A   1      -6.392   3.393  72.544  1.00  0.00    -0.014 C  
ATOM      7  N   MET A   1      -5.881   4.700  70.535  1.00  0.00    -0.016 NA 
ATOM      8  O   MET A   1      -5.667   2.509  71.810  1.00  0.00    -0.008 OA 
ATOM      9  OXT MET A   1      -6.681   3.223  73.717  1.00  0.00    -0.032 OA 
ATOM     10  H1  MET A   1      -4.932   4.813  70.891  1.00  0.00     0.000 HD 
ATOM     11  H2  MET A   1      -6.144   5.437  69.881  1.00  0.00     0.000 HD 
ENDBRANCH   4   5
ENDBRANCH   3   4
ENDBRANCH   2   3
TORSDOF 3
ENDMDL
MODEL      272
REMARK 921   NORMALIZED FREE ENERGY PREDICTED BY IDOCK:   -0.33 KCAL/MOL
REMARK 922        TOTAL FREE ENERGY PREDICTED BY IDOCK:   -0.49 KCAL/MOL
REMARK 923 INTER-LIGAND FREE ENERGY PREDICTED BY IDOCK:   -0.44 KCAL/MOL
REMARK 924 INTRA-LIGAND FREE ENERGY PREDICTED BY IDOCK:   -0.05 KCAL/MOL
REMARK 927      BINDING AFFINITY PREDICTED BY RF-SCORE:    0.00 PKD
ROOT
ATOM      1  CE  MET A   1      -8.149  13.982  69.364  1.00  0.00     0.422 C  
ATOM      2  SD  MET A   1      -6.912  14.113  68.053  1.00  0.00    -0.164 SA 
ENDROOT
BRANCH   2   3
ATOM      3  CG  MET A   1      -6.323  12.385  68.029  1.00  0.00    -0.082 C  
BRANCH   3   4
ATOM      4  CB  MET A   1      -7.492  11.481  68.430  1.00  0.00    -0.109 C  
BRANCH   4   5
ATOM      5  CA  MET A   1      -7.164   9.985  68.408  1.00  0.00    -0.073 C  
ATOM      6  C   MET A   1      -7.993   9.217  69.449  1.00  0.00    -0.097 C  
ATOM      7  N   MET A   1      -7.507   9.442  67.057  1.00  0.00    -0.091 NA 
ATOM      8  O   MET A   1      -9.094   8.656  68.883  1.00  0.00    -0.144 OA 
ATOM      9  OXT MET A   1      -7.723   9.134  70.635  1.00  0.00    -0.108 OA 
ATOM     10  H1  MET A   1      -7.289   8.446  67.042  1.00  0.00     0.000 HD 
ATOM     11  H2  MET A   1      -7.051   9.954  66.302  1.00  0.00     0.000 HD 
ENDBRANCH   4   5
ENDBRANCH   3   4
ENDBRANCH   2   3
TORSDOF 3
ENDMDL
MODEL      273
REMARK 921   NORMALIZED FREE ENERGY PREDICTED BY IDOCK:    0.50 KCAL/MOL
REMARK 922        TOTAL FREE ENERGY PREDICTED BY IDOCK:    0.47 KCAL/MOL
REMARK 923 INTER-LIGAND FREE ENERGY PREDICTED BY IDOCK:   -0.93 KCAL/MOL
REMARK 924 INTRA-LIGAND FREE ENERGY PREDICTED BY IDOCK:    1.40 KCAL/MOL
REMARK 927      BINDING AFFINITY PREDICTED BY RF-SCORE:    0.00 PKD
ROOT
ATOM      1  CE  MET A   1     -10.287   6.719  69.407  1.00  0.00    -0.199 C  
ATOM      2  SD  MET A   1      -8.836   5.751  68.939  1.00  0.00    -0.110 SA 
ENDROOT
BRANCH   2   3
ATOM      3  CG  MET A   1      -7.617   6.465  70.097  1.00  0.00    -0.096 C  
BRANCH   3   4
ATOM      4  CB  MET A   1      -8.135   7.836  70.542  1.00  0.00    -0.103 C  
BRANCH   4   5
ATOM      5  CA  MET A   1      -7.886   8.958  69.530  1.00  0.00    -0.094 C  
ATOM      6  C   MET A   1      -6.839   8.544  68.484  1.00  0.00    -0.064 C  
ATOM      7  N   MET A   1      -9.166   9.243  68.809  1.00  0.00    -0.135 NA 
ATOM      8  O   MET A   1      -7.432   8.089  67.349  1.00  0.00    -0.090 OA 
ATOM      9  OXT MET A   1      -5.632   8.589  68.647  1.00  0.00    -0.036 OA 
ATOM     10  H1  MET A   1      -9.000   9.991  68.136  1.00  0.00     0.000 HD 
ATOM     11  H2  MET A   1      -9.934   9.454  69.446  1.00  0.00     0.000 HD 
ENDBRANCH   4   5
ENDBRANCH   3   4
ENDBRANCH   2   3
TORSDOF 3
ENDMDL
