MODEL        1
REMARK 921   NORMALIZED FREE ENERGY PREDICTED BY IDOCK:   -4.38 KCAL/MOL
REMARK 922        TOTAL FREE ENERGY PREDICTED BY IDOCK:   -4.97 KCAL/MOL
REMARK 923 INTER-LIGAND FREE ENERGY PREDICTED BY IDOCK:   -4.89 KCAL/MOL
REMARK 924 INTRA-LIGAND FREE ENERGY PREDICTED BY IDOCK:   -0.07 KCAL/MOL
REMARK 927      BINDING AFFINITY PREDICTED BY RF-SCORE:    0.00 PKD
ROOT
HETATM    1  C   UNL     1     -10.239  17.604  66.342  1.00  0.00    -0.364 C  
HETATM    2  O   UNL     1      -9.879  16.626  65.365  1.00  0.00    -0.538 OA 
ENDROOT
BRANCH   2   3
HETATM    3  C   UNL     1     -10.937  16.058  64.737  1.00  0.00    -0.356 C  
HETATM    4  O   UNL     1     -11.655  16.599  63.911  1.00  0.00    -1.204 OA 
BRANCH   3   5
HETATM    5  C   UNL     1     -11.115  14.655  65.172  1.00  0.00    -0.382 A  
HETATM    6  C   UNL     1     -12.312  13.967  65.022  1.00  0.00    -0.441 A  
HETATM    7  N   UNL     1     -12.503  12.685  65.424  1.00  0.00    -0.655 NA 
HETATM    8  C   UNL     1     -11.450  12.064  66.001  1.00  0.00    -0.338 A  
HETATM    9  C   UNL     1     -10.215  12.663  66.192  1.00  0.00    -0.272 A  
HETATM   10  C   UNL     1     -10.047  13.979  65.768  1.00  0.00    -0.345 A  
ENDBRANCH   3   5
ENDBRANCH   2   3
TORSDOF 2
ENDMDL
MODEL        2
REMARK 921   NORMALIZED FREE ENERGY PREDICTED BY IDOCK:   -4.22 KCAL/MOL
REMARK 922        TOTAL FREE ENERGY PREDICTED BY IDOCK:   -4.78 KCAL/MOL
REMARK 923 INTER-LIGAND FREE ENERGY PREDICTED BY IDOCK:   -4.71 KCAL/MOL
REMARK 924 INTRA-LIGAND FREE ENERGY PREDICTED BY IDOCK:   -0.07 KCAL/MOL
REMARK 927      BINDING AFFINITY PREDICTED BY RF-SCORE:    0.00 PKD
ROOT
HETATM    1  C   UNL     1     -10.321  14.382  65.188  1.00  0.00    -0.421 C  
HETATM    2  O   UNL     1      -9.758  15.637  65.578  1.00  0.00    -0.321 OA 
ENDROOT
BRANCH   2   3
HETATM    3  C   UNL     1     -10.537  16.706  65.283  1.00  0.00    -0.205 C  
HETATM    4  O   UNL     1     -11.262  16.817  64.307  1.00  0.00    -1.163 OA 
BRANCH   3   5
HETATM    5  C   UNL     1     -10.416  17.748  66.326  1.00  0.00    -0.307 A  
HETATM    6  C   UNL     1     -10.288  17.450  67.675  1.00  0.00    -0.355 A  
HETATM    7  N   UNL     1     -10.188  18.388  68.652  1.00  0.00    -0.375 NA 
HETATM    8  C   UNL     1     -10.217  19.681  68.259  1.00  0.00    -0.452 A  
HETATM    9  C   UNL     1     -10.337  20.080  66.937  1.00  0.00    -0.567 A  
HETATM   10  C   UNL     1     -10.436  19.096  65.956  1.00  0.00    -0.546 A  
ENDBRANCH   3   5
ENDBRANCH   2   3
TORSDOF 2
ENDMDL
MODEL        3
REMARK 921   NORMALIZED FREE ENERGY PREDICTED BY IDOCK:   -4.18 KCAL/MOL
REMARK 922        TOTAL FREE ENERGY PREDICTED BY IDOCK:   -4.74 KCAL/MOL
REMARK 923 INTER-LIGAND FREE ENERGY PREDICTED BY IDOCK:   -4.65 KCAL/MOL
REMARK 924 INTRA-LIGAND FREE ENERGY PREDICTED BY IDOCK:   -0.09 KCAL/MOL
REMARK 927      BINDING AFFINITY PREDICTED BY RF-SCORE:    0.00 PKD
ROOT
HETATM    1  C   UNL     1     -12.505  15.552  73.930  1.00  0.00    -0.636 C  
HETATM    2  O   UNL     1     -13.526  14.778  73.296  1.00  0.00    -0.561 OA 
ENDROOT
BRANCH   2   3
HETATM    3  C   UNL     1     -13.492  14.826  71.942  1.00  0.00    -0.371 C  
HETATM    4  O   UNL     1     -13.801  15.785  71.252  1.00  0.00    -0.547 OA 
BRANCH   3   5
HETATM    5  C   UNL     1     -13.006  13.546  71.382  1.00  0.00    -0.421 A  
HETATM    6  C   UNL     1     -12.273  13.471  70.206  1.00  0.00    -0.347 A  
HETATM    7  N   UNL     1     -11.826  12.307  69.666  1.00  0.00    -0.328 NA 
HETATM    8  C   UNL     1     -12.126  11.171  70.334  1.00  0.00    -0.385 A  
HETATM    9  C   UNL     1     -12.848  11.143  71.517  1.00  0.00    -0.542 A  
HETATM   10  C   UNL     1     -13.292  12.352  72.049  1.00  0.00    -0.511 A  
ENDBRANCH   3   5
ENDBRANCH   2   3
TORSDOF 2
ENDMDL
MODEL        4
REMARK 921   NORMALIZED FREE ENERGY PREDICTED BY IDOCK:   -4.18 KCAL/MOL
REMARK 922        TOTAL FREE ENERGY PREDICTED BY IDOCK:   -4.74 KCAL/MOL
REMARK 923 INTER-LIGAND FREE ENERGY PREDICTED BY IDOCK:   -4.69 KCAL/MOL
REMARK 924 INTRA-LIGAND FREE ENERGY PREDICTED BY IDOCK:   -0.05 KCAL/MOL
REMARK 927      BINDING AFFINITY PREDICTED BY RF-SCORE:    0.00 PKD
ROOT
HETATM    1  C   UNL     1     -10.250  17.676  66.120  1.00  0.00    -0.343 C  
HETATM    2  O   UNL     1     -10.582  16.293  65.976  1.00  0.00    -0.318 OA 
ENDROOT
BRANCH   2   3
HETATM    3  C   UNL     1     -11.241  16.001  64.829  1.00  0.00    -0.339 C  
HETATM    4  O   UNL     1     -11.568  16.802  63.967  1.00  0.00    -1.195 OA 
BRANCH   3   5
HETATM    5  C   UNL     1     -11.509  14.550  64.731  1.00  0.00    -0.408 A  
HETATM    6  C   UNL     1     -12.757  13.997  64.985  1.00  0.00    -0.328 A  
HETATM    7  N   UNL     1     -13.025  12.668  64.914  1.00  0.00    -0.850 NA 
HETATM    8  C   UNL     1     -11.999  11.857  64.574  1.00  0.00    -0.196 A  
HETATM    9  C   UNL     1     -10.719  12.312  64.298  1.00  0.00    -0.389 A  
HETATM   10  C   UNL     1     -10.473  13.682  64.377  1.00  0.00    -0.322 A  
ENDBRANCH   3   5
ENDBRANCH   2   3
TORSDOF 2
ENDMDL
MODEL        5
REMARK 921   NORMALIZED FREE ENERGY PREDICTED BY IDOCK:   -4.13 KCAL/MOL
REMARK 922        TOTAL FREE ENERGY PREDICTED BY IDOCK:   -4.68 KCAL/MOL
REMARK 923 INTER-LIGAND FREE ENERGY PREDICTED BY IDOCK:   -4.65 KCAL/MOL
REMARK 924 INTRA-LIGAND FREE ENERGY PREDICTED BY IDOCK:   -0.03 KCAL/MOL
REMARK 927      BINDING AFFINITY PREDICTED BY RF-SCORE:    0.00 PKD
ROOT
HETATM    1  C   UNL     1     -12.188  12.082  63.521  1.00  0.00    -0.547 C  
HETATM    2  O   UNL     1     -12.765  13.002  64.450  1.00  0.00    -0.652 OA 
ENDROOT
BRANCH   2   3
HETATM    3  C   UNL     1     -12.177  12.994  65.671  1.00  0.00    -0.466 C  
HETATM    4  O   UNL     1     -12.128  12.045  66.437  1.00  0.00    -0.610 OA 
BRANCH   3   5
HETATM    5  C   UNL     1     -11.565  14.308  65.967  1.00  0.00    -0.362 A  
HETATM    6  C   UNL     1     -11.065  15.144  64.979  1.00  0.00    -0.419 A  
HETATM    7  N   UNL     1     -10.488  16.348  65.227  1.00  0.00    -0.627 NA 
HETATM    8  C   UNL     1     -10.410  16.731  66.521  1.00  0.00    -0.301 A  
HETATM    9  C   UNL     1     -10.884  15.970  67.578  1.00  0.00    -0.292 A  
HETATM   10  C   UNL     1     -11.473  14.739  67.294  1.00  0.00    -0.378 A  
ENDBRANCH   3   5
ENDBRANCH   2   3
TORSDOF 2
ENDMDL
MODEL        6
REMARK 921   NORMALIZED FREE ENERGY PREDICTED BY IDOCK:   -4.09 KCAL/MOL
REMARK 922        TOTAL FREE ENERGY PREDICTED BY IDOCK:   -4.64 KCAL/MOL
REMARK 923 INTER-LIGAND FREE ENERGY PREDICTED BY IDOCK:   -4.57 KCAL/MOL
REMARK 924 INTRA-LIGAND FREE ENERGY PREDICTED BY IDOCK:   -0.06 KCAL/MOL
REMARK 927      BINDING AFFINITY PREDICTED BY RF-SCORE:    0.00 PKD
ROOT
HETATM    1  C   UNL     1     -12.482  15.442  74.025  1.00  0.00    -0.642 C  
HETATM    2  O   UNL     1     -13.491  15.447  73.013  1.00  0.00    -0.488 OA 
ENDROOT
BRANCH   2   3
HETATM    3  C   UNL     1     -13.597  14.279  72.334  1.00  0.00    -0.500 C  
HETATM    4  O   UNL     1     -14.231  13.299  72.690  1.00  0.00    -0.724 OA 
BRANCH   3   5
HETATM    5  C   UNL     1     -12.843  14.340  71.063  1.00  0.00    -0.427 A  
HETATM    6  C   UNL     1     -12.588  15.530  70.396  1.00  0.00    -0.378 A  
HETATM    7  N   UNL     1     -11.909  15.610  69.223  1.00  0.00    -0.371 NA 
HETATM    8  C   UNL     1     -11.466  14.448  68.695  1.00  0.00    -0.287 A  
HETATM    9  C   UNL     1     -11.666  13.210  69.286  1.00  0.00    -0.376 A  
HETATM   10  C   UNL     1     -12.364  13.158  70.491  1.00  0.00    -0.380 A  
ENDBRANCH   3   5
ENDBRANCH   2   3
TORSDOF 2
ENDMDL
MODEL        7
REMARK 921   NORMALIZED FREE ENERGY PREDICTED BY IDOCK:   -4.07 KCAL/MOL
REMARK 922        TOTAL FREE ENERGY PREDICTED BY IDOCK:   -4.62 KCAL/MOL
REMARK 923 INTER-LIGAND FREE ENERGY PREDICTED BY IDOCK:   -4.57 KCAL/MOL
REMARK 924 INTRA-LIGAND FREE ENERGY PREDICTED BY IDOCK:   -0.05 KCAL/MOL
REMARK 927      BINDING AFFINITY PREDICTED BY RF-SCORE:    0.00 PKD
ROOT
HETATM    1  C   UNL     1     -11.622  13.891  67.527  1.00  0.00    -0.360 C  
HETATM    2  O   UNL     1     -11.983  14.076  68.897  1.00  0.00    -0.335 OA 
ENDROOT
BRANCH   2   3
HETATM    3  C   UNL     1     -11.853  15.352  69.334  1.00  0.00    -0.351 C  
HETATM    4  O   UNL     1     -11.343  16.273  68.715  1.00  0.00    -0.350 OA 
BRANCH   3   5
HETATM    5  C   UNL     1     -12.435  15.508  70.685  1.00  0.00    -0.483 A  
HETATM    6  C   UNL     1     -13.759  15.207  70.972  1.00  0.00    -0.382 A  
HETATM    7  N   UNL     1     -14.320  15.353  72.200  1.00  0.00    -0.570 NA 
HETATM    8  C   UNL     1     -13.518  15.819  73.184  1.00  0.00    -0.561 A  
HETATM    9  C   UNL     1     -12.183  16.142  72.999  1.00  0.00    -0.641 A  
HETATM   10  C   UNL     1     -11.634  15.981  71.728  1.00  0.00    -0.534 A  
ENDBRANCH   3   5
ENDBRANCH   2   3
TORSDOF 2
ENDMDL
MODEL        8
REMARK 921   NORMALIZED FREE ENERGY PREDICTED BY IDOCK:   -4.06 KCAL/MOL
REMARK 922        TOTAL FREE ENERGY PREDICTED BY IDOCK:   -4.61 KCAL/MOL
REMARK 923 INTER-LIGAND FREE ENERGY PREDICTED BY IDOCK:   -4.54 KCAL/MOL
REMARK 924 INTRA-LIGAND FREE ENERGY PREDICTED BY IDOCK:   -0.07 KCAL/MOL
REMARK 927      BINDING AFFINITY PREDICTED BY RF-SCORE:    0.00 PKD
ROOT
HETATM    1  C   UNL     1     -11.669  11.082  69.378  1.00  0.00    -0.323 C  
HETATM    2  O   UNL     1     -12.085  11.399  68.048  1.00  0.00    -0.629 OA 
ENDROOT
BRANCH   2   3
HETATM    3  C   UNL     1     -11.906  12.699  67.710  1.00  0.00    -0.323 C  
HETATM    4  O   UNL     1     -11.706  13.619  68.486  1.00  0.00    -0.313 OA 
BRANCH   3   5
HETATM    5  C   UNL     1     -11.966  12.873  66.242  1.00  0.00    -0.472 A  
HETATM    6  C   UNL     1     -12.588  13.958  65.639  1.00  0.00    -0.517 A  
HETATM    7  N   UNL     1     -12.667  14.134  64.295  1.00  0.00    -0.629 NA 
HETATM    8  C   UNL     1     -12.098  13.183  63.522  1.00  0.00    -0.514 A  
HETATM    9  C   UNL     1     -11.451  12.066  64.028  1.00  0.00    -0.484 A  
HETATM   10  C   UNL     1     -11.384  11.912  65.412  1.00  0.00    -0.334 A  
ENDBRANCH   3   5
ENDBRANCH   2   3
TORSDOF 2
ENDMDL
MODEL        9
REMARK 921   NORMALIZED FREE ENERGY PREDICTED BY IDOCK:   -4.04 KCAL/MOL
REMARK 922        TOTAL FREE ENERGY PREDICTED BY IDOCK:   -4.58 KCAL/MOL
REMARK 923 INTER-LIGAND FREE ENERGY PREDICTED BY IDOCK:   -4.50 KCAL/MOL
REMARK 924 INTRA-LIGAND FREE ENERGY PREDICTED BY IDOCK:   -0.08 KCAL/MOL
REMARK 927      BINDING AFFINITY PREDICTED BY RF-SCORE:    0.00 PKD
ROOT
HETATM    1  C   UNL     1     -12.386  12.095  63.461  1.00  0.00    -0.574 C  
HETATM    2  O   UNL     1     -12.923  12.762  64.606  1.00  0.00    -0.742 OA 
ENDROOT
BRANCH   2   3
HETATM    3  C   UNL     1     -12.454  14.021  64.780  1.00  0.00    -0.365 C  
HETATM    4  O   UNL     1     -12.548  14.937  63.979  1.00  0.00    -0.832 OA 
BRANCH   3   5
HETATM    5  C   UNL     1     -11.810  14.163  66.104  1.00  0.00    -0.420 A  
HETATM    6  C   UNL     1     -11.033  15.261  66.448  1.00  0.00    -0.299 A  
HETATM    7  N   UNL     1     -10.422  15.409  67.651  1.00  0.00    -0.266 NA 
HETATM    8  C   UNL     1     -10.596  14.414  68.549  1.00  0.00    -0.255 A  
HETATM    9  C   UNL     1     -11.355  13.280  68.302  1.00  0.00    -0.335 A  
HETATM   10  C   UNL     1     -11.973  13.156  67.059  1.00  0.00    -0.412 A  
ENDBRANCH   3   5
ENDBRANCH   2   3
TORSDOF 2
ENDMDL
MODEL       10
REMARK 921   NORMALIZED FREE ENERGY PREDICTED BY IDOCK:   -4.03 KCAL/MOL
REMARK 922        TOTAL FREE ENERGY PREDICTED BY IDOCK:   -4.57 KCAL/MOL
REMARK 923 INTER-LIGAND FREE ENERGY PREDICTED BY IDOCK:   -4.58 KCAL/MOL
REMARK 924 INTRA-LIGAND FREE ENERGY PREDICTED BY IDOCK:    0.01 KCAL/MOL
REMARK 927      BINDING AFFINITY PREDICTED BY RF-SCORE:    0.00 PKD
ROOT
HETATM    1  C   UNL     1     -12.010  13.319  63.355  1.00  0.00    -0.427 C  
HETATM    2  O   UNL     1     -12.629  14.489  63.894  1.00  0.00    -0.827 OA 
ENDROOT
BRANCH   2   3
HETATM    3  C   UNL     1     -11.753  15.389  64.405  1.00  0.00    -0.258 C  
HETATM    4  O   UNL     1     -11.497  16.486  63.935  1.00  0.00    -1.145 OA 
BRANCH   3   5
HETATM    5  C   UNL     1     -11.138  14.876  65.649  1.00  0.00    -0.348 A  
HETATM    6  C   UNL     1     -11.879  14.302  66.673  1.00  0.00    -0.421 A  
HETATM    7  N   UNL     1     -11.340  13.836  67.828  1.00  0.00    -0.288 NA 
HETATM    8  C   UNL     1      -9.999  13.948  67.963  1.00  0.00    -0.241 A  
HETATM    9  C   UNL     1      -9.173  14.501  66.997  1.00  0.00    -0.253 A  
HETATM   10  C   UNL     1      -9.755  14.970  65.820  1.00  0.00    -0.375 A  
ENDBRANCH   3   5
ENDBRANCH   2   3
TORSDOF 2
ENDMDL
MODEL       11
REMARK 921   NORMALIZED FREE ENERGY PREDICTED BY IDOCK:   -3.96 KCAL/MOL
REMARK 922        TOTAL FREE ENERGY PREDICTED BY IDOCK:   -4.50 KCAL/MOL
REMARK 923 INTER-LIGAND FREE ENERGY PREDICTED BY IDOCK:   -4.43 KCAL/MOL
REMARK 924 INTRA-LIGAND FREE ENERGY PREDICTED BY IDOCK:   -0.07 KCAL/MOL
REMARK 927      BINDING AFFINITY PREDICTED BY RF-SCORE:    0.00 PKD
ROOT
HETATM    1  C   UNL     1     -11.792  13.200  68.082  1.00  0.00    -0.348 C  
HETATM    2  O   UNL     1     -11.317  13.884  69.243  1.00  0.00    -0.253 OA 
ENDROOT
BRANCH   2   3
HETATM    3  C   UNL     1     -11.755  15.163  69.347  1.00  0.00    -0.332 C  
HETATM    4  O   UNL     1     -11.721  16.005  68.464  1.00  0.00    -0.375 OA 
BRANCH   3   5
HETATM    5  C   UNL     1     -12.312  15.420  70.692  1.00  0.00    -0.451 A  
HETATM    6  C   UNL     1     -11.588  16.043  71.699  1.00  0.00    -0.459 A  
HETATM    7  N   UNL     1     -12.073  16.279  72.946  1.00  0.00    -0.529 NA 
HETATM    8  C   UNL     1     -13.339  15.875  73.193  1.00  0.00    -0.587 A  
HETATM    9  C   UNL     1     -14.143  15.249  72.254  1.00  0.00    -0.651 A  
HETATM   10  C   UNL     1     -13.619  15.021  70.983  1.00  0.00    -0.442 A  
ENDBRANCH   3   5
ENDBRANCH   2   3
TORSDOF 2
ENDMDL
MODEL       12
REMARK 921   NORMALIZED FREE ENERGY PREDICTED BY IDOCK:   -3.96 KCAL/MOL
REMARK 922        TOTAL FREE ENERGY PREDICTED BY IDOCK:   -4.49 KCAL/MOL
REMARK 923 INTER-LIGAND FREE ENERGY PREDICTED BY IDOCK:   -4.39 KCAL/MOL
REMARK 924 INTRA-LIGAND FREE ENERGY PREDICTED BY IDOCK:   -0.10 KCAL/MOL
REMARK 927      BINDING AFFINITY PREDICTED BY RF-SCORE:    0.00 PKD
ROOT
HETATM    1  C   UNL     1     -10.208  10.945  63.765  1.00  0.00    -0.343 C  
HETATM    2  O   UNL     1     -10.782  12.133  63.217  1.00  0.00    -0.421 OA 
ENDROOT
BRANCH   2   3
HETATM    3  C   UNL     1     -11.936  12.515  63.817  1.00  0.00    -0.517 C  
HETATM    4  O   UNL     1     -13.058  12.146  63.511  1.00  0.00    -0.785 OA 
BRANCH   3   5
HETATM    5  C   UNL     1     -11.665  13.448  64.932  1.00  0.00    -0.379 A  
HETATM    6  C   UNL     1     -10.856  14.568  64.796  1.00  0.00    -0.393 A  
HETATM    7  N   UNL     1     -10.582  15.432  65.807  1.00  0.00    -0.328 NA 
HETATM    8  C   UNL     1     -11.143  15.162  67.007  1.00  0.00    -0.328 A  
HETATM    9  C   UNL     1     -11.967  14.073  67.243  1.00  0.00    -0.448 A  
HETATM   10  C   UNL     1     -12.232  13.204  66.186  1.00  0.00    -0.451 A  
ENDBRANCH   3   5
ENDBRANCH   2   3
TORSDOF 2
ENDMDL
MODEL       13
REMARK 921   NORMALIZED FREE ENERGY PREDICTED BY IDOCK:   -3.93 KCAL/MOL
REMARK 922        TOTAL FREE ENERGY PREDICTED BY IDOCK:   -4.46 KCAL/MOL
REMARK 923 INTER-LIGAND FREE ENERGY PREDICTED BY IDOCK:   -4.39 KCAL/MOL
REMARK 924 INTRA-LIGAND FREE ENERGY PREDICTED BY IDOCK:   -0.07 KCAL/MOL
REMARK 927      BINDING AFFINITY PREDICTED BY RF-SCORE:    0.00 PKD
ROOT
HETATM    1  C   UNL     1     -10.988   9.741  70.945  1.00  0.00    -0.341 C  
HETATM    2  O   UNL     1     -11.726  10.893  70.531  1.00  0.00    -0.318 OA 
ENDROOT
BRANCH   2   3
HETATM    3  C   UNL     1     -12.672  11.288  71.417  1.00  0.00    -0.396 C  
HETATM    4  O   UNL     1     -13.274  10.563  72.193  1.00  0.00    -0.458 OA 
BRANCH   3   5
HETATM    5  C   UNL     1     -12.883  12.750  71.343  1.00  0.00    -0.371 A  
HETATM    6  C   UNL     1     -12.277  13.550  70.384  1.00  0.00    -0.356 A  
HETATM    7  N   UNL     1     -12.445  14.895  70.304  1.00  0.00    -0.340 NA 
HETATM    8  C   UNL     1     -13.257  15.463  71.223  1.00  0.00    -0.510 A  
HETATM    9  C   UNL     1     -13.911  14.751  72.216  1.00  0.00    -0.598 A  
HETATM   10  C   UNL     1     -13.721  13.371  72.274  1.00  0.00    -0.705 A  
ENDBRANCH   3   5
ENDBRANCH   2   3
TORSDOF 2
ENDMDL
MODEL       14
REMARK 921   NORMALIZED FREE ENERGY PREDICTED BY IDOCK:   -3.91 KCAL/MOL
REMARK 922        TOTAL FREE ENERGY PREDICTED BY IDOCK:   -4.44 KCAL/MOL
REMARK 923 INTER-LIGAND FREE ENERGY PREDICTED BY IDOCK:   -4.34 KCAL/MOL
REMARK 924 INTRA-LIGAND FREE ENERGY PREDICTED BY IDOCK:   -0.10 KCAL/MOL
REMARK 927      BINDING AFFINITY PREDICTED BY RF-SCORE:    0.00 PKD
ROOT
HETATM    1  C   UNL     1     -10.358  14.785  68.108  1.00  0.00    -0.239 C  
HETATM    2  O   UNL     1     -11.710  14.431  67.805  1.00  0.00    -0.342 OA 
ENDROOT
BRANCH   2   3
HETATM    3  C   UNL     1     -11.870  13.141  67.422  1.00  0.00    -0.361 C  
HETATM    4  O   UNL     1     -11.995  12.183  68.168  1.00  0.00    -0.430 OA 
BRANCH   3   5
HETATM    5  C   UNL     1     -11.893  13.029  65.947  1.00  0.00    -0.468 A  
HETATM    6  C   UNL     1     -12.527  13.958  65.133  1.00  0.00    -0.453 A  
HETATM    7  N   UNL     1     -12.572  13.870  63.778  1.00  0.00    -0.763 NA 
HETATM    8  C   UNL     1     -11.955  12.808  63.215  1.00  0.00    -0.443 A  
HETATM    9  C   UNL     1     -11.292  11.830  63.942  1.00  0.00    -0.494 A  
HETATM   10  C   UNL     1     -11.260  11.947  65.330  1.00  0.00    -0.351 A  
ENDBRANCH   3   5
ENDBRANCH   2   3
TORSDOF 2
ENDMDL
MODEL       15
REMARK 921   NORMALIZED FREE ENERGY PREDICTED BY IDOCK:   -3.85 KCAL/MOL
REMARK 922        TOTAL FREE ENERGY PREDICTED BY IDOCK:   -4.37 KCAL/MOL
REMARK 923 INTER-LIGAND FREE ENERGY PREDICTED BY IDOCK:   -4.40 KCAL/MOL
REMARK 924 INTRA-LIGAND FREE ENERGY PREDICTED BY IDOCK:    0.03 KCAL/MOL
REMARK 927      BINDING AFFINITY PREDICTED BY RF-SCORE:    0.00 PKD
ROOT
HETATM    1  C   UNL     1     -10.110  11.234  63.126  1.00  0.00    -0.345 C  
HETATM    2  O   UNL     1     -10.701  12.500  63.428  1.00  0.00    -0.426 OA 
ENDROOT
BRANCH   2   3
HETATM    3  C   UNL     1     -11.935  12.414  63.980  1.00  0.00    -0.460 C  
HETATM    4  O   UNL     1     -12.964  12.124  63.391  1.00  0.00    -0.776 OA 
BRANCH   3   5
HETATM    5  C   UNL     1     -11.884  12.705  65.430  1.00  0.00    -0.473 A  
HETATM    6  C   UNL     1     -12.290  13.918  65.968  1.00  0.00    -0.475 A  
HETATM    7  N   UNL     1     -12.241  14.213  67.293  1.00  0.00    -0.359 NA 
HETATM    8  C   UNL     1     -11.766  13.250  68.114  1.00  0.00    -0.362 A  
HETATM    9  C   UNL     1     -11.340  12.006  67.674  1.00  0.00    -0.375 A  
HETATM   10  C   UNL     1     -11.403  11.731  66.309  1.00  0.00    -0.350 A  
ENDBRANCH   3   5
ENDBRANCH   2   3
TORSDOF 2
ENDMDL
MODEL       16
REMARK 921   NORMALIZED FREE ENERGY PREDICTED BY IDOCK:   -3.84 KCAL/MOL
REMARK 922        TOTAL FREE ENERGY PREDICTED BY IDOCK:   -4.36 KCAL/MOL
REMARK 923 INTER-LIGAND FREE ENERGY PREDICTED BY IDOCK:   -4.26 KCAL/MOL
REMARK 924 INTRA-LIGAND FREE ENERGY PREDICTED BY IDOCK:   -0.09 KCAL/MOL
REMARK 927      BINDING AFFINITY PREDICTED BY RF-SCORE:    0.00 PKD
ROOT
HETATM    1  C   UNL     1     -10.353  11.844  63.456  1.00  0.00    -0.458 C  
HETATM    2  O   UNL     1     -11.569  12.114  64.157  1.00  0.00    -0.344 OA 
ENDROOT
BRANCH   2   3
HETATM    3  C   UNL     1     -11.970  13.406  64.086  1.00  0.00    -0.450 C  
HETATM    4  O   UNL     1     -12.591  13.914  63.165  1.00  0.00    -0.775 OA 
BRANCH   3   5
HETATM    5  C   UNL     1     -11.570  14.149  65.301  1.00  0.00    -0.341 A  
HETATM    6  C   UNL     1     -12.010  13.803  66.572  1.00  0.00    -0.434 A  
HETATM    7  N   UNL     1     -11.667  14.476  67.701  1.00  0.00    -0.373 NA 
HETATM    8  C   UNL     1     -10.848  15.541  67.550  1.00  0.00    -0.306 A  
HETATM    9  C   UNL     1     -10.353  15.962  66.326  1.00  0.00    -0.324 A  
HETATM   10  C   UNL     1     -10.720  15.252  65.184  1.00  0.00    -0.455 A  
ENDBRANCH   3   5
ENDBRANCH   2   3
TORSDOF 2
ENDMDL
MODEL       17
REMARK 921   NORMALIZED FREE ENERGY PREDICTED BY IDOCK:   -3.83 KCAL/MOL
REMARK 922        TOTAL FREE ENERGY PREDICTED BY IDOCK:   -4.35 KCAL/MOL
REMARK 923 INTER-LIGAND FREE ENERGY PREDICTED BY IDOCK:   -4.28 KCAL/MOL
REMARK 924 INTRA-LIGAND FREE ENERGY PREDICTED BY IDOCK:   -0.07 KCAL/MOL
REMARK 927      BINDING AFFINITY PREDICTED BY RF-SCORE:    0.00 PKD
ROOT
HETATM    1  C   UNL     1      -9.165  11.472  68.303  1.00  0.00    -0.186 C  
HETATM    2  O   UNL     1     -10.090  12.433  67.789  1.00  0.00    -0.195 OA 
ENDROOT
BRANCH   2   3
HETATM    3  C   UNL     1     -11.268  11.900  67.383  1.00  0.00    -0.305 C  
HETATM    4  O   UNL     1     -12.017  11.216  68.062  1.00  0.00    -0.625 OA 
BRANCH   3   5
HETATM    5  C   UNL     1     -11.556  12.271  65.980  1.00  0.00    -0.451 A  
HETATM    6  C   UNL     1     -12.460  13.267  65.636  1.00  0.00    -0.451 A  
HETATM    7  N   UNL     1     -12.750  13.617  64.357  1.00  0.00    -0.653 NA 
HETATM    8  C   UNL     1     -12.107  12.940  63.379  1.00  0.00    -0.530 A  
HETATM    9  C   UNL     1     -11.186  11.933  63.620  1.00  0.00    -0.522 A  
HETATM   10  C   UNL     1     -10.906  11.596  64.943  1.00  0.00    -0.359 A  
ENDBRANCH   3   5
ENDBRANCH   2   3
TORSDOF 2
ENDMDL
MODEL       18
REMARK 921   NORMALIZED FREE ENERGY PREDICTED BY IDOCK:   -3.83 KCAL/MOL
REMARK 922        TOTAL FREE ENERGY PREDICTED BY IDOCK:   -4.34 KCAL/MOL
REMARK 923 INTER-LIGAND FREE ENERGY PREDICTED BY IDOCK:   -4.28 KCAL/MOL
REMARK 924 INTRA-LIGAND FREE ENERGY PREDICTED BY IDOCK:   -0.07 KCAL/MOL
REMARK 927      BINDING AFFINITY PREDICTED BY RF-SCORE:    0.00 PKD
ROOT
HETATM    1  C   UNL     1     -11.310  11.013  68.045  1.00  0.00    -0.306 C  
HETATM    2  O   UNL     1     -11.966  12.035  68.799  1.00  0.00    -0.307 OA 
ENDROOT
BRANCH   2   3
HETATM    3  C   UNL     1     -12.010  11.795  70.132  1.00  0.00    -0.339 C  
HETATM    4  O   UNL     1     -11.579  10.802  70.695  1.00  0.00    -0.322 OA 
BRANCH   3   5
HETATM    5  C   UNL     1     -12.645  12.923  70.848  1.00  0.00    -0.355 A  
HETATM    6  C   UNL     1     -13.389  12.753  72.008  1.00  0.00    -0.466 A  
HETATM    7  N   UNL     1     -13.992  13.770  72.676  1.00  0.00    -0.732 NA 
HETATM    8  C   UNL     1     -13.841  15.011  72.161  1.00  0.00    -0.479 A  
HETATM    9  C   UNL     1     -13.115  15.283  71.013  1.00  0.00    -0.544 A  
HETATM   10  C   UNL     1     -12.506  14.220  70.348  1.00  0.00    -0.426 A  
ENDBRANCH   3   5
ENDBRANCH   2   3
TORSDOF 2
ENDMDL
MODEL       19
REMARK 921   NORMALIZED FREE ENERGY PREDICTED BY IDOCK:   -3.81 KCAL/MOL
REMARK 922        TOTAL FREE ENERGY PREDICTED BY IDOCK:   -4.33 KCAL/MOL
REMARK 923 INTER-LIGAND FREE ENERGY PREDICTED BY IDOCK:   -4.26 KCAL/MOL
REMARK 924 INTRA-LIGAND FREE ENERGY PREDICTED BY IDOCK:   -0.07 KCAL/MOL
REMARK 927      BINDING AFFINITY PREDICTED BY RF-SCORE:    0.00 PKD
ROOT
HETATM    1  C   UNL     1     -11.910  13.670  69.714  1.00  0.00    -0.327 C  
HETATM    2  O   UNL     1     -12.144  13.290  68.356  1.00  0.00    -0.333 OA 
ENDROOT
BRANCH   2   3
HETATM    3  C   UNL     1     -11.797  14.237  67.451  1.00  0.00    -0.409 C  
HETATM    4  O   UNL     1     -11.508  15.396  67.703  1.00  0.00    -0.326 OA 
BRANCH   3   5
HETATM    5  C   UNL     1     -11.792  13.679  66.081  1.00  0.00    -0.424 A  
HETATM    6  C   UNL     1     -12.353  14.342  64.998  1.00  0.00    -0.428 A  
HETATM    7  N   UNL     1     -12.372  13.845  63.734  1.00  0.00    -0.720 NA 
HETATM    8  C   UNL     1     -11.804  12.633  63.548  1.00  0.00    -0.541 A  
HETATM    9  C   UNL     1     -11.216  11.895  64.563  1.00  0.00    -0.380 A  
HETATM   10  C   UNL     1     -11.209  12.430  65.850  1.00  0.00    -0.373 A  
ENDBRANCH   3   5
ENDBRANCH   2   3
TORSDOF 2
ENDMDL
MODEL       20
REMARK 921   NORMALIZED FREE ENERGY PREDICTED BY IDOCK:   -3.80 KCAL/MOL
REMARK 922        TOTAL FREE ENERGY PREDICTED BY IDOCK:   -4.32 KCAL/MOL
REMARK 923 INTER-LIGAND FREE ENERGY PREDICTED BY IDOCK:   -4.25 KCAL/MOL
REMARK 924 INTRA-LIGAND FREE ENERGY PREDICTED BY IDOCK:   -0.07 KCAL/MOL
REMARK 927      BINDING AFFINITY PREDICTED BY RF-SCORE:    0.00 PKD
ROOT
HETATM    1  C   UNL     1     -10.339  11.916  63.650  1.00  0.00    -0.441 C  
HETATM    2  O   UNL     1     -11.049  13.043  64.170  1.00  0.00    -0.364 OA 
ENDROOT
BRANCH   2   3
HETATM    3  C   UNL     1     -12.174  12.718  64.852  1.00  0.00    -0.463 C  
HETATM    4  O   UNL     1     -13.232  12.359  64.360  1.00  0.00    -0.816 OA 
BRANCH   3   5
HETATM    5  C   UNL     1     -11.957  12.836  66.311  1.00  0.00    -0.460 A  
HETATM    6  C   UNL     1     -11.632  11.750  67.113  1.00  0.00    -0.266 A  
HETATM    7  N   UNL     1     -11.441  11.831  68.455  1.00  0.00    -0.268 NA 
HETATM    8  C   UNL     1     -11.579  13.052  69.017  1.00  0.00    -0.318 A  
HETATM    9  C   UNL     1     -11.897  14.196  68.302  1.00  0.00    -0.391 A  
HETATM   10  C   UNL     1     -12.086  14.084  66.926  1.00  0.00    -0.465 A  
ENDBRANCH   3   5
ENDBRANCH   2   3
TORSDOF 2
ENDMDL
MODEL       21
REMARK 921   NORMALIZED FREE ENERGY PREDICTED BY IDOCK:   -3.80 KCAL/MOL
REMARK 922        TOTAL FREE ENERGY PREDICTED BY IDOCK:   -4.32 KCAL/MOL
REMARK 923 INTER-LIGAND FREE ENERGY PREDICTED BY IDOCK:   -4.24 KCAL/MOL
REMARK 924 INTRA-LIGAND FREE ENERGY PREDICTED BY IDOCK:   -0.08 KCAL/MOL
REMARK 927      BINDING AFFINITY PREDICTED BY RF-SCORE:    0.00 PKD
ROOT
HETATM    1  C   UNL     1     -10.726  15.657  65.389  1.00  0.00    -0.408 C  
HETATM    2  O   UNL     1     -11.723  15.132  64.510  1.00  0.00    -0.403 OA 
ENDROOT
BRANCH   2   3
HETATM    3  C   UNL     1     -12.371  14.046  64.998  1.00  0.00    -0.441 C  
HETATM    4  O   UNL     1     -13.493  14.039  65.480  1.00  0.00    -0.677 OA 
BRANCH   3   5
HETATM    5  C   UNL     1     -11.540  12.831  64.858  1.00  0.00    -0.369 A  
HETATM    6  C   UNL     1     -11.174  12.042  65.940  1.00  0.00    -0.337 A  
HETATM    7  N   UNL     1     -10.402  10.929  65.839  1.00  0.00    -0.257 NA 
HETATM    8  C   UNL     1      -9.980  10.592  64.599  1.00  0.00    -0.347 A  
HETATM    9  C   UNL     1     -10.295  11.312  63.458  1.00  0.00    -0.463 A  
HETATM   10  C   UNL     1     -11.090  12.448  63.592  1.00  0.00    -0.535 A  
ENDBRANCH   3   5
ENDBRANCH   2   3
TORSDOF 2
ENDMDL
MODEL       22
REMARK 921   NORMALIZED FREE ENERGY PREDICTED BY IDOCK:   -3.77 KCAL/MOL
REMARK 922        TOTAL FREE ENERGY PREDICTED BY IDOCK:   -4.28 KCAL/MOL
REMARK 923 INTER-LIGAND FREE ENERGY PREDICTED BY IDOCK:   -4.21 KCAL/MOL
REMARK 924 INTRA-LIGAND FREE ENERGY PREDICTED BY IDOCK:   -0.08 KCAL/MOL
REMARK 927      BINDING AFFINITY PREDICTED BY RF-SCORE:    0.00 PKD
ROOT
HETATM    1  C   UNL     1     -10.486  14.355  65.806  1.00  0.00    -0.318 C  
HETATM    2  O   UNL     1      -9.726  15.564  65.756  1.00  0.00    -0.329 OA 
ENDROOT
BRANCH   2   3
HETATM    3  C   UNL     1     -10.434  16.642  65.339  1.00  0.00    -0.233 C  
HETATM    4  O   UNL     1     -11.170  16.683  64.366  1.00  0.00    -1.033 OA 
BRANCH   3   5
HETATM    5  C   UNL     1     -10.215  17.795  66.240  1.00  0.00    -0.364 A  
HETATM    6  C   UNL     1     -10.485  19.104  65.865  1.00  0.00    -0.424 A  
HETATM    7  N   UNL     1     -10.280  20.179  66.670  1.00  0.00    -0.448 NA 
HETATM    8  C   UNL     1      -9.786  19.931  67.903  1.00  0.00    -0.404 A  
HETATM    9  C   UNL     1      -9.489  18.661  68.372  1.00  0.00    -0.377 A  
HETATM   10  C   UNL     1      -9.710  17.576  67.525  1.00  0.00    -0.278 A  
ENDBRANCH   3   5
ENDBRANCH   2   3
TORSDOF 2
ENDMDL
MODEL       23
REMARK 921   NORMALIZED FREE ENERGY PREDICTED BY IDOCK:   -3.73 KCAL/MOL
REMARK 922        TOTAL FREE ENERGY PREDICTED BY IDOCK:   -4.24 KCAL/MOL
REMARK 923 INTER-LIGAND FREE ENERGY PREDICTED BY IDOCK:   -4.19 KCAL/MOL
REMARK 924 INTRA-LIGAND FREE ENERGY PREDICTED BY IDOCK:   -0.05 KCAL/MOL
REMARK 927      BINDING AFFINITY PREDICTED BY RF-SCORE:    0.00 PKD
ROOT
HETATM    1  C   UNL     1     -10.627  11.335  66.389  1.00  0.00    -0.266 C  
HETATM    2  O   UNL     1     -11.958  11.808  66.611  1.00  0.00    -0.561 OA 
ENDROOT
BRANCH   2   3
HETATM    3  C   UNL     1     -12.308  12.857  65.826  1.00  0.00    -0.375 C  
HETATM    4  O   UNL     1     -13.067  12.815  64.872  1.00  0.00    -0.833 OA 
BRANCH   3   5
HETATM    5  C   UNL     1     -11.654  14.100  66.289  1.00  0.00    -0.379 A  
HETATM    6  C   UNL     1     -11.738  14.551  67.599  1.00  0.00    -0.382 A  
HETATM    7  N   UNL     1     -11.158  15.695  68.045  1.00  0.00    -0.325 NA 
HETATM    8  C   UNL     1     -10.461  16.418  67.139  1.00  0.00    -0.297 A  
HETATM    9  C   UNL     1     -10.316  16.050  65.811  1.00  0.00    -0.398 A  
HETATM   10  C   UNL     1     -10.921  14.870  65.382  1.00  0.00    -0.371 A  
ENDBRANCH   3   5
ENDBRANCH   2   3
TORSDOF 2
ENDMDL
MODEL       24
REMARK 921   NORMALIZED FREE ENERGY PREDICTED BY IDOCK:   -3.70 KCAL/MOL
REMARK 922        TOTAL FREE ENERGY PREDICTED BY IDOCK:   -4.21 KCAL/MOL
REMARK 923 INTER-LIGAND FREE ENERGY PREDICTED BY IDOCK:   -4.11 KCAL/MOL
REMARK 924 INTRA-LIGAND FREE ENERGY PREDICTED BY IDOCK:   -0.09 KCAL/MOL
REMARK 927      BINDING AFFINITY PREDICTED BY RF-SCORE:    0.00 PKD
ROOT
HETATM    1  C   UNL     1     -10.801  15.268  66.658  1.00  0.00    -0.310 C  
HETATM    2  O   UNL     1     -11.749  14.220  66.872  1.00  0.00    -0.371 OA 
ENDROOT
BRANCH   2   3
HETATM    3  C   UNL     1     -12.293  13.728  65.732  1.00  0.00    -0.486 C  
HETATM    4  O   UNL     1     -13.285  14.160  65.168  1.00  0.00    -0.743 OA 
BRANCH   3   5
HETATM    5  C   UNL     1     -11.507  12.581  65.228  1.00  0.00    -0.374 A  
HETATM    6  C   UNL     1     -10.997  11.594  66.060  1.00  0.00    -0.286 A  
HETATM    7  N   UNL     1     -10.264  10.539  65.622  1.00  0.00    -0.262 NA 
HETATM    8  C   UNL     1     -10.032  10.468  64.293  1.00  0.00    -0.331 A  
HETATM    9  C   UNL     1     -10.501  11.400  63.380  1.00  0.00    -0.452 A  
HETATM   10  C   UNL     1     -11.253  12.472  63.858  1.00  0.00    -0.496 A  
ENDBRANCH   3   5
ENDBRANCH   2   3
TORSDOF 2
ENDMDL
MODEL       25
REMARK 921   NORMALIZED FREE ENERGY PREDICTED BY IDOCK:   -3.70 KCAL/MOL
REMARK 922        TOTAL FREE ENERGY PREDICTED BY IDOCK:   -4.20 KCAL/MOL
REMARK 923 INTER-LIGAND FREE ENERGY PREDICTED BY IDOCK:   -4.12 KCAL/MOL
REMARK 924 INTRA-LIGAND FREE ENERGY PREDICTED BY IDOCK:   -0.08 KCAL/MOL
REMARK 927      BINDING AFFINITY PREDICTED BY RF-SCORE:    0.00 PKD
ROOT
HETATM    1  C   UNL     1     -11.801  13.499  67.568  1.00  0.00    -0.368 C  
HETATM    2  O   UNL     1     -12.078  12.319  66.811  1.00  0.00    -0.593 OA 
ENDROOT
BRANCH   2   3
HETATM    3  C   UNL     1     -12.124  12.522  65.471  1.00  0.00    -0.419 C  
HETATM    4  O   UNL     1     -12.907  13.252  64.884  1.00  0.00    -0.695 OA 
BRANCH   3   5
HETATM    5  C   UNL     1     -11.070  11.743  64.785  1.00  0.00    -0.356 A  
HETATM    6  C   UNL     1     -10.708  11.969  63.464  1.00  0.00    -0.455 A  
HETATM    7  N   UNL     1      -9.753  11.260  62.809  1.00  0.00    -0.305 NA 
HETATM    8  C   UNL     1      -9.132  10.284  63.509  1.00  0.00    -0.264 A  
HETATM    9  C   UNL     1      -9.419   9.985  64.831  1.00  0.00    -0.355 A  
HETATM   10  C   UNL     1     -10.403  10.730  65.479  1.00  0.00    -0.308 A  
ENDBRANCH   3   5
ENDBRANCH   2   3
TORSDOF 2
ENDMDL
MODEL       26
REMARK 921   NORMALIZED FREE ENERGY PREDICTED BY IDOCK:   -3.69 KCAL/MOL
REMARK 922        TOTAL FREE ENERGY PREDICTED BY IDOCK:   -4.20 KCAL/MOL
REMARK 923 INTER-LIGAND FREE ENERGY PREDICTED BY IDOCK:   -4.12 KCAL/MOL
REMARK 924 INTRA-LIGAND FREE ENERGY PREDICTED BY IDOCK:   -0.07 KCAL/MOL
REMARK 927      BINDING AFFINITY PREDICTED BY RF-SCORE:    0.00 PKD
ROOT
HETATM    1  C   UNL     1     -11.946  12.242  63.583  1.00  0.00    -0.543 C  
HETATM    2  O   UNL     1     -11.021  13.213  64.077  1.00  0.00    -0.392 OA 
ENDROOT
BRANCH   2   3
HETATM    3  C   UNL     1     -11.561  14.441  64.267  1.00  0.00    -0.262 C  
HETATM    4  O   UNL     1     -12.658  14.809  63.879  1.00  0.00    -0.834 OA 
BRANCH   3   5
HETATM    5  C   UNL     1     -10.642  15.306  65.039  1.00  0.00    -0.444 A  
HETATM    6  C   UNL     1     -10.686  16.692  64.980  1.00  0.00    -0.152 A  
HETATM    7  N   UNL     1      -9.846  17.506  65.669  1.00  0.00    -0.534 NA 
HETATM    8  C   UNL     1      -8.922  16.906  66.452  1.00  0.00    -0.283 A  
HETATM    9  C   UNL     1      -8.801  15.531  66.581  1.00  0.00    -0.325 A  
HETATM   10  C   UNL     1      -9.677  14.720  65.863  1.00  0.00    -0.355 A  
ENDBRANCH   3   5
ENDBRANCH   2   3
TORSDOF 2
ENDMDL
MODEL       27
REMARK 921   NORMALIZED FREE ENERGY PREDICTED BY IDOCK:   -3.67 KCAL/MOL
REMARK 922        TOTAL FREE ENERGY PREDICTED BY IDOCK:   -4.17 KCAL/MOL
REMARK 923 INTER-LIGAND FREE ENERGY PREDICTED BY IDOCK:   -4.12 KCAL/MOL
REMARK 924 INTRA-LIGAND FREE ENERGY PREDICTED BY IDOCK:   -0.05 KCAL/MOL
REMARK 927      BINDING AFFINITY PREDICTED BY RF-SCORE:    0.00 PKD
ROOT
HETATM    1  C   UNL     1     -11.637   7.843  72.441  1.00  0.00    -0.380 C  
HETATM    2  O   UNL     1     -11.584   9.186  71.956  1.00  0.00    -0.361 OA 
ENDROOT
BRANCH   2   3
HETATM    3  C   UNL     1     -12.801   9.756  71.777  1.00  0.00    -0.434 C  
HETATM    4  O   UNL     1     -13.879   9.219  71.977  1.00  0.00    -0.403 OA 
BRANCH   3   5
HETATM    5  C   UNL     1     -12.664  11.153  71.313  1.00  0.00    -0.531 A  
HETATM    6  C   UNL     1     -11.986  11.497  70.152  1.00  0.00    -0.369 A  
HETATM    7  N   UNL     1     -11.836  12.773  69.712  1.00  0.00    -0.327 NA 
HETATM    8  C   UNL     1     -12.391  13.747  70.467  1.00  0.00    -0.359 A  
HETATM    9  C   UNL     1     -13.090  13.505  71.640  1.00  0.00    -0.459 A  
HETATM   10  C   UNL     1     -13.230  12.186  72.066  1.00  0.00    -0.496 A  
ENDBRANCH   3   5
ENDBRANCH   2   3
TORSDOF 2
ENDMDL
MODEL       28
REMARK 921   NORMALIZED FREE ENERGY PREDICTED BY IDOCK:   -3.66 KCAL/MOL
REMARK 922        TOTAL FREE ENERGY PREDICTED BY IDOCK:   -4.16 KCAL/MOL
REMARK 923 INTER-LIGAND FREE ENERGY PREDICTED BY IDOCK:   -4.10 KCAL/MOL
REMARK 924 INTRA-LIGAND FREE ENERGY PREDICTED BY IDOCK:   -0.07 KCAL/MOL
REMARK 927      BINDING AFFINITY PREDICTED BY RF-SCORE:    0.00 PKD
ROOT
HETATM    1  C   UNL     1     -10.605  16.606  67.772  1.00  0.00    -0.342 C  
HETATM    2  O   UNL     1     -10.964  16.896  69.125  1.00  0.00    -0.277 OA 
ENDROOT
BRANCH   2   3
HETATM    3  C   UNL     1     -10.700  15.889  69.992  1.00  0.00    -0.339 C  
HETATM    4  O   UNL     1      -9.680  15.219  70.023  1.00  0.00    -0.190 OA 
BRANCH   3   5
HETATM    5  C   UNL     1     -11.822  15.703  70.939  1.00  0.00    -0.428 A  
HETATM    6  C   UNL     1     -13.033  15.137  70.566  1.00  0.00    -0.321 A  
HETATM    7  N   UNL     1     -14.082  14.967  71.413  1.00  0.00    -0.473 NA 
HETATM    8  C   UNL     1     -13.908  15.382  72.688  1.00  0.00    -0.529 A  
HETATM    9  C   UNL     1     -12.736  15.955  73.157  1.00  0.00    -0.631 A  
HETATM   10  C   UNL     1     -11.676  16.115  72.266  1.00  0.00    -0.564 A  
ENDBRANCH   3   5
ENDBRANCH   2   3
TORSDOF 2
ENDMDL
MODEL       29
REMARK 921   NORMALIZED FREE ENERGY PREDICTED BY IDOCK:   -3.66 KCAL/MOL
REMARK 922        TOTAL FREE ENERGY PREDICTED BY IDOCK:   -4.16 KCAL/MOL
REMARK 923 INTER-LIGAND FREE ENERGY PREDICTED BY IDOCK:   -4.10 KCAL/MOL
REMARK 924 INTRA-LIGAND FREE ENERGY PREDICTED BY IDOCK:   -0.06 KCAL/MOL
REMARK 927      BINDING AFFINITY PREDICTED BY RF-SCORE:    0.00 PKD
ROOT
HETATM    1  C   UNL     1     -11.536  11.982  67.733  1.00  0.00    -0.330 C  
HETATM    2  O   UNL     1     -12.237  11.148  68.658  1.00  0.00    -0.582 OA 
ENDROOT
BRANCH   2   3
HETATM    3  C   UNL     1     -12.118  11.537  69.951  1.00  0.00    -0.316 C  
HETATM    4  O   UNL     1     -12.122  12.689  70.355  1.00  0.00    -0.364 OA 
BRANCH   3   5
HETATM    5  C   UNL     1     -11.995  10.364  70.844  1.00  0.00    -0.478 A  
HETATM    6  C   UNL     1     -10.829   9.618  70.950  1.00  0.00    -0.339 A  
HETATM    7  N   UNL     1     -10.696   8.531  71.753  1.00  0.00    -0.277 NA 
HETATM    8  C   UNL     1     -11.778   8.176  72.481  1.00  0.00    -0.394 A  
HETATM    9  C   UNL     1     -12.985   8.858  72.448  1.00  0.00    -0.467 A  
HETATM   10  C   UNL     1     -13.092   9.971  71.616  1.00  0.00    -0.547 A  
ENDBRANCH   3   5
ENDBRANCH   2   3
TORSDOF 2
ENDMDL
MODEL       30
REMARK 921   NORMALIZED FREE ENERGY PREDICTED BY IDOCK:   -3.66 KCAL/MOL
REMARK 922        TOTAL FREE ENERGY PREDICTED BY IDOCK:   -4.16 KCAL/MOL
REMARK 923 INTER-LIGAND FREE ENERGY PREDICTED BY IDOCK:   -4.10 KCAL/MOL
REMARK 924 INTRA-LIGAND FREE ENERGY PREDICTED BY IDOCK:   -0.06 KCAL/MOL
REMARK 927      BINDING AFFINITY PREDICTED BY RF-SCORE:    0.00 PKD
ROOT
HETATM    1  C   UNL     1     -13.751  15.713  72.673  1.00  0.00    -0.579 C  
HETATM    2  O   UNL     1     -13.696  15.478  71.264  1.00  0.00    -0.508 OA 
ENDROOT
BRANCH   2   3
HETATM    3  C   UNL     1     -12.438  15.387  70.769  1.00  0.00    -0.423 C  
HETATM    4  O   UNL     1     -11.574  16.245  70.849  1.00  0.00    -0.401 OA 
BRANCH   3   5
HETATM    5  C   UNL     1     -12.223  14.078  70.115  1.00  0.00    -0.425 A  
HETATM    6  C   UNL     1     -12.299  12.873  70.800  1.00  0.00    -0.299 A  
HETATM    7  N   UNL     1     -12.094  11.661  70.225  1.00  0.00    -0.358 NA 
HETATM    8  C   UNL     1     -11.801  11.654  68.905  1.00  0.00    -0.329 A  
HETATM    9  C   UNL     1     -11.707  12.802  68.134  1.00  0.00    -0.392 A  
HETATM   10  C   UNL     1     -11.924  14.033  68.750  1.00  0.00    -0.382 A  
ENDBRANCH   3   5
ENDBRANCH   2   3
TORSDOF 2
ENDMDL
MODEL       31
REMARK 921   NORMALIZED FREE ENERGY PREDICTED BY IDOCK:   -3.65 KCAL/MOL
REMARK 922        TOTAL FREE ENERGY PREDICTED BY IDOCK:   -4.15 KCAL/MOL
REMARK 923 INTER-LIGAND FREE ENERGY PREDICTED BY IDOCK:   -4.08 KCAL/MOL
REMARK 924 INTRA-LIGAND FREE ENERGY PREDICTED BY IDOCK:   -0.07 KCAL/MOL
REMARK 927      BINDING AFFINITY PREDICTED BY RF-SCORE:    0.00 PKD
ROOT
HETATM    1  C   UNL     1     -11.386  11.908  69.295  1.00  0.00    -0.277 C  
HETATM    2  O   UNL     1     -12.113  11.818  68.068  1.00  0.00    -0.572 OA 
ENDROOT
BRANCH   2   3
HETATM    3  C   UNL     1     -11.932  12.877  67.241  1.00  0.00    -0.309 C  
HETATM    4  O   UNL     1     -12.009  14.053  67.557  1.00  0.00    -0.386 OA 
BRANCH   3   5
HETATM    5  C   UNL     1     -11.602  12.424  65.872  1.00  0.00    -0.449 A  
HETATM    6  C   UNL     1     -10.585  11.518  65.604  1.00  0.00    -0.274 A  
HETATM    7  N   UNL     1     -10.255  11.098  64.356  1.00  0.00    -0.304 NA 
HETATM    8  C   UNL     1     -10.977  11.606  63.331  1.00  0.00    -0.362 A  
HETATM    9  C   UNL     1     -12.014  12.511  63.496  1.00  0.00    -0.629 A  
HETATM   10  C   UNL     1     -12.331  12.924  64.789  1.00  0.00    -0.516 A  
ENDBRANCH   3   5
ENDBRANCH   2   3
TORSDOF 2
ENDMDL
MODEL       32
REMARK 921   NORMALIZED FREE ENERGY PREDICTED BY IDOCK:   -3.65 KCAL/MOL
REMARK 922        TOTAL FREE ENERGY PREDICTED BY IDOCK:   -4.15 KCAL/MOL
REMARK 923 INTER-LIGAND FREE ENERGY PREDICTED BY IDOCK:   -4.09 KCAL/MOL
REMARK 924 INTRA-LIGAND FREE ENERGY PREDICTED BY IDOCK:   -0.06 KCAL/MOL
REMARK 927      BINDING AFFINITY PREDICTED BY RF-SCORE:    0.00 PKD
ROOT
HETATM    1  C   UNL     1      -9.448  15.614  68.905  1.00  0.00    -0.228 C  
HETATM    2  O   UNL     1     -10.601  16.308  69.387  1.00  0.00    -0.257 OA 
ENDROOT
BRANCH   2   3
HETATM    3  C   UNL     1     -11.720  15.546  69.441  1.00  0.00    -0.367 C  
HETATM    4  O   UNL     1     -12.196  14.907  68.516  1.00  0.00    -0.194 OA 
BRANCH   3   5
HETATM    5  C   UNL     1     -12.305  15.566  70.799  1.00  0.00    -0.463 A  
HETATM    6  C   UNL     1     -13.599  15.141  71.067  1.00  0.00    -0.409 A  
HETATM    7  N   UNL     1     -14.162  15.161  72.302  1.00  0.00    -0.519 NA 
HETATM    8  C   UNL     1     -13.395  15.626  73.314  1.00  0.00    -0.514 A  
HETATM    9  C   UNL     1     -12.092  16.069  73.149  1.00  0.00    -0.616 A  
HETATM   10  C   UNL     1     -11.539  16.035  71.870  1.00  0.00    -0.524 A  
ENDBRANCH   3   5
ENDBRANCH   2   3
TORSDOF 2
ENDMDL
MODEL       33
REMARK 921   NORMALIZED FREE ENERGY PREDICTED BY IDOCK:   -3.65 KCAL/MOL
REMARK 922        TOTAL FREE ENERGY PREDICTED BY IDOCK:   -4.15 KCAL/MOL
REMARK 923 INTER-LIGAND FREE ENERGY PREDICTED BY IDOCK:   -4.07 KCAL/MOL
REMARK 924 INTRA-LIGAND FREE ENERGY PREDICTED BY IDOCK:   -0.08 KCAL/MOL
REMARK 927      BINDING AFFINITY PREDICTED BY RF-SCORE:    0.00 PKD
ROOT
HETATM    1  C   UNL     1     -10.498  11.130  64.910  1.00  0.00    -0.308 C  
HETATM    2  O   UNL     1     -11.396  11.630  65.903  1.00  0.00    -0.298 OA 
ENDROOT
BRANCH   2   3
HETATM    3  C   UNL     1     -12.152  12.675  65.487  1.00  0.00    -0.458 C  
HETATM    4  O   UNL     1     -13.145  12.605  64.782  1.00  0.00    -0.852 OA 
BRANCH   3   5
HETATM    5  C   UNL     1     -11.623  13.950  66.020  1.00  0.00    -0.359 A  
HETATM    6  C   UNL     1     -10.914  14.854  65.241  1.00  0.00    -0.380 A  
HETATM    7  N   UNL     1     -10.408  16.024  65.710  1.00  0.00    -0.358 NA 
HETATM    8  C   UNL     1     -10.625  16.301  67.015  1.00  0.00    -0.284 A  
HETATM    9  C   UNL     1     -11.324  15.466  67.872  1.00  0.00    -0.328 A  
HETATM   10  C   UNL     1     -11.833  14.273  67.363  1.00  0.00    -0.441 A  
ENDBRANCH   3   5
ENDBRANCH   2   3
TORSDOF 2
ENDMDL
MODEL       34
REMARK 921   NORMALIZED FREE ENERGY PREDICTED BY IDOCK:   -3.64 KCAL/MOL
REMARK 922        TOTAL FREE ENERGY PREDICTED BY IDOCK:   -4.14 KCAL/MOL
REMARK 923 INTER-LIGAND FREE ENERGY PREDICTED BY IDOCK:   -4.08 KCAL/MOL
REMARK 924 INTRA-LIGAND FREE ENERGY PREDICTED BY IDOCK:   -0.07 KCAL/MOL
REMARK 927      BINDING AFFINITY PREDICTED BY RF-SCORE:    0.00 PKD
ROOT
HETATM    1  C   UNL     1     -11.745  10.969  69.046  1.00  0.00    -0.333 C  
HETATM    2  O   UNL     1     -12.021  11.230  67.668  1.00  0.00    -0.634 OA 
ENDROOT
BRANCH   2   3
HETATM    3  C   UNL     1     -10.926  11.564  66.942  1.00  0.00    -0.296 C  
HETATM    4  O   UNL     1      -9.851  10.986  66.960  1.00  0.00    -0.177 OA 
BRANCH   3   5
HETATM    5  C   UNL     1     -11.203  12.737  66.083  1.00  0.00    -0.336 A  
HETATM    6  C   UNL     1     -12.407  12.911  65.414  1.00  0.00    -0.485 A  
HETATM    7  N   UNL     1     -12.679  13.972  64.611  1.00  0.00    -0.669 NA 
HETATM    8  C   UNL     1     -11.705  14.899  64.474  1.00  0.00    -0.382 A  
HETATM    9  C   UNL     1     -10.473  14.817  65.104  1.00  0.00    -0.443 A  
HETATM   10  C   UNL     1     -10.221  13.718  65.923  1.00  0.00    -0.322 A  
ENDBRANCH   3   5
ENDBRANCH   2   3
TORSDOF 2
ENDMDL
MODEL       35
REMARK 921   NORMALIZED FREE ENERGY PREDICTED BY IDOCK:   -3.64 KCAL/MOL
REMARK 922        TOTAL FREE ENERGY PREDICTED BY IDOCK:   -4.13 KCAL/MOL
REMARK 923 INTER-LIGAND FREE ENERGY PREDICTED BY IDOCK:   -4.07 KCAL/MOL
REMARK 924 INTRA-LIGAND FREE ENERGY PREDICTED BY IDOCK:   -0.07 KCAL/MOL
REMARK 927      BINDING AFFINITY PREDICTED BY RF-SCORE:    0.00 PKD
ROOT
HETATM    1  C   UNL     1     -12.074  13.956  64.846  1.00  0.00    -0.414 C  
HETATM    2  O   UNL     1     -10.931  14.764  65.139  1.00  0.00    -0.344 OA 
ENDROOT
BRANCH   2   3
HETATM    3  C   UNL     1     -11.114  16.085  64.899  1.00  0.00    -0.370 C  
HETATM    4  O   UNL     1     -11.566  16.571  63.874  1.00  0.00    -1.175 OA 
BRANCH   3   5
HETATM    5  C   UNL     1     -10.706  16.894  66.069  1.00  0.00    -0.125 A  
HETATM    6  C   UNL     1     -10.236  18.195  65.956  1.00  0.00    -0.320 A  
HETATM    7  N   UNL     1      -9.843  18.952  67.013  1.00  0.00    -0.310 NA 
HETATM    8  C   UNL     1      -9.927  18.382  68.235  1.00  0.00    -0.369 A  
HETATM    9  C   UNL     1     -10.387  17.092  68.452  1.00  0.00    -0.351 A  
HETATM   10  C   UNL     1     -10.784  16.338  67.349  1.00  0.00    -0.287 A  
ENDBRANCH   3   5
ENDBRANCH   2   3
TORSDOF 2
ENDMDL
MODEL       36
REMARK 921   NORMALIZED FREE ENERGY PREDICTED BY IDOCK:   -3.63 KCAL/MOL
REMARK 922        TOTAL FREE ENERGY PREDICTED BY IDOCK:   -4.12 KCAL/MOL
REMARK 923 INTER-LIGAND FREE ENERGY PREDICTED BY IDOCK:   -4.04 KCAL/MOL
REMARK 924 INTRA-LIGAND FREE ENERGY PREDICTED BY IDOCK:   -0.08 KCAL/MOL
REMARK 927      BINDING AFFINITY PREDICTED BY RF-SCORE:    0.00 PKD
ROOT
HETATM    1  C   UNL     1      -8.783   9.435  65.477  1.00  0.00    -0.163 C  
HETATM    2  O   UNL     1     -10.074  10.040  65.382  1.00  0.00    -0.310 OA 
ENDROOT
BRANCH   2   3
HETATM    3  C   UNL     1     -10.271  10.740  64.238  1.00  0.00    -0.354 C  
HETATM    4  O   UNL     1      -9.837  10.446  63.135  1.00  0.00    -0.299 OA 
BRANCH   3   5
HETATM    5  C   UNL     1     -11.116  11.928  64.487  1.00  0.00    -0.381 A  
HETATM    6  C   UNL     1     -11.720  12.649  63.466  1.00  0.00    -0.531 A  
HETATM    7  N   UNL     1     -12.488  13.750  63.668  1.00  0.00    -0.781 NA 
HETATM    8  C   UNL     1     -12.660  14.145  64.949  1.00  0.00    -0.342 A  
HETATM    9  C   UNL     1     -12.103  13.491  66.037  1.00  0.00    -0.489 A  
HETATM   10  C   UNL     1     -11.320  12.363  65.799  1.00  0.00    -0.393 A  
ENDBRANCH   3   5
ENDBRANCH   2   3
TORSDOF 2
ENDMDL
MODEL       37
REMARK 921   NORMALIZED FREE ENERGY PREDICTED BY IDOCK:   -3.63 KCAL/MOL
REMARK 922        TOTAL FREE ENERGY PREDICTED BY IDOCK:   -4.12 KCAL/MOL
REMARK 923 INTER-LIGAND FREE ENERGY PREDICTED BY IDOCK:   -4.04 KCAL/MOL
REMARK 924 INTRA-LIGAND FREE ENERGY PREDICTED BY IDOCK:   -0.08 KCAL/MOL
REMARK 927      BINDING AFFINITY PREDICTED BY RF-SCORE:    0.00 PKD
ROOT
HETATM    1  C   UNL     1     -10.444  17.555  68.141  1.00  0.00    -0.386 C  
HETATM    2  O   UNL     1     -10.058  16.418  67.365  1.00  0.00    -0.251 OA 
ENDROOT
BRANCH   2   3
HETATM    3  C   UNL     1     -10.436  16.485  66.065  1.00  0.00    -0.310 C  
HETATM    4  O   UNL     1     -10.213  17.410  65.301  1.00  0.00    -0.522 OA 
BRANCH   3   5
HETATM    5  C   UNL     1     -11.159  15.258  65.665  1.00  0.00    -0.308 A  
HETATM    6  C   UNL     1     -11.828  15.141  64.454  1.00  0.00    -0.305 A  
HETATM    7  N   UNL     1     -12.509  14.031  64.069  1.00  0.00    -0.704 NA 
HETATM    8  C   UNL     1     -12.518  12.992  64.934  1.00  0.00    -0.455 A  
HETATM    9  C   UNL     1     -11.878  13.010  66.164  1.00  0.00    -0.466 A  
HETATM   10  C   UNL     1     -11.186  14.162  66.532  1.00  0.00    -0.333 A  
ENDBRANCH   3   5
ENDBRANCH   2   3
TORSDOF 2
ENDMDL
MODEL       38
REMARK 921   NORMALIZED FREE ENERGY PREDICTED BY IDOCK:   -3.63 KCAL/MOL
REMARK 922        TOTAL FREE ENERGY PREDICTED BY IDOCK:   -4.12 KCAL/MOL
REMARK 923 INTER-LIGAND FREE ENERGY PREDICTED BY IDOCK:   -4.02 KCAL/MOL
REMARK 924 INTRA-LIGAND FREE ENERGY PREDICTED BY IDOCK:   -0.10 KCAL/MOL
REMARK 927      BINDING AFFINITY PREDICTED BY RF-SCORE:    0.00 PKD
ROOT
HETATM    1  C   UNL     1     -12.008  14.935  64.458  1.00  0.00    -0.410 C  
HETATM    2  O   UNL     1     -12.840  13.983  65.126  1.00  0.00    -0.696 OA 
ENDROOT
BRANCH   2   3
HETATM    3  C   UNL     1     -12.650  12.704  64.718  1.00  0.00    -0.454 C  
HETATM    4  O   UNL     1     -13.224  12.156  63.791  1.00  0.00    -0.763 OA 
BRANCH   3   5
HETATM    5  C   UNL     1     -11.621  12.036  65.545  1.00  0.00    -0.352 A  
HETATM    6  C   UNL     1     -11.618  12.093  66.932  1.00  0.00    -0.341 A  
HETATM    7  N   UNL     1     -10.678  11.499  67.711  1.00  0.00    -0.197 NA 
HETATM    8  C   UNL     1      -9.700  10.817  67.074  1.00  0.00    -0.176 A  
HETATM    9  C   UNL     1      -9.619  10.699  65.695  1.00  0.00    -0.268 A  
HETATM   10  C   UNL     1     -10.598  11.318  64.920  1.00  0.00    -0.364 A  
ENDBRANCH   3   5
ENDBRANCH   2   3
TORSDOF 2
ENDMDL
MODEL       39
REMARK 921   NORMALIZED FREE ENERGY PREDICTED BY IDOCK:   -3.62 KCAL/MOL
REMARK 922        TOTAL FREE ENERGY PREDICTED BY IDOCK:   -4.12 KCAL/MOL
REMARK 923 INTER-LIGAND FREE ENERGY PREDICTED BY IDOCK:   -4.04 KCAL/MOL
REMARK 924 INTRA-LIGAND FREE ENERGY PREDICTED BY IDOCK:   -0.08 KCAL/MOL
REMARK 927      BINDING AFFINITY PREDICTED BY RF-SCORE:    0.00 PKD
ROOT
HETATM    1  C   UNL     1     -12.429  14.249  65.343  1.00  0.00    -0.425 C  
HETATM    2  O   UNL     1     -11.073  14.648  65.132  1.00  0.00    -0.336 OA 
ENDROOT
BRANCH   2   3
HETATM    3  C   UNL     1     -10.908  15.985  64.983  1.00  0.00    -0.404 C  
HETATM    4  O   UNL     1     -11.372  16.668  64.084  1.00  0.00    -1.141 OA 
BRANCH   3   5
HETATM    5  C   UNL     1     -10.089  16.539  66.084  1.00  0.00    -0.365 A  
HETATM    6  C   UNL     1     -10.588  17.449  67.007  1.00  0.00    -0.238 A  
HETATM    7  N   UNL     1      -9.853  17.981  68.017  1.00  0.00    -0.307 NA 
HETATM    8  C   UNL     1      -8.564  17.584  68.108  1.00  0.00    -0.258 A  
HETATM    9  C   UNL     1      -7.976  16.678  67.238  1.00  0.00    -0.193 A  
HETATM   10  C   UNL     1      -8.754  16.147  66.212  1.00  0.00    -0.373 A  
ENDBRANCH   3   5
ENDBRANCH   2   3
TORSDOF 2
ENDMDL
MODEL       40
REMARK 921   NORMALIZED FREE ENERGY PREDICTED BY IDOCK:   -3.60 KCAL/MOL
REMARK 922        TOTAL FREE ENERGY PREDICTED BY IDOCK:   -4.09 KCAL/MOL
REMARK 923 INTER-LIGAND FREE ENERGY PREDICTED BY IDOCK:   -4.03 KCAL/MOL
REMARK 924 INTRA-LIGAND FREE ENERGY PREDICTED BY IDOCK:   -0.06 KCAL/MOL
REMARK 927      BINDING AFFINITY PREDICTED BY RF-SCORE:    0.00 PKD
ROOT
HETATM    1  C   UNL     1     -11.540  12.114  67.715  1.00  0.00    -0.342 C  
HETATM    2  O   UNL     1     -12.226  11.302  68.671  1.00  0.00    -0.562 OA 
ENDROOT
BRANCH   2   3
HETATM    3  C   UNL     1     -12.028  11.678  69.957  1.00  0.00    -0.351 C  
HETATM    4  O   UNL     1     -11.889  12.824  70.355  1.00  0.00    -0.288 OA 
BRANCH   3   5
HETATM    5  C   UNL     1     -12.017  10.501  70.853  1.00  0.00    -0.481 A  
HETATM    6  C   UNL     1     -13.131  10.095  71.575  1.00  0.00    -0.429 A  
HETATM    7  N   UNL     1     -13.142   9.027  72.413  1.00  0.00    -0.428 NA 
HETATM    8  C   UNL     1     -11.987   8.334  72.532  1.00  0.00    -0.356 A  
HETATM    9  C   UNL     1     -10.823   8.657  71.852  1.00  0.00    -0.419 A  
HETATM   10  C   UNL     1     -10.842   9.758  70.997  1.00  0.00    -0.378 A  
ENDBRANCH   3   5
ENDBRANCH   2   3
TORSDOF 2
ENDMDL
MODEL       41
REMARK 921   NORMALIZED FREE ENERGY PREDICTED BY IDOCK:   -3.58 KCAL/MOL
REMARK 922        TOTAL FREE ENERGY PREDICTED BY IDOCK:   -4.07 KCAL/MOL
REMARK 923 INTER-LIGAND FREE ENERGY PREDICTED BY IDOCK:   -3.98 KCAL/MOL
REMARK 924 INTRA-LIGAND FREE ENERGY PREDICTED BY IDOCK:   -0.09 KCAL/MOL
REMARK 927      BINDING AFFINITY PREDICTED BY RF-SCORE:    0.00 PKD
ROOT
HETATM    1  C   UNL     1     -12.135  15.000  64.331  1.00  0.00    -0.359 C  
HETATM    2  O   UNL     1     -12.959  14.107  65.084  1.00  0.00    -0.729 OA 
ENDROOT
BRANCH   2   3
HETATM    3  C   UNL     1     -12.664  12.797  64.899  1.00  0.00    -0.404 C  
HETATM    4  O   UNL     1     -13.071  12.093  63.988  1.00  0.00    -0.723 OA 
BRANCH   3   5
HETATM    5  C   UNL     1     -11.749  12.310  65.953  1.00  0.00    -0.451 A  
HETATM    6  C   UNL     1     -10.727  11.405  65.703  1.00  0.00    -0.242 A  
HETATM    7  N   UNL     1      -9.882  10.934  66.656  1.00  0.00    -0.192 NA 
HETATM    8  C   UNL     1     -10.069  11.390  67.915  1.00  0.00    -0.183 A  
HETATM    9  C   UNL     1     -11.057  12.297  68.265  1.00  0.00    -0.282 A  
HETATM   10  C   UNL     1     -11.909  12.764  67.265  1.00  0.00    -0.414 A  
ENDBRANCH   3   5
ENDBRANCH   2   3
TORSDOF 2
ENDMDL
MODEL       42
REMARK 921   NORMALIZED FREE ENERGY PREDICTED BY IDOCK:   -3.56 KCAL/MOL
REMARK 922        TOTAL FREE ENERGY PREDICTED BY IDOCK:   -4.05 KCAL/MOL
REMARK 923 INTER-LIGAND FREE ENERGY PREDICTED BY IDOCK:   -3.97 KCAL/MOL
REMARK 924 INTRA-LIGAND FREE ENERGY PREDICTED BY IDOCK:   -0.08 KCAL/MOL
REMARK 927      BINDING AFFINITY PREDICTED BY RF-SCORE:    0.00 PKD
ROOT
HETATM    1  C   UNL     1      -9.483  14.379  68.395  1.00  0.00    -0.207 C  
HETATM    2  O   UNL     1     -10.776  13.929  68.808  1.00  0.00    -0.255 OA 
ENDROOT
BRANCH   2   3
HETATM    3  C   UNL     1     -11.630  14.930  69.131  1.00  0.00    -0.307 C  
HETATM    4  O   UNL     1     -11.720  16.006  68.562  1.00  0.00    -0.375 OA 
BRANCH   3   5
HETATM    5  C   UNL     1     -12.480  14.546  70.279  1.00  0.00    -0.405 A  
HETATM    6  C   UNL     1     -13.355  15.430  70.895  1.00  0.00    -0.418 A  
HETATM    7  N   UNL     1     -14.136  15.105  71.958  1.00  0.00    -0.507 NA 
HETATM    8  C   UNL     1     -14.035  13.840  72.423  1.00  0.00    -0.548 A  
HETATM    9  C   UNL     1     -13.195  12.884  71.875  1.00  0.00    -0.521 A  
HETATM   10  C   UNL     1     -12.407  13.245  70.783  1.00  0.00    -0.425 A  
ENDBRANCH   3   5
ENDBRANCH   2   3
TORSDOF 2
ENDMDL
MODEL       43
REMARK 921   NORMALIZED FREE ENERGY PREDICTED BY IDOCK:   -3.56 KCAL/MOL
REMARK 922        TOTAL FREE ENERGY PREDICTED BY IDOCK:   -4.05 KCAL/MOL
REMARK 923 INTER-LIGAND FREE ENERGY PREDICTED BY IDOCK:   -3.99 KCAL/MOL
REMARK 924 INTRA-LIGAND FREE ENERGY PREDICTED BY IDOCK:   -0.06 KCAL/MOL
REMARK 927      BINDING AFFINITY PREDICTED BY RF-SCORE:    0.00 PKD
ROOT
HETATM    1  C   UNL     1     -10.652  18.078  67.720  1.00  0.00    -0.394 C  
HETATM    2  O   UNL     1     -10.949  16.709  67.436  1.00  0.00    -0.238 OA 
ENDROOT
BRANCH   2   3
HETATM    3  C   UNL     1     -10.536  16.297  66.213  1.00  0.00    -0.308 C  
HETATM    4  O   UNL     1      -9.703  16.853  65.514  1.00  0.00    -0.541 OA 
BRANCH   3   5
HETATM    5  C   UNL     1     -11.221  15.047  65.820  1.00  0.00    -0.318 A  
HETATM    6  C   UNL     1     -11.611  14.083  66.740  1.00  0.00    -0.386 A  
HETATM    7  N   UNL     1     -12.230  12.922  66.402  1.00  0.00    -0.482 NA 
HETATM    8  C   UNL     1     -12.469  12.719  65.087  1.00  0.00    -0.501 A  
HETATM    9  C   UNL     1     -12.122  13.622  64.095  1.00  0.00    -0.484 A  
HETATM   10  C   UNL     1     -11.490  14.806  64.470  1.00  0.00    -0.333 A  
ENDBRANCH   3   5
ENDBRANCH   2   3
TORSDOF 2
ENDMDL
MODEL       44
REMARK 921   NORMALIZED FREE ENERGY PREDICTED BY IDOCK:   -3.55 KCAL/MOL
REMARK 922        TOTAL FREE ENERGY PREDICTED BY IDOCK:   -4.04 KCAL/MOL
REMARK 923 INTER-LIGAND FREE ENERGY PREDICTED BY IDOCK:   -3.97 KCAL/MOL
REMARK 924 INTRA-LIGAND FREE ENERGY PREDICTED BY IDOCK:   -0.07 KCAL/MOL
REMARK 927      BINDING AFFINITY PREDICTED BY RF-SCORE:    0.00 PKD
ROOT
HETATM    1  C   UNL     1     -13.093  13.787  72.010  1.00  0.00    -0.396 C  
HETATM    2  O   UNL     1     -12.298  13.321  70.917  1.00  0.00    -0.364 OA 
ENDROOT
BRANCH   2   3
HETATM    3  C   UNL     1     -12.180  14.212  69.903  1.00  0.00    -0.359 C  
HETATM    4  O   UNL     1     -12.207  15.427  70.010  1.00  0.00    -0.345 OA 
BRANCH   3   5
HETATM    5  C   UNL     1     -11.992  13.516  68.611  1.00  0.00    -0.378 A  
HETATM    6  C   UNL     1     -11.862  12.137  68.512  1.00  0.00    -0.310 A  
HETATM    7  N   UNL     1     -11.676  11.477  67.340  1.00  0.00    -0.609 NA 
HETATM    8  C   UNL     1     -11.619  12.230  66.219  1.00  0.00    -0.385 A  
HETATM    9  C   UNL     1     -11.742  13.611  66.213  1.00  0.00    -0.396 A  
HETATM   10  C   UNL     1     -11.934  14.262  67.431  1.00  0.00    -0.426 A  
ENDBRANCH   3   5
ENDBRANCH   2   3
TORSDOF 2
ENDMDL
MODEL       45
REMARK 921   NORMALIZED FREE ENERGY PREDICTED BY IDOCK:   -3.54 KCAL/MOL
REMARK 922        TOTAL FREE ENERGY PREDICTED BY IDOCK:   -4.03 KCAL/MOL
REMARK 923 INTER-LIGAND FREE ENERGY PREDICTED BY IDOCK:   -3.94 KCAL/MOL
REMARK 924 INTRA-LIGAND FREE ENERGY PREDICTED BY IDOCK:   -0.09 KCAL/MOL
REMARK 927      BINDING AFFINITY PREDICTED BY RF-SCORE:    0.00 PKD
ROOT
HETATM    1  C   UNL     1     -10.628  11.143  67.484  1.00  0.00    -0.221 C  
HETATM    2  O   UNL     1     -11.913  11.763  67.561  1.00  0.00    -0.607 OA 
ENDROOT
BRANCH   2   3
HETATM    3  C   UNL     1     -11.874  13.067  67.929  1.00  0.00    -0.343 C  
HETATM    4  O   UNL     1     -12.009  13.495  69.065  1.00  0.00    -0.327 OA 
BRANCH   3   5
HETATM    5  C   UNL     1     -11.624  13.936  66.759  1.00  0.00    -0.398 A  
HETATM    6  C   UNL     1     -10.671  14.947  66.764  1.00  0.00    -0.312 A  
HETATM    7  N   UNL     1     -10.432  15.765  65.707  1.00  0.00    -0.346 NA 
HETATM    8  C   UNL     1     -11.177  15.562  64.598  1.00  0.00    -0.371 A  
HETATM    9  C   UNL     1     -12.148  14.579  64.494  1.00  0.00    -0.501 A  
HETATM   10  C   UNL     1     -12.372  13.752  65.593  1.00  0.00    -0.517 A  
ENDBRANCH   3   5
ENDBRANCH   2   3
TORSDOF 2
ENDMDL
MODEL       46
REMARK 921   NORMALIZED FREE ENERGY PREDICTED BY IDOCK:   -3.52 KCAL/MOL
REMARK 922        TOTAL FREE ENERGY PREDICTED BY IDOCK:   -4.00 KCAL/MOL
REMARK 923 INTER-LIGAND FREE ENERGY PREDICTED BY IDOCK:   -3.95 KCAL/MOL
REMARK 924 INTRA-LIGAND FREE ENERGY PREDICTED BY IDOCK:   -0.05 KCAL/MOL
REMARK 927      BINDING AFFINITY PREDICTED BY RF-SCORE:    0.00 PKD
ROOT
HETATM    1  C   UNL     1      -9.877   9.493  67.010  1.00  0.00    -0.190 C  
HETATM    2  O   UNL     1     -10.460  10.493  66.172  1.00  0.00    -0.230 OA 
ENDROOT
BRANCH   2   3
HETATM    3  C   UNL     1     -11.285  11.347  66.826  1.00  0.00    -0.252 C  
HETATM    4  O   UNL     1     -11.842  11.131  67.890  1.00  0.00    -0.601 OA 
BRANCH   3   5
HETATM    5  C   UNL     1     -11.422  12.619  66.083  1.00  0.00    -0.413 A  
HETATM    6  C   UNL     1     -12.527  12.915  65.296  1.00  0.00    -0.493 A  
HETATM    7  N   UNL     1     -12.669  14.069  64.595  1.00  0.00    -0.669 NA 
HETATM    8  C   UNL     1     -11.662  14.966  64.687  1.00  0.00    -0.404 A  
HETATM    9  C   UNL     1     -10.521  14.765  65.448  1.00  0.00    -0.401 A  
HETATM   10  C   UNL     1     -10.402  13.572  66.158  1.00  0.00    -0.296 A  
ENDBRANCH   3   5
ENDBRANCH   2   3
TORSDOF 2
ENDMDL
MODEL       47
REMARK 921   NORMALIZED FREE ENERGY PREDICTED BY IDOCK:   -3.52 KCAL/MOL
REMARK 922        TOTAL FREE ENERGY PREDICTED BY IDOCK:   -4.00 KCAL/MOL
REMARK 923 INTER-LIGAND FREE ENERGY PREDICTED BY IDOCK:   -3.91 KCAL/MOL
REMARK 924 INTRA-LIGAND FREE ENERGY PREDICTED BY IDOCK:   -0.08 KCAL/MOL
REMARK 927      BINDING AFFINITY PREDICTED BY RF-SCORE:    0.00 PKD
ROOT
HETATM    1  C   UNL     1     -12.360  13.075  70.225  1.00  0.00    -0.241 C  
HETATM    2  O   UNL     1     -11.360  13.019  69.206  1.00  0.00    -0.267 OA 
ENDROOT
BRANCH   2   3
HETATM    3  C   UNL     1     -11.729  12.316  68.108  1.00  0.00    -0.349 C  
HETATM    4  O   UNL     1     -12.061  11.141  68.088  1.00  0.00    -0.633 OA 
BRANCH   3   5
HETATM    5  C   UNL     1     -11.700  13.171  66.901  1.00  0.00    -0.441 A  
HETATM    6  C   UNL     1     -12.389  12.854  65.738  1.00  0.00    -0.375 A  
HETATM    7  N   UNL     1     -12.367  13.616  64.615  1.00  0.00    -0.544 NA 
HETATM    8  C   UNL     1     -11.624  14.744  64.658  1.00  0.00    -0.399 A  
HETATM    9  C   UNL     1     -10.905  15.149  65.772  1.00  0.00    -0.358 A  
HETATM   10  C   UNL     1     -10.947  14.348  66.912  1.00  0.00    -0.308 A  
ENDBRANCH   3   5
ENDBRANCH   2   3
TORSDOF 2
ENDMDL
MODEL       48
REMARK 921   NORMALIZED FREE ENERGY PREDICTED BY IDOCK:   -3.51 KCAL/MOL
REMARK 922        TOTAL FREE ENERGY PREDICTED BY IDOCK:   -3.99 KCAL/MOL
REMARK 923 INTER-LIGAND FREE ENERGY PREDICTED BY IDOCK:   -3.93 KCAL/MOL
REMARK 924 INTRA-LIGAND FREE ENERGY PREDICTED BY IDOCK:   -0.05 KCAL/MOL
REMARK 927      BINDING AFFINITY PREDICTED BY RF-SCORE:    0.00 PKD
ROOT
HETATM    1  C   UNL     1     -14.111  15.579  72.303  1.00  0.00    -0.544 C  
HETATM    2  O   UNL     1     -13.602  15.467  70.973  1.00  0.00    -0.528 OA 
ENDROOT
BRANCH   2   3
HETATM    3  C   UNL     1     -12.250  15.525  70.894  1.00  0.00    -0.400 C  
HETATM    4  O   UNL     1     -11.481  15.628  71.836  1.00  0.00    -0.407 OA 
BRANCH   3   5
HETATM    5  C   UNL     1     -11.801  15.428  69.488  1.00  0.00    -0.370 A  
HETATM    6  C   UNL     1     -11.118  16.451  68.844  1.00  0.00    -0.328 A  
HETATM    7  N   UNL     1     -10.707  16.391  67.552  1.00  0.00    -0.320 NA 
HETATM    8  C   UNL     1     -10.991  15.256  66.874  1.00  0.00    -0.315 A  
HETATM    9  C   UNL     1     -11.663  14.178  67.429  1.00  0.00    -0.422 A  
HETATM   10  C   UNL     1     -12.072  14.267  68.758  1.00  0.00    -0.300 A  
ENDBRANCH   3   5
ENDBRANCH   2   3
TORSDOF 2
ENDMDL
MODEL       49
REMARK 921   NORMALIZED FREE ENERGY PREDICTED BY IDOCK:   -3.46 KCAL/MOL
REMARK 922        TOTAL FREE ENERGY PREDICTED BY IDOCK:   -3.93 KCAL/MOL
REMARK 923 INTER-LIGAND FREE ENERGY PREDICTED BY IDOCK:   -3.86 KCAL/MOL
REMARK 924 INTRA-LIGAND FREE ENERGY PREDICTED BY IDOCK:   -0.08 KCAL/MOL
REMARK 927      BINDING AFFINITY PREDICTED BY RF-SCORE:    0.00 PKD
ROOT
HETATM    1  C   UNL     1     -10.757  15.221  64.866  1.00  0.00    -0.400 C  
HETATM    2  O   UNL     1     -11.613  15.077  66.001  1.00  0.00    -0.286 OA 
ENDROOT
BRANCH   2   3
HETATM    3  C   UNL     1     -12.283  13.900  66.040  1.00  0.00    -0.462 C  
HETATM    4  O   UNL     1     -13.063  13.491  65.195  1.00  0.00    -0.737 OA 
BRANCH   3   5
HETATM    5  C   UNL     1     -11.933  13.136  67.258  1.00  0.00    -0.389 A  
HETATM    6  C   UNL     1     -11.525  11.809  67.222  1.00  0.00    -0.303 A  
HETATM    7  N   UNL     1     -11.211  11.084  68.326  1.00  0.00    -0.253 NA 
HETATM    8  C   UNL     1     -11.307  11.715  69.517  1.00  0.00    -0.260 A  
HETATM    9  C   UNL     1     -11.700  13.037  69.657  1.00  0.00    -0.364 A  
HETATM   10  C   UNL     1     -12.015  13.758  68.506  1.00  0.00    -0.402 A  
ENDBRANCH   3   5
ENDBRANCH   2   3
TORSDOF 2
ENDMDL
MODEL       50
REMARK 921   NORMALIZED FREE ENERGY PREDICTED BY IDOCK:   -3.37 KCAL/MOL
REMARK 922        TOTAL FREE ENERGY PREDICTED BY IDOCK:   -3.83 KCAL/MOL
REMARK 923 INTER-LIGAND FREE ENERGY PREDICTED BY IDOCK:   -3.76 KCAL/MOL
REMARK 924 INTRA-LIGAND FREE ENERGY PREDICTED BY IDOCK:   -0.08 KCAL/MOL
REMARK 927      BINDING AFFINITY PREDICTED BY RF-SCORE:    0.00 PKD
ROOT
HETATM    1  C   UNL     1     -11.815  14.817  68.886  1.00  0.00    -0.296 C  
HETATM    2  O   UNL     1     -10.647  15.601  68.634  1.00  0.00    -0.229 OA 
ENDROOT
BRANCH   2   3
HETATM    3  C   UNL     1     -10.617  16.164  67.401  1.00  0.00    -0.311 C  
HETATM    4  O   UNL     1     -10.812  15.585  66.345  1.00  0.00    -0.308 OA 
BRANCH   3   5
HETATM    5  C   UNL     1     -10.329  17.612  67.492  1.00  0.00    -0.365 A  
HETATM    6  C   UNL     1      -9.914  18.224  68.667  1.00  0.00    -0.389 A  
HETATM    7  N   UNL     1      -9.655  19.552  68.778  1.00  0.00    -0.409 NA 
HETATM    8  C   UNL     1      -9.818  20.300  67.664  1.00  0.00    -0.423 A  
HETATM    9  C   UNL     1     -10.224  19.782  66.444  1.00  0.00    -0.614 A  
HETATM   10  C   UNL     1     -10.481  18.415  66.359  1.00  0.00    -0.412 A  
ENDBRANCH   3   5
ENDBRANCH   2   3
TORSDOF 2
ENDMDL
MODEL       51
REMARK 921   NORMALIZED FREE ENERGY PREDICTED BY IDOCK:   -3.35 KCAL/MOL
REMARK 922        TOTAL FREE ENERGY PREDICTED BY IDOCK:   -3.82 KCAL/MOL
REMARK 923 INTER-LIGAND FREE ENERGY PREDICTED BY IDOCK:   -3.86 KCAL/MOL
REMARK 924 INTRA-LIGAND FREE ENERGY PREDICTED BY IDOCK:    0.04 KCAL/MOL
REMARK 927      BINDING AFFINITY PREDICTED BY RF-SCORE:    0.00 PKD
ROOT
HETATM    1  C   UNL     1     -10.702  18.415  66.697  1.00  0.00    -0.212 C  
HETATM    2  O   UNL     1     -10.234  17.935  65.435  1.00  0.00    -0.523 OA 
ENDROOT
BRANCH   2   3
HETATM    3  C   UNL     1     -10.830  16.789  65.026  1.00  0.00    -0.117 C  
HETATM    4  O   UNL     1     -11.590  16.677  64.077  1.00  0.00    -1.197 OA 
BRANCH   3   5
HETATM    5  C   UNL     1     -10.425  15.652  65.880  1.00  0.00    -0.358 A  
HETATM    6  C   UNL     1     -11.336  14.747  66.409  1.00  0.00    -0.339 A  
HETATM    7  N   UNL     1     -10.990  13.703  67.206  1.00  0.00    -0.284 NA 
HETATM    8  C   UNL     1      -9.675  13.558  67.483  1.00  0.00    -0.228 A  
HETATM    9  C   UNL     1      -8.690  14.405  67.001  1.00  0.00    -0.244 A  
HETATM   10  C   UNL     1      -9.074  15.468  66.184  1.00  0.00    -0.359 A  
ENDBRANCH   3   5
ENDBRANCH   2   3
TORSDOF 2
ENDMDL
MODEL       52
REMARK 921   NORMALIZED FREE ENERGY PREDICTED BY IDOCK:   -3.35 KCAL/MOL
REMARK 922        TOTAL FREE ENERGY PREDICTED BY IDOCK:   -3.81 KCAL/MOL
REMARK 923 INTER-LIGAND FREE ENERGY PREDICTED BY IDOCK:   -3.75 KCAL/MOL
REMARK 924 INTRA-LIGAND FREE ENERGY PREDICTED BY IDOCK:   -0.06 KCAL/MOL
REMARK 927      BINDING AFFINITY PREDICTED BY RF-SCORE:    0.00 PKD
ROOT
HETATM    1  C   UNL     1      -9.594  10.692  68.792  1.00  0.00    -0.186 C  
HETATM    2  O   UNL     1      -9.972  10.912  67.431  1.00  0.00    -0.180 OA 
ENDROOT
BRANCH   2   3
HETATM    3  C   UNL     1     -11.246  11.347  67.277  1.00  0.00    -0.304 C  
HETATM    4  O   UNL     1     -12.137  11.262  68.107  1.00  0.00    -0.635 OA 
BRANCH   3   5
HETATM    5  C   UNL     1     -11.432  11.973  65.950  1.00  0.00    -0.392 A  
HETATM    6  C   UNL     1     -10.828  11.486  64.798  1.00  0.00    -0.297 A  
HETATM    7  N   UNL     1     -10.973  12.050  63.571  1.00  0.00    -0.431 NA 
HETATM    8  C   UNL     1     -11.756  13.149  63.494  1.00  0.00    -0.415 A  
HETATM    9  C   UNL     1     -12.405  13.708  64.585  1.00  0.00    -0.413 A  
HETATM   10  C   UNL     1     -12.240  13.107  65.831  1.00  0.00    -0.497 A  
ENDBRANCH   3   5
ENDBRANCH   2   3
TORSDOF 2
ENDMDL
MODEL       53
REMARK 921   NORMALIZED FREE ENERGY PREDICTED BY IDOCK:   -3.32 KCAL/MOL
REMARK 922        TOTAL FREE ENERGY PREDICTED BY IDOCK:   -3.78 KCAL/MOL
REMARK 923 INTER-LIGAND FREE ENERGY PREDICTED BY IDOCK:   -3.73 KCAL/MOL
REMARK 924 INTRA-LIGAND FREE ENERGY PREDICTED BY IDOCK:   -0.05 KCAL/MOL
REMARK 927      BINDING AFFINITY PREDICTED BY RF-SCORE:    0.00 PKD
ROOT
HETATM    1  C   UNL     1     -11.353   5.053  72.958  1.00  0.00    -0.298 C  
HETATM    2  O   UNL     1     -11.784   6.263  72.332  1.00  0.00    -0.295 OA 
ENDROOT
BRANCH   2   3
HETATM    3  C   UNL     1     -11.149   7.373  72.782  1.00  0.00    -0.346 C  
HETATM    4  O   UNL     1     -10.236   7.396  73.591  1.00  0.00    -0.341 OA 
BRANCH   3   5
HETATM    5  C   UNL     1     -11.698   8.588  72.142  1.00  0.00    -0.448 A  
HETATM    6  C   UNL     1     -12.963   9.083  72.431  1.00  0.00    -0.405 A  
HETATM    7  N   UNL     1     -13.494  10.189  71.849  1.00  0.00    -0.365 NA 
HETATM    8  C   UNL     1     -12.724  10.827  70.939  1.00  0.00    -0.384 A  
HETATM    9  C   UNL     1     -11.449  10.415  70.586  1.00  0.00    -0.438 A  
HETATM   10  C   UNL     1     -10.929   9.277  71.201  1.00  0.00    -0.409 A  
ENDBRANCH   3   5
ENDBRANCH   2   3
TORSDOF 2
ENDMDL
MODEL       54
REMARK 921   NORMALIZED FREE ENERGY PREDICTED BY IDOCK:   -3.31 KCAL/MOL
REMARK 922        TOTAL FREE ENERGY PREDICTED BY IDOCK:   -3.77 KCAL/MOL
REMARK 923 INTER-LIGAND FREE ENERGY PREDICTED BY IDOCK:   -3.70 KCAL/MOL
REMARK 924 INTRA-LIGAND FREE ENERGY PREDICTED BY IDOCK:   -0.07 KCAL/MOL
REMARK 927      BINDING AFFINITY PREDICTED BY RF-SCORE:    0.00 PKD
ROOT
HETATM    1  C   UNL     1     -12.899  10.535  70.967  1.00  0.00    -0.407 C  
HETATM    2  O   UNL     1     -11.817  11.329  70.477  1.00  0.00    -0.338 OA 
ENDROOT
BRANCH   2   3
HETATM    3  C   UNL     1     -11.912  11.637  69.160  1.00  0.00    -0.313 C  
HETATM    4  O   UNL     1     -12.098  10.843  68.251  1.00  0.00    -0.562 OA 
BRANCH   3   5
HETATM    5  C   UNL     1     -11.775  13.094  68.949  1.00  0.00    -0.368 A  
HETATM    6  C   UNL     1     -12.102  14.029  69.923  1.00  0.00    -0.345 A  
HETATM    7  N   UNL     1     -11.997  15.371  69.749  1.00  0.00    -0.343 NA 
HETATM    8  C   UNL     1     -11.544  15.796  68.549  1.00  0.00    -0.362 A  
HETATM    9  C   UNL     1     -11.188  14.944  67.516  1.00  0.00    -0.334 A  
HETATM   10  C   UNL     1     -11.304  13.570  67.723  1.00  0.00    -0.327 A  
ENDBRANCH   3   5
ENDBRANCH   2   3
TORSDOF 2
ENDMDL
MODEL       55
REMARK 921   NORMALIZED FREE ENERGY PREDICTED BY IDOCK:   -3.31 KCAL/MOL
REMARK 922        TOTAL FREE ENERGY PREDICTED BY IDOCK:   -3.77 KCAL/MOL
REMARK 923 INTER-LIGAND FREE ENERGY PREDICTED BY IDOCK:   -3.69 KCAL/MOL
REMARK 924 INTRA-LIGAND FREE ENERGY PREDICTED BY IDOCK:   -0.08 KCAL/MOL
REMARK 927      BINDING AFFINITY PREDICTED BY RF-SCORE:    0.00 PKD
ROOT
HETATM    1  C   UNL     1     -10.747   5.632  71.275  1.00  0.00    -0.244 C  
HETATM    2  O   UNL     1     -11.564   6.227  72.286  1.00  0.00    -0.293 OA 
ENDROOT
BRANCH   2   3
HETATM    3  C   UNL     1     -11.034   7.349  72.833  1.00  0.00    -0.361 C  
HETATM    4  O   UNL     1     -10.227   7.388  73.747  1.00  0.00    -0.342 OA 
BRANCH   3   5
HETATM    5  C   UNL     1     -11.554   8.558  72.157  1.00  0.00    -0.447 A  
HETATM    6  C   UNL     1     -10.781   9.332  71.303  1.00  0.00    -0.352 A  
HETATM    7  N   UNL     1     -11.232  10.453  70.681  1.00  0.00    -0.321 NA 
HETATM    8  C   UNL     1     -12.512  10.811  70.925  1.00  0.00    -0.402 A  
HETATM    9  C   UNL     1     -13.364  10.102  71.758  1.00  0.00    -0.485 A  
HETATM   10  C   UNL     1     -12.875   8.956  72.381  1.00  0.00    -0.446 A  
ENDBRANCH   3   5
ENDBRANCH   2   3
TORSDOF 2
ENDMDL
MODEL       56
REMARK 921   NORMALIZED FREE ENERGY PREDICTED BY IDOCK:   -3.31 KCAL/MOL
REMARK 922        TOTAL FREE ENERGY PREDICTED BY IDOCK:   -3.76 KCAL/MOL
REMARK 923 INTER-LIGAND FREE ENERGY PREDICTED BY IDOCK:   -3.72 KCAL/MOL
REMARK 924 INTRA-LIGAND FREE ENERGY PREDICTED BY IDOCK:   -0.05 KCAL/MOL
REMARK 927      BINDING AFFINITY PREDICTED BY RF-SCORE:    0.00 PKD
ROOT
HETATM    1  C   UNL     1     -11.150   6.105  70.182  1.00  0.00    -0.378 C  
HETATM    2  O   UNL     1     -12.188   6.847  70.825  1.00  0.00    -0.381 OA 
ENDROOT
BRANCH   2   3
HETATM    3  C   UNL     1     -11.754   7.636  71.839  1.00  0.00    -0.289 C  
HETATM    4  O   UNL     1     -11.214   7.252  72.864  1.00  0.00    -0.310 OA 
BRANCH   3   5
HETATM    5  C   UNL     1     -12.005   9.063  71.539  1.00  0.00    -0.414 A  
HETATM    6  C   UNL     1     -13.020   9.791  72.143  1.00  0.00    -0.394 A  
HETATM    7  N   UNL     1     -13.277  11.097  71.875  1.00  0.00    -0.454 NA 
HETATM    8  C   UNL     1     -12.482  11.700  70.963  1.00  0.00    -0.334 A  
HETATM    9  C   UNL     1     -11.441  11.060  70.309  1.00  0.00    -0.363 A  
HETATM   10  C   UNL     1     -11.199   9.720  70.605  1.00  0.00    -0.402 A  
ENDBRANCH   3   5
ENDBRANCH   2   3
TORSDOF 2
ENDMDL
MODEL       57
REMARK 921   NORMALIZED FREE ENERGY PREDICTED BY IDOCK:   -3.31 KCAL/MOL
REMARK 922        TOTAL FREE ENERGY PREDICTED BY IDOCK:   -3.76 KCAL/MOL
REMARK 923 INTER-LIGAND FREE ENERGY PREDICTED BY IDOCK:   -3.69 KCAL/MOL
REMARK 924 INTRA-LIGAND FREE ENERGY PREDICTED BY IDOCK:   -0.07 KCAL/MOL
REMARK 927      BINDING AFFINITY PREDICTED BY RF-SCORE:    0.00 PKD
ROOT
HETATM    1  C   UNL     1     -12.234  10.145  71.228  1.00  0.00    -0.398 C  
HETATM    2  O   UNL     1     -12.205  11.505  70.788  1.00  0.00    -0.374 OA 
ENDROOT
BRANCH   2   3
HETATM    3  C   UNL     1     -12.110  11.647  69.444  1.00  0.00    -0.263 C  
HETATM    4  O   UNL     1     -12.192  10.749  68.621  1.00  0.00    -0.472 OA 
BRANCH   3   5
HETATM    5  C   UNL     1     -11.906  13.066  69.079  1.00  0.00    -0.362 A  
HETATM    6  C   UNL     1     -11.740  13.488  67.767  1.00  0.00    -0.359 A  
HETATM    7  N   UNL     1     -11.538  14.782  67.408  1.00  0.00    -0.364 NA 
HETATM    8  C   UNL     1     -11.503  15.693  68.406  1.00  0.00    -0.369 A  
HETATM    9  C   UNL     1     -11.662  15.372  69.745  1.00  0.00    -0.352 A  
HETATM   10  C   UNL     1     -11.869  14.036  70.084  1.00  0.00    -0.377 A  
ENDBRANCH   3   5
ENDBRANCH   2   3
TORSDOF 2
ENDMDL
MODEL       58
REMARK 921   NORMALIZED FREE ENERGY PREDICTED BY IDOCK:   -3.29 KCAL/MOL
REMARK 922        TOTAL FREE ENERGY PREDICTED BY IDOCK:   -3.75 KCAL/MOL
REMARK 923 INTER-LIGAND FREE ENERGY PREDICTED BY IDOCK:   -3.70 KCAL/MOL
REMARK 924 INTRA-LIGAND FREE ENERGY PREDICTED BY IDOCK:   -0.05 KCAL/MOL
REMARK 927      BINDING AFFINITY PREDICTED BY RF-SCORE:    0.00 PKD
ROOT
HETATM    1  C   UNL     1      -9.227  11.561  67.597  1.00  0.00    -0.171 C  
HETATM    2  O   UNL     1     -10.011  12.244  68.578  1.00  0.00    -0.213 OA 
ENDROOT
BRANCH   2   3
HETATM    3  C   UNL     1     -11.346  12.049  68.449  1.00  0.00    -0.279 C  
HETATM    4  O   UNL     1     -11.927  11.724  67.426  1.00  0.00    -0.617 OA 
BRANCH   3   5
HETATM    5  C   UNL     1     -12.036  12.266  69.740  1.00  0.00    -0.365 A  
HETATM    6  C   UNL     1     -12.319  13.531  70.237  1.00  0.00    -0.300 A  
HETATM    7  N   UNL     1     -12.939  13.756  71.424  1.00  0.00    -0.352 NA 
HETATM    8  C   UNL     1     -13.293  12.667  72.143  1.00  0.00    -0.466 A  
HETATM    9  C   UNL     1     -13.058  11.364  71.730  1.00  0.00    -0.523 A  
HETATM   10  C   UNL     1     -12.421  11.163  70.507  1.00  0.00    -0.414 A  
ENDBRANCH   3   5
ENDBRANCH   2   3
TORSDOF 2
ENDMDL
MODEL       59
REMARK 921   NORMALIZED FREE ENERGY PREDICTED BY IDOCK:   -3.29 KCAL/MOL
REMARK 922        TOTAL FREE ENERGY PREDICTED BY IDOCK:   -3.75 KCAL/MOL
REMARK 923 INTER-LIGAND FREE ENERGY PREDICTED BY IDOCK:   -3.67 KCAL/MOL
REMARK 924 INTRA-LIGAND FREE ENERGY PREDICTED BY IDOCK:   -0.08 KCAL/MOL
REMARK 927      BINDING AFFINITY PREDICTED BY RF-SCORE:    0.00 PKD
ROOT
HETATM    1  C   UNL     1     -11.414  13.836  67.056  1.00  0.00    -0.346 C  
HETATM    2  O   UNL     1     -10.414  14.828  67.298  1.00  0.00    -0.260 OA 
ENDROOT
BRANCH   2   3
HETATM    3  C   UNL     1     -10.889  15.960  67.872  1.00  0.00    -0.327 C  
HETATM    4  O   UNL     1     -11.745  16.018  68.740  1.00  0.00    -0.385 OA 
BRANCH   3   5
HETATM    5  C   UNL     1     -10.214  17.154  67.317  1.00  0.00    -0.316 A  
HETATM    6  C   UNL     1      -9.145  17.071  66.435  1.00  0.00    -0.270 A  
HETATM    7  N   UNL     1      -8.501  18.151  65.923  1.00  0.00    -0.499 NA 
HETATM    8  C   UNL     1      -8.948  19.367  66.310  1.00  0.00    -0.346 A  
HETATM    9  C   UNL     1     -10.010  19.554  67.182  1.00  0.00    -0.487 A  
HETATM   10  C   UNL     1     -10.653  18.427  67.691  1.00  0.00    -0.437 A  
ENDBRANCH   3   5
ENDBRANCH   2   3
TORSDOF 2
ENDMDL
MODEL       60
REMARK 921   NORMALIZED FREE ENERGY PREDICTED BY IDOCK:   -3.28 KCAL/MOL
REMARK 922        TOTAL FREE ENERGY PREDICTED BY IDOCK:   -3.73 KCAL/MOL
REMARK 923 INTER-LIGAND FREE ENERGY PREDICTED BY IDOCK:   -3.69 KCAL/MOL
REMARK 924 INTRA-LIGAND FREE ENERGY PREDICTED BY IDOCK:   -0.05 KCAL/MOL
REMARK 927      BINDING AFFINITY PREDICTED BY RF-SCORE:    0.00 PKD
ROOT
HETATM    1  C   UNL     1     -12.071  15.471  70.092  1.00  0.00    -0.378 C  
HETATM    2  O   UNL     1     -11.072  15.017  69.176  1.00  0.00    -0.244 OA 
ENDROOT
BRANCH   2   3
HETATM    3  C   UNL     1     -11.042  15.705  68.008  1.00  0.00    -0.335 C  
HETATM    4  O   UNL     1     -10.919  16.913  67.892  1.00  0.00    -0.342 OA 
BRANCH   3   5
HETATM    5  C   UNL     1     -11.162  14.786  66.855  1.00  0.00    -0.347 A  
HETATM    6  C   UNL     1     -10.416  14.936  65.694  1.00  0.00    -0.349 A  
HETATM    7  N   UNL     1     -10.518  14.115  64.617  1.00  0.00    -0.414 NA 
HETATM    8  C   UNL     1     -11.403  13.098  64.709  1.00  0.00    -0.324 A  
HETATM    9  C   UNL     1     -12.190  12.862  65.826  1.00  0.00    -0.498 A  
HETATM   10  C   UNL     1     -12.064  13.720  66.916  1.00  0.00    -0.454 A  
ENDBRANCH   3   5
ENDBRANCH   2   3
TORSDOF 2
ENDMDL
MODEL       61
REMARK 921   NORMALIZED FREE ENERGY PREDICTED BY IDOCK:   -3.28 KCAL/MOL
REMARK 922        TOTAL FREE ENERGY PREDICTED BY IDOCK:   -3.73 KCAL/MOL
REMARK 923 INTER-LIGAND FREE ENERGY PREDICTED BY IDOCK:   -3.67 KCAL/MOL
REMARK 924 INTRA-LIGAND FREE ENERGY PREDICTED BY IDOCK:   -0.06 KCAL/MOL
REMARK 927      BINDING AFFINITY PREDICTED BY RF-SCORE:    0.00 PKD
ROOT
HETATM    1  C   UNL     1      -5.447  20.909  68.972  1.00  0.00    -0.370 C  
HETATM    2  O   UNL     1      -6.395  21.143  67.929  1.00  0.00    -0.351 OA 
ENDROOT
BRANCH   2   3
HETATM    3  C   UNL     1      -6.714  20.036  67.216  1.00  0.00    -0.218 C  
HETATM    4  O   UNL     1      -5.931  19.332  66.597  1.00  0.00    -0.167 OA 
BRANCH   3   5
HETATM    5  C   UNL     1      -8.166  19.761  67.292  1.00  0.00    -0.341 A  
HETATM    6  C   UNL     1      -8.811  19.451  68.481  1.00  0.00    -0.366 A  
HETATM    7  N   UNL     1     -10.139  19.183  68.574  1.00  0.00    -0.413 NA 
HETATM    8  C   UNL     1     -10.851  19.229  67.427  1.00  0.00    -0.446 A  
HETATM    9  C   UNL     1     -10.300  19.532  66.192  1.00  0.00    -0.614 A  
HETATM   10  C   UNL     1      -8.935  19.804  66.126  1.00  0.00    -0.387 A  
ENDBRANCH   3   5
ENDBRANCH   2   3
TORSDOF 2
ENDMDL
MODEL       62
REMARK 921   NORMALIZED FREE ENERGY PREDICTED BY IDOCK:   -3.27 KCAL/MOL
REMARK 922        TOTAL FREE ENERGY PREDICTED BY IDOCK:   -3.73 KCAL/MOL
REMARK 923 INTER-LIGAND FREE ENERGY PREDICTED BY IDOCK:   -3.64 KCAL/MOL
REMARK 924 INTRA-LIGAND FREE ENERGY PREDICTED BY IDOCK:   -0.08 KCAL/MOL
REMARK 927      BINDING AFFINITY PREDICTED BY RF-SCORE:    0.00 PKD
ROOT
HETATM    1  C   UNL     1     -11.917  13.833  68.860  1.00  0.00    -0.359 C  
HETATM    2  O   UNL     1     -12.269  14.288  67.551  1.00  0.00    -0.354 OA 
ENDROOT
BRANCH   2   3
HETATM    3  C   UNL     1     -11.207  14.477  66.730  1.00  0.00    -0.334 C  
HETATM    4  O   UNL     1     -10.328  15.311  66.878  1.00  0.00    -0.267 OA 
BRANCH   3   5
HETATM    5  C   UNL     1     -11.231  13.513  65.609  1.00  0.00    -0.304 A  
HETATM    6  C   UNL     1     -10.191  12.631  65.353  1.00  0.00    -0.284 A  
HETATM    7  N   UNL     1     -10.184  11.746  64.323  1.00  0.00    -0.282 NA 
HETATM    8  C   UNL     1     -11.268  11.744  63.515  1.00  0.00    -0.408 A  
HETATM    9  C   UNL     1     -12.358  12.582  63.690  1.00  0.00    -0.618 A  
HETATM   10  C   UNL     1     -12.338  13.479  64.756  1.00  0.00    -0.435 A  
ENDBRANCH   3   5
ENDBRANCH   2   3
TORSDOF 2
ENDMDL
MODEL       63
REMARK 921   NORMALIZED FREE ENERGY PREDICTED BY IDOCK:   -3.26 KCAL/MOL
REMARK 922        TOTAL FREE ENERGY PREDICTED BY IDOCK:   -3.71 KCAL/MOL
REMARK 923 INTER-LIGAND FREE ENERGY PREDICTED BY IDOCK:   -3.64 KCAL/MOL
REMARK 924 INTRA-LIGAND FREE ENERGY PREDICTED BY IDOCK:   -0.08 KCAL/MOL
REMARK 927      BINDING AFFINITY PREDICTED BY RF-SCORE:    0.00 PKD
ROOT
HETATM    1  C   UNL     1     -13.885   9.190  72.296  1.00  0.00    -0.463 C  
HETATM    2  O   UNL     1     -12.811   9.816  71.589  1.00  0.00    -0.356 OA 
ENDROOT
BRANCH   2   3
HETATM    3  C   UNL     1     -12.918  11.164  71.506  1.00  0.00    -0.437 C  
HETATM    4  O   UNL     1     -13.357  11.902  72.374  1.00  0.00    -0.370 OA 
BRANCH   3   5
HETATM    5  C   UNL     1     -12.408  11.653  70.206  1.00  0.00    -0.339 A  
HETATM    6  C   UNL     1     -12.102  10.803  69.152  1.00  0.00    -0.156 A  
HETATM    7  N   UNL     1     -11.622  11.226  67.954  1.00  0.00    -0.517 NA 
HETATM    8  C   UNL     1     -11.441  12.558  67.806  1.00  0.00    -0.321 A  
HETATM    9  C   UNL     1     -11.721  13.486  68.797  1.00  0.00    -0.373 A  
HETATM   10  C   UNL     1     -12.215  13.023  70.016  1.00  0.00    -0.306 A  
ENDBRANCH   3   5
ENDBRANCH   2   3
TORSDOF 2
ENDMDL
MODEL       64
REMARK 921   NORMALIZED FREE ENERGY PREDICTED BY IDOCK:   -3.26 KCAL/MOL
REMARK 922        TOTAL FREE ENERGY PREDICTED BY IDOCK:   -3.71 KCAL/MOL
REMARK 923 INTER-LIGAND FREE ENERGY PREDICTED BY IDOCK:   -3.65 KCAL/MOL
REMARK 924 INTRA-LIGAND FREE ENERGY PREDICTED BY IDOCK:   -0.06 KCAL/MOL
REMARK 927      BINDING AFFINITY PREDICTED BY RF-SCORE:    0.00 PKD
ROOT
HETATM    1  C   UNL     1     -10.160  20.067  66.497  1.00  0.00    -0.482 C  
HETATM    2  O   UNL     1     -10.395  18.991  67.407  1.00  0.00    -0.370 OA 
ENDROOT
BRANCH   2   3
HETATM    3  C   UNL     1     -10.260  17.761  66.852  1.00  0.00    -0.346 C  
HETATM    4  O   UNL     1      -9.870  17.526  65.720  1.00  0.00    -0.537 OA 
BRANCH   3   5
HETATM    5  C   UNL     1     -10.638  16.705  67.816  1.00  0.00    -0.342 A  
HETATM    6  C   UNL     1     -10.619  16.900  69.191  1.00  0.00    -0.330 A  
HETATM    7  N   UNL     1     -10.949  15.943  70.096  1.00  0.00    -0.336 NA 
HETATM    8  C   UNL     1     -11.315  14.739  69.603  1.00  0.00    -0.283 A  
HETATM    9  C   UNL     1     -11.371  14.448  68.249  1.00  0.00    -0.311 A  
HETATM   10  C   UNL     1     -11.028  15.450  67.343  1.00  0.00    -0.312 A  
ENDBRANCH   3   5
ENDBRANCH   2   3
TORSDOF 2
ENDMDL
MODEL       65
REMARK 921   NORMALIZED FREE ENERGY PREDICTED BY IDOCK:   -3.26 KCAL/MOL
REMARK 922        TOTAL FREE ENERGY PREDICTED BY IDOCK:   -3.71 KCAL/MOL
REMARK 923 INTER-LIGAND FREE ENERGY PREDICTED BY IDOCK:   -3.64 KCAL/MOL
REMARK 924 INTRA-LIGAND FREE ENERGY PREDICTED BY IDOCK:   -0.07 KCAL/MOL
REMARK 927      BINDING AFFINITY PREDICTED BY RF-SCORE:    0.00 PKD
ROOT
HETATM    1  C   UNL     1     -10.323   5.484  69.251  1.00  0.00    -0.265 C  
HETATM    2  O   UNL     1     -11.463   6.210  69.718  1.00  0.00    -0.433 OA 
ENDROOT
BRANCH   2   3
HETATM    3  C   UNL     1     -11.397   6.557  71.026  1.00  0.00    -0.323 C  
HETATM    4  O   UNL     1     -10.947   5.869  71.928  1.00  0.00    -0.248 OA 
BRANCH   3   5
HETATM    5  C   UNL     1     -11.934   7.920  71.236  1.00  0.00    -0.321 A  
HETATM    6  C   UNL     1     -13.124   8.163  71.907  1.00  0.00    -0.327 A  
HETATM    7  N   UNL     1     -13.644   9.402  72.101  1.00  0.00    -0.450 NA 
HETATM    8  C   UNL     1     -12.940  10.443  71.602  1.00  0.00    -0.475 A  
HETATM    9  C   UNL     1     -11.741  10.304  70.921  1.00  0.00    -0.472 A  
HETATM   10  C   UNL     1     -11.230   9.020  70.738  1.00  0.00    -0.329 A  
ENDBRANCH   3   5
ENDBRANCH   2   3
TORSDOF 2
ENDMDL
MODEL       66
REMARK 921   NORMALIZED FREE ENERGY PREDICTED BY IDOCK:   -3.26 KCAL/MOL
REMARK 922        TOTAL FREE ENERGY PREDICTED BY IDOCK:   -3.71 KCAL/MOL
REMARK 923 INTER-LIGAND FREE ENERGY PREDICTED BY IDOCK:   -3.65 KCAL/MOL
REMARK 924 INTRA-LIGAND FREE ENERGY PREDICTED BY IDOCK:   -0.06 KCAL/MOL
REMARK 927      BINDING AFFINITY PREDICTED BY RF-SCORE:    0.00 PKD
ROOT
HETATM    1  C   UNL     1     -10.529  10.562  67.151  1.00  0.00    -0.249 C  
HETATM    2  O   UNL     1     -10.342  11.955  66.890  1.00  0.00    -0.206 OA 
ENDROOT
BRANCH   2   3
HETATM    3  C   UNL     1     -11.498  12.651  66.762  1.00  0.00    -0.351 C  
HETATM    4  O   UNL     1     -12.365  12.451  65.927  1.00  0.00    -0.638 OA 
BRANCH   3   5
HETATM    5  C   UNL     1     -11.596  13.702  67.798  1.00  0.00    -0.373 A  
HETATM    6  C   UNL     1     -11.304  15.036  67.546  1.00  0.00    -0.333 A  
HETATM    7  N   UNL     1     -11.375  16.016  68.482  1.00  0.00    -0.378 NA 
HETATM    8  C   UNL     1     -11.754  15.645  69.726  1.00  0.00    -0.357 A  
HETATM    9  C   UNL     1     -12.070  14.341  70.076  1.00  0.00    -0.400 A  
HETATM   10  C   UNL     1     -11.990  13.356  69.093  1.00  0.00    -0.363 A  
ENDBRANCH   3   5
ENDBRANCH   2   3
TORSDOF 2
ENDMDL
MODEL       67
REMARK 921   NORMALIZED FREE ENERGY PREDICTED BY IDOCK:   -3.25 KCAL/MOL
REMARK 922        TOTAL FREE ENERGY PREDICTED BY IDOCK:   -3.70 KCAL/MOL
REMARK 923 INTER-LIGAND FREE ENERGY PREDICTED BY IDOCK:   -3.62 KCAL/MOL
REMARK 924 INTRA-LIGAND FREE ENERGY PREDICTED BY IDOCK:   -0.08 KCAL/MOL
REMARK 927      BINDING AFFINITY PREDICTED BY RF-SCORE:    0.00 PKD
ROOT
HETATM    1  C   UNL     1     -12.147  16.180  71.733  1.00  0.00    -0.451 C  
HETATM    2  O   UNL     1     -12.918  15.398  70.819  1.00  0.00    -0.448 OA 
ENDROOT
BRANCH   2   3
HETATM    3  C   UNL     1     -12.792  14.060  70.996  1.00  0.00    -0.340 C  
HETATM    4  O   UNL     1     -13.064  13.443  72.013  1.00  0.00    -0.373 OA 
BRANCH   3   5
HETATM    5  C   UNL     1     -12.286  13.413  69.766  1.00  0.00    -0.307 A  
HETATM    6  C   UNL     1     -12.056  14.112  68.589  1.00  0.00    -0.285 A  
HETATM    7  N   UNL     1     -11.603  13.538  67.444  1.00  0.00    -0.335 NA 
HETATM    8  C   UNL     1     -11.370  12.207  67.481  1.00  0.00    -0.326 A  
HETATM    9  C   UNL     1     -11.564  11.424  68.607  1.00  0.00    -0.384 A  
HETATM   10  C   UNL     1     -12.028  12.040  69.768  1.00  0.00    -0.370 A  
ENDBRANCH   3   5
ENDBRANCH   2   3
TORSDOF 2
ENDMDL
MODEL       68
REMARK 921   NORMALIZED FREE ENERGY PREDICTED BY IDOCK:   -3.25 KCAL/MOL
REMARK 922        TOTAL FREE ENERGY PREDICTED BY IDOCK:   -3.70 KCAL/MOL
REMARK 923 INTER-LIGAND FREE ENERGY PREDICTED BY IDOCK:   -3.62 KCAL/MOL
REMARK 924 INTRA-LIGAND FREE ENERGY PREDICTED BY IDOCK:   -0.07 KCAL/MOL
REMARK 927      BINDING AFFINITY PREDICTED BY RF-SCORE:    0.00 PKD
ROOT
HETATM    1  C   UNL     1     -11.903  14.336  68.271  1.00  0.00    -0.335 C  
HETATM    2  O   UNL     1     -11.997  15.753  68.107  1.00  0.00    -0.164 OA 
ENDROOT
BRANCH   2   3
HETATM    3  C   UNL     1     -11.016  16.446  68.734  1.00  0.00    -0.344 C  
HETATM    4  O   UNL     1     -10.579  16.217  69.851  1.00  0.00    -0.306 OA 
BRANCH   3   5
HETATM    5  C   UNL     1     -10.508  17.536  67.873  1.00  0.00    -0.384 A  
HETATM    6  C   UNL     1     -10.276  17.374  66.514  1.00  0.00    -0.329 A  
HETATM    7  N   UNL     1      -9.799  18.355  65.705  1.00  0.00    -0.466 NA 
HETATM    8  C   UNL     1      -9.545  19.551  66.283  1.00  0.00    -0.392 A  
HETATM    9  C   UNL     1      -9.748  19.813  67.629  1.00  0.00    -0.490 A  
HETATM   10  C   UNL     1     -10.240  18.788  68.434  1.00  0.00    -0.413 A  
ENDBRANCH   3   5
ENDBRANCH   2   3
TORSDOF 2
ENDMDL
MODEL       69
REMARK 921   NORMALIZED FREE ENERGY PREDICTED BY IDOCK:   -3.24 KCAL/MOL
REMARK 922        TOTAL FREE ENERGY PREDICTED BY IDOCK:   -3.69 KCAL/MOL
REMARK 923 INTER-LIGAND FREE ENERGY PREDICTED BY IDOCK:   -3.62 KCAL/MOL
REMARK 924 INTRA-LIGAND FREE ENERGY PREDICTED BY IDOCK:   -0.07 KCAL/MOL
REMARK 927      BINDING AFFINITY PREDICTED BY RF-SCORE:    0.00 PKD
ROOT
HETATM    1  C   UNL     1     -11.169   8.645  71.732  1.00  0.00    -0.326 C  
HETATM    2  O   UNL     1     -11.106   9.882  71.018  1.00  0.00    -0.337 OA 
ENDROOT
BRANCH   2   3
HETATM    3  C   UNL     1     -12.175  10.690  71.220  1.00  0.00    -0.341 C  
HETATM    4  O   UNL     1     -13.072  10.502  72.026  1.00  0.00    -0.467 OA 
BRANCH   3   5
HETATM    5  C   UNL     1     -12.116  11.872  70.333  1.00  0.00    -0.421 A  
HETATM    6  C   UNL     1     -12.519  13.137  70.738  1.00  0.00    -0.308 A  
HETATM    7  N   UNL     1     -12.486  14.234  69.939  1.00  0.00    -0.318 NA 
HETATM    8  C   UNL     1     -12.027  14.056  68.679  1.00  0.00    -0.354 A  
HETATM    9  C   UNL     1     -11.598  12.836  68.183  1.00  0.00    -0.380 A  
HETATM   10  C   UNL     1     -11.642  11.727  69.026  1.00  0.00    -0.372 A  
ENDBRANCH   3   5
ENDBRANCH   2   3
TORSDOF 2
ENDMDL
MODEL       70
REMARK 921   NORMALIZED FREE ENERGY PREDICTED BY IDOCK:   -3.21 KCAL/MOL
REMARK 922        TOTAL FREE ENERGY PREDICTED BY IDOCK:   -3.65 KCAL/MOL
REMARK 923 INTER-LIGAND FREE ENERGY PREDICTED BY IDOCK:   -3.59 KCAL/MOL
REMARK 924 INTRA-LIGAND FREE ENERGY PREDICTED BY IDOCK:   -0.06 KCAL/MOL
REMARK 927      BINDING AFFINITY PREDICTED BY RF-SCORE:    0.00 PKD
ROOT
HETATM    1  C   UNL     1     -11.628  11.950  63.459  1.00  0.00    -0.441 C  
HETATM    2  O   UNL     1     -11.089  12.671  64.569  1.00  0.00    -0.298 OA 
ENDROOT
BRANCH   2   3
HETATM    3  C   UNL     1     -11.935  13.592  65.090  1.00  0.00    -0.372 C  
HETATM    4  O   UNL     1     -12.838  14.155  64.492  1.00  0.00    -0.642 OA 
BRANCH   3   5
HETATM    5  C   UNL     1     -11.636  13.832  66.519  1.00  0.00    -0.386 A  
HETATM    6  C   UNL     1     -11.687  12.827  67.476  1.00  0.00    -0.364 A  
HETATM    7  N   UNL     1     -11.430  13.025  68.795  1.00  0.00    -0.276 NA 
HETATM    8  C   UNL     1     -11.105  14.282  69.171  1.00  0.00    -0.262 A  
HETATM    9  C   UNL     1     -11.022  15.350  68.291  1.00  0.00    -0.288 A  
HETATM   10  C   UNL     1     -11.291  15.118  66.943  1.00  0.00    -0.264 A  
ENDBRANCH   3   5
ENDBRANCH   2   3
TORSDOF 2
ENDMDL
MODEL       71
REMARK 921   NORMALIZED FREE ENERGY PREDICTED BY IDOCK:   -3.20 KCAL/MOL
REMARK 922        TOTAL FREE ENERGY PREDICTED BY IDOCK:   -3.64 KCAL/MOL
REMARK 923 INTER-LIGAND FREE ENERGY PREDICTED BY IDOCK:   -3.59 KCAL/MOL
REMARK 924 INTRA-LIGAND FREE ENERGY PREDICTED BY IDOCK:   -0.05 KCAL/MOL
REMARK 927      BINDING AFFINITY PREDICTED BY RF-SCORE:    0.00 PKD
ROOT
HETATM    1  C   UNL     1      -6.261  20.049  70.561  1.00  0.00    -0.309 C  
HETATM    2  O   UNL     1      -6.673  20.007  69.193  1.00  0.00    -0.319 OA 
ENDROOT
BRANCH   2   3
HETATM    3  C   UNL     1      -7.271  18.845  68.833  1.00  0.00    -0.316 C  
HETATM    4  O   UNL     1      -6.981  17.733  69.244  1.00  0.00    -0.238 OA 
BRANCH   3   5
HETATM    5  C   UNL     1      -8.362  19.093  67.866  1.00  0.00    -0.333 A  
HETATM    6  C   UNL     1      -8.131  19.505  66.560  1.00  0.00    -0.310 A  
HETATM    7  N   UNL     1      -9.116  19.751  65.659  1.00  0.00    -0.255 NA 
HETATM    8  C   UNL     1     -10.387  19.575  66.082  1.00  0.00    -0.520 A  
HETATM    9  C   UNL     1     -10.721  19.163  67.363  1.00  0.00    -0.578 A  
HETATM   10  C   UNL     1      -9.689  18.916  68.267  1.00  0.00    -0.412 A  
ENDBRANCH   3   5
ENDBRANCH   2   3
TORSDOF 2
ENDMDL
MODEL       72
REMARK 921   NORMALIZED FREE ENERGY PREDICTED BY IDOCK:   -3.19 KCAL/MOL
REMARK 922        TOTAL FREE ENERGY PREDICTED BY IDOCK:   -3.64 KCAL/MOL
REMARK 923 INTER-LIGAND FREE ENERGY PREDICTED BY IDOCK:   -3.58 KCAL/MOL
REMARK 924 INTRA-LIGAND FREE ENERGY PREDICTED BY IDOCK:   -0.06 KCAL/MOL
REMARK 927      BINDING AFFINITY PREDICTED BY RF-SCORE:    0.00 PKD
ROOT
HETATM    1  C   UNL     1     -13.046   9.988  71.791  1.00  0.00    -0.457 C  
HETATM    2  O   UNL     1     -12.397   8.796  72.240  1.00  0.00    -0.373 OA 
ENDROOT
BRANCH   2   3
HETATM    3  C   UNL     1     -12.977   7.653  71.799  1.00  0.00    -0.328 C  
HETATM    4  O   UNL     1     -14.177   7.451  71.701  1.00  0.00    -0.425 OA 
BRANCH   3   5
HETATM    5  C   UNL     1     -11.952   6.656  71.421  1.00  0.00    -0.405 A  
HETATM    6  C   UNL     1     -11.377   5.785  72.336  1.00  0.00    -0.294 A  
HETATM    7  N   UNL     1     -10.426   4.870  72.016  1.00  0.00    -0.199 NA 
HETATM    8  C   UNL     1     -10.036   4.824  70.723  1.00  0.00    -0.221 A  
HETATM    9  C   UNL     1     -10.552   5.647  69.735  1.00  0.00    -0.400 A  
HETATM   10  C   UNL     1     -11.528   6.576  70.092  1.00  0.00    -0.477 A  
ENDBRANCH   3   5
ENDBRANCH   2   3
TORSDOF 2
ENDMDL
MODEL       73
REMARK 921   NORMALIZED FREE ENERGY PREDICTED BY IDOCK:   -3.19 KCAL/MOL
REMARK 922        TOTAL FREE ENERGY PREDICTED BY IDOCK:   -3.63 KCAL/MOL
REMARK 923 INTER-LIGAND FREE ENERGY PREDICTED BY IDOCK:   -3.55 KCAL/MOL
REMARK 924 INTRA-LIGAND FREE ENERGY PREDICTED BY IDOCK:   -0.08 KCAL/MOL
REMARK 927      BINDING AFFINITY PREDICTED BY RF-SCORE:    0.00 PKD
ROOT
HETATM    1  C   UNL     1     -11.853  12.310  68.030  1.00  0.00    -0.305 C  
HETATM    2  O   UNL     1     -12.051  13.718  67.882  1.00  0.00    -0.365 OA 
ENDROOT
BRANCH   2   3
HETATM    3  C   UNL     1     -11.747  14.191  66.649  1.00  0.00    -0.403 C  
HETATM    4  O   UNL     1     -12.085  13.692  65.587  1.00  0.00    -0.374 OA 
BRANCH   3   5
HETATM    5  C   UNL     1     -10.948  15.431  66.744  1.00  0.00    -0.282 A  
HETATM    6  C   UNL     1     -10.122  15.874  65.719  1.00  0.00    -0.361 A  
HETATM    7  N   UNL     1      -9.369  17.002  65.787  1.00  0.00    -0.528 NA 
HETATM    8  C   UNL     1      -9.448  17.718  66.931  1.00  0.00    -0.271 A  
HETATM    9  C   UNL     1     -10.245  17.362  68.008  1.00  0.00    -0.345 A  
HETATM   10  C   UNL     1     -11.008  16.200  67.909  1.00  0.00    -0.318 A  
ENDBRANCH   3   5
ENDBRANCH   2   3
TORSDOF 2
ENDMDL
MODEL       74
REMARK 921   NORMALIZED FREE ENERGY PREDICTED BY IDOCK:   -3.19 KCAL/MOL
REMARK 922        TOTAL FREE ENERGY PREDICTED BY IDOCK:   -3.63 KCAL/MOL
REMARK 923 INTER-LIGAND FREE ENERGY PREDICTED BY IDOCK:   -3.56 KCAL/MOL
REMARK 924 INTRA-LIGAND FREE ENERGY PREDICTED BY IDOCK:   -0.07 KCAL/MOL
REMARK 927      BINDING AFFINITY PREDICTED BY RF-SCORE:    0.00 PKD
ROOT
HETATM    1  C   UNL     1      -9.055  10.167  62.369  1.00  0.00    -0.287 C  
HETATM    2  O   UNL     1     -10.151  10.682  63.129  1.00  0.00    -0.297 OA 
ENDROOT
BRANCH   2   3
HETATM    3  C   UNL     1      -9.814  11.088  64.377  1.00  0.00    -0.298 C  
HETATM    4  O   UNL     1      -8.867  10.681  65.031  1.00  0.00    -0.192 OA 
BRANCH   3   5
HETATM    5  C   UNL     1     -10.748  12.128  64.861  1.00  0.00    -0.336 A  
HETATM    6  C   UNL     1     -11.181  12.194  66.178  1.00  0.00    -0.338 A  
HETATM    7  N   UNL     1     -12.047  13.131  66.644  1.00  0.00    -0.378 NA 
HETATM    8  C   UNL     1     -12.497  14.042  65.752  1.00  0.00    -0.494 A  
HETATM    9  C   UNL     1     -12.120  14.062  64.418  1.00  0.00    -0.486 A  
HETATM   10  C   UNL     1     -11.229  13.089  63.968  1.00  0.00    -0.448 A  
ENDBRANCH   3   5
ENDBRANCH   2   3
TORSDOF 2
ENDMDL
MODEL       75
REMARK 921   NORMALIZED FREE ENERGY PREDICTED BY IDOCK:   -3.18 KCAL/MOL
REMARK 922        TOTAL FREE ENERGY PREDICTED BY IDOCK:   -3.62 KCAL/MOL
REMARK 923 INTER-LIGAND FREE ENERGY PREDICTED BY IDOCK:   -3.52 KCAL/MOL
REMARK 924 INTRA-LIGAND FREE ENERGY PREDICTED BY IDOCK:   -0.10 KCAL/MOL
REMARK 927      BINDING AFFINITY PREDICTED BY RF-SCORE:    0.00 PKD
ROOT
HETATM    1  C   UNL     1      -8.070  18.549  68.476  1.00  0.00    -0.330 C  
HETATM    2  O   UNL     1      -9.457  18.633  68.809  1.00  0.00    -0.340 OA 
ENDROOT
BRANCH   2   3
HETATM    3  C   UNL     1     -10.280  18.675  67.733  1.00  0.00    -0.386 C  
HETATM    4  O   UNL     1     -10.724  19.684  67.210  1.00  0.00    -0.474 OA 
BRANCH   3   5
HETATM    5  C   UNL     1     -10.573  17.310  67.242  1.00  0.00    -0.283 A  
HETATM    6  C   UNL     1     -11.094  16.314  68.056  1.00  0.00    -0.299 A  
HETATM    7  N   UNL     1     -11.358  15.051  67.632  1.00  0.00    -0.327 NA 
HETATM    8  C   UNL     1     -11.091  14.776  66.336  1.00  0.00    -0.340 A  
HETATM    9  C   UNL     1     -10.575  15.702  65.444  1.00  0.00    -0.436 A  
HETATM   10  C   UNL     1     -10.314  16.991  65.907  1.00  0.00    -0.310 A  
ENDBRANCH   3   5
ENDBRANCH   2   3
TORSDOF 2
ENDMDL
MODEL       76
REMARK 921   NORMALIZED FREE ENERGY PREDICTED BY IDOCK:   -3.16 KCAL/MOL
REMARK 922        TOTAL FREE ENERGY PREDICTED BY IDOCK:   -3.60 KCAL/MOL
REMARK 923 INTER-LIGAND FREE ENERGY PREDICTED BY IDOCK:   -3.55 KCAL/MOL
REMARK 924 INTRA-LIGAND FREE ENERGY PREDICTED BY IDOCK:   -0.04 KCAL/MOL
REMARK 927      BINDING AFFINITY PREDICTED BY RF-SCORE:    0.00 PKD
ROOT
HETATM    1  C   UNL     1     -12.059  15.881  71.993  1.00  0.00    -0.506 C  
HETATM    2  O   UNL     1     -12.700  15.611  70.744  1.00  0.00    -0.458 OA 
ENDROOT
BRANCH   2   3
HETATM    3  C   UNL     1     -12.174  14.559  70.071  1.00  0.00    -0.342 C  
HETATM    4  O   UNL     1     -12.051  13.423  70.502  1.00  0.00    -0.349 OA 
BRANCH   3   5
HETATM    5  C   UNL     1     -11.771  14.957  68.705  1.00  0.00    -0.358 A  
HETATM    6  C   UNL     1     -12.030  14.175  67.587  1.00  0.00    -0.370 A  
HETATM    7  N   UNL     1     -11.659  14.513  66.325  1.00  0.00    -0.363 NA 
HETATM    8  C   UNL     1     -11.002  15.685  66.176  1.00  0.00    -0.206 A  
HETATM    9  C   UNL     1     -10.701  16.536  67.228  1.00  0.00    -0.243 A  
HETATM   10  C   UNL     1     -11.095  16.164  68.512  1.00  0.00    -0.357 A  
ENDBRANCH   3   5
ENDBRANCH   2   3
TORSDOF 2
ENDMDL
MODEL       77
REMARK 921   NORMALIZED FREE ENERGY PREDICTED BY IDOCK:   -3.16 KCAL/MOL
REMARK 922        TOTAL FREE ENERGY PREDICTED BY IDOCK:   -3.60 KCAL/MOL
REMARK 923 INTER-LIGAND FREE ENERGY PREDICTED BY IDOCK:   -3.51 KCAL/MOL
REMARK 924 INTRA-LIGAND FREE ENERGY PREDICTED BY IDOCK:   -0.09 KCAL/MOL
REMARK 927      BINDING AFFINITY PREDICTED BY RF-SCORE:    0.00 PKD
ROOT
HETATM    1  C   UNL     1     -10.694  14.391  68.234  1.00  0.00    -0.242 C  
HETATM    2  O   UNL     1     -11.867  13.653  68.581  1.00  0.00    -0.337 OA 
ENDROOT
BRANCH   2   3
HETATM    3  C   UNL     1     -11.886  12.388  68.094  1.00  0.00    -0.315 C  
HETATM    4  O   UNL     1     -12.149  12.067  66.946  1.00  0.00    -0.608 OA 
BRANCH   3   5
HETATM    5  C   UNL     1     -11.523  11.414  69.147  1.00  0.00    -0.365 A  
HETATM    6  C   UNL     1     -10.324  10.714  69.142  1.00  0.00    -0.221 A  
HETATM    7  N   UNL     1      -9.974   9.806  70.089  1.00  0.00    -0.255 NA 
HETATM    8  C   UNL     1     -10.862   9.591  71.085  1.00  0.00    -0.355 A  
HETATM    9  C   UNL     1     -12.082  10.242  71.180  1.00  0.00    -0.494 A  
HETATM   10  C   UNL     1     -12.415  11.170  70.195  1.00  0.00    -0.316 A  
ENDBRANCH   3   5
ENDBRANCH   2   3
TORSDOF 2
ENDMDL
MODEL       78
REMARK 921   NORMALIZED FREE ENERGY PREDICTED BY IDOCK:   -3.15 KCAL/MOL
REMARK 922        TOTAL FREE ENERGY PREDICTED BY IDOCK:   -3.59 KCAL/MOL
REMARK 923 INTER-LIGAND FREE ENERGY PREDICTED BY IDOCK:   -3.52 KCAL/MOL
REMARK 924 INTRA-LIGAND FREE ENERGY PREDICTED BY IDOCK:   -0.07 KCAL/MOL
REMARK 927      BINDING AFFINITY PREDICTED BY RF-SCORE:    0.00 PKD
ROOT
HETATM    1  C   UNL     1     -10.565  19.751  66.477  1.00  0.00    -0.467 C  
HETATM    2  O   UNL     1     -11.153  18.864  67.431  1.00  0.00    -0.359 OA 
ENDROOT
BRANCH   2   3
HETATM    3  C   UNL     1     -10.294  17.941  67.928  1.00  0.00    -0.389 C  
HETATM    4  O   UNL     1      -9.262  18.178  68.536  1.00  0.00    -0.306 OA 
BRANCH   3   5
HETATM    5  C   UNL     1     -10.778  16.571  67.655  1.00  0.00    -0.311 A  
HETATM    6  C   UNL     1     -10.505  15.898  66.472  1.00  0.00    -0.304 A  
HETATM    7  N   UNL     1     -10.948  14.646  66.193  1.00  0.00    -0.323 NA 
HETATM    8  C   UNL     1     -11.697  14.040  67.141  1.00  0.00    -0.393 A  
HETATM    9  C   UNL     1     -12.021  14.625  68.355  1.00  0.00    -0.289 A  
HETATM   10  C   UNL     1     -11.551  15.911  68.615  1.00  0.00    -0.383 A  
ENDBRANCH   3   5
ENDBRANCH   2   3
TORSDOF 2
ENDMDL
MODEL       79
REMARK 921   NORMALIZED FREE ENERGY PREDICTED BY IDOCK:   -3.15 KCAL/MOL
REMARK 922        TOTAL FREE ENERGY PREDICTED BY IDOCK:   -3.59 KCAL/MOL
REMARK 923 INTER-LIGAND FREE ENERGY PREDICTED BY IDOCK:   -3.52 KCAL/MOL
REMARK 924 INTRA-LIGAND FREE ENERGY PREDICTED BY IDOCK:   -0.06 KCAL/MOL
REMARK 927      BINDING AFFINITY PREDICTED BY RF-SCORE:    0.00 PKD
ROOT
HETATM    1  C   UNL     1      -9.831  10.822  67.936  1.00  0.00    -0.167 C  
HETATM    2  O   UNL     1     -10.282  11.582  69.060  1.00  0.00    -0.181 OA 
ENDROOT
BRANCH   2   3
HETATM    3  C   UNL     1     -11.350  12.373  68.797  1.00  0.00    -0.293 C  
HETATM    4  O   UNL     1     -11.665  12.812  67.702  1.00  0.00    -0.339 OA 
BRANCH   3   5
HETATM    5  C   UNL     1     -12.124  12.638  70.030  1.00  0.00    -0.339 A  
HETATM    6  C   UNL     1     -12.525  11.630  70.896  1.00  0.00    -0.341 A  
HETATM    7  N   UNL     1     -13.246  11.846  72.026  1.00  0.00    -0.456 NA 
HETATM    8  C   UNL     1     -13.579  13.128  72.301  1.00  0.00    -0.581 A  
HETATM    9  C   UNL     1     -13.222  14.202  71.502  1.00  0.00    -0.423 A  
HETATM   10  C   UNL     1     -12.480  13.951  70.349  1.00  0.00    -0.404 A  
ENDBRANCH   3   5
ENDBRANCH   2   3
TORSDOF 2
ENDMDL
MODEL       80
REMARK 921   NORMALIZED FREE ENERGY PREDICTED BY IDOCK:   -3.13 KCAL/MOL
REMARK 922        TOTAL FREE ENERGY PREDICTED BY IDOCK:   -3.57 KCAL/MOL
REMARK 923 INTER-LIGAND FREE ENERGY PREDICTED BY IDOCK:   -3.50 KCAL/MOL
REMARK 924 INTRA-LIGAND FREE ENERGY PREDICTED BY IDOCK:   -0.07 KCAL/MOL
REMARK 927      BINDING AFFINITY PREDICTED BY RF-SCORE:    0.00 PKD
ROOT
HETATM    1  C   UNL     1     -10.943   5.324  72.645  1.00  0.00    -0.260 C  
HETATM    2  O   UNL     1     -11.979   6.251  72.311  1.00  0.00    -0.312 OA 
ENDROOT
BRANCH   2   3
HETATM    3  C   UNL     1     -11.857   6.789  71.073  1.00  0.00    -0.376 C  
HETATM    4  O   UNL     1     -11.587   6.179  70.050  1.00  0.00    -0.392 OA 
BRANCH   3   5
HETATM    5  C   UNL     1     -12.116   8.245  71.105  1.00  0.00    -0.274 A  
HETATM    6  C   UNL     1     -11.377   9.156  70.363  1.00  0.00    -0.224 A  
HETATM    7  N   UNL     1     -11.587  10.497  70.385  1.00  0.00    -0.319 NA 
HETATM    8  C   UNL     1     -12.581  10.945  71.184  1.00  0.00    -0.428 A  
HETATM    9  C   UNL     1     -13.377  10.116  71.959  1.00  0.00    -0.492 A  
HETATM   10  C   UNL     1     -13.140   8.743  71.915  1.00  0.00    -0.420 A  
ENDBRANCH   3   5
ENDBRANCH   2   3
TORSDOF 2
ENDMDL
MODEL       81
REMARK 921   NORMALIZED FREE ENERGY PREDICTED BY IDOCK:   -3.13 KCAL/MOL
REMARK 922        TOTAL FREE ENERGY PREDICTED BY IDOCK:   -3.56 KCAL/MOL
REMARK 923 INTER-LIGAND FREE ENERGY PREDICTED BY IDOCK:   -3.46 KCAL/MOL
REMARK 924 INTRA-LIGAND FREE ENERGY PREDICTED BY IDOCK:   -0.10 KCAL/MOL
REMARK 927      BINDING AFFINITY PREDICTED BY RF-SCORE:    0.00 PKD
ROOT
HETATM    1  C   UNL     1      -9.202  11.679  67.575  1.00  0.00    -0.172 C  
HETATM    2  O   UNL     1      -9.477  13.025  67.969  1.00  0.00    -0.204 OA 
ENDROOT
BRANCH   2   3
HETATM    3  C   UNL     1     -10.798  13.326  68.019  1.00  0.00    -0.243 C  
HETATM    4  O   UNL     1     -11.513  13.246  69.004  1.00  0.00    -0.265 OA 
BRANCH   3   5
HETATM    5  C   UNL     1     -11.281  13.793  66.701  1.00  0.00    -0.327 A  
HETATM    6  C   UNL     1     -12.371  13.227  66.056  1.00  0.00    -0.386 A  
HETATM    7  N   UNL     1     -12.825  13.630  64.841  1.00  0.00    -0.720 NA 
HETATM    8  C   UNL     1     -12.159  14.645  64.248  1.00  0.00    -0.415 A  
HETATM    9  C   UNL     1     -11.063  15.279  64.813  1.00  0.00    -0.407 A  
HETATM   10  C   UNL     1     -10.620  14.845  66.061  1.00  0.00    -0.321 A  
ENDBRANCH   3   5
ENDBRANCH   2   3
TORSDOF 2
ENDMDL
MODEL       82
REMARK 921   NORMALIZED FREE ENERGY PREDICTED BY IDOCK:   -3.12 KCAL/MOL
REMARK 922        TOTAL FREE ENERGY PREDICTED BY IDOCK:   -3.55 KCAL/MOL
REMARK 923 INTER-LIGAND FREE ENERGY PREDICTED BY IDOCK:   -3.50 KCAL/MOL
REMARK 924 INTRA-LIGAND FREE ENERGY PREDICTED BY IDOCK:   -0.06 KCAL/MOL
REMARK 927      BINDING AFFINITY PREDICTED BY RF-SCORE:    0.00 PKD
ROOT
HETATM    1  C   UNL     1     -11.319  12.585  68.922  1.00  0.00    -0.297 C  
HETATM    2  O   UNL     1     -11.915  11.949  67.789  1.00  0.00    -0.559 OA 
ENDROOT
BRANCH   2   3
HETATM    3  C   UNL     1     -11.158  10.964  67.249  1.00  0.00    -0.283 C  
HETATM    4  O   UNL     1     -10.817   9.934  67.808  1.00  0.00    -0.268 OA 
BRANCH   3   5
HETATM    5  C   UNL     1     -10.796  11.285  65.851  1.00  0.00    -0.264 A  
HETATM    6  C   UNL     1     -10.035  10.438  65.057  1.00  0.00    -0.330 A  
HETATM    7  N   UNL     1      -9.680  10.717  63.777  1.00  0.00    -0.302 NA 
HETATM    8  C   UNL     1     -10.107  11.894  63.269  1.00  0.00    -0.396 A  
HETATM    9  C   UNL     1     -10.874  12.805  63.979  1.00  0.00    -0.458 A  
HETATM   10  C   UNL     1     -11.225  12.492  65.291  1.00  0.00    -0.341 A  
ENDBRANCH   3   5
ENDBRANCH   2   3
TORSDOF 2
ENDMDL
MODEL       83
REMARK 921   NORMALIZED FREE ENERGY PREDICTED BY IDOCK:   -3.12 KCAL/MOL
REMARK 922        TOTAL FREE ENERGY PREDICTED BY IDOCK:   -3.55 KCAL/MOL
REMARK 923 INTER-LIGAND FREE ENERGY PREDICTED BY IDOCK:   -3.46 KCAL/MOL
REMARK 924 INTRA-LIGAND FREE ENERGY PREDICTED BY IDOCK:   -0.09 KCAL/MOL
REMARK 927      BINDING AFFINITY PREDICTED BY RF-SCORE:    0.00 PKD
ROOT
HETATM    1  C   UNL     1      -9.866   7.296  72.817  1.00  0.00    -0.177 C  
HETATM    2  O   UNL     1     -11.290   7.183  72.759  1.00  0.00    -0.284 OA 
ENDROOT
BRANCH   2   3
HETATM    3  C   UNL     1     -11.812   7.425  71.532  1.00  0.00    -0.297 C  
HETATM    4  O   UNL     1     -12.052   6.586  70.678  1.00  0.00    -0.366 OA 
BRANCH   3   5
HETATM    5  C   UNL     1     -12.082   8.868  71.350  1.00  0.00    -0.381 A  
HETATM    6  C   UNL     1     -12.980   9.570  72.142  1.00  0.00    -0.412 A  
HETATM    7  N   UNL     1     -13.255  10.891  71.986  1.00  0.00    -0.458 NA 
HETATM    8  C   UNL     1     -12.600  11.536  70.996  1.00  0.00    -0.357 A  
HETATM    9  C   UNL     1     -11.682  10.925  70.155  1.00  0.00    -0.433 A  
HETATM   10  C   UNL     1     -11.419   9.568  70.339  1.00  0.00    -0.297 A  
ENDBRANCH   3   5
ENDBRANCH   2   3
TORSDOF 2
ENDMDL
MODEL       84
REMARK 921   NORMALIZED FREE ENERGY PREDICTED BY IDOCK:   -3.08 KCAL/MOL
REMARK 922        TOTAL FREE ENERGY PREDICTED BY IDOCK:   -3.51 KCAL/MOL
REMARK 923 INTER-LIGAND FREE ENERGY PREDICTED BY IDOCK:   -3.44 KCAL/MOL
REMARK 924 INTRA-LIGAND FREE ENERGY PREDICTED BY IDOCK:   -0.07 KCAL/MOL
REMARK 927      BINDING AFFINITY PREDICTED BY RF-SCORE:    0.00 PKD
ROOT
HETATM    1  C   UNL     1     -10.575  18.915  66.093  1.00  0.00    -0.407 C  
HETATM    2  O   UNL     1      -9.720  18.211  66.997  1.00  0.00    -0.286 OA 
ENDROOT
BRANCH   2   3
HETATM    3  C   UNL     1      -8.427  18.151  66.598  1.00  0.00    -0.264 C  
HETATM    4  O   UNL     1      -7.978  17.421  65.728  1.00  0.00    -0.538 OA 
BRANCH   3   5
HETATM    5  C   UNL     1      -7.599  19.118  67.352  1.00  0.00    -0.256 A  
HETATM    6  C   UNL     1      -7.225  20.351  66.835  1.00  0.00    -0.283 A  
HETATM    7  N   UNL     1      -6.456  21.249  67.503  1.00  0.00    -0.488 NA 
HETATM    8  C   UNL     1      -6.045  20.897  68.741  1.00  0.00    -0.233 A  
HETATM    9  C   UNL     1      -6.368  19.693  69.346  1.00  0.00    -0.365 A  
HETATM   10  C   UNL     1      -7.160  18.790  68.638  1.00  0.00    -0.321 A  
ENDBRANCH   3   5
ENDBRANCH   2   3
TORSDOF 2
ENDMDL
MODEL       85
REMARK 921   NORMALIZED FREE ENERGY PREDICTED BY IDOCK:   -3.07 KCAL/MOL
REMARK 922        TOTAL FREE ENERGY PREDICTED BY IDOCK:   -3.51 KCAL/MOL
REMARK 923 INTER-LIGAND FREE ENERGY PREDICTED BY IDOCK:   -3.43 KCAL/MOL
REMARK 924 INTRA-LIGAND FREE ENERGY PREDICTED BY IDOCK:   -0.08 KCAL/MOL
REMARK 927      BINDING AFFINITY PREDICTED BY RF-SCORE:    0.00 PKD
ROOT
HETATM    1  C   UNL     1     -10.120  16.453  68.615  1.00  0.00    -0.244 C  
HETATM    2  O   UNL     1     -10.038  17.822  69.018  1.00  0.00    -0.351 OA 
ENDROOT
BRANCH   2   3
HETATM    3  C   UNL     1      -9.896  18.692  67.988  1.00  0.00    -0.342 C  
HETATM    4  O   UNL     1     -10.702  18.876  67.090  1.00  0.00    -0.439 OA 
BRANCH   3   5
HETATM    5  C   UNL     1      -8.617  19.427  68.094  1.00  0.00    -0.374 A  
HETATM    6  C   UNL     1      -7.773  19.313  69.190  1.00  0.00    -0.237 A  
HETATM    7  N   UNL     1      -6.600  19.987  69.315  1.00  0.00    -0.325 NA 
HETATM    8  C   UNL     1      -6.258  20.809  68.298  1.00  0.00    -0.334 A  
HETATM    9  C   UNL     1      -7.031  20.987  67.161  1.00  0.00    -0.411 A  
HETATM   10  C   UNL     1      -8.228  20.282  67.058  1.00  0.00    -0.369 A  
ENDBRANCH   3   5
ENDBRANCH   2   3
TORSDOF 2
ENDMDL
MODEL       86
REMARK 921   NORMALIZED FREE ENERGY PREDICTED BY IDOCK:   -3.07 KCAL/MOL
REMARK 922        TOTAL FREE ENERGY PREDICTED BY IDOCK:   -3.50 KCAL/MOL
REMARK 923 INTER-LIGAND FREE ENERGY PREDICTED BY IDOCK:   -3.45 KCAL/MOL
REMARK 924 INTRA-LIGAND FREE ENERGY PREDICTED BY IDOCK:   -0.06 KCAL/MOL
REMARK 927      BINDING AFFINITY PREDICTED BY RF-SCORE:    0.00 PKD
ROOT
HETATM    1  C   UNL     1     -11.775  12.059  69.580  1.00  0.00    -0.342 C  
HETATM    2  O   UNL     1     -12.110  10.692  69.834  1.00  0.00    -0.303 OA 
ENDROOT
BRANCH   2   3
HETATM    3  C   UNL     1     -12.409  10.430  71.129  1.00  0.00    -0.400 C  
HETATM    4  O   UNL     1     -12.954  11.197  71.907  1.00  0.00    -0.458 OA 
BRANCH   3   5
HETATM    5  C   UNL     1     -12.002   9.056  71.495  1.00  0.00    -0.414 A  
HETATM    6  C   UNL     1     -10.707   8.733  71.876  1.00  0.00    -0.359 A  
HETATM    7  N   UNL     1     -10.306   7.478  72.205  1.00  0.00    -0.203 NA 
HETATM    8  C   UNL     1     -11.242   6.505  72.150  1.00  0.00    -0.271 A  
HETATM    9  C   UNL     1     -12.561   6.728  71.785  1.00  0.00    -0.370 A  
HETATM   10  C   UNL     1     -12.945   8.026  71.455  1.00  0.00    -0.326 A  
ENDBRANCH   3   5
ENDBRANCH   2   3
TORSDOF 2
ENDMDL
MODEL       87
REMARK 921   NORMALIZED FREE ENERGY PREDICTED BY IDOCK:   -3.03 KCAL/MOL
REMARK 922        TOTAL FREE ENERGY PREDICTED BY IDOCK:   -3.45 KCAL/MOL
REMARK 923 INTER-LIGAND FREE ENERGY PREDICTED BY IDOCK:   -3.40 KCAL/MOL
REMARK 924 INTRA-LIGAND FREE ENERGY PREDICTED BY IDOCK:   -0.05 KCAL/MOL
REMARK 927      BINDING AFFINITY PREDICTED BY RF-SCORE:    0.00 PKD
ROOT
HETATM    1  C   UNL     1     -11.277   6.272  70.886  1.00  0.00    -0.324 C  
HETATM    2  O   UNL     1     -11.644   7.625  70.608  1.00  0.00    -0.285 OA 
ENDROOT
BRANCH   2   3
HETATM    3  C   UNL     1     -11.424   8.478  71.638  1.00  0.00    -0.298 C  
HETATM    4  O   UNL     1     -10.964   8.180  72.729  1.00  0.00    -0.369 OA 
BRANCH   3   5
HETATM    5  C   UNL     1     -11.802   9.859  71.267  1.00  0.00    -0.479 A  
HETATM    6  C   UNL     1     -11.280  10.509  70.157  1.00  0.00    -0.315 A  
HETATM    7  N   UNL     1     -11.602  11.780  69.803  1.00  0.00    -0.306 NA 
HETATM    8  C   UNL     1     -12.487  12.427  70.595  1.00  0.00    -0.234 A  
HETATM    9  C   UNL     1     -13.067  11.863  71.720  1.00  0.00    -0.465 A  
HETATM   10  C   UNL     1     -12.719  10.557  72.059  1.00  0.00    -0.327 A  
ENDBRANCH   3   5
ENDBRANCH   2   3
TORSDOF 2
ENDMDL
MODEL       88
REMARK 921   NORMALIZED FREE ENERGY PREDICTED BY IDOCK:   -3.02 KCAL/MOL
REMARK 922        TOTAL FREE ENERGY PREDICTED BY IDOCK:   -3.44 KCAL/MOL
REMARK 923 INTER-LIGAND FREE ENERGY PREDICTED BY IDOCK:   -3.36 KCAL/MOL
REMARK 924 INTRA-LIGAND FREE ENERGY PREDICTED BY IDOCK:   -0.08 KCAL/MOL
REMARK 927      BINDING AFFINITY PREDICTED BY RF-SCORE:    0.00 PKD
ROOT
HETATM    1  C   UNL     1      -7.951  15.620  67.907  1.00  0.00    -0.142 C  
HETATM    2  O   UNL     1      -7.815  16.107  66.570  1.00  0.00    -0.260 OA 
ENDROOT
BRANCH   2   3
HETATM    3  C   UNL     1      -8.957  16.620  66.051  1.00  0.00    -0.213 C  
HETATM    4  O   UNL     1      -9.731  16.038  65.308  1.00  0.00    -0.403 OA 
BRANCH   3   5
HETATM    5  C   UNL     1      -9.172  18.006  66.522  1.00  0.00    -0.286 A  
HETATM    6  C   UNL     1      -8.183  18.979  66.471  1.00  0.00    -0.302 A  
HETATM    7  N   UNL     1      -8.351  20.253  66.908  1.00  0.00    -0.309 NA 
HETATM    8  C   UNL     1      -9.563  20.567  67.417  1.00  0.00    -0.438 A  
HETATM    9  C   UNL     1     -10.615  19.669  67.507  1.00  0.00    -0.577 A  
HETATM   10  C   UNL     1     -10.414  18.368  67.050  1.00  0.00    -0.429 A  
ENDBRANCH   3   5
ENDBRANCH   2   3
TORSDOF 2
ENDMDL
MODEL       89
REMARK 921   NORMALIZED FREE ENERGY PREDICTED BY IDOCK:   -2.98 KCAL/MOL
REMARK 922        TOTAL FREE ENERGY PREDICTED BY IDOCK:   -3.40 KCAL/MOL
REMARK 923 INTER-LIGAND FREE ENERGY PREDICTED BY IDOCK:   -3.32 KCAL/MOL
REMARK 924 INTRA-LIGAND FREE ENERGY PREDICTED BY IDOCK:   -0.07 KCAL/MOL
REMARK 927      BINDING AFFINITY PREDICTED BY RF-SCORE:    0.00 PKD
ROOT
HETATM    1  C   UNL     1      -9.445   8.617  66.114  1.00  0.00    -0.240 C  
HETATM    2  O   UNL     1      -9.848   9.984  66.220  1.00  0.00    -0.208 OA 
ENDROOT
BRANCH   2   3
HETATM    3  C   UNL     1      -9.806  10.664  65.049  1.00  0.00    -0.293 C  
HETATM    4  O   UNL     1      -9.147  10.358  64.067  1.00  0.00    -0.201 OA 
BRANCH   3   5
HETATM    5  C   UNL     1     -10.693  11.846  65.094  1.00  0.00    -0.339 A  
HETATM    6  C   UNL     1     -11.427  12.192  66.221  1.00  0.00    -0.374 A  
HETATM    7  N   UNL     1     -12.258  13.265  66.283  1.00  0.00    -0.401 NA 
HETATM    8  C   UNL     1     -12.356  14.025  65.169  1.00  0.00    -0.453 A  
HETATM    9  C   UNL     1     -11.661  13.765  63.998  1.00  0.00    -0.364 A  
HETATM   10  C   UNL     1     -10.815  12.658  63.963  1.00  0.00    -0.452 A  
ENDBRANCH   3   5
ENDBRANCH   2   3
TORSDOF 2
ENDMDL
MODEL       90
REMARK 921   NORMALIZED FREE ENERGY PREDICTED BY IDOCK:   -2.97 KCAL/MOL
REMARK 922        TOTAL FREE ENERGY PREDICTED BY IDOCK:   -3.39 KCAL/MOL
REMARK 923 INTER-LIGAND FREE ENERGY PREDICTED BY IDOCK:   -3.32 KCAL/MOL
REMARK 924 INTRA-LIGAND FREE ENERGY PREDICTED BY IDOCK:   -0.07 KCAL/MOL
REMARK 927      BINDING AFFINITY PREDICTED BY RF-SCORE:    0.00 PKD
ROOT
HETATM    1  C   UNL     1      -9.160  16.480  66.050  1.00  0.00    -0.255 C  
HETATM    2  O   UNL     1     -10.522  16.055  66.124  1.00  0.00    -0.308 OA 
ENDROOT
BRANCH   2   3
HETATM    3  C   UNL     1     -10.709  14.748  65.819  1.00  0.00    -0.326 C  
HETATM    4  O   UNL     1     -10.521  14.234  64.728  1.00  0.00    -0.431 OA 
BRANCH   3   5
HETATM    5  C   UNL     1     -11.166  13.992  67.005  1.00  0.00    -0.325 A  
HETATM    6  C   UNL     1     -11.550  14.608  68.188  1.00  0.00    -0.335 A  
HETATM    7  N   UNL     1     -11.960  13.935  69.293  1.00  0.00    -0.341 NA 
HETATM    8  C   UNL     1     -11.989  12.586  69.210  1.00  0.00    -0.250 A  
HETATM    9  C   UNL     1     -11.629  11.879  68.073  1.00  0.00    -0.401 A  
HETATM   10  C   UNL     1     -11.213  12.596  66.953  1.00  0.00    -0.348 A  
ENDBRANCH   3   5
ENDBRANCH   2   3
TORSDOF 2
ENDMDL
MODEL       91
REMARK 921   NORMALIZED FREE ENERGY PREDICTED BY IDOCK:   -2.97 KCAL/MOL
REMARK 922        TOTAL FREE ENERGY PREDICTED BY IDOCK:   -3.38 KCAL/MOL
REMARK 923 INTER-LIGAND FREE ENERGY PREDICTED BY IDOCK:   -3.33 KCAL/MOL
REMARK 924 INTRA-LIGAND FREE ENERGY PREDICTED BY IDOCK:   -0.06 KCAL/MOL
REMARK 927      BINDING AFFINITY PREDICTED BY RF-SCORE:    0.00 PKD
ROOT
HETATM    1  C   UNL     1     -11.953  14.509  66.882  1.00  0.00    -0.346 C  
HETATM    2  O   UNL     1     -11.058  13.427  66.612  1.00  0.00    -0.288 OA 
ENDROOT
BRANCH   2   3
HETATM    3  C   UNL     1     -11.643  12.368  66.002  1.00  0.00    -0.401 C  
HETATM    4  O   UNL     1     -12.608  12.414  65.257  1.00  0.00    -0.636 OA 
BRANCH   3   5
HETATM    5  C   UNL     1     -10.940  11.111  66.342  1.00  0.00    -0.248 A  
HETATM    6  C   UNL     1     -11.058  10.495  67.580  1.00  0.00    -0.309 A  
HETATM    7  N   UNL     1     -10.414   9.350  67.921  1.00  0.00    -0.233 NA 
HETATM    8  C   UNL     1      -9.618   8.796  66.979  1.00  0.00    -0.179 A  
HETATM    9  C   UNL     1      -9.437   9.332  65.713  1.00  0.00    -0.329 A  
HETATM   10  C   UNL     1     -10.112  10.508  65.391  1.00  0.00    -0.358 A  
ENDBRANCH   3   5
ENDBRANCH   2   3
TORSDOF 2
ENDMDL
MODEL       92
REMARK 921   NORMALIZED FREE ENERGY PREDICTED BY IDOCK:   -2.95 KCAL/MOL
REMARK 922        TOTAL FREE ENERGY PREDICTED BY IDOCK:   -3.37 KCAL/MOL
REMARK 923 INTER-LIGAND FREE ENERGY PREDICTED BY IDOCK:   -3.30 KCAL/MOL
REMARK 924 INTRA-LIGAND FREE ENERGY PREDICTED BY IDOCK:   -0.07 KCAL/MOL
REMARK 927      BINDING AFFINITY PREDICTED BY RF-SCORE:    0.00 PKD
ROOT
HETATM    1  C   UNL     1      -8.071  10.229  68.461  1.00  0.00    -0.109 C  
HETATM    2  O   UNL     1      -9.311   9.768  69.003  1.00  0.00    -0.147 OA 
ENDROOT
BRANCH   2   3
HETATM    3  C   UNL     1      -9.287   9.568  70.343  1.00  0.00    -0.257 C  
HETATM    4  O   UNL     1      -8.287   9.404  71.025  1.00  0.00    -0.294 OA 
BRANCH   3   5
HETATM    5  C   UNL     1     -10.656   9.591  70.903  1.00  0.00    -0.395 A  
HETATM    6  C   UNL     1     -11.066   8.741  71.921  1.00  0.00    -0.364 A  
HETATM    7  N   UNL     1     -12.320   8.735  72.442  1.00  0.00    -0.371 NA 
HETATM    8  C   UNL     1     -13.200   9.619  71.922  1.00  0.00    -0.446 A  
HETATM    9  C   UNL     1     -12.886  10.510  70.908  1.00  0.00    -0.485 A  
HETATM   10  C   UNL     1     -11.591  10.495  70.393  1.00  0.00    -0.430 A  
ENDBRANCH   3   5
ENDBRANCH   2   3
TORSDOF 2
ENDMDL
MODEL       93
REMARK 921   NORMALIZED FREE ENERGY PREDICTED BY IDOCK:   -2.94 KCAL/MOL
REMARK 922        TOTAL FREE ENERGY PREDICTED BY IDOCK:   -3.36 KCAL/MOL
REMARK 923 INTER-LIGAND FREE ENERGY PREDICTED BY IDOCK:   -3.28 KCAL/MOL
REMARK 924 INTRA-LIGAND FREE ENERGY PREDICTED BY IDOCK:   -0.08 KCAL/MOL
REMARK 927      BINDING AFFINITY PREDICTED BY RF-SCORE:    0.00 PKD
ROOT
HETATM    1  C   UNL     1      -8.595   6.553  70.754  1.00  0.00    -0.135 C  
HETATM    2  O   UNL     1      -9.660   6.707  71.695  1.00  0.00    -0.163 OA 
ENDROOT
BRANCH   2   3
HETATM    3  C   UNL     1     -10.031   7.994  71.900  1.00  0.00    -0.195 C  
HETATM    4  O   UNL     1      -9.280   8.930  72.126  1.00  0.00    -0.364 OA 
BRANCH   3   5
HETATM    5  C   UNL     1     -11.500   8.140  71.798  1.00  0.00    -0.337 A  
HETATM    6  C   UNL     1     -12.357   7.054  71.682  1.00  0.00    -0.368 A  
HETATM    7  N   UNL     1     -13.706   7.162  71.574  1.00  0.00    -0.359 NA 
HETATM    8  C   UNL     1     -14.219   8.413  71.584  1.00  0.00    -0.440 A  
HETATM    9  C   UNL     1     -13.448   9.559  71.700  1.00  0.00    -0.463 A  
HETATM   10  C   UNL     1     -12.066   9.417  71.811  1.00  0.00    -0.454 A  
ENDBRANCH   3   5
ENDBRANCH   2   3
TORSDOF 2
ENDMDL
MODEL       94
REMARK 921   NORMALIZED FREE ENERGY PREDICTED BY IDOCK:   -2.92 KCAL/MOL
REMARK 922        TOTAL FREE ENERGY PREDICTED BY IDOCK:   -3.33 KCAL/MOL
REMARK 923 INTER-LIGAND FREE ENERGY PREDICTED BY IDOCK:   -3.26 KCAL/MOL
REMARK 924 INTRA-LIGAND FREE ENERGY PREDICTED BY IDOCK:   -0.07 KCAL/MOL
REMARK 927      BINDING AFFINITY PREDICTED BY RF-SCORE:    0.00 PKD
ROOT
HETATM    1  C   UNL     1      -9.252  15.918  69.530  1.00  0.00    -0.175 C  
HETATM    2  O   UNL     1     -10.380  15.447  70.271  1.00  0.00    -0.289 OA 
ENDROOT
BRANCH   2   3
HETATM    3  C   UNL     1     -11.421  15.055  69.497  1.00  0.00    -0.294 C  
HETATM    4  O   UNL     1     -11.981  15.734  68.652  1.00  0.00    -0.344 OA 
BRANCH   3   5
HETATM    5  C   UNL     1     -11.801  13.657  69.796  1.00  0.00    -0.392 A  
HETATM    6  C   UNL     1     -12.485  13.293  70.949  1.00  0.00    -0.342 A  
HETATM    7  N   UNL     1     -12.833  12.016  71.251  1.00  0.00    -0.331 NA 
HETATM    8  C   UNL     1     -12.483  11.062  70.360  1.00  0.00    -0.313 A  
HETATM    9  C   UNL     1     -11.804  11.324  69.180  1.00  0.00    -0.423 A  
HETATM   10  C   UNL     1     -11.461  12.644  68.895  1.00  0.00    -0.354 A  
ENDBRANCH   3   5
ENDBRANCH   2   3
TORSDOF 2
ENDMDL
MODEL       95
REMARK 921   NORMALIZED FREE ENERGY PREDICTED BY IDOCK:   -2.91 KCAL/MOL
REMARK 922        TOTAL FREE ENERGY PREDICTED BY IDOCK:   -3.32 KCAL/MOL
REMARK 923 INTER-LIGAND FREE ENERGY PREDICTED BY IDOCK:   -3.25 KCAL/MOL
REMARK 924 INTRA-LIGAND FREE ENERGY PREDICTED BY IDOCK:   -0.07 KCAL/MOL
REMARK 927      BINDING AFFINITY PREDICTED BY RF-SCORE:    0.00 PKD
ROOT
HETATM    1  C   UNL     1     -12.799  13.880  65.341  1.00  0.00    -0.427 C  
HETATM    2  O   UNL     1     -12.577  12.468  65.362  1.00  0.00    -0.656 OA 
ENDROOT
BRANCH   2   3
HETATM    3  C   UNL     1     -11.620  12.048  64.499  1.00  0.00    -0.317 C  
HETATM    4  O   UNL     1     -11.559  12.320  63.310  1.00  0.00    -0.424 OA 
BRANCH   3   5
HETATM    5  C   UNL     1     -10.618  11.209  65.192  1.00  0.00    -0.319 A  
HETATM    6  C   UNL     1      -9.797  10.312  64.522  1.00  0.00    -0.315 A  
HETATM    7  N   UNL     1      -8.879   9.522  65.137  1.00  0.00    -0.174 NA 
HETATM    8  C   UNL     1      -8.779   9.637  66.480  1.00  0.00    -0.134 A  
HETATM    9  C   UNL     1      -9.549  10.506  67.237  1.00  0.00    -0.188 A  
HETATM   10  C   UNL     1     -10.482  11.305  66.579  1.00  0.00    -0.299 A  
ENDBRANCH   3   5
ENDBRANCH   2   3
TORSDOF 2
ENDMDL
MODEL       96
REMARK 921   NORMALIZED FREE ENERGY PREDICTED BY IDOCK:   -2.91 KCAL/MOL
REMARK 922        TOTAL FREE ENERGY PREDICTED BY IDOCK:   -3.32 KCAL/MOL
REMARK 923 INTER-LIGAND FREE ENERGY PREDICTED BY IDOCK:   -3.22 KCAL/MOL
REMARK 924 INTRA-LIGAND FREE ENERGY PREDICTED BY IDOCK:   -0.10 KCAL/MOL
REMARK 927      BINDING AFFINITY PREDICTED BY RF-SCORE:    0.00 PKD
ROOT
HETATM    1  C   UNL     1     -10.135  19.738  68.589  1.00  0.00    -0.440 C  
HETATM    2  O   UNL     1      -9.826  20.292  67.308  1.00  0.00    -0.407 OA 
ENDROOT
BRANCH   2   3
HETATM    3  C   UNL     1      -9.563  19.364  66.356  1.00  0.00    -0.377 C  
HETATM    4  O   UNL     1     -10.387  18.828  65.631  1.00  0.00    -0.551 OA 
BRANCH   3   5
HETATM    5  C   UNL     1      -8.113  19.081  66.284  1.00  0.00    -0.298 A  
HETATM    6  C   UNL     1      -7.601  17.793  66.215  1.00  0.00    -0.287 A  
HETATM    7  N   UNL     1      -6.275  17.507  66.161  1.00  0.00    -0.219 NA 
HETATM    8  C   UNL     1      -5.424  18.558  66.175  1.00  0.00    -0.152 A  
HETATM    9  C   UNL     1      -5.837  19.880  66.238  1.00  0.00    -0.177 A  
HETATM   10  C   UNL     1      -7.205  20.143  66.291  1.00  0.00    -0.311 A  
ENDBRANCH   3   5
ENDBRANCH   2   3
TORSDOF 2
ENDMDL
MODEL       97
REMARK 921   NORMALIZED FREE ENERGY PREDICTED BY IDOCK:   -2.90 KCAL/MOL
REMARK 922        TOTAL FREE ENERGY PREDICTED BY IDOCK:   -3.31 KCAL/MOL
REMARK 923 INTER-LIGAND FREE ENERGY PREDICTED BY IDOCK:   -3.34 KCAL/MOL
REMARK 924 INTRA-LIGAND FREE ENERGY PREDICTED BY IDOCK:    0.03 KCAL/MOL
REMARK 927      BINDING AFFINITY PREDICTED BY RF-SCORE:    0.00 PKD
ROOT
HETATM    1  C   UNL     1     -10.210  11.029  64.295  1.00  0.00    -0.352 C  
HETATM    2  O   UNL     1     -10.177  11.925  65.408  1.00  0.00    -0.246 OA 
ENDROOT
BRANCH   2   3
HETATM    3  C   UNL     1     -11.305  11.912  66.160  1.00  0.00    -0.324 C  
HETATM    4  O   UNL     1     -12.402  12.321  65.813  1.00  0.00    -0.622 OA 
BRANCH   3   5
HETATM    5  C   UNL     1     -11.046  11.308  67.485  1.00  0.00    -0.346 A  
HETATM    6  C   UNL     1     -10.109  10.304  67.684  1.00  0.00    -0.191 A  
HETATM    7  N   UNL     1      -9.862   9.726  68.887  1.00  0.00    -0.166 NA 
HETATM    8  C   UNL     1     -10.586  10.174  69.938  1.00  0.00    -0.285 A  
HETATM    9  C   UNL     1     -11.541  11.174  69.843  1.00  0.00    -0.416 A  
HETATM   10  C   UNL     1     -11.772  11.750  68.595  1.00  0.00    -0.389 A  
ENDBRANCH   3   5
ENDBRANCH   2   3
TORSDOF 2
ENDMDL
MODEL       98
REMARK 921   NORMALIZED FREE ENERGY PREDICTED BY IDOCK:   -2.89 KCAL/MOL
REMARK 922        TOTAL FREE ENERGY PREDICTED BY IDOCK:   -3.30 KCAL/MOL
REMARK 923 INTER-LIGAND FREE ENERGY PREDICTED BY IDOCK:   -3.23 KCAL/MOL
REMARK 924 INTRA-LIGAND FREE ENERGY PREDICTED BY IDOCK:   -0.07 KCAL/MOL
REMARK 927      BINDING AFFINITY PREDICTED BY RF-SCORE:    0.00 PKD
ROOT
HETATM    1  C   UNL     1     -10.240  13.949  66.056  1.00  0.00    -0.310 C  
HETATM    2  O   UNL     1     -11.239  13.541  66.993  1.00  0.00    -0.296 OA 
ENDROOT
BRANCH   2   3
HETATM    3  C   UNL     1     -10.751  13.228  68.218  1.00  0.00    -0.252 C  
HETATM    4  O   UNL     1      -9.831  12.459  68.448  1.00  0.00    -0.217 OA 
BRANCH   3   5
HETATM    5  C   UNL     1     -11.474  13.966  69.277  1.00  0.00    -0.348 A  
HETATM    6  C   UNL     1     -11.518  15.353  69.331  1.00  0.00    -0.324 A  
HETATM    7  N   UNL     1     -12.164  16.053  70.298  1.00  0.00    -0.215 NA 
HETATM    8  C   UNL     1     -12.796  15.332  71.252  1.00  0.00    -0.425 A  
HETATM    9  C   UNL     1     -12.814  13.947  71.283  1.00  0.00    -0.435 A  
HETATM   10  C   UNL     1     -12.143  13.255  70.276  1.00  0.00    -0.405 A  
ENDBRANCH   3   5
ENDBRANCH   2   3
TORSDOF 2
ENDMDL
MODEL       99
REMARK 921   NORMALIZED FREE ENERGY PREDICTED BY IDOCK:   -2.88 KCAL/MOL
REMARK 922        TOTAL FREE ENERGY PREDICTED BY IDOCK:   -3.29 KCAL/MOL
REMARK 923 INTER-LIGAND FREE ENERGY PREDICTED BY IDOCK:   -3.21 KCAL/MOL
REMARK 924 INTRA-LIGAND FREE ENERGY PREDICTED BY IDOCK:   -0.08 KCAL/MOL
REMARK 927      BINDING AFFINITY PREDICTED BY RF-SCORE:    0.00 PKD
ROOT
HETATM    1  C   UNL     1      -9.058   9.071  66.194  1.00  0.00    -0.199 C  
HETATM    2  O   UNL     1     -10.397   9.569  66.227  1.00  0.00    -0.244 OA 
ENDROOT
BRANCH   2   3
HETATM    3  C   UNL     1     -10.717  10.213  67.376  1.00  0.00    -0.277 C  
HETATM    4  O   UNL     1     -10.624   9.755  68.503  1.00  0.00    -0.206 OA 
BRANCH   3   5
HETATM    5  C   UNL     1     -11.189  11.586  67.094  1.00  0.00    -0.365 A  
HETATM    6  C   UNL     1     -11.398  12.060  65.806  1.00  0.00    -0.331 A  
HETATM    7  N   UNL     1     -11.819  13.320  65.522  1.00  0.00    -0.350 NA 
HETATM    8  C   UNL     1     -12.041  14.139  66.574  1.00  0.00    -0.454 A  
HETATM    9  C   UNL     1     -11.866  13.759  67.895  1.00  0.00    -0.413 A  
HETATM   10  C   UNL     1     -11.435  12.460  68.157  1.00  0.00    -0.370 A  
ENDBRANCH   3   5
ENDBRANCH   2   3
TORSDOF 2
ENDMDL
MODEL      100
REMARK 921   NORMALIZED FREE ENERGY PREDICTED BY IDOCK:   -2.87 KCAL/MOL
REMARK 922        TOTAL FREE ENERGY PREDICTED BY IDOCK:   -3.28 KCAL/MOL
REMARK 923 INTER-LIGAND FREE ENERGY PREDICTED BY IDOCK:   -3.17 KCAL/MOL
REMARK 924 INTRA-LIGAND FREE ENERGY PREDICTED BY IDOCK:   -0.10 KCAL/MOL
REMARK 927      BINDING AFFINITY PREDICTED BY RF-SCORE:    0.00 PKD
ROOT
HETATM    1  C   UNL     1     -11.345  10.518  68.257  1.00  0.00    -0.264 C  
HETATM    2  O   UNL     1     -12.095  11.484  67.517  1.00  0.00    -0.614 OA 
ENDROOT
BRANCH   2   3
HETATM    3  C   UNL     1     -11.341  12.261  66.703  1.00  0.00    -0.343 C  
HETATM    4  O   UNL     1     -11.048  12.013  65.544  1.00  0.00    -0.297 OA 
BRANCH   3   5
HETATM    5  C   UNL     1     -10.914  13.494  67.400  1.00  0.00    -0.286 A  
HETATM    6  C   UNL     1      -9.583  13.868  67.518  1.00  0.00    -0.229 A  
HETATM    7  N   UNL     1      -9.166  14.988  68.164  1.00  0.00    -0.180 NA 
HETATM    8  C   UNL     1     -10.124  15.766  68.714  1.00  0.00    -0.215 A  
HETATM    9  C   UNL     1     -11.479  15.481  68.647  1.00  0.00    -0.367 A  
HETATM   10  C   UNL     1     -11.878  14.326  67.976  1.00  0.00    -0.379 A  
ENDBRANCH   3   5
ENDBRANCH   2   3
TORSDOF 2
ENDMDL
MODEL      101
REMARK 921   NORMALIZED FREE ENERGY PREDICTED BY IDOCK:   -2.87 KCAL/MOL
REMARK 922        TOTAL FREE ENERGY PREDICTED BY IDOCK:   -3.27 KCAL/MOL
REMARK 923 INTER-LIGAND FREE ENERGY PREDICTED BY IDOCK:   -3.17 KCAL/MOL
REMARK 924 INTRA-LIGAND FREE ENERGY PREDICTED BY IDOCK:   -0.10 KCAL/MOL
REMARK 927      BINDING AFFINITY PREDICTED BY RF-SCORE:    0.00 PKD
ROOT
HETATM    1  C   UNL     1      -5.994  18.811  70.056  1.00  0.00    -0.215 C  
HETATM    2  O   UNL     1      -6.719  19.962  69.616  1.00  0.00    -0.346 OA 
ENDROOT
BRANCH   2   3
HETATM    3  C   UNL     1      -7.672  19.692  68.691  1.00  0.00    -0.328 C  
HETATM    4  O   UNL     1      -8.838  19.417  68.925  1.00  0.00    -0.364 OA 
BRANCH   3   5
HETATM    5  C   UNL     1      -7.120  19.791  67.323  1.00  0.00    -0.250 A  
HETATM    6  C   UNL     1      -7.264  18.783  66.379  1.00  0.00    -0.239 A  
HETATM    7  N   UNL     1      -6.756  18.845  65.121  1.00  0.00    -0.511 NA 
HETATM    8  C   UNL     1      -6.075  19.965  64.794  1.00  0.00    -0.263 A  
HETATM    9  C   UNL     1      -5.880  21.028  65.663  1.00  0.00    -0.285 A  
HETATM   10  C   UNL     1      -6.414  20.937  66.947  1.00  0.00    -0.370 A  
ENDBRANCH   3   5
ENDBRANCH   2   3
TORSDOF 2
ENDMDL
MODEL      102
REMARK 921   NORMALIZED FREE ENERGY PREDICTED BY IDOCK:   -2.86 KCAL/MOL
REMARK 922        TOTAL FREE ENERGY PREDICTED BY IDOCK:   -3.27 KCAL/MOL
REMARK 923 INTER-LIGAND FREE ENERGY PREDICTED BY IDOCK:   -3.20 KCAL/MOL
REMARK 924 INTRA-LIGAND FREE ENERGY PREDICTED BY IDOCK:   -0.07 KCAL/MOL
REMARK 927      BINDING AFFINITY PREDICTED BY RF-SCORE:    0.00 PKD
ROOT
HETATM    1  C   UNL     1     -11.229  16.284  68.320  1.00  0.00    -0.324 C  
HETATM    2  O   UNL     1     -11.880  15.017  68.198  1.00  0.00    -0.334 OA 
ENDROOT
BRANCH   2   3
HETATM    3  C   UNL     1     -12.294  14.494  69.378  1.00  0.00    -0.177 C  
HETATM    4  O   UNL     1     -12.781  15.119  70.307  1.00  0.00    -0.349 OA 
BRANCH   3   5
HETATM    5  C   UNL     1     -12.096  13.028  69.401  1.00  0.00    -0.267 A  
HETATM    6  C   UNL     1     -11.722  12.302  68.279  1.00  0.00    -0.336 A  
HETATM    7  N   UNL     1     -11.546  10.956  68.273  1.00  0.00    -0.470 NA 
HETATM    8  C   UNL     1     -11.753  10.309  69.442  1.00  0.00    -0.095 A  
HETATM    9  C   UNL     1     -12.124  10.944  70.616  1.00  0.00    -0.468 A  
HETATM   10  C   UNL     1     -12.295  12.327  70.594  1.00  0.00    -0.375 A  
ENDBRANCH   3   5
ENDBRANCH   2   3
TORSDOF 2
ENDMDL
MODEL      103
REMARK 921   NORMALIZED FREE ENERGY PREDICTED BY IDOCK:   -2.85 KCAL/MOL
REMARK 922        TOTAL FREE ENERGY PREDICTED BY IDOCK:   -3.26 KCAL/MOL
REMARK 923 INTER-LIGAND FREE ENERGY PREDICTED BY IDOCK:   -3.21 KCAL/MOL
REMARK 924 INTRA-LIGAND FREE ENERGY PREDICTED BY IDOCK:   -0.05 KCAL/MOL
REMARK 927      BINDING AFFINITY PREDICTED BY RF-SCORE:    0.00 PKD
ROOT
HETATM    1  C   UNL     1     -10.037  19.870  68.694  1.00  0.00    -0.406 C  
HETATM    2  O   UNL     1     -10.067  20.172  67.297  1.00  0.00    -0.410 OA 
ENDROOT
BRANCH   2   3
HETATM    3  C   UNL     1      -9.009  19.684  66.605  1.00  0.00    -0.362 C  
HETATM    4  O   UNL     1      -8.056  20.333  66.202  1.00  0.00    -0.239 OA 
BRANCH   3   5
HETATM    5  C   UNL     1      -9.139  18.224  66.405  1.00  0.00    -0.260 A  
HETATM    6  C   UNL     1      -8.123  17.330  66.710  1.00  0.00    -0.246 A  
HETATM    7  N   UNL     1      -8.214  15.988  66.523  1.00  0.00    -0.296 NA 
HETATM    8  C   UNL     1      -9.374  15.522  66.010  1.00  0.00    -0.344 A  
HETATM    9  C   UNL     1     -10.448  16.333  65.677  1.00  0.00    -0.386 A  
HETATM   10  C   UNL     1     -10.327  17.706  65.881  1.00  0.00    -0.261 A  
ENDBRANCH   3   5
ENDBRANCH   2   3
TORSDOF 2
ENDMDL
MODEL      104
REMARK 921   NORMALIZED FREE ENERGY PREDICTED BY IDOCK:   -2.84 KCAL/MOL
REMARK 922        TOTAL FREE ENERGY PREDICTED BY IDOCK:   -3.25 KCAL/MOL
REMARK 923 INTER-LIGAND FREE ENERGY PREDICTED BY IDOCK:   -3.18 KCAL/MOL
REMARK 924 INTRA-LIGAND FREE ENERGY PREDICTED BY IDOCK:   -0.07 KCAL/MOL
REMARK 927      BINDING AFFINITY PREDICTED BY RF-SCORE:    0.00 PKD
ROOT
HETATM    1  C   UNL     1     -13.019  14.967  70.699  1.00  0.00    -0.345 C  
HETATM    2  O   UNL     1     -12.125  15.634  69.806  1.00  0.00    -0.361 OA 
ENDROOT
BRANCH   2   3
HETATM    3  C   UNL     1     -11.737  14.879  68.749  1.00  0.00    -0.325 C  
HETATM    4  O   UNL     1     -12.008  13.703  68.572  1.00  0.00    -0.356 OA 
BRANCH   3   5
HETATM    5  C   UNL     1     -10.934  15.679  67.798  1.00  0.00    -0.316 A  
HETATM    6  C   UNL     1     -10.643  17.021  68.003  1.00  0.00    -0.373 A  
HETATM    7  N   UNL     1      -9.920  17.779  67.139  1.00  0.00    -0.309 NA 
HETATM    8  C   UNL     1      -9.467  17.166  66.023  1.00  0.00    -0.137 A  
HETATM    9  C   UNL     1      -9.700  15.831  65.731  1.00  0.00    -0.372 A  
HETATM   10  C   UNL     1     -10.444  15.077  66.636  1.00  0.00    -0.284 A  
ENDBRANCH   3   5
ENDBRANCH   2   3
TORSDOF 2
ENDMDL
MODEL      105
REMARK 921   NORMALIZED FREE ENERGY PREDICTED BY IDOCK:   -2.84 KCAL/MOL
REMARK 922        TOTAL FREE ENERGY PREDICTED BY IDOCK:   -3.24 KCAL/MOL
REMARK 923 INTER-LIGAND FREE ENERGY PREDICTED BY IDOCK:   -3.22 KCAL/MOL
REMARK 924 INTRA-LIGAND FREE ENERGY PREDICTED BY IDOCK:   -0.02 KCAL/MOL
REMARK 927      BINDING AFFINITY PREDICTED BY RF-SCORE:    0.00 PKD
ROOT
HETATM    1  C   UNL     1     -11.285  12.426  68.756  1.00  0.00    -0.273 C  
HETATM    2  O   UNL     1     -10.677  12.995  67.594  1.00  0.00    -0.223 OA 
ENDROOT
BRANCH   2   3
HETATM    3  C   UNL     1     -11.495  13.813  66.888  1.00  0.00    -0.347 C  
HETATM    4  O   UNL     1     -12.473  13.466  66.245  1.00  0.00    -0.370 OA 
BRANCH   3   5
HETATM    5  C   UNL     1     -11.061  15.222  67.008  1.00  0.00    -0.305 A  
HETATM    6  C   UNL     1     -11.171  15.945  68.188  1.00  0.00    -0.339 A  
HETATM    7  N   UNL     1     -10.792  17.242  68.319  1.00  0.00    -0.342 NA 
HETATM    8  C   UNL     1     -10.278  17.840  67.221  1.00  0.00    -0.350 A  
HETATM    9  C   UNL     1     -10.123  17.203  66.000  1.00  0.00    -0.303 A  
HETATM   10  C   UNL     1     -10.520  15.871  65.895  1.00  0.00    -0.373 A  
ENDBRANCH   3   5
ENDBRANCH   2   3
TORSDOF 2
ENDMDL
MODEL      106
REMARK 921   NORMALIZED FREE ENERGY PREDICTED BY IDOCK:   -2.82 KCAL/MOL
REMARK 922        TOTAL FREE ENERGY PREDICTED BY IDOCK:   -3.22 KCAL/MOL
REMARK 923 INTER-LIGAND FREE ENERGY PREDICTED BY IDOCK:   -3.17 KCAL/MOL
REMARK 924 INTRA-LIGAND FREE ENERGY PREDICTED BY IDOCK:   -0.05 KCAL/MOL
REMARK 927      BINDING AFFINITY PREDICTED BY RF-SCORE:    0.00 PKD
ROOT
HETATM    1  C   UNL     1      -6.005  16.906  69.848  1.00  0.00    -0.219 C  
HETATM    2  O   UNL     1      -6.822  17.773  69.057  1.00  0.00    -0.238 OA 
ENDROOT
BRANCH   2   3
HETATM    3  C   UNL     1      -7.784  17.131  68.351  1.00  0.00    -0.237 C  
HETATM    4  O   UNL     1      -7.985  15.927  68.345  1.00  0.00    -0.139 OA 
BRANCH   3   5
HETATM    5  C   UNL     1      -8.599  18.093  67.577  1.00  0.00    -0.249 A  
HETATM    6  C   UNL     1      -8.134  18.720  66.430  1.00  0.00    -0.280 A  
HETATM    7  N   UNL     1      -8.858  19.616  65.710  1.00  0.00    -0.359 NA 
HETATM    8  C   UNL     1     -10.102  19.894  66.159  1.00  0.00    -0.504 A  
HETATM    9  C   UNL     1     -10.657  19.318  67.291  1.00  0.00    -0.590 A  
HETATM   10  C   UNL     1      -9.892  18.401  68.009  1.00  0.00    -0.359 A  
ENDBRANCH   3   5
ENDBRANCH   2   3
TORSDOF 2
ENDMDL
MODEL      107
REMARK 921   NORMALIZED FREE ENERGY PREDICTED BY IDOCK:   -2.82 KCAL/MOL
REMARK 922        TOTAL FREE ENERGY PREDICTED BY IDOCK:   -3.22 KCAL/MOL
REMARK 923 INTER-LIGAND FREE ENERGY PREDICTED BY IDOCK:   -3.14 KCAL/MOL
REMARK 924 INTRA-LIGAND FREE ENERGY PREDICTED BY IDOCK:   -0.07 KCAL/MOL
REMARK 927      BINDING AFFINITY PREDICTED BY RF-SCORE:    0.00 PKD
ROOT
HETATM    1  C   UNL     1      -5.636  19.821  71.463  1.00  0.00    -0.346 C  
HETATM    2  O   UNL     1      -6.609  20.386  70.582  1.00  0.00    -0.433 OA 
ENDROOT
BRANCH   2   3
HETATM    3  C   UNL     1      -6.472  20.002  69.290  1.00  0.00    -0.324 C  
HETATM    4  O   UNL     1      -5.538  20.280  68.556  1.00  0.00    -0.223 OA 
BRANCH   3   5
HETATM    5  C   UNL     1      -7.616  19.165  68.866  1.00  0.00    -0.371 A  
HETATM    6  C   UNL     1      -8.825  19.702  68.444  1.00  0.00    -0.312 A  
HETATM    7  N   UNL     1      -9.892  18.955  68.063  1.00  0.00    -0.334 NA 
HETATM    8  C   UNL     1      -9.742  17.612  68.104  1.00  0.00    -0.310 A  
HETATM    9  C   UNL     1      -8.575  16.981  68.506  1.00  0.00    -0.257 A  
HETATM   10  C   UNL     1      -7.495  17.773  68.891  1.00  0.00    -0.235 A  
ENDBRANCH   3   5
ENDBRANCH   2   3
TORSDOF 2
ENDMDL
MODEL      108
REMARK 921   NORMALIZED FREE ENERGY PREDICTED BY IDOCK:   -2.82 KCAL/MOL
REMARK 922        TOTAL FREE ENERGY PREDICTED BY IDOCK:   -3.22 KCAL/MOL
REMARK 923 INTER-LIGAND FREE ENERGY PREDICTED BY IDOCK:   -3.24 KCAL/MOL
REMARK 924 INTRA-LIGAND FREE ENERGY PREDICTED BY IDOCK:    0.02 KCAL/MOL
REMARK 927      BINDING AFFINITY PREDICTED BY RF-SCORE:    0.00 PKD
ROOT
HETATM    1  C   UNL     1      -7.973  20.032  66.794  1.00  0.00    -0.314 C  
HETATM    2  O   UNL     1      -7.563  18.675  66.611  1.00  0.00    -0.224 OA 
ENDROOT
BRANCH   2   3
HETATM    3  C   UNL     1      -8.257  17.784  67.359  1.00  0.00    -0.214 C  
HETATM    4  O   UNL     1      -8.163  17.636  68.567  1.00  0.00    -0.280 OA 
BRANCH   3   5
HETATM    5  C   UNL     1      -9.185  16.999  66.515  1.00  0.00    -0.296 A  
HETATM    6  C   UNL     1     -10.259  17.570  65.847  1.00  0.00    -0.242 A  
HETATM    7  N   UNL     1     -11.131  16.869  65.078  1.00  0.00    -0.495 NA 
HETATM    8  C   UNL     1     -10.917  15.539  64.972  1.00  0.00    -0.440 A  
HETATM    9  C   UNL     1      -9.871  14.877  65.596  1.00  0.00    -0.372 A  
HETATM   10  C   UNL     1      -8.991  15.622  66.379  1.00  0.00    -0.362 A  
ENDBRANCH   3   5
ENDBRANCH   2   3
TORSDOF 2
ENDMDL
MODEL      109
REMARK 921   NORMALIZED FREE ENERGY PREDICTED BY IDOCK:   -2.81 KCAL/MOL
REMARK 922        TOTAL FREE ENERGY PREDICTED BY IDOCK:   -3.21 KCAL/MOL
REMARK 923 INTER-LIGAND FREE ENERGY PREDICTED BY IDOCK:   -3.16 KCAL/MOL
REMARK 924 INTRA-LIGAND FREE ENERGY PREDICTED BY IDOCK:   -0.05 KCAL/MOL
REMARK 927      BINDING AFFINITY PREDICTED BY RF-SCORE:    0.00 PKD
ROOT
HETATM    1  C   UNL     1     -11.815   6.758  70.860  1.00  0.00    -0.385 C  
HETATM    2  O   UNL     1     -12.040   8.043  71.444  1.00  0.00    -0.295 OA 
ENDROOT
BRANCH   2   3
HETATM    3  C   UNL     1     -11.008   8.907  71.289  1.00  0.00    -0.293 C  
HETATM    4  O   UNL     1     -10.060   9.033  72.048  1.00  0.00    -0.327 OA 
BRANCH   3   5
HETATM    5  C   UNL     1     -11.160   9.691  70.044  1.00  0.00    -0.293 A  
HETATM    6  C   UNL     1     -12.117  10.687  69.896  1.00  0.00    -0.299 A  
HETATM    7  N   UNL     1     -12.285  11.411  68.760  1.00  0.00    -0.494 NA 
HETATM    8  C   UNL     1     -11.458  11.128  67.728  1.00  0.00    -0.272 A  
HETATM    9  C   UNL     1     -10.470  10.157  67.780  1.00  0.00    -0.277 A  
HETATM   10  C   UNL     1     -10.319   9.429  68.959  1.00  0.00    -0.224 A  
ENDBRANCH   3   5
ENDBRANCH   2   3
TORSDOF 2
ENDMDL
MODEL      110
REMARK 921   NORMALIZED FREE ENERGY PREDICTED BY IDOCK:   -2.81 KCAL/MOL
REMARK 922        TOTAL FREE ENERGY PREDICTED BY IDOCK:   -3.21 KCAL/MOL
REMARK 923 INTER-LIGAND FREE ENERGY PREDICTED BY IDOCK:   -3.16 KCAL/MOL
REMARK 924 INTRA-LIGAND FREE ENERGY PREDICTED BY IDOCK:   -0.05 KCAL/MOL
REMARK 927      BINDING AFFINITY PREDICTED BY RF-SCORE:    0.00 PKD
ROOT
HETATM    1  C   UNL     1      -9.343   7.153  73.869  1.00  0.00    -0.243 C  
HETATM    2  O   UNL     1     -10.183   6.714  72.800  1.00  0.00    -0.177 OA 
ENDROOT
BRANCH   2   3
HETATM    3  C   UNL     1     -10.053   7.440  71.663  1.00  0.00    -0.183 C  
HETATM    4  O   UNL     1      -9.187   7.293  70.815  1.00  0.00    -0.156 OA 
BRANCH   3   5
HETATM    5  C   UNL     1     -11.127   8.452  71.559  1.00  0.00    -0.329 A  
HETATM    6  C   UNL     1     -12.330   8.343  72.243  1.00  0.00    -0.376 A  
HETATM    7  N   UNL     1     -13.336   9.252  72.154  1.00  0.00    -0.434 NA 
HETATM    8  C   UNL     1     -13.126  10.316  71.347  1.00  0.00    -0.414 A  
HETATM    9  C   UNL     1     -11.959  10.516  70.627  1.00  0.00    -0.455 A  
HETATM   10  C   UNL     1     -10.943   9.568  70.739  1.00  0.00    -0.389 A  
ENDBRANCH   3   5
ENDBRANCH   2   3
TORSDOF 2
ENDMDL
MODEL      111
REMARK 921   NORMALIZED FREE ENERGY PREDICTED BY IDOCK:   -2.80 KCAL/MOL
REMARK 922        TOTAL FREE ENERGY PREDICTED BY IDOCK:   -3.20 KCAL/MOL
REMARK 923 INTER-LIGAND FREE ENERGY PREDICTED BY IDOCK:   -3.20 KCAL/MOL
REMARK 924 INTRA-LIGAND FREE ENERGY PREDICTED BY IDOCK:   -0.00 KCAL/MOL
REMARK 927      BINDING AFFINITY PREDICTED BY RF-SCORE:    0.00 PKD
ROOT
HETATM    1  C   UNL     1     -11.088  14.484  64.959  1.00  0.00    -0.387 C  
HETATM    2  O   UNL     1     -10.836  15.232  66.151  1.00  0.00    -0.316 OA 
ENDROOT
BRANCH   2   3
HETATM    3  C   UNL     1     -10.123  16.367  65.949  1.00  0.00    -0.347 C  
HETATM    4  O   UNL     1     -10.545  17.397  65.449  1.00  0.00    -0.638 OA 
BRANCH   3   5
HETATM    5  C   UNL     1      -8.736  16.210  66.436  1.00  0.00    -0.360 A  
HETATM    6  C   UNL     1      -8.257  15.023  66.974  1.00  0.00    -0.213 A  
HETATM    7  N   UNL     1      -6.992  14.859  67.439  1.00  0.00    -0.214 NA 
HETATM    8  C   UNL     1      -6.170  15.930  67.362  1.00  0.00    -0.137 A  
HETATM    9  C   UNL     1      -6.553  17.155  66.838  1.00  0.00    -0.240 A  
HETATM   10  C   UNL     1      -7.857  17.295  66.367  1.00  0.00    -0.345 A  
ENDBRANCH   3   5
ENDBRANCH   2   3
TORSDOF 2
ENDMDL
MODEL      112
REMARK 921   NORMALIZED FREE ENERGY PREDICTED BY IDOCK:   -2.76 KCAL/MOL
REMARK 922        TOTAL FREE ENERGY PREDICTED BY IDOCK:   -3.15 KCAL/MOL
REMARK 923 INTER-LIGAND FREE ENERGY PREDICTED BY IDOCK:   -3.08 KCAL/MOL
REMARK 924 INTRA-LIGAND FREE ENERGY PREDICTED BY IDOCK:   -0.07 KCAL/MOL
REMARK 927      BINDING AFFINITY PREDICTED BY RF-SCORE:    0.00 PKD
ROOT
HETATM    1  C   UNL     1     -11.578  13.495  66.727  1.00  0.00    -0.363 C  
HETATM    2  O   UNL     1     -10.514  14.018  65.929  1.00  0.00    -0.292 OA 
ENDROOT
BRANCH   2   3
HETATM    3  C   UNL     1      -9.556  14.660  66.640  1.00  0.00    -0.278 C  
HETATM    4  O   UNL     1      -8.486  14.188  66.989  1.00  0.00    -0.208 OA 
BRANCH   3   5
HETATM    5  C   UNL     1      -9.965  16.050  66.938  1.00  0.00    -0.255 A  
HETATM    6  C   UNL     1     -10.198  16.506  68.229  1.00  0.00    -0.268 A  
HETATM    7  N   UNL     1     -10.586  17.772  68.526  1.00  0.00    -0.313 NA 
HETATM    8  C   UNL     1     -10.746  18.621  67.486  1.00  0.00    -0.394 A  
HETATM    9  C   UNL     1     -10.534  18.263  66.163  1.00  0.00    -0.403 A  
HETATM   10  C   UNL     1     -10.135  16.956  65.888  1.00  0.00    -0.302 A  
ENDBRANCH   3   5
ENDBRANCH   2   3
TORSDOF 2
ENDMDL
MODEL      113
REMARK 921   NORMALIZED FREE ENERGY PREDICTED BY IDOCK:   -2.73 KCAL/MOL
REMARK 922        TOTAL FREE ENERGY PREDICTED BY IDOCK:   -3.12 KCAL/MOL
REMARK 923 INTER-LIGAND FREE ENERGY PREDICTED BY IDOCK:   -3.03 KCAL/MOL
REMARK 924 INTRA-LIGAND FREE ENERGY PREDICTED BY IDOCK:   -0.09 KCAL/MOL
REMARK 927      BINDING AFFINITY PREDICTED BY RF-SCORE:    0.00 PKD
ROOT
HETATM    1  C   UNL     1      -6.915  20.904  67.081  1.00  0.00    -0.364 C  
HETATM    2  O   UNL     1      -7.903  20.195  66.330  1.00  0.00    -0.292 OA 
ENDROOT
BRANCH   2   3
HETATM    3  C   UNL     1      -7.672  18.864  66.233  1.00  0.00    -0.276 C  
HETATM    4  O   UNL     1      -6.818  18.334  65.539  1.00  0.00    -0.452 OA 
BRANCH   3   5
HETATM    5  C   UNL     1      -8.592  18.105  67.107  1.00  0.00    -0.250 A  
HETATM    6  C   UNL     1      -9.956  18.358  67.162  1.00  0.00    -0.337 A  
HETATM    7  N   UNL     1     -10.819  17.684  67.966  1.00  0.00    -0.320 NA 
HETATM    8  C   UNL     1     -10.293  16.714  68.746  1.00  0.00    -0.301 A  
HETATM    9  C   UNL     1      -8.947  16.384  68.760  1.00  0.00    -0.245 A  
HETATM   10  C   UNL     1      -8.085  17.091  67.924  1.00  0.00    -0.196 A  
ENDBRANCH   3   5
ENDBRANCH   2   3
TORSDOF 2
ENDMDL
MODEL      114
REMARK 921   NORMALIZED FREE ENERGY PREDICTED BY IDOCK:   -2.72 KCAL/MOL
REMARK 922        TOTAL FREE ENERGY PREDICTED BY IDOCK:   -3.11 KCAL/MOL
REMARK 923 INTER-LIGAND FREE ENERGY PREDICTED BY IDOCK:   -3.03 KCAL/MOL
REMARK 924 INTRA-LIGAND FREE ENERGY PREDICTED BY IDOCK:   -0.09 KCAL/MOL
REMARK 927      BINDING AFFINITY PREDICTED BY RF-SCORE:    0.00 PKD
ROOT
HETATM    1  C   UNL     1     -10.555   9.377  69.770  1.00  0.00    -0.231 C  
HETATM    2  O   UNL     1     -10.641   9.454  71.194  1.00  0.00    -0.295 OA 
ENDROOT
BRANCH   2   3
HETATM    3  C   UNL     1     -11.709   8.804  71.718  1.00  0.00    -0.346 C  
HETATM    4  O   UNL     1     -12.880   9.111  71.562  1.00  0.00    -0.323 OA 
BRANCH   3   5
HETATM    5  C   UNL     1     -11.275   7.633  72.511  1.00  0.00    -0.399 A  
HETATM    6  C   UNL     1     -11.882   6.389  72.408  1.00  0.00    -0.213 A  
HETATM    7  N   UNL     1     -11.511   5.303  73.134  1.00  0.00    -0.293 NA 
HETATM    8  C   UNL     1     -10.486   5.471  73.999  1.00  0.00    -0.279 A  
HETATM    9  C   UNL     1      -9.813   6.671  74.171  1.00  0.00    -0.335 A  
HETATM   10  C   UNL     1     -10.215   7.768  73.411  1.00  0.00    -0.315 A  
ENDBRANCH   3   5
ENDBRANCH   2   3
TORSDOF 2
ENDMDL
MODEL      115
REMARK 921   NORMALIZED FREE ENERGY PREDICTED BY IDOCK:   -2.72 KCAL/MOL
REMARK 922        TOTAL FREE ENERGY PREDICTED BY IDOCK:   -3.11 KCAL/MOL
REMARK 923 INTER-LIGAND FREE ENERGY PREDICTED BY IDOCK:   -3.02 KCAL/MOL
REMARK 924 INTRA-LIGAND FREE ENERGY PREDICTED BY IDOCK:   -0.09 KCAL/MOL
REMARK 927      BINDING AFFINITY PREDICTED BY RF-SCORE:    0.00 PKD
ROOT
HETATM    1  C   UNL     1      -9.106  17.702  68.319  1.00  0.00    -0.276 C  
HETATM    2  O   UNL     1      -9.688  16.486  68.795  1.00  0.00    -0.231 OA 
ENDROOT
BRANCH   2   3
HETATM    3  C   UNL     1      -9.222  15.374  68.176  1.00  0.00    -0.186 C  
HETATM    4  O   UNL     1      -8.153  14.826  68.396  1.00  0.00    -0.131 OA 
BRANCH   3   5
HETATM    5  C   UNL     1     -10.200  14.875  67.185  1.00  0.00    -0.245 A  
HETATM    6  C   UNL     1     -11.462  14.417  67.538  1.00  0.00    -0.349 A  
HETATM    7  N   UNL     1     -12.372  13.943  66.649  1.00  0.00    -0.418 NA 
HETATM    8  C   UNL     1     -12.002  13.929  65.349  1.00  0.00    -0.381 A  
HETATM    9  C   UNL     1     -10.768  14.369  64.896  1.00  0.00    -0.444 A  
HETATM   10  C   UNL     1      -9.855  14.852  65.831  1.00  0.00    -0.362 A  
ENDBRANCH   3   5
ENDBRANCH   2   3
TORSDOF 2
ENDMDL
MODEL      116
REMARK 921   NORMALIZED FREE ENERGY PREDICTED BY IDOCK:   -2.71 KCAL/MOL
REMARK 922        TOTAL FREE ENERGY PREDICTED BY IDOCK:   -3.10 KCAL/MOL
REMARK 923 INTER-LIGAND FREE ENERGY PREDICTED BY IDOCK:   -3.03 KCAL/MOL
REMARK 924 INTRA-LIGAND FREE ENERGY PREDICTED BY IDOCK:   -0.08 KCAL/MOL
REMARK 927      BINDING AFFINITY PREDICTED BY RF-SCORE:    0.00 PKD
ROOT
HETATM    1  C   UNL     1      -8.744   9.172  68.057  1.00  0.00    -0.129 C  
HETATM    2  O   UNL     1     -10.109   9.160  68.481  1.00  0.00    -0.178 OA 
ENDROOT
BRANCH   2   3
HETATM    3  C   UNL     1     -10.287   8.729  69.753  1.00  0.00    -0.211 C  
HETATM    4  O   UNL     1      -9.683   7.813  70.290  1.00  0.00    -0.179 OA 
BRANCH   3   5
HETATM    5  C   UNL     1     -11.319   9.534  70.442  1.00  0.00    -0.318 A  
HETATM    6  C   UNL     1     -11.565  10.864  70.132  1.00  0.00    -0.338 A  
HETATM    7  N   UNL     1     -12.498  11.627  70.758  1.00  0.00    -0.357 NA 
HETATM    8  C   UNL     1     -13.215  11.032  71.737  1.00  0.00    -0.400 A  
HETATM    9  C   UNL     1     -13.047   9.709  72.116  1.00  0.00    -0.520 A  
HETATM   10  C   UNL     1     -12.084   8.949  71.455  1.00  0.00    -0.395 A  
ENDBRANCH   3   5
ENDBRANCH   2   3
TORSDOF 2
ENDMDL
MODEL      117
REMARK 921   NORMALIZED FREE ENERGY PREDICTED BY IDOCK:   -2.68 KCAL/MOL
REMARK 922        TOTAL FREE ENERGY PREDICTED BY IDOCK:   -3.07 KCAL/MOL
REMARK 923 INTER-LIGAND FREE ENERGY PREDICTED BY IDOCK:   -3.05 KCAL/MOL
REMARK 924 INTRA-LIGAND FREE ENERGY PREDICTED BY IDOCK:   -0.01 KCAL/MOL
REMARK 927      BINDING AFFINITY PREDICTED BY RF-SCORE:    0.00 PKD
ROOT
HETATM    1  C   UNL     1     -10.669   6.152  68.896  1.00  0.00    -0.312 C  
HETATM    2  O   UNL     1     -11.741   6.487  69.781  1.00  0.00    -0.382 OA 
ENDROOT
BRANCH   2   3
HETATM    3  C   UNL     1     -11.424   7.434  70.697  1.00  0.00    -0.282 C  
HETATM    4  O   UNL     1     -11.431   8.641  70.511  1.00  0.00    -0.260 OA 
BRANCH   3   5
HETATM    5  C   UNL     1     -11.075   6.815  71.994  1.00  0.00    -0.283 A  
HETATM    6  C   UNL     1     -10.351   7.480  72.974  1.00  0.00    -0.322 A  
HETATM    7  N   UNL     1     -10.007   6.930  74.166  1.00  0.00    -0.327 NA 
HETATM    8  C   UNL     1     -10.408   5.658  74.388  1.00  0.00    -0.258 A  
HETATM    9  C   UNL     1     -11.138   4.912  73.475  1.00  0.00    -0.405 A  
HETATM   10  C   UNL     1     -11.478   5.504  72.260  1.00  0.00    -0.221 A  
ENDBRANCH   3   5
ENDBRANCH   2   3
TORSDOF 2
ENDMDL
MODEL      118
REMARK 921   NORMALIZED FREE ENERGY PREDICTED BY IDOCK:   -2.67 KCAL/MOL
REMARK 922        TOTAL FREE ENERGY PREDICTED BY IDOCK:   -3.06 KCAL/MOL
REMARK 923 INTER-LIGAND FREE ENERGY PREDICTED BY IDOCK:   -2.99 KCAL/MOL
REMARK 924 INTRA-LIGAND FREE ENERGY PREDICTED BY IDOCK:   -0.07 KCAL/MOL
REMARK 927      BINDING AFFINITY PREDICTED BY RF-SCORE:    0.00 PKD
ROOT
HETATM    1  C   UNL     1      -7.888   6.133  70.907  1.00  0.00    -0.107 C  
HETATM    2  O   UNL     1      -8.837   6.556  71.888  1.00  0.00    -0.134 OA 
ENDROOT
BRANCH   2   3
HETATM    3  C   UNL     1      -8.802   7.885  72.151  1.00  0.00    -0.146 C  
HETATM    4  O   UNL     1      -7.813   8.527  72.466  1.00  0.00    -0.271 OA 
BRANCH   3   5
HETATM    5  C   UNL     1     -10.143   8.489  71.987  1.00  0.00    -0.386 A  
HETATM    6  C   UNL     1     -11.260   8.038  72.678  1.00  0.00    -0.397 A  
HETATM    7  N   UNL     1     -12.502   8.566  72.536  1.00  0.00    -0.356 NA 
HETATM    8  C   UNL     1     -12.632   9.592  71.666  1.00  0.00    -0.402 A  
HETATM    9  C   UNL     1     -11.578  10.116  70.933  1.00  0.00    -0.459 A  
HETATM   10  C   UNL     1     -10.313   9.555  71.100  1.00  0.00    -0.330 A  
ENDBRANCH   3   5
ENDBRANCH   2   3
TORSDOF 2
ENDMDL
MODEL      119
REMARK 921   NORMALIZED FREE ENERGY PREDICTED BY IDOCK:   -2.65 KCAL/MOL
REMARK 922        TOTAL FREE ENERGY PREDICTED BY IDOCK:   -3.03 KCAL/MOL
REMARK 923 INTER-LIGAND FREE ENERGY PREDICTED BY IDOCK:   -2.93 KCAL/MOL
REMARK 924 INTRA-LIGAND FREE ENERGY PREDICTED BY IDOCK:   -0.10 KCAL/MOL
REMARK 927      BINDING AFFINITY PREDICTED BY RF-SCORE:    0.00 PKD
ROOT
HETATM    1  C   UNL     1      -7.765   8.994  67.371  1.00  0.00    -0.092 C  
HETATM    2  O   UNL     1      -8.708   9.082  66.301  1.00  0.00    -0.125 OA 
ENDROOT
BRANCH   2   3
HETATM    3  C   UNL     1     -10.000   8.975  66.695  1.00  0.00    -0.278 C  
HETATM    4  O   UNL     1     -10.604   7.933  66.896  1.00  0.00    -0.341 OA 
BRANCH   3   5
HETATM    5  C   UNL     1     -10.607  10.312  66.876  1.00  0.00    -0.282 A  
HETATM    6  C   UNL     1     -11.387  10.641  67.976  1.00  0.00    -0.278 A  
HETATM    7  N   UNL     1     -11.964  11.856  68.158  1.00  0.00    -0.528 NA 
HETATM    8  C   UNL     1     -11.750  12.783  67.197  1.00  0.00    -0.380 A  
HETATM    9  C   UNL     1     -10.984  12.553  66.065  1.00  0.00    -0.318 A  
HETATM   10  C   UNL     1     -10.402  11.297  65.905  1.00  0.00    -0.304 A  
ENDBRANCH   3   5
ENDBRANCH   2   3
TORSDOF 2
ENDMDL
MODEL      120
REMARK 921   NORMALIZED FREE ENERGY PREDICTED BY IDOCK:   -2.64 KCAL/MOL
REMARK 922        TOTAL FREE ENERGY PREDICTED BY IDOCK:   -3.02 KCAL/MOL
REMARK 923 INTER-LIGAND FREE ENERGY PREDICTED BY IDOCK:   -2.95 KCAL/MOL
REMARK 924 INTRA-LIGAND FREE ENERGY PREDICTED BY IDOCK:   -0.07 KCAL/MOL
REMARK 927      BINDING AFFINITY PREDICTED BY RF-SCORE:    0.00 PKD
ROOT
HETATM    1  C   UNL     1      -9.870  18.294  69.040  1.00  0.00    -0.250 C  
HETATM    2  O   UNL     1     -10.645  17.276  68.401  1.00  0.00    -0.360 OA 
ENDROOT
BRANCH   2   3
HETATM    3  C   UNL     1     -10.832  16.169  69.160  1.00  0.00    -0.298 C  
HETATM    4  O   UNL     1     -11.133  16.154  70.343  1.00  0.00    -0.353 OA 
BRANCH   3   5
HETATM    5  C   UNL     1     -10.641  14.942  68.356  1.00  0.00    -0.244 A  
HETATM    6  C   UNL     1      -9.506  14.714  67.591  1.00  0.00    -0.205 A  
HETATM    7  N   UNL     1      -9.313  13.603  66.835  1.00  0.00    -0.250 NA 
HETATM    8  C   UNL     1     -10.300  12.679  66.847  1.00  0.00    -0.233 A  
HETATM    9  C   UNL     1     -11.468  12.813  67.581  1.00  0.00    -0.387 A  
HETATM   10  C   UNL     1     -11.638  13.963  68.349  1.00  0.00    -0.368 A  
ENDBRANCH   3   5
ENDBRANCH   2   3
TORSDOF 2
ENDMDL
MODEL      121
REMARK 921   NORMALIZED FREE ENERGY PREDICTED BY IDOCK:   -2.62 KCAL/MOL
REMARK 922        TOTAL FREE ENERGY PREDICTED BY IDOCK:   -3.00 KCAL/MOL
REMARK 923 INTER-LIGAND FREE ENERGY PREDICTED BY IDOCK:   -2.90 KCAL/MOL
REMARK 924 INTRA-LIGAND FREE ENERGY PREDICTED BY IDOCK:   -0.09 KCAL/MOL
REMARK 927      BINDING AFFINITY PREDICTED BY RF-SCORE:    0.00 PKD
ROOT
HETATM    1  C   UNL     1     -10.446  16.502  67.889  1.00  0.00    -0.313 C  
HETATM    2  O   UNL     1      -9.134  16.367  67.339  1.00  0.00    -0.198 OA 
ENDROOT
BRANCH   2   3
HETATM    3  C   UNL     1      -8.584  17.537  66.933  1.00  0.00    -0.247 C  
HETATM    4  O   UNL     1      -8.826  18.119  65.888  1.00  0.00    -0.500 OA 
BRANCH   3   5
HETATM    5  C   UNL     1      -7.638  18.053  67.947  1.00  0.00    -0.231 A  
HETATM    6  C   UNL     1      -6.838  17.222  68.720  1.00  0.00    -0.219 A  
HETATM    7  N   UNL     1      -5.972  17.670  69.665  1.00  0.00    -0.246 NA 
HETATM    8  C   UNL     1      -5.903  19.009  69.843  1.00  0.00    -0.252 A  
HETATM    9  C   UNL     1      -6.657  19.920  69.119  1.00  0.00    -0.368 A  
HETATM   10  C   UNL     1      -7.537  19.431  68.155  1.00  0.00    -0.332 A  
ENDBRANCH   3   5
ENDBRANCH   2   3
TORSDOF 2
ENDMDL
MODEL      122
REMARK 921   NORMALIZED FREE ENERGY PREDICTED BY IDOCK:   -2.62 KCAL/MOL
REMARK 922        TOTAL FREE ENERGY PREDICTED BY IDOCK:   -2.99 KCAL/MOL
REMARK 923 INTER-LIGAND FREE ENERGY PREDICTED BY IDOCK:   -2.90 KCAL/MOL
REMARK 924 INTRA-LIGAND FREE ENERGY PREDICTED BY IDOCK:   -0.10 KCAL/MOL
REMARK 927      BINDING AFFINITY PREDICTED BY RF-SCORE:    0.00 PKD
ROOT
HETATM    1  C   UNL     1      -9.728   9.558  69.099  1.00  0.00    -0.178 C  
HETATM    2  O   UNL     1      -9.968   9.952  70.451  1.00  0.00    -0.259 OA 
ENDROOT
BRANCH   2   3
HETATM    3  C   UNL     1     -11.163   9.540  70.942  1.00  0.00    -0.341 C  
HETATM    4  O   UNL     1     -12.237  10.092  70.767  1.00  0.00    -0.293 OA 
BRANCH   3   5
HETATM    5  C   UNL     1     -11.008   8.294  71.724  1.00  0.00    -0.342 A  
HETATM    6  C   UNL     1     -10.129   8.182  72.792  1.00  0.00    -0.297 A  
HETATM    7  N   UNL     1      -9.960   7.046  73.517  1.00  0.00    -0.249 NA 
HETATM    8  C   UNL     1     -10.705   5.977  73.157  1.00  0.00    -0.260 A  
HETATM    9  C   UNL     1     -11.613   5.991  72.109  1.00  0.00    -0.348 A  
HETATM   10  C   UNL     1     -11.766   7.171  71.384  1.00  0.00    -0.330 A  
ENDBRANCH   3   5
ENDBRANCH   2   3
TORSDOF 2
ENDMDL
MODEL      123
REMARK 921   NORMALIZED FREE ENERGY PREDICTED BY IDOCK:   -2.61 KCAL/MOL
REMARK 922        TOTAL FREE ENERGY PREDICTED BY IDOCK:   -2.98 KCAL/MOL
REMARK 923 INTER-LIGAND FREE ENERGY PREDICTED BY IDOCK:   -2.90 KCAL/MOL
REMARK 924 INTRA-LIGAND FREE ENERGY PREDICTED BY IDOCK:   -0.08 KCAL/MOL
REMARK 927      BINDING AFFINITY PREDICTED BY RF-SCORE:    0.00 PKD
ROOT
HETATM    1  C   UNL     1      -9.892  10.623  68.584  1.00  0.00    -0.179 C  
HETATM    2  O   UNL     1     -10.655  10.566  67.377  1.00  0.00    -0.226 OA 
ENDROOT
BRANCH   2   3
HETATM    3  C   UNL     1     -10.283   9.569  66.538  1.00  0.00    -0.237 C  
HETATM    4  O   UNL     1     -10.240   8.380  66.812  1.00  0.00    -0.280 OA 
BRANCH   3   5
HETATM    5  C   UNL     1      -9.940  10.106  65.203  1.00  0.00    -0.379 A  
HETATM    6  C   UNL     1      -8.970   9.535  64.389  1.00  0.00    -0.212 A  
HETATM    7  N   UNL     1      -8.629  10.017  63.167  1.00  0.00    -0.177 NA 
HETATM    8  C   UNL     1      -9.288  11.117  62.739  1.00  0.00    -0.351 A  
HETATM    9  C   UNL     1     -10.274  11.756  63.475  1.00  0.00    -0.483 A  
HETATM   10  C   UNL     1     -10.605  11.238  64.726  1.00  0.00    -0.376 A  
ENDBRANCH   3   5
ENDBRANCH   2   3
TORSDOF 2
ENDMDL
MODEL      124
REMARK 921   NORMALIZED FREE ENERGY PREDICTED BY IDOCK:   -2.60 KCAL/MOL
REMARK 922        TOTAL FREE ENERGY PREDICTED BY IDOCK:   -2.97 KCAL/MOL
REMARK 923 INTER-LIGAND FREE ENERGY PREDICTED BY IDOCK:   -2.89 KCAL/MOL
REMARK 924 INTRA-LIGAND FREE ENERGY PREDICTED BY IDOCK:   -0.08 KCAL/MOL
REMARK 927      BINDING AFFINITY PREDICTED BY RF-SCORE:    0.00 PKD
ROOT
HETATM    1  C   UNL     1      -9.952  14.284  67.157  1.00  0.00    -0.255 C  
HETATM    2  O   UNL     1      -8.740  14.938  67.541  1.00  0.00    -0.170 OA 
ENDROOT
BRANCH   2   3
HETATM    3  C   UNL     1      -8.930  16.062  68.274  1.00  0.00    -0.183 C  
HETATM    4  O   UNL     1      -9.281  16.104  69.442  1.00  0.00    -0.248 OA 
BRANCH   3   5
HETATM    5  C   UNL     1      -8.634  17.269  67.472  1.00  0.00    -0.213 A  
HETATM    6  C   UNL     1      -7.821  17.243  66.346  1.00  0.00    -0.310 A  
HETATM    7  N   UNL     1      -7.525  18.339  65.602  1.00  0.00    -0.544 NA 
HETATM    8  C   UNL     1      -8.067  19.511  66.001  1.00  0.00    -0.291 A  
HETATM    9  C   UNL     1      -8.893  19.639  67.107  1.00  0.00    -0.374 A  
HETATM   10  C   UNL     1      -9.181  18.497  67.852  1.00  0.00    -0.306 A  
ENDBRANCH   3   5
ENDBRANCH   2   3
TORSDOF 2
ENDMDL
MODEL      125
REMARK 921   NORMALIZED FREE ENERGY PREDICTED BY IDOCK:   -2.59 KCAL/MOL
REMARK 922        TOTAL FREE ENERGY PREDICTED BY IDOCK:   -2.97 KCAL/MOL
REMARK 923 INTER-LIGAND FREE ENERGY PREDICTED BY IDOCK:   -2.90 KCAL/MOL
REMARK 924 INTRA-LIGAND FREE ENERGY PREDICTED BY IDOCK:   -0.07 KCAL/MOL
REMARK 927      BINDING AFFINITY PREDICTED BY RF-SCORE:    0.00 PKD
ROOT
HETATM    1  C   UNL     1      -9.974  16.679  65.910  1.00  0.00    -0.295 C  
HETATM    2  O   UNL     1     -10.705  15.718  66.675  1.00  0.00    -0.314 OA 
ENDROOT
BRANCH   2   3
HETATM    3  C   UNL     1     -11.078  14.622  65.971  1.00  0.00    -0.332 C  
HETATM    4  O   UNL     1     -11.727  14.622  64.938  1.00  0.00    -0.372 OA 
BRANCH   3   5
HETATM    5  C   UNL     1     -10.576  13.388  66.614  1.00  0.00    -0.282 A  
HETATM    6  C   UNL     1      -9.224  13.106  66.746  1.00  0.00    -0.230 A  
HETATM    7  N   UNL     1      -8.739  11.975  67.321  1.00  0.00    -0.167 NA 
HETATM    8  C   UNL     1      -9.648  11.089  67.785  1.00  0.00    -0.170 A  
HETATM    9  C   UNL     1     -11.019  11.282  67.704  1.00  0.00    -0.312 A  
HETATM   10  C   UNL     1     -11.488  12.452  67.110  1.00  0.00    -0.423 A  
ENDBRANCH   3   5
ENDBRANCH   2   3
TORSDOF 2
ENDMDL
MODEL      126
REMARK 921   NORMALIZED FREE ENERGY PREDICTED BY IDOCK:   -2.58 KCAL/MOL
REMARK 922        TOTAL FREE ENERGY PREDICTED BY IDOCK:   -2.95 KCAL/MOL
REMARK 923 INTER-LIGAND FREE ENERGY PREDICTED BY IDOCK:   -2.86 KCAL/MOL
REMARK 924 INTRA-LIGAND FREE ENERGY PREDICTED BY IDOCK:   -0.09 KCAL/MOL
REMARK 927      BINDING AFFINITY PREDICTED BY RF-SCORE:    0.00 PKD
ROOT
HETATM    1  C   UNL     1      -8.289  16.502  68.452  1.00  0.00    -0.200 C  
HETATM    2  O   UNL     1      -9.144  15.537  67.835  1.00  0.00    -0.174 OA 
ENDROOT
BRANCH   2   3
HETATM    3  C   UNL     1     -10.455  15.883  67.835  1.00  0.00    -0.288 C  
HETATM    4  O   UNL     1     -10.986  16.676  67.074  1.00  0.00    -0.157 OA 
BRANCH   3   5
HETATM    5  C   UNL     1     -11.191  15.150  68.887  1.00  0.00    -0.292 A  
HETATM    6  C   UNL     1     -11.831  15.789  69.941  1.00  0.00    -0.344 A  
HETATM    7  N   UNL     1     -12.502  15.137  70.925  1.00  0.00    -0.334 NA 
HETATM    8  C   UNL     1     -12.536  13.788  70.850  1.00  0.00    -0.377 A  
HETATM    9  C   UNL     1     -11.933  13.060  69.837  1.00  0.00    -0.381 A  
HETATM   10  C   UNL     1     -11.251  13.755  68.839  1.00  0.00    -0.309 A  
ENDBRANCH   3   5
ENDBRANCH   2   3
TORSDOF 2
ENDMDL
MODEL      127
REMARK 921   NORMALIZED FREE ENERGY PREDICTED BY IDOCK:   -2.57 KCAL/MOL
REMARK 922        TOTAL FREE ENERGY PREDICTED BY IDOCK:   -2.94 KCAL/MOL
REMARK 923 INTER-LIGAND FREE ENERGY PREDICTED BY IDOCK:   -2.89 KCAL/MOL
REMARK 924 INTRA-LIGAND FREE ENERGY PREDICTED BY IDOCK:   -0.05 KCAL/MOL
REMARK 927      BINDING AFFINITY PREDICTED BY RF-SCORE:    0.00 PKD
ROOT
HETATM    1  C   UNL     1      -9.310   8.139  69.131  1.00  0.00    -0.151 C  
HETATM    2  O   UNL     1     -10.608   8.535  68.681  1.00  0.00    -0.198 OA 
ENDROOT
BRANCH   2   3
HETATM    3  C   UNL     1     -10.601   9.209  67.505  1.00  0.00    -0.249 C  
HETATM    4  O   UNL     1     -10.262   8.757  66.423  1.00  0.00    -0.289 OA 
BRANCH   3   5
HETATM    5  C   UNL     1     -11.083  10.595  67.691  1.00  0.00    -0.385 A  
HETATM    6  C   UNL     1     -11.129  11.520  66.657  1.00  0.00    -0.295 A  
HETATM    7  N   UNL     1     -11.556  12.800  66.806  1.00  0.00    -0.350 NA 
HETATM    8  C   UNL     1     -11.956  13.170  68.043  1.00  0.00    -0.304 A  
HETATM    9  C   UNL     1     -11.952  12.319  69.138  1.00  0.00    -0.303 A  
HETATM   10  C   UNL     1     -11.510  11.010  68.956  1.00  0.00    -0.368 A  
ENDBRANCH   3   5
ENDBRANCH   2   3
TORSDOF 2
ENDMDL
MODEL      128
REMARK 921   NORMALIZED FREE ENERGY PREDICTED BY IDOCK:   -2.57 KCAL/MOL
REMARK 922        TOTAL FREE ENERGY PREDICTED BY IDOCK:   -2.94 KCAL/MOL
REMARK 923 INTER-LIGAND FREE ENERGY PREDICTED BY IDOCK:   -2.96 KCAL/MOL
REMARK 924 INTRA-LIGAND FREE ENERGY PREDICTED BY IDOCK:    0.02 KCAL/MOL
REMARK 927      BINDING AFFINITY PREDICTED BY RF-SCORE:    0.00 PKD
ROOT
HETATM    1  C   UNL     1     -10.145  19.738  68.686  1.00  0.00    -0.440 C  
HETATM    2  O   UNL     1      -9.209  20.094  67.666  1.00  0.00    -0.341 OA 
ENDROOT
BRANCH   2   3
HETATM    3  C   UNL     1      -8.658  19.033  67.028  1.00  0.00    -0.293 C  
HETATM    4  O   UNL     1      -8.816  18.743  65.853  1.00  0.00    -0.465 OA 
BRANCH   3   5
HETATM    5  C   UNL     1      -7.803  18.252  67.949  1.00  0.00    -0.255 A  
HETATM    6  C   UNL     1      -8.053  16.923  68.261  1.00  0.00    -0.217 A  
HETATM    7  N   UNL     1      -7.290  16.189  69.112  1.00  0.00    -0.207 NA 
HETATM    8  C   UNL     1      -6.232  16.814  69.674  1.00  0.00    -0.228 A  
HETATM    9  C   UNL     1      -5.898  18.136  69.423  1.00  0.00    -0.235 A  
HETATM   10  C   UNL     1      -6.697  18.864  68.544  1.00  0.00    -0.278 A  
ENDBRANCH   3   5
ENDBRANCH   2   3
TORSDOF 2
ENDMDL
MODEL      129
REMARK 921   NORMALIZED FREE ENERGY PREDICTED BY IDOCK:   -2.56 KCAL/MOL
REMARK 922        TOTAL FREE ENERGY PREDICTED BY IDOCK:   -2.93 KCAL/MOL
REMARK 923 INTER-LIGAND FREE ENERGY PREDICTED BY IDOCK:   -2.88 KCAL/MOL
REMARK 924 INTRA-LIGAND FREE ENERGY PREDICTED BY IDOCK:   -0.06 KCAL/MOL
REMARK 927      BINDING AFFINITY PREDICTED BY RF-SCORE:    0.00 PKD
ROOT
HETATM    1  C   UNL     1     -11.948  13.045  69.469  1.00  0.00    -0.289 C  
HETATM    2  O   UNL     1     -11.395  11.931  68.764  1.00  0.00    -0.227 OA 
ENDROOT
BRANCH   2   3
HETATM    3  C   UNL     1     -11.552  11.998  67.419  1.00  0.00    -0.318 C  
HETATM    4  O   UNL     1     -12.270  12.782  66.820  1.00  0.00    -0.470 OA 
BRANCH   3   5
HETATM    5  C   UNL     1     -10.711  10.987  66.741  1.00  0.00    -0.319 A  
HETATM    6  C   UNL     1      -9.848  11.303  65.701  1.00  0.00    -0.234 A  
HETATM    7  N   UNL     1      -9.075  10.392  65.055  1.00  0.00    -0.188 NA 
HETATM    8  C   UNL     1      -9.171   9.109  65.470  1.00  0.00    -0.224 A  
HETATM    9  C   UNL     1      -9.999   8.695  66.502  1.00  0.00    -0.353 A  
HETATM   10  C   UNL     1     -10.779   9.652  67.148  1.00  0.00    -0.258 A  
ENDBRANCH   3   5
ENDBRANCH   2   3
TORSDOF 2
ENDMDL
MODEL      130
REMARK 921   NORMALIZED FREE ENERGY PREDICTED BY IDOCK:   -2.55 KCAL/MOL
REMARK 922        TOTAL FREE ENERGY PREDICTED BY IDOCK:   -2.92 KCAL/MOL
REMARK 923 INTER-LIGAND FREE ENERGY PREDICTED BY IDOCK:   -2.85 KCAL/MOL
REMARK 924 INTRA-LIGAND FREE ENERGY PREDICTED BY IDOCK:   -0.07 KCAL/MOL
REMARK 927      BINDING AFFINITY PREDICTED BY RF-SCORE:    0.00 PKD
ROOT
HETATM    1  C   UNL     1     -10.069  10.243  67.532  1.00  0.00    -0.198 C  
HETATM    2  O   UNL     1     -10.752   9.291  68.351  1.00  0.00    -0.211 OA 
ENDROOT
BRANCH   2   3
HETATM    3  C   UNL     1     -11.072   9.754  69.584  1.00  0.00    -0.217 C  
HETATM    4  O   UNL     1     -11.300  10.917  69.876  1.00  0.00    -0.268 OA 
BRANCH   3   5
HETATM    5  C   UNL     1     -11.131   8.645  70.562  1.00  0.00    -0.268 A  
HETATM    6  C   UNL     1     -11.351   7.326  70.191  1.00  0.00    -0.207 A  
HETATM    7  N   UNL     1     -11.422   6.294  71.070  1.00  0.00    -0.322 NA 
HETATM    8  C   UNL     1     -11.263   6.596  72.378  1.00  0.00    -0.267 A  
HETATM    9  C   UNL     1     -11.034   7.880  72.848  1.00  0.00    -0.452 A  
HETATM   10  C   UNL     1     -10.965   8.920  71.922  1.00  0.00    -0.439 A  
ENDBRANCH   3   5
ENDBRANCH   2   3
TORSDOF 2
ENDMDL
MODEL      131
REMARK 921   NORMALIZED FREE ENERGY PREDICTED BY IDOCK:   -2.53 KCAL/MOL
REMARK 922        TOTAL FREE ENERGY PREDICTED BY IDOCK:   -2.90 KCAL/MOL
REMARK 923 INTER-LIGAND FREE ENERGY PREDICTED BY IDOCK:   -2.81 KCAL/MOL
REMARK 924 INTRA-LIGAND FREE ENERGY PREDICTED BY IDOCK:   -0.09 KCAL/MOL
REMARK 927      BINDING AFFINITY PREDICTED BY RF-SCORE:    0.00 PKD
ROOT
HETATM    1  C   UNL     1      -8.250   6.657  68.130  1.00  0.00    -0.114 C  
HETATM    2  O   UNL     1      -9.297   7.621  68.266  1.00  0.00    -0.145 OA 
ENDROOT
BRANCH   2   3
HETATM    3  C   UNL     1     -10.515   7.081  68.511  1.00  0.00    -0.200 C  
HETATM    4  O   UNL     1     -11.155   6.380  67.743  1.00  0.00    -0.328 OA 
BRANCH   3   5
HETATM    5  C   UNL     1     -10.986   7.438  69.867  1.00  0.00    -0.239 A  
HETATM    6  C   UNL     1     -11.624   6.532  70.704  1.00  0.00    -0.381 A  
HETATM    7  N   UNL     1     -12.076   6.839  71.947  1.00  0.00    -0.329 NA 
HETATM    8  C   UNL     1     -11.879   8.108  72.371  1.00  0.00    -0.388 A  
HETATM    9  C   UNL     1     -11.249   9.082  71.612  1.00  0.00    -0.431 A  
HETATM   10  C   UNL     1     -10.795   8.739  70.341  1.00  0.00    -0.256 A  
ENDBRANCH   3   5
ENDBRANCH   2   3
TORSDOF 2
ENDMDL
MODEL      132
REMARK 921   NORMALIZED FREE ENERGY PREDICTED BY IDOCK:   -2.52 KCAL/MOL
REMARK 922        TOTAL FREE ENERGY PREDICTED BY IDOCK:   -2.89 KCAL/MOL
REMARK 923 INTER-LIGAND FREE ENERGY PREDICTED BY IDOCK:   -2.80 KCAL/MOL
REMARK 924 INTRA-LIGAND FREE ENERGY PREDICTED BY IDOCK:   -0.09 KCAL/MOL
REMARK 927      BINDING AFFINITY PREDICTED BY RF-SCORE:    0.00 PKD
ROOT
HETATM    1  C   UNL     1      -9.152   4.693  74.543  1.00  0.00    -0.110 C  
HETATM    2  O   UNL     1     -10.179   5.675  74.385  1.00  0.00    -0.248 OA 
ENDROOT
BRANCH   2   3
HETATM    3  C   UNL     1     -11.019   5.431  73.350  1.00  0.00    -0.297 C  
HETATM    4  O   UNL     1     -11.780   4.482  73.253  1.00  0.00    -0.262 OA 
BRANCH   3   5
HETATM    5  C   UNL     1     -10.915   6.495  72.327  1.00  0.00    -0.281 A  
HETATM    6  C   UNL     1     -11.138   6.264  70.976  1.00  0.00    -0.298 A  
HETATM    7  N   UNL     1     -11.037   7.221  70.018  1.00  0.00    -0.260 NA 
HETATM    8  C   UNL     1     -10.699   8.463  70.430  1.00  0.00    -0.231 A  
HETATM    9  C   UNL     1     -10.460   8.794  71.755  1.00  0.00    -0.417 A  
HETATM   10  C   UNL     1     -10.573   7.793  72.718  1.00  0.00    -0.401 A  
ENDBRANCH   3   5
ENDBRANCH   2   3
TORSDOF 2
ENDMDL
MODEL      133
REMARK 921   NORMALIZED FREE ENERGY PREDICTED BY IDOCK:   -2.52 KCAL/MOL
REMARK 922        TOTAL FREE ENERGY PREDICTED BY IDOCK:   -2.89 KCAL/MOL
REMARK 923 INTER-LIGAND FREE ENERGY PREDICTED BY IDOCK:   -2.82 KCAL/MOL
REMARK 924 INTRA-LIGAND FREE ENERGY PREDICTED BY IDOCK:   -0.07 KCAL/MOL
REMARK 927      BINDING AFFINITY PREDICTED BY RF-SCORE:    0.00 PKD
ROOT
HETATM    1  C   UNL     1     -12.453  10.690  71.323  1.00  0.00    -0.410 C  
HETATM    2  O   UNL     1     -11.365  11.212  70.558  1.00  0.00    -0.205 OA 
ENDROOT
BRANCH   2   3
HETATM    3  C   UNL     1     -11.066  10.482  69.455  1.00  0.00    -0.268 C  
HETATM    4  O   UNL     1     -11.032   9.264  69.391  1.00  0.00    -0.212 OA 
BRANCH   3   5
HETATM    5  C   UNL     1     -10.796  11.364  68.299  1.00  0.00    -0.253 A  
HETATM    6  C   UNL     1      -9.588  11.355  67.613  1.00  0.00    -0.169 A  
HETATM    7  N   UNL     1      -9.312  12.163  66.557  1.00  0.00    -0.225 NA 
HETATM    8  C   UNL     1     -10.287  13.015  66.170  1.00  0.00    -0.278 A  
HETATM    9  C   UNL     1     -11.526  13.095  66.786  1.00  0.00    -0.386 A  
HETATM   10  C   UNL     1     -11.783  12.253  67.867  1.00  0.00    -0.410 A  
ENDBRANCH   3   5
ENDBRANCH   2   3
TORSDOF 2
ENDMDL
MODEL      134
REMARK 921   NORMALIZED FREE ENERGY PREDICTED BY IDOCK:   -2.50 KCAL/MOL
REMARK 922        TOTAL FREE ENERGY PREDICTED BY IDOCK:   -2.86 KCAL/MOL
REMARK 923 INTER-LIGAND FREE ENERGY PREDICTED BY IDOCK:   -2.80 KCAL/MOL
REMARK 924 INTRA-LIGAND FREE ENERGY PREDICTED BY IDOCK:   -0.06 KCAL/MOL
REMARK 927      BINDING AFFINITY PREDICTED BY RF-SCORE:    0.00 PKD
ROOT
HETATM    1  C   UNL     1      -9.200   4.429  68.421  1.00  0.00    -0.137 C  
HETATM    2  O   UNL     1     -10.297   4.962  69.165  1.00  0.00    -0.166 OA 
ENDROOT
BRANCH   2   3
HETATM    3  C   UNL     1     -10.785   6.126  68.670  1.00  0.00    -0.307 C  
HETATM    4  O   UNL     1     -10.942   6.392  67.489  1.00  0.00    -0.318 OA 
BRANCH   3   5
HETATM    5  C   UNL     1     -11.131   7.059  69.765  1.00  0.00    -0.278 A  
HETATM    6  C   UNL     1     -12.032   6.736  70.770  1.00  0.00    -0.378 A  
HETATM    7  N   UNL     1     -12.375   7.579  71.778  1.00  0.00    -0.315 NA 
HETATM    8  C   UNL     1     -11.789   8.798  71.779  1.00  0.00    -0.344 A  
HETATM    9  C   UNL     1     -10.875   9.211  70.823  1.00  0.00    -0.331 A  
HETATM   10  C   UNL     1     -10.540   8.325  69.801  1.00  0.00    -0.228 A  
ENDBRANCH   3   5
ENDBRANCH   2   3
TORSDOF 2
ENDMDL
MODEL      135
REMARK 921   NORMALIZED FREE ENERGY PREDICTED BY IDOCK:   -2.49 KCAL/MOL
REMARK 922        TOTAL FREE ENERGY PREDICTED BY IDOCK:   -2.85 KCAL/MOL
REMARK 923 INTER-LIGAND FREE ENERGY PREDICTED BY IDOCK:   -2.78 KCAL/MOL
REMARK 924 INTRA-LIGAND FREE ENERGY PREDICTED BY IDOCK:   -0.08 KCAL/MOL
REMARK 927      BINDING AFFINITY PREDICTED BY RF-SCORE:    0.00 PKD
ROOT
HETATM    1  C   UNL     1      -8.368  13.934  67.702  1.00  0.00    -0.181 C  
HETATM    2  O   UNL     1      -8.454  15.113  66.898  1.00  0.00    -0.219 OA 
ENDROOT
BRANCH   2   3
HETATM    3  C   UNL     1      -7.495  16.032  67.165  1.00  0.00    -0.218 C  
HETATM    4  O   UNL     1      -6.295  15.886  66.994  1.00  0.00    -0.309 OA 
BRANCH   3   5
HETATM    5  C   UNL     1      -8.094  17.280  67.687  1.00  0.00    -0.198 A  
HETATM    6  C   UNL     1      -7.341  18.286  68.278  1.00  0.00    -0.269 A  
HETATM    7  N   UNL     1      -7.869  19.433  68.775  1.00  0.00    -0.357 NA 
HETATM    8  C   UNL     1      -9.209  19.581  68.676  1.00  0.00    -0.353 A  
HETATM    9  C   UNL     1     -10.045  18.637  68.101  1.00  0.00    -0.418 A  
HETATM   10  C   UNL     1      -9.475  17.469  67.597  1.00  0.00    -0.256 A  
ENDBRANCH   3   5
ENDBRANCH   2   3
TORSDOF 2
ENDMDL
MODEL      136
REMARK 921   NORMALIZED FREE ENERGY PREDICTED BY IDOCK:   -2.49 KCAL/MOL
REMARK 922        TOTAL FREE ENERGY PREDICTED BY IDOCK:   -2.85 KCAL/MOL
REMARK 923 INTER-LIGAND FREE ENERGY PREDICTED BY IDOCK:   -2.78 KCAL/MOL
REMARK 924 INTRA-LIGAND FREE ENERGY PREDICTED BY IDOCK:   -0.07 KCAL/MOL
REMARK 927      BINDING AFFINITY PREDICTED BY RF-SCORE:    0.00 PKD
ROOT
HETATM    1  C   UNL     1     -10.184   4.660  66.432  1.00  0.00    -0.260 C  
HETATM    2  O   UNL     1     -10.164   4.845  67.849  1.00  0.00    -0.123 OA 
ENDROOT
BRANCH   2   3
HETATM    3  C   UNL     1     -10.814   5.957  68.269  1.00  0.00    -0.240 C  
HETATM    4  O   UNL     1     -11.239   6.851  67.554  1.00  0.00    -0.245 OA 
BRANCH   3   5
HETATM    5  C   UNL     1     -10.968   5.953  69.740  1.00  0.00    -0.452 A  
HETATM    6  C   UNL     1     -10.354   5.014  70.557  1.00  0.00    -0.215 A  
HETATM    7  N   UNL     1     -10.490   4.981  71.908  1.00  0.00    -0.207 NA 
HETATM    8  C   UNL     1     -11.275   5.931  72.464  1.00  0.00    -0.294 A  
HETATM    9  C   UNL     1     -11.927   6.913  71.735  1.00  0.00    -0.372 A  
HETATM   10  C   UNL     1     -11.768   6.923  70.350  1.00  0.00    -0.377 A  
ENDBRANCH   3   5
ENDBRANCH   2   3
TORSDOF 2
ENDMDL
MODEL      137
REMARK 921   NORMALIZED FREE ENERGY PREDICTED BY IDOCK:   -2.47 KCAL/MOL
REMARK 922        TOTAL FREE ENERGY PREDICTED BY IDOCK:   -2.83 KCAL/MOL
REMARK 923 INTER-LIGAND FREE ENERGY PREDICTED BY IDOCK:   -2.77 KCAL/MOL
REMARK 924 INTRA-LIGAND FREE ENERGY PREDICTED BY IDOCK:   -0.06 KCAL/MOL
REMARK 927      BINDING AFFINITY PREDICTED BY RF-SCORE:    0.00 PKD
ROOT
HETATM    1  C   UNL     1      -7.521  11.725  67.602  1.00  0.00    -0.123 C  
HETATM    2  O   UNL     1      -8.546  11.825  68.593  1.00  0.00    -0.142 OA 
ENDROOT
BRANCH   2   3
HETATM    3  C   UNL     1      -9.725  11.269  68.225  1.00  0.00    -0.198 C  
HETATM    4  O   UNL     1     -10.163  11.208  67.087  1.00  0.00    -0.189 OA 
BRANCH   3   5
HETATM    5  C   UNL     1     -10.433  10.711  69.398  1.00  0.00    -0.252 A  
HETATM    6  C   UNL     1      -9.938   9.646  70.138  1.00  0.00    -0.261 A  
HETATM    7  N   UNL     1     -10.575   9.109  71.210  1.00  0.00    -0.302 NA 
HETATM    8  C   UNL     1     -11.758   9.664  71.557  1.00  0.00    -0.400 A  
HETATM    9  C   UNL     1     -12.332  10.732  70.885  1.00  0.00    -0.497 A  
HETATM   10  C   UNL     1     -11.656  11.264  69.789  1.00  0.00    -0.408 A  
ENDBRANCH   3   5
ENDBRANCH   2   3
TORSDOF 2
ENDMDL
MODEL      138
REMARK 921   NORMALIZED FREE ENERGY PREDICTED BY IDOCK:   -2.44 KCAL/MOL
REMARK 922        TOTAL FREE ENERGY PREDICTED BY IDOCK:   -2.79 KCAL/MOL
REMARK 923 INTER-LIGAND FREE ENERGY PREDICTED BY IDOCK:   -2.83 KCAL/MOL
REMARK 924 INTRA-LIGAND FREE ENERGY PREDICTED BY IDOCK:    0.04 KCAL/MOL
REMARK 927      BINDING AFFINITY PREDICTED BY RF-SCORE:    0.00 PKD
ROOT
HETATM    1  C   UNL     1     -10.540  12.741  64.505  1.00  0.00    -0.360 C  
HETATM    2  O   UNL     1     -11.509  13.141  65.477  1.00  0.00    -0.304 OA 
ENDROOT
BRANCH   2   3
HETATM    3  C   UNL     1     -10.987  13.405  66.699  1.00  0.00    -0.287 C  
HETATM    4  O   UNL     1     -11.200  12.772  67.721  1.00  0.00    -0.247 OA 
BRANCH   3   5
HETATM    5  C   UNL     1     -10.085  14.576  66.644  1.00  0.00    -0.275 A  
HETATM    6  C   UNL     1      -8.750  14.515  67.020  1.00  0.00    -0.234 A  
HETATM    7  N   UNL     1      -7.907  15.579  66.990  1.00  0.00    -0.223 NA 
HETATM    8  C   UNL     1      -8.422  16.754  66.564  1.00  0.00    -0.283 A  
HETATM    9  C   UNL     1      -9.740  16.915  66.164  1.00  0.00    -0.296 A  
HETATM   10  C   UNL     1     -10.583  15.806  66.204  1.00  0.00    -0.318 A  
ENDBRANCH   3   5
ENDBRANCH   2   3
TORSDOF 2
ENDMDL
MODEL      139
REMARK 921   NORMALIZED FREE ENERGY PREDICTED BY IDOCK:   -2.43 KCAL/MOL
REMARK 922        TOTAL FREE ENERGY PREDICTED BY IDOCK:   -2.78 KCAL/MOL
REMARK 923 INTER-LIGAND FREE ENERGY PREDICTED BY IDOCK:   -2.71 KCAL/MOL
REMARK 924 INTRA-LIGAND FREE ENERGY PREDICTED BY IDOCK:   -0.07 KCAL/MOL
REMARK 927      BINDING AFFINITY PREDICTED BY RF-SCORE:    0.00 PKD
ROOT
HETATM    1  C   UNL     1      -7.214   7.492  73.493  1.00  0.00    -0.084 C  
HETATM    2  O   UNL     1      -8.472   8.161  73.378  1.00  0.00    -0.207 OA 
ENDROOT
BRANCH   2   3
HETATM    3  C   UNL     1      -8.797   8.510  72.110  1.00  0.00    -0.216 C  
HETATM    4  O   UNL     1      -8.120   9.197  71.360  1.00  0.00    -0.318 OA 
BRANCH   3   5
HETATM    5  C   UNL     1     -10.100   7.928  71.722  1.00  0.00    -0.236 A  
HETATM    6  C   UNL     1     -10.213   6.844  70.862  1.00  0.00    -0.197 A  
HETATM    7  N   UNL     1     -11.398   6.301  70.481  1.00  0.00    -0.358 NA 
HETATM    8  C   UNL     1     -12.517   6.866  70.985  1.00  0.00    -0.313 A  
HETATM    9  C   UNL     1     -12.509   7.947  71.852  1.00  0.00    -0.352 A  
HETATM   10  C   UNL     1     -11.278   8.484  72.227  1.00  0.00    -0.432 A  
ENDBRANCH   3   5
ENDBRANCH   2   3
TORSDOF 2
ENDMDL
MODEL      140
REMARK 921   NORMALIZED FREE ENERGY PREDICTED BY IDOCK:   -2.41 KCAL/MOL
REMARK 922        TOTAL FREE ENERGY PREDICTED BY IDOCK:   -2.77 KCAL/MOL
REMARK 923 INTER-LIGAND FREE ENERGY PREDICTED BY IDOCK:   -2.70 KCAL/MOL
REMARK 924 INTRA-LIGAND FREE ENERGY PREDICTED BY IDOCK:   -0.07 KCAL/MOL
REMARK 927      BINDING AFFINITY PREDICTED BY RF-SCORE:    0.00 PKD
ROOT
HETATM    1  C   UNL     1     -11.266  13.306  67.250  1.00  0.00    -0.292 C  
HETATM    2  O   UNL     1     -10.190  13.967  67.919  1.00  0.00    -0.232 OA 
ENDROOT
BRANCH   2   3
HETATM    3  C   UNL     1     -10.590  14.903  68.814  1.00  0.00    -0.247 C  
HETATM    4  O   UNL     1     -11.411  14.738  69.703  1.00  0.00    -0.259 OA 
BRANCH   3   5
HETATM    5  C   UNL     1      -9.881  16.181  68.591  1.00  0.00    -0.226 A  
HETATM    6  C   UNL     1     -10.544  17.389  68.421  1.00  0.00    -0.355 A  
HETATM    7  N   UNL     1      -9.916  18.573  68.203  1.00  0.00    -0.342 NA 
HETATM    8  C   UNL     1      -8.565  18.546  68.154  1.00  0.00    -0.303 A  
HETATM    9  C   UNL     1      -7.813  17.393  68.316  1.00  0.00    -0.247 A  
HETATM   10  C   UNL     1      -8.485  16.192  68.540  1.00  0.00    -0.197 A  
ENDBRANCH   3   5
ENDBRANCH   2   3
TORSDOF 2
ENDMDL
MODEL      141
REMARK 921   NORMALIZED FREE ENERGY PREDICTED BY IDOCK:   -2.41 KCAL/MOL
REMARK 922        TOTAL FREE ENERGY PREDICTED BY IDOCK:   -2.76 KCAL/MOL
REMARK 923 INTER-LIGAND FREE ENERGY PREDICTED BY IDOCK:   -2.71 KCAL/MOL
REMARK 924 INTRA-LIGAND FREE ENERGY PREDICTED BY IDOCK:   -0.05 KCAL/MOL
REMARK 927      BINDING AFFINITY PREDICTED BY RF-SCORE:    0.00 PKD
ROOT
HETATM    1  C   UNL     1     -10.272  11.016  65.553  1.00  0.00    -0.268 C  
HETATM    2  O   UNL     1     -10.213  12.424  65.792  1.00  0.00    -0.250 OA 
ENDROOT
BRANCH   2   3
HETATM    3  C   UNL     1      -9.538  12.764  66.917  1.00  0.00    -0.235 C  
HETATM    4  O   UNL     1      -8.329  12.697  67.074  1.00  0.00    -0.178 OA 
BRANCH   3   5
HETATM    5  C   UNL     1     -10.465  13.258  67.958  1.00  0.00    -0.248 A  
HETATM    6  C   UNL     1     -11.139  12.411  68.828  1.00  0.00    -0.262 A  
HETATM    7  N   UNL     1     -12.004  12.839  69.783  1.00  0.00    -0.314 NA 
HETATM    8  C   UNL     1     -12.202  14.173  69.872  1.00  0.00    -0.359 A  
HETATM    9  C   UNL     1     -11.574  15.099  69.053  1.00  0.00    -0.350 A  
HETATM   10  C   UNL     1     -10.690  14.631  68.083  1.00  0.00    -0.242 A  
ENDBRANCH   3   5
ENDBRANCH   2   3
TORSDOF 2
ENDMDL
MODEL      142
REMARK 921   NORMALIZED FREE ENERGY PREDICTED BY IDOCK:   -2.40 KCAL/MOL
REMARK 922        TOTAL FREE ENERGY PREDICTED BY IDOCK:   -2.75 KCAL/MOL
REMARK 923 INTER-LIGAND FREE ENERGY PREDICTED BY IDOCK:   -2.69 KCAL/MOL
REMARK 924 INTRA-LIGAND FREE ENERGY PREDICTED BY IDOCK:   -0.07 KCAL/MOL
REMARK 927      BINDING AFFINITY PREDICTED BY RF-SCORE:    0.00 PKD
ROOT
HETATM    1  C   UNL     1     -12.468  10.474  70.829  1.00  0.00    -0.378 C  
HETATM    2  O   UNL     1     -11.231  10.222  70.160  1.00  0.00    -0.272 OA 
ENDROOT
BRANCH   2   3
HETATM    3  C   UNL     1     -11.277  10.426  68.821  1.00  0.00    -0.241 C  
HETATM    4  O   UNL     1     -12.077  11.136  68.232  1.00  0.00    -0.620 OA 
BRANCH   3   5
HETATM    5  C   UNL     1     -10.199   9.679  68.137  1.00  0.00    -0.225 A  
HETATM    6  C   UNL     1      -9.054   9.245  68.791  1.00  0.00    -0.136 A  
HETATM    7  N   UNL     1      -8.045   8.569  68.183  1.00  0.00    -0.118 NA 
HETATM    8  C   UNL     1      -8.191   8.315  66.864  1.00  0.00    -0.103 A  
HETATM    9  C   UNL     1      -9.297   8.703  66.124  1.00  0.00    -0.291 A  
HETATM   10  C   UNL     1     -10.318   9.394  66.775  1.00  0.00    -0.303 A  
ENDBRANCH   3   5
ENDBRANCH   2   3
TORSDOF 2
ENDMDL
MODEL      143
REMARK 921   NORMALIZED FREE ENERGY PREDICTED BY IDOCK:   -2.37 KCAL/MOL
REMARK 922        TOTAL FREE ENERGY PREDICTED BY IDOCK:   -2.72 KCAL/MOL
REMARK 923 INTER-LIGAND FREE ENERGY PREDICTED BY IDOCK:   -2.62 KCAL/MOL
REMARK 924 INTRA-LIGAND FREE ENERGY PREDICTED BY IDOCK:   -0.10 KCAL/MOL
REMARK 927      BINDING AFFINITY PREDICTED BY RF-SCORE:    0.00 PKD
ROOT
HETATM    1  C   UNL     1     -11.148  11.913  65.051  1.00  0.00    -0.305 C  
HETATM    2  O   UNL     1     -10.685  12.064  66.395  1.00  0.00    -0.242 OA 
ENDROOT
BRANCH   2   3
HETATM    3  C   UNL     1     -11.016  11.034  67.210  1.00  0.00    -0.297 C  
HETATM    4  O   UNL     1     -12.011  10.970  67.916  1.00  0.00    -0.620 OA 
BRANCH   3   5
HETATM    5  C   UNL     1     -10.008   9.954  67.130  1.00  0.00    -0.252 A  
HETATM    6  C   UNL     1      -8.653  10.175  67.333  1.00  0.00    -0.122 A  
HETATM    7  N   UNL     1      -7.707   9.204  67.252  1.00  0.00    -0.095 NA 
HETATM    8  C   UNL     1      -8.139   7.957  66.957  1.00  0.00    -0.116 A  
HETATM    9  C   UNL     1      -9.470   7.635  66.742  1.00  0.00    -0.244 A  
HETATM   10  C   UNL     1     -10.418   8.652  66.833  1.00  0.00    -0.329 A  
ENDBRANCH   3   5
ENDBRANCH   2   3
TORSDOF 2
ENDMDL
MODEL      144
REMARK 921   NORMALIZED FREE ENERGY PREDICTED BY IDOCK:   -2.36 KCAL/MOL
REMARK 922        TOTAL FREE ENERGY PREDICTED BY IDOCK:   -2.71 KCAL/MOL
REMARK 923 INTER-LIGAND FREE ENERGY PREDICTED BY IDOCK:   -2.64 KCAL/MOL
REMARK 924 INTRA-LIGAND FREE ENERGY PREDICTED BY IDOCK:   -0.07 KCAL/MOL
REMARK 927      BINDING AFFINITY PREDICTED BY RF-SCORE:    0.00 PKD
ROOT
HETATM    1  C   UNL     1     -10.723  19.089  65.879  1.00  0.00    -0.327 C  
HETATM    2  O   UNL     1      -9.915  18.798  67.022  1.00  0.00    -0.311 OA 
ENDROOT
BRANCH   2   3
HETATM    3  C   UNL     1      -8.631  18.483  66.723  1.00  0.00    -0.284 C  
HETATM    4  O   UNL     1      -7.989  18.913  65.778  1.00  0.00    -0.473 OA 
BRANCH   3   5
HETATM    5  C   UNL     1      -8.076  17.539  67.718  1.00  0.00    -0.221 A  
HETATM    6  C   UNL     1      -6.785  17.646  68.217  1.00  0.00    -0.200 A  
HETATM    7  N   UNL     1      -6.249  16.785  69.120  1.00  0.00    -0.176 NA 
HETATM    8  C   UNL     1      -7.042  15.775  69.544  1.00  0.00    -0.190 A  
HETATM    9  C   UNL     1      -8.344  15.586  69.109  1.00  0.00    -0.253 A  
HETATM   10  C   UNL     1      -8.868  16.486  68.182  1.00  0.00    -0.203 A  
ENDBRANCH   3   5
ENDBRANCH   2   3
TORSDOF 2
ENDMDL
MODEL      145
REMARK 921   NORMALIZED FREE ENERGY PREDICTED BY IDOCK:   -2.30 KCAL/MOL
REMARK 922        TOTAL FREE ENERGY PREDICTED BY IDOCK:   -2.65 KCAL/MOL
REMARK 923 INTER-LIGAND FREE ENERGY PREDICTED BY IDOCK:   -2.56 KCAL/MOL
REMARK 924 INTRA-LIGAND FREE ENERGY PREDICTED BY IDOCK:   -0.08 KCAL/MOL
REMARK 927      BINDING AFFINITY PREDICTED BY RF-SCORE:    0.00 PKD
ROOT
HETATM    1  C   UNL     1     -11.674  11.256  68.455  1.00  0.00    -0.294 C  
HETATM    2  O   UNL     1     -10.445  10.710  67.972  1.00  0.00    -0.175 OA 
ENDROOT
BRANCH   2   3
HETATM    3  C   UNL     1      -9.847   9.852  68.834  1.00  0.00    -0.176 C  
HETATM    4  O   UNL     1      -9.082  10.160  69.735  1.00  0.00    -0.203 OA 
BRANCH   3   5
HETATM    5  C   UNL     1     -10.255   8.458  68.557  1.00  0.00    -0.228 A  
HETATM    6  C   UNL     1     -10.468   7.978  67.272  1.00  0.00    -0.314 A  
HETATM    7  N   UNL     1     -10.855   6.707  66.994  1.00  0.00    -0.377 NA 
HETATM    8  C   UNL     1     -11.035   5.880  68.048  1.00  0.00    -0.155 A  
HETATM    9  C   UNL     1     -10.844   6.263  69.366  1.00  0.00    -0.404 A  
HETATM   10  C   UNL     1     -10.446   7.573  69.622  1.00  0.00    -0.235 A  
ENDBRANCH   3   5
ENDBRANCH   2   3
TORSDOF 2
ENDMDL
MODEL      146
REMARK 921   NORMALIZED FREE ENERGY PREDICTED BY IDOCK:   -2.30 KCAL/MOL
REMARK 922        TOTAL FREE ENERGY PREDICTED BY IDOCK:   -2.64 KCAL/MOL
REMARK 923 INTER-LIGAND FREE ENERGY PREDICTED BY IDOCK:   -2.56 KCAL/MOL
REMARK 924 INTRA-LIGAND FREE ENERGY PREDICTED BY IDOCK:   -0.08 KCAL/MOL
REMARK 927      BINDING AFFINITY PREDICTED BY RF-SCORE:    0.00 PKD
ROOT
HETATM    1  C   UNL     1     -10.178  15.066  65.621  1.00  0.00    -0.360 C  
HETATM    2  O   UNL     1      -9.203  15.339  66.630  1.00  0.00    -0.235 OA 
ENDROOT
BRANCH   2   3
HETATM    3  C   UNL     1      -9.595  16.264  67.539  1.00  0.00    -0.230 C  
HETATM    4  O   UNL     1     -10.654  16.268  68.146  1.00  0.00    -0.281 OA 
BRANCH   3   5
HETATM    5  C   UNL     1      -8.548  17.292  67.727  1.00  0.00    -0.225 A  
HETATM    6  C   UNL     1      -8.827  18.576  68.176  1.00  0.00    -0.306 A  
HETATM    7  N   UNL     1      -7.886  19.540  68.344  1.00  0.00    -0.330 NA 
HETATM    8  C   UNL     1      -6.610  19.203  68.052  1.00  0.00    -0.236 A  
HETATM    9  C   UNL     1      -6.230  17.948  67.603  1.00  0.00    -0.171 A  
HETATM   10  C   UNL     1      -7.217  16.978  67.440  1.00  0.00    -0.181 A  
ENDBRANCH   3   5
ENDBRANCH   2   3
TORSDOF 2
ENDMDL
MODEL      147
REMARK 921   NORMALIZED FREE ENERGY PREDICTED BY IDOCK:   -2.26 KCAL/MOL
REMARK 922        TOTAL FREE ENERGY PREDICTED BY IDOCK:   -2.59 KCAL/MOL
REMARK 923 INTER-LIGAND FREE ENERGY PREDICTED BY IDOCK:   -2.52 KCAL/MOL
REMARK 924 INTRA-LIGAND FREE ENERGY PREDICTED BY IDOCK:   -0.07 KCAL/MOL
REMARK 927      BINDING AFFINITY PREDICTED BY RF-SCORE:    0.00 PKD
ROOT
HETATM    1  C   UNL     1     -11.183   6.688  72.850  1.00  0.00    -0.191 C  
HETATM    2  O   UNL     1     -10.568   6.624  71.561  1.00  0.00    -0.218 OA 
ENDROOT
BRANCH   2   3
HETATM    3  C   UNL     1     -10.662   7.772  70.848  1.00  0.00    -0.221 C  
HETATM    4  O   UNL     1     -10.698   8.901  71.311  1.00  0.00    -0.239 OA 
BRANCH   3   5
HETATM    5  C   UNL     1     -10.699   7.489  69.397  1.00  0.00    -0.200 A  
HETATM    6  C   UNL     1     -11.004   6.236  68.883  1.00  0.00    -0.368 A  
HETATM    7  N   UNL     1     -11.032   5.948  67.557  1.00  0.00    -0.240 NA 
HETATM    8  C   UNL     1     -10.742   6.960  66.708  1.00  0.00    -0.226 A  
HETATM    9  C   UNL     1     -10.429   8.245  67.122  1.00  0.00    -0.386 A  
HETATM   10  C   UNL     1     -10.410   8.512  68.490  1.00  0.00    -0.230 A  
ENDBRANCH   3   5
ENDBRANCH   2   3
TORSDOF 2
ENDMDL
MODEL      148
REMARK 921   NORMALIZED FREE ENERGY PREDICTED BY IDOCK:   -2.25 KCAL/MOL
REMARK 922        TOTAL FREE ENERGY PREDICTED BY IDOCK:   -2.59 KCAL/MOL
REMARK 923 INTER-LIGAND FREE ENERGY PREDICTED BY IDOCK:   -2.51 KCAL/MOL
REMARK 924 INTRA-LIGAND FREE ENERGY PREDICTED BY IDOCK:   -0.07 KCAL/MOL
REMARK 927      BINDING AFFINITY PREDICTED BY RF-SCORE:    0.00 PKD
ROOT
HETATM    1  C   UNL     1      -9.491  10.475  62.870  1.00  0.00    -0.333 C  
HETATM    2  O   UNL     1     -10.386  10.554  63.982  1.00  0.00    -0.289 OA 
ENDROOT
BRANCH   2   3
HETATM    3  C   UNL     1      -9.919   9.961  65.108  1.00  0.00    -0.208 C  
HETATM    4  O   UNL     1      -9.258   8.936  65.156  1.00  0.00    -0.162 OA 
BRANCH   3   5
HETATM    5  C   UNL     1     -10.302  10.736  66.308  1.00  0.00    -0.303 A  
HETATM    6  C   UNL     1     -10.911  10.158  67.414  1.00  0.00    -0.261 A  
HETATM    7  N   UNL     1     -11.283  10.850  68.521  1.00  0.00    -0.251 NA 
HETATM    8  C   UNL     1     -11.033  12.179  68.521  1.00  0.00    -0.238 A  
HETATM    9  C   UNL     1     -10.427  12.847  67.469  1.00  0.00    -0.226 A  
HETATM   10  C   UNL     1     -10.054  12.111  66.346  1.00  0.00    -0.242 A  
ENDBRANCH   3   5
ENDBRANCH   2   3
TORSDOF 2
ENDMDL
MODEL      149
REMARK 921   NORMALIZED FREE ENERGY PREDICTED BY IDOCK:   -2.18 KCAL/MOL
REMARK 922        TOTAL FREE ENERGY PREDICTED BY IDOCK:   -2.50 KCAL/MOL
REMARK 923 INTER-LIGAND FREE ENERGY PREDICTED BY IDOCK:   -2.40 KCAL/MOL
REMARK 924 INTRA-LIGAND FREE ENERGY PREDICTED BY IDOCK:   -0.10 KCAL/MOL
REMARK 927      BINDING AFFINITY PREDICTED BY RF-SCORE:    0.00 PKD
ROOT
HETATM    1  C   UNL     1      -7.095  13.041  68.592  1.00  0.00    -0.103 C  
HETATM    2  O   UNL     1      -7.621  13.516  67.351  1.00  0.00    -0.165 OA 
ENDROOT
BRANCH   2   3
HETATM    3  C   UNL     1      -7.798  14.858  67.305  1.00  0.00    -0.206 C  
HETATM    4  O   UNL     1      -6.983  15.676  66.909  1.00  0.00    -0.224 OA 
BRANCH   3   5
HETATM    5  C   UNL     1      -9.146  15.227  67.791  1.00  0.00    -0.182 A  
HETATM    6  C   UNL     1     -10.307  14.650  67.296  1.00  0.00    -0.256 A  
HETATM    7  N   UNL     1     -11.556  14.981  67.717  1.00  0.00    -0.336 NA 
HETATM    8  C   UNL     1     -11.644  15.929  68.676  1.00  0.00    -0.380 A  
HETATM    9  C   UNL     1     -10.544  16.560  69.236  1.00  0.00    -0.327 A  
HETATM   10  C   UNL     1      -9.275  16.200  68.786  1.00  0.00    -0.224 A  
ENDBRANCH   3   5
ENDBRANCH   2   3
TORSDOF 2
ENDMDL
MODEL      150
REMARK 921   NORMALIZED FREE ENERGY PREDICTED BY IDOCK:   -2.13 KCAL/MOL
REMARK 922        TOTAL FREE ENERGY PREDICTED BY IDOCK:   -2.45 KCAL/MOL
REMARK 923 INTER-LIGAND FREE ENERGY PREDICTED BY IDOCK:   -2.37 KCAL/MOL
REMARK 924 INTRA-LIGAND FREE ENERGY PREDICTED BY IDOCK:   -0.08 KCAL/MOL
REMARK 927      BINDING AFFINITY PREDICTED BY RF-SCORE:    0.00 PKD
ROOT
HETATM    1  C   UNL     1     -11.629  12.032  63.658  1.00  0.00    -0.486 C  
HETATM    2  O   UNL     1     -10.405  12.170  64.384  1.00  0.00    -0.287 OA 
ENDROOT
BRANCH   2   3
HETATM    3  C   UNL     1     -10.451  11.667  65.642  1.00  0.00    -0.268 C  
HETATM    4  O   UNL     1     -11.133  12.094  66.560  1.00  0.00    -0.276 OA 
BRANCH   3   5
HETATM    5  C   UNL     1      -9.562  10.491  65.770  1.00  0.00    -0.260 A  
HETATM    6  C   UNL     1     -10.031   9.226  66.097  1.00  0.00    -0.277 A  
HETATM    7  N   UNL     1      -9.233   8.135  66.232  1.00  0.00    -0.187 NA 
HETATM    8  C   UNL     1      -7.909   8.320  66.030  1.00  0.00    -0.095 A  
HETATM    9  C   UNL     1      -7.346   9.541  65.697  1.00  0.00    -0.094 A  
HETATM   10  C   UNL     1      -8.188  10.643  65.563  1.00  0.00    -0.141 A  
ENDBRANCH   3   5
ENDBRANCH   2   3
TORSDOF 2
ENDMDL
MODEL      151
REMARK 921   NORMALIZED FREE ENERGY PREDICTED BY IDOCK:   -2.13 KCAL/MOL
REMARK 922        TOTAL FREE ENERGY PREDICTED BY IDOCK:   -2.45 KCAL/MOL
REMARK 923 INTER-LIGAND FREE ENERGY PREDICTED BY IDOCK:   -2.55 KCAL/MOL
REMARK 924 INTRA-LIGAND FREE ENERGY PREDICTED BY IDOCK:    0.10 KCAL/MOL
REMARK 927      BINDING AFFINITY PREDICTED BY RF-SCORE:    0.00 PKD
ROOT
HETATM    1  C   UNL     1     -10.676   5.600  68.918  1.00  0.00    -0.209 C  
HETATM    2  O   UNL     1     -10.424   5.361  70.305  1.00  0.00    -0.271 OA 
ENDROOT
BRANCH   2   3
HETATM    3  C   UNL     1      -9.739   6.355  70.920  1.00  0.00    -0.176 C  
HETATM    4  O   UNL     1      -8.627   6.258  71.414  1.00  0.00    -0.130 OA 
BRANCH   3   5
HETATM    5  C   UNL     1     -10.514   7.614  70.907  1.00  0.00    -0.210 A  
HETATM    6  C   UNL     1     -10.176   8.697  70.107  1.00  0.00    -0.192 A  
HETATM    7  N   UNL     1     -10.864   9.867  70.086  1.00  0.00    -0.281 NA 
HETATM    8  C   UNL     1     -11.938   9.957  70.902  1.00  0.00    -0.345 A  
HETATM    9  C   UNL     1     -12.358   8.931  71.735  1.00  0.00    -0.424 A  
HETATM   10  C   UNL     1     -11.634   7.740  71.734  1.00  0.00    -0.312 A  
ENDBRANCH   3   5
ENDBRANCH   2   3
TORSDOF 2
ENDMDL
MODEL      152
REMARK 921   NORMALIZED FREE ENERGY PREDICTED BY IDOCK:   -2.11 KCAL/MOL
REMARK 922        TOTAL FREE ENERGY PREDICTED BY IDOCK:   -2.43 KCAL/MOL
REMARK 923 INTER-LIGAND FREE ENERGY PREDICTED BY IDOCK:   -2.33 KCAL/MOL
REMARK 924 INTRA-LIGAND FREE ENERGY PREDICTED BY IDOCK:   -0.09 KCAL/MOL
REMARK 927      BINDING AFFINITY PREDICTED BY RF-SCORE:    0.00 PKD
ROOT
HETATM    1  C   UNL     1     -11.713  11.739  64.640  1.00  0.00    -0.164 C  
HETATM    2  O   UNL     1     -10.418  11.152  64.785  1.00  0.00    -0.303 OA 
ENDROOT
BRANCH   2   3
HETATM    3  C   UNL     1      -9.883  11.297  66.022  1.00  0.00    -0.229 C  
HETATM    4  O   UNL     1      -9.377  12.313  66.469  1.00  0.00    -0.223 OA 
BRANCH   3   5
HETATM    5  C   UNL     1     -10.005  10.043  66.797  1.00  0.00    -0.267 A  
HETATM    6  C   UNL     1      -9.821   8.788  66.231  1.00  0.00    -0.272 A  
HETATM    7  N   UNL     1      -9.940   7.623  66.918  1.00  0.00    -0.232 NA 
HETATM    8  C   UNL     1     -10.255   7.719  68.230  1.00  0.00    -0.201 A  
HETATM    9  C   UNL     1     -10.454   8.923  68.886  1.00  0.00    -0.225 A  
HETATM   10  C   UNL     1     -10.324  10.103  68.156  1.00  0.00    -0.217 A  
ENDBRANCH   3   5
ENDBRANCH   2   3
TORSDOF 2
ENDMDL
MODEL      153
REMARK 921   NORMALIZED FREE ENERGY PREDICTED BY IDOCK:   -2.11 KCAL/MOL
REMARK 922        TOTAL FREE ENERGY PREDICTED BY IDOCK:   -2.42 KCAL/MOL
REMARK 923 INTER-LIGAND FREE ENERGY PREDICTED BY IDOCK:   -2.48 KCAL/MOL
REMARK 924 INTRA-LIGAND FREE ENERGY PREDICTED BY IDOCK:    0.05 KCAL/MOL
REMARK 927      BINDING AFFINITY PREDICTED BY RF-SCORE:    0.00 PKD
ROOT
HETATM    1  C   UNL     1     -10.730   6.405  68.802  1.00  0.00    -0.287 C  
HETATM    2  O   UNL     1     -11.644   7.139  69.620  1.00  0.00    -0.075 OA 
ENDROOT
BRANCH   2   3
HETATM    3  C   UNL     1     -11.048   8.014  70.465  1.00  0.00    -0.251 C  
HETATM    4  O   UNL     1     -10.544   7.739  71.542  1.00  0.00    -0.211 OA 
BRANCH   3   5
HETATM    5  C   UNL     1     -11.064   9.382  69.902  1.00  0.00    -0.223 A  
HETATM    6  C   UNL     1     -10.188   9.797  68.908  1.00  0.00    -0.200 A  
HETATM    7  N   UNL     1     -10.175  11.050  68.385  1.00  0.00    -0.177 NA 
HETATM    8  C   UNL     1     -11.080  11.925  68.878  1.00  0.00    -0.247 A  
HETATM    9  C   UNL     1     -11.998  11.606  69.866  1.00  0.00    -0.414 A  
HETATM   10  C   UNL     1     -11.989  10.312  70.384  1.00  0.00    -0.391 A  
ENDBRANCH   3   5
ENDBRANCH   2   3
TORSDOF 2
ENDMDL
MODEL      154
REMARK 921   NORMALIZED FREE ENERGY PREDICTED BY IDOCK:   -2.10 KCAL/MOL
REMARK 922        TOTAL FREE ENERGY PREDICTED BY IDOCK:   -2.41 KCAL/MOL
REMARK 923 INTER-LIGAND FREE ENERGY PREDICTED BY IDOCK:   -2.39 KCAL/MOL
REMARK 924 INTRA-LIGAND FREE ENERGY PREDICTED BY IDOCK:   -0.03 KCAL/MOL
REMARK 927      BINDING AFFINITY PREDICTED BY RF-SCORE:    0.00 PKD
ROOT
HETATM    1  C   UNL     1     -11.639  12.040  63.535  1.00  0.00    -0.461 C  
HETATM    2  O   UNL     1     -10.292  11.928  64.001  1.00  0.00    -0.302 OA 
ENDROOT
BRANCH   2   3
HETATM    3  C   UNL     1     -10.110  10.958  64.929  1.00  0.00    -0.312 C  
HETATM    4  O   UNL     1     -10.532  10.974  66.075  1.00  0.00    -0.253 OA 
BRANCH   3   5
HETATM    5  C   UNL     1      -9.330   9.833  64.368  1.00  0.00    -0.278 A  
HETATM    6  C   UNL     1      -8.923   9.789  63.042  1.00  0.00    -0.254 A  
HETATM    7  N   UNL     1      -8.218   8.762  62.500  1.00  0.00    -0.181 NA 
HETATM    8  C   UNL     1      -7.905   7.737  63.324  1.00  0.00    -0.129 A  
HETATM    9  C   UNL     1      -8.261   7.691  64.663  1.00  0.00    -0.067 A  
HETATM   10  C   UNL     1      -8.984   8.759  65.192  1.00  0.00    -0.152 A  
ENDBRANCH   3   5
ENDBRANCH   2   3
TORSDOF 2
ENDMDL
MODEL      155
REMARK 921   NORMALIZED FREE ENERGY PREDICTED BY IDOCK:   -2.08 KCAL/MOL
REMARK 922        TOTAL FREE ENERGY PREDICTED BY IDOCK:   -2.40 KCAL/MOL
REMARK 923 INTER-LIGAND FREE ENERGY PREDICTED BY IDOCK:   -2.42 KCAL/MOL
REMARK 924 INTRA-LIGAND FREE ENERGY PREDICTED BY IDOCK:    0.03 KCAL/MOL
REMARK 927      BINDING AFFINITY PREDICTED BY RF-SCORE:    0.00 PKD
ROOT
HETATM    1  C   UNL     1     -10.030   8.703  69.480  1.00  0.00    -0.196 C  
HETATM    2  O   UNL     1     -10.183   7.697  70.484  1.00  0.00    -0.199 OA 
ENDROOT
BRANCH   2   3
HETATM    3  C   UNL     1     -11.118   6.762  70.188  1.00  0.00    -0.315 C  
HETATM    4  O   UNL     1     -12.237   6.691  70.671  1.00  0.00    -0.377 OA 
BRANCH   3   5
HETATM    5  C   UNL     1     -10.614   5.819  69.166  1.00  0.00    -0.365 A  
HETATM    6  C   UNL     1     -11.031   5.850  67.843  1.00  0.00    -0.149 A  
HETATM    7  N   UNL     1     -10.593   4.988  66.890  1.00  0.00    -0.191 NA 
HETATM    8  C   UNL     1      -9.696   4.054  67.280  1.00  0.00    -0.153 A  
HETATM    9  C   UNL     1      -9.216   3.944  68.575  1.00  0.00    -0.212 A  
HETATM   10  C   UNL     1      -9.682   4.843  69.532  1.00  0.00    -0.266 A  
ENDBRANCH   3   5
ENDBRANCH   2   3
TORSDOF 2
ENDMDL
MODEL      156
REMARK 921   NORMALIZED FREE ENERGY PREDICTED BY IDOCK:   -2.05 KCAL/MOL
REMARK 922        TOTAL FREE ENERGY PREDICTED BY IDOCK:   -2.36 KCAL/MOL
REMARK 923 INTER-LIGAND FREE ENERGY PREDICTED BY IDOCK:   -2.28 KCAL/MOL
REMARK 924 INTRA-LIGAND FREE ENERGY PREDICTED BY IDOCK:   -0.08 KCAL/MOL
REMARK 927      BINDING AFFINITY PREDICTED BY RF-SCORE:    0.00 PKD
ROOT
HETATM    1  C   UNL     1     -11.456   5.368  72.792  1.00  0.00    -0.268 C  
HETATM    2  O   UNL     1     -10.559   5.994  71.872  1.00  0.00    -0.212 OA 
ENDROOT
BRANCH   2   3
HETATM    3  C   UNL     1     -11.172   6.767  70.943  1.00  0.00    -0.292 C  
HETATM    4  O   UNL     1     -12.304   6.610  70.515  1.00  0.00    -0.314 OA 
BRANCH   3   5
HETATM    5  C   UNL     1     -10.287   7.870  70.509  1.00  0.00    -0.205 A  
HETATM    6  C   UNL     1     -10.533   8.629  69.374  1.00  0.00    -0.218 A  
HETATM    7  N   UNL     1      -9.729   9.637  68.948  1.00  0.00    -0.157 NA 
HETATM    8  C   UNL     1      -8.631   9.897  69.693  1.00  0.00    -0.194 A  
HETATM    9  C   UNL     1      -8.301   9.199  70.844  1.00  0.00    -0.231 A  
HETATM   10  C   UNL     1      -9.145   8.170  71.258  1.00  0.00    -0.185 A  
ENDBRANCH   3   5
ENDBRANCH   2   3
TORSDOF 2
ENDMDL
MODEL      157
REMARK 921   NORMALIZED FREE ENERGY PREDICTED BY IDOCK:   -2.05 KCAL/MOL
REMARK 922        TOTAL FREE ENERGY PREDICTED BY IDOCK:   -2.36 KCAL/MOL
REMARK 923 INTER-LIGAND FREE ENERGY PREDICTED BY IDOCK:   -2.34 KCAL/MOL
REMARK 924 INTRA-LIGAND FREE ENERGY PREDICTED BY IDOCK:   -0.02 KCAL/MOL
REMARK 927      BINDING AFFINITY PREDICTED BY RF-SCORE:    0.00 PKD
ROOT
HETATM    1  C   UNL     1     -10.165   8.440  69.842  1.00  0.00    -0.201 C  
HETATM    2  O   UNL     1     -10.141   7.749  71.093  1.00  0.00    -0.187 OA 
ENDROOT
BRANCH   2   3
HETATM    3  C   UNL     1     -11.085   6.783  71.206  1.00  0.00    -0.262 C  
HETATM    4  O   UNL     1     -12.287   6.965  71.308  1.00  0.00    -0.359 OA 
BRANCH   3   5
HETATM    5  C   UNL     1     -10.467   5.439  71.173  1.00  0.00    -0.295 A  
HETATM    6  C   UNL     1      -9.927   4.888  70.020  1.00  0.00    -0.253 A  
HETATM    7  N   UNL     1      -9.367   3.652  69.962  1.00  0.00    -0.162 NA 
HETATM    8  C   UNL     1      -9.345   2.939  71.110  1.00  0.00    -0.141 A  
HETATM    9  C   UNL     1      -9.854   3.402  72.312  1.00  0.00    -0.231 A  
HETATM   10  C   UNL     1     -10.422   4.675  72.343  1.00  0.00    -0.250 A  
ENDBRANCH   3   5
ENDBRANCH   2   3
TORSDOF 2
ENDMDL
MODEL      158
REMARK 921   NORMALIZED FREE ENERGY PREDICTED BY IDOCK:   -2.03 KCAL/MOL
REMARK 922        TOTAL FREE ENERGY PREDICTED BY IDOCK:   -2.34 KCAL/MOL
REMARK 923 INTER-LIGAND FREE ENERGY PREDICTED BY IDOCK:   -2.31 KCAL/MOL
REMARK 924 INTRA-LIGAND FREE ENERGY PREDICTED BY IDOCK:   -0.03 KCAL/MOL
REMARK 927      BINDING AFFINITY PREDICTED BY RF-SCORE:    0.00 PKD
ROOT
HETATM    1  C   UNL     1      -6.320   6.678  71.076  1.00  0.00    -0.041 C  
HETATM    2  O   UNL     1      -7.289   6.627  72.125  1.00  0.00    -0.087 OA 
ENDROOT
BRANCH   2   3
HETATM    3  C   UNL     1      -8.047   7.746  72.231  1.00  0.00    -0.114 C  
HETATM    4  O   UNL     1      -7.629   8.878  72.412  1.00  0.00    -0.351 OA 
BRANCH   3   5
HETATM    5  C   UNL     1      -9.483   7.425  72.077  1.00  0.00    -0.162 A  
HETATM    6  C   UNL     1     -10.490   8.210  72.621  1.00  0.00    -0.330 A  
HETATM    7  N   UNL     1     -11.814   7.930  72.505  1.00  0.00    -0.354 NA 
HETATM    8  C   UNL     1     -12.142   6.817  71.813  1.00  0.00    -0.350 A  
HETATM    9  C   UNL     1     -11.211   5.972  71.230  1.00  0.00    -0.323 A  
HETATM   10  C   UNL     1      -9.859   6.285  71.364  1.00  0.00    -0.195 A  
ENDBRANCH   3   5
ENDBRANCH   2   3
TORSDOF 2
ENDMDL
MODEL      159
REMARK 921   NORMALIZED FREE ENERGY PREDICTED BY IDOCK:   -2.01 KCAL/MOL
REMARK 922        TOTAL FREE ENERGY PREDICTED BY IDOCK:   -2.31 KCAL/MOL
REMARK 923 INTER-LIGAND FREE ENERGY PREDICTED BY IDOCK:   -2.23 KCAL/MOL
REMARK 924 INTRA-LIGAND FREE ENERGY PREDICTED BY IDOCK:   -0.09 KCAL/MOL
REMARK 927      BINDING AFFINITY PREDICTED BY RF-SCORE:    0.00 PKD
ROOT
HETATM    1  C   UNL     1      -7.967   4.698  66.576  1.00  0.00    -0.103 C  
HETATM    2  O   UNL     1      -9.077   4.684  67.476  1.00  0.00    -0.113 OA 
ENDROOT
BRANCH   2   3
HETATM    3  C   UNL     1     -10.143   5.402  67.046  1.00  0.00    -0.203 C  
HETATM    4  O   UNL     1     -10.893   5.094  66.133  1.00  0.00    -0.282 OA 
BRANCH   3   5
HETATM    5  C   UNL     1     -10.308   6.632  67.851  1.00  0.00    -0.227 A  
HETATM    6  C   UNL     1     -10.300   6.630  69.239  1.00  0.00    -0.200 A  
HETATM    7  N   UNL     1     -10.461   7.743  69.999  1.00  0.00    -0.225 NA 
HETATM    8  C   UNL     1     -10.636   8.910  69.340  1.00  0.00    -0.217 A  
HETATM    9  C   UNL     1     -10.655   9.017  67.958  1.00  0.00    -0.242 A  
HETATM   10  C   UNL     1     -10.485   7.858  67.203  1.00  0.00    -0.414 A  
ENDBRANCH   3   5
ENDBRANCH   2   3
TORSDOF 2
ENDMDL
MODEL      160
REMARK 921   NORMALIZED FREE ENERGY PREDICTED BY IDOCK:   -2.00 KCAL/MOL
REMARK 922        TOTAL FREE ENERGY PREDICTED BY IDOCK:   -2.30 KCAL/MOL
REMARK 923 INTER-LIGAND FREE ENERGY PREDICTED BY IDOCK:   -2.23 KCAL/MOL
REMARK 924 INTRA-LIGAND FREE ENERGY PREDICTED BY IDOCK:   -0.07 KCAL/MOL
REMARK 927      BINDING AFFINITY PREDICTED BY RF-SCORE:    0.00 PKD
ROOT
HETATM    1  C   UNL     1      -7.400   2.354  69.680  1.00  0.00    -0.043 C  
HETATM    2  O   UNL     1      -8.596   2.891  70.250  1.00  0.00    -0.054 OA 
ENDROOT
BRANCH   2   3
HETATM    3  C   UNL     1      -9.385   3.543  69.361  1.00  0.00    -0.173 C  
HETATM    4  O   UNL     1      -9.506   3.271  68.177  1.00  0.00    -0.192 OA 
BRANCH   3   5
HETATM    5  C   UNL     1     -10.118   4.646  70.019  1.00  0.00    -0.267 A  
HETATM    6  C   UNL     1     -10.285   4.723  71.395  1.00  0.00    -0.166 A  
HETATM    7  N   UNL     1     -10.964   5.718  72.021  1.00  0.00    -0.254 NA 
HETATM    8  C   UNL     1     -11.498   6.679  71.235  1.00  0.00    -0.311 A  
HETATM    9  C   UNL     1     -11.383   6.694  69.854  1.00  0.00    -0.422 A  
HETATM   10  C   UNL     1     -10.679   5.660  69.238  1.00  0.00    -0.350 A  
ENDBRANCH   3   5
ENDBRANCH   2   3
TORSDOF 2
ENDMDL
MODEL      161
REMARK 921   NORMALIZED FREE ENERGY PREDICTED BY IDOCK:   -2.00 KCAL/MOL
REMARK 922        TOTAL FREE ENERGY PREDICTED BY IDOCK:   -2.30 KCAL/MOL
REMARK 923 INTER-LIGAND FREE ENERGY PREDICTED BY IDOCK:   -2.22 KCAL/MOL
REMARK 924 INTRA-LIGAND FREE ENERGY PREDICTED BY IDOCK:   -0.08 KCAL/MOL
REMARK 927      BINDING AFFINITY PREDICTED BY RF-SCORE:    0.00 PKD
ROOT
HETATM    1  C   UNL     1     -11.344   6.313  69.732  1.00  0.00    -0.436 C  
HETATM    2  O   UNL     1     -10.824   6.850  70.951  1.00  0.00    -0.233 OA 
ENDROOT
BRANCH   2   3
HETATM    3  C   UNL     1      -9.781   6.150  71.460  1.00  0.00    -0.162 C  
HETATM    4  O   UNL     1      -8.600   6.434  71.337  1.00  0.00    -0.129 OA 
BRANCH   3   5
HETATM    5  C   UNL     1     -10.258   4.975  72.221  1.00  0.00    -0.257 A  
HETATM    6  C   UNL     1     -11.085   5.083  73.331  1.00  0.00    -0.335 A  
HETATM    7  N   UNL     1     -11.526   4.021  74.053  1.00  0.00     0.003 NA 
HETATM    8  C   UNL     1     -11.122   2.797  73.645  1.00  0.00    -0.222 A  
HETATM    9  C   UNL     1     -10.301   2.585  72.548  1.00  0.00    -0.212 A  
HETATM   10  C   UNL     1      -9.865   3.694  71.825  1.00  0.00    -0.235 A  
ENDBRANCH   3   5
ENDBRANCH   2   3
TORSDOF 2
ENDMDL
MODEL      162
REMARK 921   NORMALIZED FREE ENERGY PREDICTED BY IDOCK:   -1.96 KCAL/MOL
REMARK 922        TOTAL FREE ENERGY PREDICTED BY IDOCK:   -2.27 KCAL/MOL
REMARK 923 INTER-LIGAND FREE ENERGY PREDICTED BY IDOCK:   -2.21 KCAL/MOL
REMARK 924 INTRA-LIGAND FREE ENERGY PREDICTED BY IDOCK:   -0.05 KCAL/MOL
REMARK 927      BINDING AFFINITY PREDICTED BY RF-SCORE:    0.00 PKD
ROOT
HETATM    1  C   UNL     1      -8.674   5.424  67.597  1.00  0.00    -0.106 C  
HETATM    2  O   UNL     1      -8.991   6.168  68.776  1.00  0.00    -0.124 OA 
ENDROOT
BRANCH   2   3
HETATM    3  C   UNL     1     -10.240   6.694  68.776  1.00  0.00    -0.171 C  
HETATM    4  O   UNL     1     -11.268   6.096  69.052  1.00  0.00    -0.383 OA 
BRANCH   3   5
HETATM    5  C   UNL     1     -10.208   8.126  68.409  1.00  0.00    -0.240 A  
HETATM    6  C   UNL     1      -9.880   9.127  69.313  1.00  0.00    -0.175 A  
HETATM    7  N   UNL     1      -9.855  10.449  69.003  1.00  0.00    -0.202 NA 
HETATM    8  C   UNL     1     -10.172  10.782  67.732  1.00  0.00    -0.182 A  
HETATM    9  C   UNL     1     -10.509   9.858  66.756  1.00  0.00    -0.261 A  
HETATM   10  C   UNL     1     -10.525   8.508  67.102  1.00  0.00    -0.370 A  
ENDBRANCH   3   5
ENDBRANCH   2   3
TORSDOF 2
ENDMDL
MODEL      163
REMARK 921   NORMALIZED FREE ENERGY PREDICTED BY IDOCK:   -1.96 KCAL/MOL
REMARK 922        TOTAL FREE ENERGY PREDICTED BY IDOCK:   -2.26 KCAL/MOL
REMARK 923 INTER-LIGAND FREE ENERGY PREDICTED BY IDOCK:   -2.19 KCAL/MOL
REMARK 924 INTRA-LIGAND FREE ENERGY PREDICTED BY IDOCK:   -0.07 KCAL/MOL
REMARK 927      BINDING AFFINITY PREDICTED BY RF-SCORE:    0.00 PKD
ROOT
HETATM    1  C   UNL     1      -7.305   6.715  68.104  1.00  0.00    -0.090 C  
HETATM    2  O   UNL     1      -8.721   6.794  68.283  1.00  0.00    -0.123 OA 
ENDROOT
BRANCH   2   3
HETATM    3  C   UNL     1      -9.168   6.185  69.409  1.00  0.00    -0.133 C  
HETATM    4  O   UNL     1      -8.961   5.025  69.727  1.00  0.00    -0.102 OA 
BRANCH   3   5
HETATM    5  C   UNL     1      -9.947   7.128  70.242  1.00  0.00    -0.191 A  
HETATM    6  C   UNL     1      -9.380   8.238  70.852  1.00  0.00    -0.159 A  
HETATM    7  N   UNL     1     -10.071   9.110  71.631  1.00  0.00    -0.324 NA 
HETATM    8  C   UNL     1     -11.388   8.860  71.804  1.00  0.00    -0.361 A  
HETATM    9  C   UNL     1     -12.047   7.782  71.233  1.00  0.00    -0.328 A  
HETATM   10  C   UNL     1     -11.313   6.904  70.438  1.00  0.00    -0.376 A  
ENDBRANCH   3   5
ENDBRANCH   2   3
TORSDOF 2
ENDMDL
MODEL      164
REMARK 921   NORMALIZED FREE ENERGY PREDICTED BY IDOCK:   -1.94 KCAL/MOL
REMARK 922        TOTAL FREE ENERGY PREDICTED BY IDOCK:   -2.23 KCAL/MOL
REMARK 923 INTER-LIGAND FREE ENERGY PREDICTED BY IDOCK:   -2.16 KCAL/MOL
REMARK 924 INTRA-LIGAND FREE ENERGY PREDICTED BY IDOCK:   -0.08 KCAL/MOL
REMARK 927      BINDING AFFINITY PREDICTED BY RF-SCORE:    0.00 PKD
ROOT
HETATM    1  C   UNL     1     -11.890  11.757  64.321  1.00  0.00    -0.217 C  
HETATM    2  O   UNL     1     -10.588  12.122  64.785  1.00  0.00    -0.273 OA 
ENDROOT
BRANCH   2   3
HETATM    3  C   UNL     1     -10.468  13.431  65.113  1.00  0.00    -0.347 C  
HETATM    4  O   UNL     1     -10.849  14.376  64.441  1.00  0.00    -0.310 OA 
BRANCH   3   5
HETATM    5  C   UNL     1      -9.814  13.585  66.431  1.00  0.00    -0.299 A  
HETATM    6  C   UNL     1      -9.968  14.717  67.219  1.00  0.00    -0.231 A  
HETATM    7  N   UNL     1      -9.369  14.887  68.426  1.00  0.00    -0.191 NA 
HETATM    8  C   UNL     1      -8.582  13.878  68.862  1.00  0.00     0.098 A  
HETATM    9  C   UNL     1      -8.369  12.707  68.152  1.00  0.00    -0.175 A  
HETATM   10  C   UNL     1      -8.998  12.560  66.917  1.00  0.00    -0.212 A  
ENDBRANCH   3   5
ENDBRANCH   2   3
TORSDOF 2
ENDMDL
MODEL      165
REMARK 921   NORMALIZED FREE ENERGY PREDICTED BY IDOCK:   -1.93 KCAL/MOL
REMARK 922        TOTAL FREE ENERGY PREDICTED BY IDOCK:   -2.23 KCAL/MOL
REMARK 923 INTER-LIGAND FREE ENERGY PREDICTED BY IDOCK:   -2.15 KCAL/MOL
REMARK 924 INTRA-LIGAND FREE ENERGY PREDICTED BY IDOCK:   -0.08 KCAL/MOL
REMARK 927      BINDING AFFINITY PREDICTED BY RF-SCORE:    0.00 PKD
ROOT
HETATM    1  C   UNL     1      -9.084  10.364  68.772  1.00  0.00    -0.165 C  
HETATM    2  O   UNL     1     -10.282   9.598  68.924  1.00  0.00    -0.186 OA 
ENDROOT
BRANCH   2   3
HETATM    3  C   UNL     1     -10.068   8.278  69.143  1.00  0.00    -0.202 C  
HETATM    4  O   UNL     1      -9.347   7.550  68.479  1.00  0.00    -0.143 OA 
BRANCH   3   5
HETATM    5  C   UNL     1     -10.821   7.812  70.327  1.00  0.00    -0.252 A  
HETATM    6  C   UNL     1     -11.416   8.683  71.230  1.00  0.00    -0.283 A  
HETATM    7  N   UNL     1     -12.101   8.281  72.331  1.00  0.00    -0.377 NA 
HETATM    8  C   UNL     1     -12.197   6.948  72.536  1.00  0.00     0.085 A  
HETATM    9  C   UNL     1     -11.642   5.999  71.691  1.00  0.00    -0.263 A  
HETATM   10  C   UNL     1     -10.945   6.441  70.568  1.00  0.00    -0.364 A  
ENDBRANCH   3   5
ENDBRANCH   2   3
TORSDOF 2
ENDMDL
MODEL      166
REMARK 921   NORMALIZED FREE ENERGY PREDICTED BY IDOCK:   -1.92 KCAL/MOL
REMARK 922        TOTAL FREE ENERGY PREDICTED BY IDOCK:   -2.22 KCAL/MOL
REMARK 923 INTER-LIGAND FREE ENERGY PREDICTED BY IDOCK:   -2.20 KCAL/MOL
REMARK 924 INTRA-LIGAND FREE ENERGY PREDICTED BY IDOCK:   -0.02 KCAL/MOL
REMARK 927      BINDING AFFINITY PREDICTED BY RF-SCORE:    0.00 PKD
ROOT
HETATM    1  C   UNL     1     -10.188  14.876  70.284  1.00  0.00     0.209 C  
HETATM    2  O   UNL     1     -11.239  14.413  69.433  1.00  0.00    -0.264 OA 
ENDROOT
BRANCH   2   3
HETATM    3  C   UNL     1     -11.080  14.747  68.129  1.00  0.00    -0.278 C  
HETATM    4  O   UNL     1     -11.224  15.862  67.653  1.00  0.00    -0.308 OA 
BRANCH   3   5
HETATM    5  C   UNL     1     -10.683  13.568  67.329  1.00  0.00    -0.272 A  
HETATM    6  C   UNL     1     -11.598  12.782  66.643  1.00  0.00    -0.370 A  
HETATM    7  N   UNL     1     -11.259  11.688  65.913  1.00  0.00    -0.280 NA 
HETATM    8  C   UNL     1      -9.946  11.369  65.867  1.00  0.00    -0.234 A  
HETATM    9  C   UNL     1      -8.956  12.093  66.514  1.00  0.00    -0.179 A  
HETATM   10  C   UNL     1      -9.333  13.211  67.255  1.00  0.00    -0.225 A  
ENDBRANCH   3   5
ENDBRANCH   2   3
TORSDOF 2
ENDMDL
MODEL      167
REMARK 921   NORMALIZED FREE ENERGY PREDICTED BY IDOCK:   -1.91 KCAL/MOL
REMARK 922        TOTAL FREE ENERGY PREDICTED BY IDOCK:   -2.21 KCAL/MOL
REMARK 923 INTER-LIGAND FREE ENERGY PREDICTED BY IDOCK:   -2.14 KCAL/MOL
REMARK 924 INTRA-LIGAND FREE ENERGY PREDICTED BY IDOCK:   -0.06 KCAL/MOL
REMARK 927      BINDING AFFINITY PREDICTED BY RF-SCORE:    0.00 PKD
ROOT
HETATM    1  C   UNL     1      -8.319   9.447  70.629  1.00  0.00    -0.175 C  
HETATM    2  O   UNL     1      -9.361   8.936  71.463  1.00  0.00    -0.246 OA 
ENDROOT
BRANCH   2   3
HETATM    3  C   UNL     1      -8.922   8.399  72.627  1.00  0.00    -0.234 C  
HETATM    4  O   UNL     1      -8.030   8.846  73.331  1.00  0.00    -0.372 OA 
BRANCH   3   5
HETATM    5  C   UNL     1      -9.685   7.177  72.964  1.00  0.00    -0.216 A  
HETATM    6  C   UNL     1     -11.043   7.044  72.705  1.00  0.00    -0.284 A  
HETATM    7  N   UNL     1     -11.767   5.939  73.016  1.00  0.00    -0.042 NA 
HETATM    8  C   UNL     1     -11.103   4.922  73.610  1.00  0.00    -0.297 A  
HETATM    9  C   UNL     1      -9.749   4.957  73.905  1.00  0.00    -0.152 A  
HETATM   10  C   UNL     1      -9.030   6.104  73.574  1.00  0.00    -0.124 A  
ENDBRANCH   3   5
ENDBRANCH   2   3
TORSDOF 2
ENDMDL
MODEL      168
REMARK 921   NORMALIZED FREE ENERGY PREDICTED BY IDOCK:   -1.89 KCAL/MOL
REMARK 922        TOTAL FREE ENERGY PREDICTED BY IDOCK:   -2.19 KCAL/MOL
REMARK 923 INTER-LIGAND FREE ENERGY PREDICTED BY IDOCK:   -2.12 KCAL/MOL
REMARK 924 INTRA-LIGAND FREE ENERGY PREDICTED BY IDOCK:   -0.07 KCAL/MOL
REMARK 927      BINDING AFFINITY PREDICTED BY RF-SCORE:    0.00 PKD
ROOT
HETATM    1  C   UNL     1      -9.876  10.252  67.156  1.00  0.00    -0.185 C  
HETATM    2  O   UNL     1     -10.409   8.977  67.520  1.00  0.00    -0.231 OA 
ENDROOT
BRANCH   2   3
HETATM    3  C   UNL     1     -10.611   8.824  68.852  1.00  0.00    -0.155 C  
HETATM    4  O   UNL     1     -11.131   9.641  69.595  1.00  0.00    -0.236 OA 
BRANCH   3   5
HETATM    5  C   UNL     1     -10.127   7.504  69.309  1.00  0.00    -0.188 A  
HETATM    6  C   UNL     1      -8.778   7.201  69.438  1.00  0.00    -0.134 A  
HETATM    7  N   UNL     1      -8.309   5.993  69.843  1.00  0.00    -0.121 NA 
HETATM    8  C   UNL     1      -9.231   5.047  70.133  1.00  0.00    -0.135 A  
HETATM    9  C   UNL     1     -10.599   5.253  70.039  1.00  0.00    -0.300 A  
HETATM   10  C   UNL     1     -11.051   6.504  69.622  1.00  0.00    -0.435 A  
ENDBRANCH   3   5
ENDBRANCH   2   3
TORSDOF 2
ENDMDL
MODEL      169
REMARK 921   NORMALIZED FREE ENERGY PREDICTED BY IDOCK:   -1.88 KCAL/MOL
REMARK 922        TOTAL FREE ENERGY PREDICTED BY IDOCK:   -2.17 KCAL/MOL
REMARK 923 INTER-LIGAND FREE ENERGY PREDICTED BY IDOCK:   -2.22 KCAL/MOL
REMARK 924 INTRA-LIGAND FREE ENERGY PREDICTED BY IDOCK:    0.05 KCAL/MOL
REMARK 927      BINDING AFFINITY PREDICTED BY RF-SCORE:    0.00 PKD
ROOT
HETATM    1  C   UNL     1     -10.466  15.930  67.510  1.00  0.00    -0.298 C  
HETATM    2  O   UNL     1      -9.460  15.449  66.615  1.00  0.00    -0.228 OA 
ENDROOT
BRANCH   2   3
HETATM    3  C   UNL     1      -8.749  14.401  67.097  1.00  0.00    -0.226 C  
HETATM    4  O   UNL     1      -7.676  14.468  67.675  1.00  0.00    -0.147 OA 
BRANCH   3   5
HETATM    5  C   UNL     1      -9.458  13.126  66.848  1.00  0.00    -0.244 A  
HETATM    6  C   UNL     1     -10.386  12.969  65.827  1.00  0.00    -0.286 A  
HETATM    7  N   UNL     1     -11.058  11.814  65.587  1.00  0.00    -0.304 NA 
HETATM    8  C   UNL     1     -10.787  10.770  66.403  1.00  0.00    -0.104 A  
HETATM    9  C   UNL     1      -9.876  10.827  67.446  1.00  0.00    -0.204 A  
HETATM   10  C   UNL     1      -9.200  12.025  67.668  1.00  0.00    -0.182 A  
ENDBRANCH   3   5
ENDBRANCH   2   3
TORSDOF 2
ENDMDL
MODEL      170
REMARK 921   NORMALIZED FREE ENERGY PREDICTED BY IDOCK:   -1.86 KCAL/MOL
REMARK 922        TOTAL FREE ENERGY PREDICTED BY IDOCK:   -2.15 KCAL/MOL
REMARK 923 INTER-LIGAND FREE ENERGY PREDICTED BY IDOCK:   -2.08 KCAL/MOL
REMARK 924 INTRA-LIGAND FREE ENERGY PREDICTED BY IDOCK:   -0.07 KCAL/MOL
REMARK 927      BINDING AFFINITY PREDICTED BY RF-SCORE:    0.00 PKD
ROOT
HETATM    1  C   UNL     1      -6.948  10.373  70.007  1.00  0.00    -0.157 C  
HETATM    2  O   UNL     1      -8.261   9.894  70.307  1.00  0.00    -0.185 OA 
ENDROOT
BRANCH   2   3
HETATM    3  C   UNL     1      -9.142  10.023  69.285  1.00  0.00    -0.200 C  
HETATM    4  O   UNL     1      -9.385  11.052  68.676  1.00  0.00    -0.183 OA 
BRANCH   3   5
HETATM    5  C   UNL     1      -9.781   8.726  68.975  1.00  0.00    -0.172 A  
HETATM    6  C   UNL     1     -10.683   8.108  69.830  1.00  0.00    -0.241 A  
HETATM    7  N   UNL     1     -11.273   6.913  69.573  1.00  0.00    -0.229 NA 
HETATM    8  C   UNL     1     -10.945   6.310  68.409  1.00  0.00    -0.325 A  
HETATM    9  C   UNL     1     -10.059   6.847  67.488  1.00  0.00    -0.222 A  
HETATM   10  C   UNL     1      -9.470   8.076  67.777  1.00  0.00    -0.166 A  
ENDBRANCH   3   5
ENDBRANCH   2   3
TORSDOF 2
ENDMDL
MODEL      171
REMARK 921   NORMALIZED FREE ENERGY PREDICTED BY IDOCK:   -1.83 KCAL/MOL
REMARK 922        TOTAL FREE ENERGY PREDICTED BY IDOCK:   -2.11 KCAL/MOL
REMARK 923 INTER-LIGAND FREE ENERGY PREDICTED BY IDOCK:   -2.06 KCAL/MOL
REMARK 924 INTRA-LIGAND FREE ENERGY PREDICTED BY IDOCK:   -0.05 KCAL/MOL
REMARK 927      BINDING AFFINITY PREDICTED BY RF-SCORE:    0.00 PKD
ROOT
HETATM    1  C   UNL     1     -10.220   4.753  66.484  1.00  0.00    -0.259 C  
HETATM    2  O   UNL     1      -9.971   5.445  67.710  1.00  0.00    -0.142 OA 
ENDROOT
BRANCH   2   3
HETATM    3  C   UNL     1     -10.488   6.696  67.751  1.00  0.00    -0.225 C  
HETATM    4  O   UNL     1     -11.156   7.224  66.876  1.00  0.00    -0.287 OA 
BRANCH   3   5
HETATM    5  C   UNL     1     -10.153   7.362  69.028  1.00  0.00    -0.193 A  
HETATM    6  C   UNL     1     -11.081   7.555  70.042  1.00  0.00    -0.204 A  
HETATM    7  N   UNL     1     -10.801   8.174  71.218  1.00  0.00    -0.232 NA 
HETATM    8  C   UNL     1      -9.535   8.618  71.386  1.00  0.00    -0.237 A  
HETATM    9  C   UNL     1      -8.537   8.470  70.436  1.00  0.00    -0.146 A  
HETATM   10  C   UNL     1      -8.853   7.830  69.239  1.00  0.00    -0.139 A  
ENDBRANCH   3   5
ENDBRANCH   2   3
TORSDOF 2
ENDMDL
MODEL      172
REMARK 921   NORMALIZED FREE ENERGY PREDICTED BY IDOCK:   -1.82 KCAL/MOL
REMARK 922        TOTAL FREE ENERGY PREDICTED BY IDOCK:   -2.11 KCAL/MOL
REMARK 923 INTER-LIGAND FREE ENERGY PREDICTED BY IDOCK:   -2.04 KCAL/MOL
REMARK 924 INTRA-LIGAND FREE ENERGY PREDICTED BY IDOCK:   -0.07 KCAL/MOL
REMARK 927      BINDING AFFINITY PREDICTED BY RF-SCORE:    0.00 PKD
ROOT
HETATM    1  C   UNL     1     -10.361   6.095  74.105  1.00  0.00    -0.294 C  
HETATM    2  O   UNL     1     -10.064   5.565  72.811  1.00  0.00    -0.174 OA 
ENDROOT
BRANCH   2   3
HETATM    3  C   UNL     1      -9.109   6.254  72.140  1.00  0.00    -0.141 C  
HETATM    4  O   UNL     1      -7.994   6.523  72.557  1.00  0.00    -0.103 OA 
BRANCH   3   5
HETATM    5  C   UNL     1      -9.586   6.637  70.793  1.00  0.00    -0.183 A  
HETATM    6  C   UNL     1      -9.608   7.952  70.350  1.00  0.00    -0.171 A  
HETATM    7  N   UNL     1     -10.052   8.330  69.123  1.00  0.00    -0.197 NA 
HETATM    8  C   UNL     1     -10.492   7.348  68.305  1.00  0.00    -0.189 A  
HETATM    9  C   UNL     1     -10.506   6.006  68.654  1.00  0.00    -0.297 A  
HETATM   10  C   UNL     1     -10.043   5.647  69.919  1.00  0.00    -0.289 A  
ENDBRANCH   3   5
ENDBRANCH   2   3
TORSDOF 2
ENDMDL
MODEL      173
REMARK 921   NORMALIZED FREE ENERGY PREDICTED BY IDOCK:   -1.82 KCAL/MOL
REMARK 922        TOTAL FREE ENERGY PREDICTED BY IDOCK:   -2.10 KCAL/MOL
REMARK 923 INTER-LIGAND FREE ENERGY PREDICTED BY IDOCK:   -2.02 KCAL/MOL
REMARK 924 INTRA-LIGAND FREE ENERGY PREDICTED BY IDOCK:   -0.08 KCAL/MOL
REMARK 927      BINDING AFFINITY PREDICTED BY RF-SCORE:    0.00 PKD
ROOT
HETATM    1  C   UNL     1      -6.488  14.119  68.459  1.00  0.00    -0.096 C  
HETATM    2  O   UNL     1      -7.057  13.910  67.164  1.00  0.00    -0.093 OA 
ENDROOT
BRANCH   2   3
HETATM    3  C   UNL     1      -8.340  14.330  67.051  1.00  0.00    -0.131 C  
HETATM    4  O   UNL     1      -8.702  15.472  66.819  1.00  0.00    -0.223 OA 
BRANCH   3   5
HETATM    5  C   UNL     1      -9.280  13.202  67.232  1.00  0.00    -0.221 A  
HETATM    6  C   UNL     1      -9.418  12.182  66.301  1.00  0.00    -0.232 A  
HETATM    7  N   UNL     1     -10.282  11.144  66.438  1.00  0.00    -0.226 NA 
HETATM    8  C   UNL     1     -11.040  11.126  67.557  1.00  0.00    -0.291 A  
HETATM    9  C   UNL     1     -10.973  12.094  68.547  1.00  0.00    -0.276 A  
HETATM   10  C   UNL     1     -10.076  13.148  68.380  1.00  0.00    -0.231 A  
ENDBRANCH   3   5
ENDBRANCH   2   3
TORSDOF 2
ENDMDL
MODEL      174
REMARK 921   NORMALIZED FREE ENERGY PREDICTED BY IDOCK:   -1.80 KCAL/MOL
REMARK 922        TOTAL FREE ENERGY PREDICTED BY IDOCK:   -2.08 KCAL/MOL
REMARK 923 INTER-LIGAND FREE ENERGY PREDICTED BY IDOCK:   -2.00 KCAL/MOL
REMARK 924 INTRA-LIGAND FREE ENERGY PREDICTED BY IDOCK:   -0.08 KCAL/MOL
REMARK 927      BINDING AFFINITY PREDICTED BY RF-SCORE:    0.00 PKD
ROOT
HETATM    1  C   UNL     1      -8.507   9.657  65.642  1.00  0.00    -0.132 C  
HETATM    2  O   UNL     1      -9.655  10.323  66.174  1.00  0.00    -0.178 OA 
ENDROOT
BRANCH   2   3
HETATM    3  C   UNL     1      -9.427  11.609  66.536  1.00  0.00    -0.206 C  
HETATM    4  O   UNL     1      -8.679  12.390  65.970  1.00  0.00     0.087 OA 
BRANCH   3   5
HETATM    5  C   UNL     1     -10.230  11.971  67.724  1.00  0.00    -0.211 A  
HETATM    6  C   UNL     1     -10.204  13.237  68.291  1.00  0.00    -0.250 A  
HETATM    7  N   UNL     1     -10.922  13.590  69.389  1.00  0.00    -0.119 NA 
HETATM    8  C   UNL     1     -11.700  12.633  69.941  1.00  0.00    -0.250 A  
HETATM    9  C   UNL     1     -11.797  11.341  69.447  1.00  0.00    -0.424 A  
HETATM   10  C   UNL     1     -11.050  11.008  68.318  1.00  0.00    -0.316 A  
ENDBRANCH   3   5
ENDBRANCH   2   3
TORSDOF 2
ENDMDL
MODEL      175
REMARK 921   NORMALIZED FREE ENERGY PREDICTED BY IDOCK:   -1.75 KCAL/MOL
REMARK 922        TOTAL FREE ENERGY PREDICTED BY IDOCK:   -2.03 KCAL/MOL
REMARK 923 INTER-LIGAND FREE ENERGY PREDICTED BY IDOCK:   -1.96 KCAL/MOL
REMARK 924 INTRA-LIGAND FREE ENERGY PREDICTED BY IDOCK:   -0.07 KCAL/MOL
REMARK 927      BINDING AFFINITY PREDICTED BY RF-SCORE:    0.00 PKD
ROOT
HETATM    1  C   UNL     1      -8.208  10.875  68.196  1.00  0.00    -0.121 C  
HETATM    2  O   UNL     1      -9.302   9.957  68.122  1.00  0.00    -0.131 OA 
ENDROOT
BRANCH   2   3
HETATM    3  C   UNL     1      -8.926   8.656  68.082  1.00  0.00    -0.141 C  
HETATM    4  O   UNL     1      -8.054   8.183  67.371  1.00  0.00    -0.118 OA 
BRANCH   3   5
HETATM    5  C   UNL     1      -9.712   7.852  69.044  1.00  0.00    -0.162 A  
HETATM    6  C   UNL     1     -10.677   6.936  68.648  1.00  0.00    -0.216 A  
HETATM    7  N   UNL     1     -11.419   6.197  69.512  1.00  0.00    -0.381 NA 
HETATM    8  C   UNL     1     -11.184   6.383  70.830  1.00  0.00    -0.326 A  
HETATM    9  C   UNL     1     -10.240   7.269  71.325  1.00  0.00    -0.198 A  
HETATM   10  C   UNL     1      -9.492   8.014  70.415  1.00  0.00    -0.166 A  
ENDBRANCH   3   5
ENDBRANCH   2   3
TORSDOF 2
ENDMDL
MODEL      176
REMARK 921   NORMALIZED FREE ENERGY PREDICTED BY IDOCK:   -1.74 KCAL/MOL
REMARK 922        TOTAL FREE ENERGY PREDICTED BY IDOCK:   -2.02 KCAL/MOL
REMARK 923 INTER-LIGAND FREE ENERGY PREDICTED BY IDOCK:   -2.03 KCAL/MOL
REMARK 924 INTRA-LIGAND FREE ENERGY PREDICTED BY IDOCK:    0.01 KCAL/MOL
REMARK 927      BINDING AFFINITY PREDICTED BY RF-SCORE:    0.00 PKD
ROOT
HETATM    1  C   UNL     1      -8.557   6.478  71.039  1.00  0.00    -0.134 C  
HETATM    2  O   UNL     1      -9.412   7.623  71.020  1.00  0.00    -0.159 OA 
ENDROOT
BRANCH   2   3
HETATM    3  C   UNL     1      -8.851   8.721  70.457  1.00  0.00    -0.176 C  
HETATM    4  O   UNL     1      -8.051   9.471  70.993  1.00  0.00    -0.312 OA 
BRANCH   3   5
HETATM    5  C   UNL     1      -9.324   8.899  69.067  1.00  0.00    -0.144 A  
HETATM    6  C   UNL     1      -8.790   8.195  67.996  1.00  0.00    -0.131 A  
HETATM    7  N   UNL     1      -9.198   8.349  66.710  1.00  0.00    -0.160 NA 
HETATM    8  C   UNL     1     -10.185   9.247  66.488  1.00  0.00    -0.246 A  
HETATM    9  C   UNL     1     -10.783   9.995  67.489  1.00  0.00    -0.339 A  
HETATM   10  C   UNL     1     -10.345   9.814  68.800  1.00  0.00    -0.227 A  
ENDBRANCH   3   5
ENDBRANCH   2   3
TORSDOF 2
ENDMDL
MODEL      177
REMARK 921   NORMALIZED FREE ENERGY PREDICTED BY IDOCK:   -1.73 KCAL/MOL
REMARK 922        TOTAL FREE ENERGY PREDICTED BY IDOCK:   -2.01 KCAL/MOL
REMARK 923 INTER-LIGAND FREE ENERGY PREDICTED BY IDOCK:   -1.92 KCAL/MOL
REMARK 924 INTRA-LIGAND FREE ENERGY PREDICTED BY IDOCK:   -0.09 KCAL/MOL
REMARK 927      BINDING AFFINITY PREDICTED BY RF-SCORE:    0.00 PKD
ROOT
HETATM    1  C   UNL     1     -11.421   6.907  69.635  1.00  0.00    -0.152 C  
HETATM    2  O   UNL     1     -11.609   5.975  70.702  1.00  0.00    -0.261 OA 
ENDROOT
BRANCH   2   3
HETATM    3  C   UNL     1     -10.508   5.241  70.993  1.00  0.00    -0.203 C  
HETATM    4  O   UNL     1     -10.112   4.267  70.373  1.00  0.00    -0.194 OA 
BRANCH   3   5
HETATM    5  C   UNL     1      -9.810   5.787  72.178  1.00  0.00    -0.181 A  
HETATM    6  C   UNL     1     -10.479   6.403  73.226  1.00  0.00    -0.254 A  
HETATM    7  N   UNL     1      -9.860   6.923  74.317  1.00  0.00    -0.303 NA 
HETATM    8  C   UNL     1      -8.513   6.820  74.360  1.00  0.00    -0.154 A  
HETATM    9  C   UNL     1      -7.756   6.220  73.366  1.00  0.00    -0.098 A  
HETATM   10  C   UNL     1      -8.418   5.694  72.259  1.00  0.00    -0.119 A  
ENDBRANCH   3   5
ENDBRANCH   2   3
TORSDOF 2
ENDMDL
MODEL      178
REMARK 921   NORMALIZED FREE ENERGY PREDICTED BY IDOCK:   -1.70 KCAL/MOL
REMARK 922        TOTAL FREE ENERGY PREDICTED BY IDOCK:   -1.97 KCAL/MOL
REMARK 923 INTER-LIGAND FREE ENERGY PREDICTED BY IDOCK:   -1.91 KCAL/MOL
REMARK 924 INTRA-LIGAND FREE ENERGY PREDICTED BY IDOCK:   -0.06 KCAL/MOL
REMARK 927      BINDING AFFINITY PREDICTED BY RF-SCORE:    0.00 PKD
ROOT
HETATM    1  C   UNL     1      -8.495   4.402  70.599  1.00  0.00    -0.082 C  
HETATM    2  O   UNL     1      -9.664   5.186  70.350  1.00  0.00    -0.172 OA 
ENDROOT
BRANCH   2   3
HETATM    3  C   UNL     1      -9.465   6.522  70.458  1.00  0.00    -0.166 C  
HETATM    4  O   UNL     1      -9.029   7.104  71.439  1.00  0.00    -0.136 OA 
BRANCH   3   5
HETATM    5  C   UNL     1      -9.832   7.212  69.202  1.00  0.00    -0.160 A  
HETATM    6  C   UNL     1      -9.892   8.595  69.094  1.00  0.00    -0.185 A  
HETATM    7  N   UNL     1     -10.238   9.251  67.957  1.00  0.00    -0.198 NA 
HETATM    8  C   UNL     1     -10.536   8.488  66.880  1.00  0.00    -0.275 A  
HETATM    9  C   UNL     1     -10.501   7.103  66.887  1.00  0.00    -0.364 A  
HETATM   10  C   UNL     1     -10.140   6.456  68.068  1.00  0.00    -0.168 A  
ENDBRANCH   3   5
ENDBRANCH   2   3
TORSDOF 2
ENDMDL
MODEL      179
REMARK 921   NORMALIZED FREE ENERGY PREDICTED BY IDOCK:   -1.67 KCAL/MOL
REMARK 922        TOTAL FREE ENERGY PREDICTED BY IDOCK:   -1.94 KCAL/MOL
REMARK 923 INTER-LIGAND FREE ENERGY PREDICTED BY IDOCK:   -1.87 KCAL/MOL
REMARK 924 INTRA-LIGAND FREE ENERGY PREDICTED BY IDOCK:   -0.07 KCAL/MOL
REMARK 927      BINDING AFFINITY PREDICTED BY RF-SCORE:    0.00 PKD
ROOT
HETATM    1  C   UNL     1      -8.178   9.725  62.727  1.00  0.00    -0.149 C  
HETATM    2  O   UNL     1      -8.792   9.937  64.000  1.00  0.00    -0.192 OA 
ENDROOT
BRANCH   2   3
HETATM    3  C   UNL     1      -7.926  10.310  64.974  1.00  0.00    -0.144 C  
HETATM    4  O   UNL     1      -6.712  10.381  64.864  1.00  0.00    -0.118 OA 
BRANCH   3   5
HETATM    5  C   UNL     1      -8.650  10.651  66.218  1.00  0.00    -0.156 A  
HETATM    6  C   UNL     1      -8.171  11.574  67.138  1.00  0.00    -0.161 A  
HETATM    7  N   UNL     1      -8.810  11.894  68.292  1.00  0.00    -0.173 NA 
HETATM    8  C   UNL     1      -9.981  11.263  68.535  1.00  0.00    -0.202 A  
HETATM    9  C   UNL     1     -10.544  10.331  67.678  1.00  0.00    -0.312 A  
HETATM   10  C   UNL     1      -9.866  10.023  66.499  1.00  0.00    -0.267 A  
ENDBRANCH   3   5
ENDBRANCH   2   3
TORSDOF 2
ENDMDL
MODEL      180
REMARK 921   NORMALIZED FREE ENERGY PREDICTED BY IDOCK:   -1.66 KCAL/MOL
REMARK 922        TOTAL FREE ENERGY PREDICTED BY IDOCK:   -1.92 KCAL/MOL
REMARK 923 INTER-LIGAND FREE ENERGY PREDICTED BY IDOCK:   -2.03 KCAL/MOL
REMARK 924 INTRA-LIGAND FREE ENERGY PREDICTED BY IDOCK:    0.11 KCAL/MOL
REMARK 927      BINDING AFFINITY PREDICTED BY RF-SCORE:    0.00 PKD
ROOT
HETATM    1  C   UNL     1     -10.153   4.643  66.496  1.00  0.00    -0.250 C  
HETATM    2  O   UNL     1      -9.875   4.724  67.896  1.00  0.00    -0.158 OA 
ENDROOT
BRANCH   2   3
HETATM    3  C   UNL     1     -10.363   5.840  68.491  1.00  0.00    -0.215 C  
HETATM    4  O   UNL     1     -11.156   5.868  69.419  1.00  0.00    -0.363 OA 
BRANCH   3   5
HETATM    5  C   UNL     1      -9.792   7.057  67.874  1.00  0.00    -0.161 A  
HETATM    6  C   UNL     1     -10.576   8.050  67.304  1.00  0.00    -0.290 A  
HETATM    7  N   UNL     1     -10.075   9.170  66.722  1.00  0.00    -0.254 NA 
HETATM    8  C   UNL     1      -8.730   9.300  66.711  1.00  0.00    -0.127 A  
HETATM    9  C   UNL     1      -7.862   8.367  67.257  1.00  0.00    -0.098 A  
HETATM   10  C   UNL     1      -8.405   7.228  67.850  1.00  0.00    -0.119 A  
ENDBRANCH   3   5
ENDBRANCH   2   3
TORSDOF 2
ENDMDL
MODEL      181
REMARK 921   NORMALIZED FREE ENERGY PREDICTED BY IDOCK:   -1.65 KCAL/MOL
REMARK 922        TOTAL FREE ENERGY PREDICTED BY IDOCK:   -1.91 KCAL/MOL
REMARK 923 INTER-LIGAND FREE ENERGY PREDICTED BY IDOCK:   -1.83 KCAL/MOL
REMARK 924 INTRA-LIGAND FREE ENERGY PREDICTED BY IDOCK:   -0.08 KCAL/MOL
REMARK 927      BINDING AFFINITY PREDICTED BY RF-SCORE:    0.00 PKD
ROOT
HETATM    1  C   UNL     1      -5.636   7.863  70.126  1.00  0.00    -0.023 C  
HETATM    2  O   UNL     1      -6.392   8.264  71.270  1.00  0.00    -0.034 OA 
ENDROOT
BRANCH   2   3
HETATM    3  C   UNL     1      -7.245   9.291  71.034  1.00  0.00    -0.072 C  
HETATM    4  O   UNL     1      -6.929  10.425  70.711  1.00  0.00    -0.313 OA 
BRANCH   3   5
HETATM    5  C   UNL     1      -8.649   8.857  71.203  1.00  0.00    -0.263 A  
HETATM    6  C   UNL     1      -8.997   7.639  71.771  1.00  0.00    -0.119 A  
HETATM    7  N   UNL     1     -10.277   7.214  71.924  1.00  0.00    -0.190 NA 
HETATM    8  C   UNL     1     -11.252   8.045  71.491  1.00  0.00    -0.255 A  
HETATM    9  C   UNL     1     -11.007   9.282  70.915  1.00  0.00    -0.368 A  
HETATM   10  C   UNL     1      -9.683   9.693  70.772  1.00  0.00    -0.192 A  
ENDBRANCH   3   5
ENDBRANCH   2   3
TORSDOF 2
ENDMDL
MODEL      182
REMARK 921   NORMALIZED FREE ENERGY PREDICTED BY IDOCK:   -1.62 KCAL/MOL
REMARK 922        TOTAL FREE ENERGY PREDICTED BY IDOCK:   -1.88 KCAL/MOL
REMARK 923 INTER-LIGAND FREE ENERGY PREDICTED BY IDOCK:   -1.84 KCAL/MOL
REMARK 924 INTRA-LIGAND FREE ENERGY PREDICTED BY IDOCK:   -0.04 KCAL/MOL
REMARK 927      BINDING AFFINITY PREDICTED BY RF-SCORE:    0.00 PKD
ROOT
HETATM    1  C   UNL     1     -10.977   7.453  73.198  1.00  0.00    -0.359 C  
HETATM    2  O   UNL     1     -10.062   7.417  72.100  1.00  0.00    -0.184 OA 
ENDROOT
BRANCH   2   3
HETATM    3  C   UNL     1     -10.275   8.384  71.174  1.00  0.00    -0.202 C  
HETATM    4  O   UNL     1     -11.041   9.328  71.288  1.00  0.00    -0.297 OA 
BRANCH   3   5
HETATM    5  C   UNL     1      -9.430   8.163  69.980  1.00  0.00    -0.167 A  
HETATM    6  C   UNL     1      -8.100   8.555  69.917  1.00  0.00    -0.118 A  
HETATM    7  N   UNL     1      -7.309   8.375  68.829  1.00  0.00    -0.085 NA 
HETATM    8  C   UNL     1      -7.874   7.775  67.757  1.00  0.00    -0.123 A  
HETATM    9  C   UNL     1      -9.191   7.344  67.724  1.00  0.00    -0.133 A  
HETATM   10  C   UNL     1      -9.979   7.541  68.856  1.00  0.00    -0.168 A  
ENDBRANCH   3   5
ENDBRANCH   2   3
TORSDOF 2
ENDMDL
MODEL      183
REMARK 921   NORMALIZED FREE ENERGY PREDICTED BY IDOCK:   -1.59 KCAL/MOL
REMARK 922        TOTAL FREE ENERGY PREDICTED BY IDOCK:   -1.85 KCAL/MOL
REMARK 923 INTER-LIGAND FREE ENERGY PREDICTED BY IDOCK:   -1.79 KCAL/MOL
REMARK 924 INTRA-LIGAND FREE ENERGY PREDICTED BY IDOCK:   -0.06 KCAL/MOL
REMARK 927      BINDING AFFINITY PREDICTED BY RF-SCORE:    0.00 PKD
ROOT
HETATM    1  C   UNL     1      -6.672  10.372  70.293  1.00  0.00    -0.138 C  
HETATM    2  O   UNL     1      -7.354   9.160  70.621  1.00  0.00    -0.084 OA 
ENDROOT
BRANCH   2   3
HETATM    3  C   UNL     1      -8.103   8.658  69.609  1.00  0.00    -0.112 C  
HETATM    4  O   UNL     1      -8.018   8.970  68.432  1.00  0.00    -0.102 OA 
BRANCH   3   5
HETATM    5  C   UNL     1      -9.053   7.642  70.113  1.00  0.00    -0.150 A  
HETATM    6  C   UNL     1      -8.755   6.791  71.168  1.00  0.00    -0.136 A  
HETATM    7  N   UNL     1      -9.605   5.843  71.639  1.00  0.00    -0.152 NA 
HETATM    8  C   UNL     1     -10.807   5.745  71.028  1.00  0.00    -0.247 A  
HETATM    9  C   UNL     1     -11.200   6.551  69.971  1.00  0.00    -0.453 A  
HETATM   10  C   UNL     1     -10.307   7.516  69.509  1.00  0.00    -0.216 A  
ENDBRANCH   3   5
ENDBRANCH   2   3
TORSDOF 2
ENDMDL
MODEL      184
REMARK 921   NORMALIZED FREE ENERGY PREDICTED BY IDOCK:   -1.59 KCAL/MOL
REMARK 922        TOTAL FREE ENERGY PREDICTED BY IDOCK:   -1.84 KCAL/MOL
REMARK 923 INTER-LIGAND FREE ENERGY PREDICTED BY IDOCK:   -1.80 KCAL/MOL
REMARK 924 INTRA-LIGAND FREE ENERGY PREDICTED BY IDOCK:   -0.04 KCAL/MOL
REMARK 927      BINDING AFFINITY PREDICTED BY RF-SCORE:    0.00 PKD
ROOT
HETATM    1  C   UNL     1      -7.503   9.341  62.599  1.00  0.00    -0.103 C  
HETATM    2  O   UNL     1      -8.353   8.860  63.643  1.00  0.00    -0.174 OA 
ENDROOT
BRANCH   2   3
HETATM    3  C   UNL     1      -7.818   8.968  64.883  1.00  0.00    -0.119 C  
HETATM    4  O   UNL     1      -6.746   9.484  65.158  1.00  0.00    -0.081 OA 
BRANCH   3   5
HETATM    5  C   UNL     1      -8.721   8.383  65.898  1.00  0.00    -0.197 A  
HETATM    6  C   UNL     1      -8.686   7.041  66.252  1.00  0.00    -0.146 A  
HETATM    7  N   UNL     1      -9.513   6.479  67.170  1.00  0.00    -0.127 NA 
HETATM    8  C   UNL     1     -10.413   7.297  67.762  1.00  0.00    -0.228 A  
HETATM    9  C   UNL     1     -10.523   8.650  67.480  1.00  0.00    -0.335 A  
HETATM   10  C   UNL     1      -9.660   9.200  66.534  1.00  0.00    -0.289 A  
ENDBRANCH   3   5
ENDBRANCH   2   3
TORSDOF 2
ENDMDL
MODEL      185
REMARK 921   NORMALIZED FREE ENERGY PREDICTED BY IDOCK:   -1.55 KCAL/MOL
REMARK 922        TOTAL FREE ENERGY PREDICTED BY IDOCK:   -1.80 KCAL/MOL
REMARK 923 INTER-LIGAND FREE ENERGY PREDICTED BY IDOCK:   -1.73 KCAL/MOL
REMARK 924 INTRA-LIGAND FREE ENERGY PREDICTED BY IDOCK:   -0.07 KCAL/MOL
REMARK 927      BINDING AFFINITY PREDICTED BY RF-SCORE:    0.00 PKD
ROOT
HETATM    1  C   UNL     1     -10.572   6.968  67.010  1.00  0.00    -0.341 C  
HETATM    2  O   UNL     1      -9.599   6.164  66.339  1.00  0.00    -0.158 OA 
ENDROOT
BRANCH   2   3
HETATM    3  C   UNL     1      -9.587   4.869  66.736  1.00  0.00    -0.161 C  
HETATM    4  O   UNL     1      -9.549   4.474  67.890  1.00  0.00    -0.150 OA 
BRANCH   3   5
HETATM    5  C   UNL     1      -9.644   3.961  65.569  1.00  0.00    -0.184 A  
HETATM    6  C   UNL     1     -10.658   4.016  64.623  1.00  0.00    -0.168 A  
HETATM    7  N   UNL     1     -10.739   3.186  63.551  1.00  0.00    -0.248 NA 
HETATM    8  C   UNL     1      -9.761   2.262  63.421  1.00  0.00    -0.110 A  
HETATM    9  C   UNL     1      -8.705   2.130  64.310  1.00  0.00    -0.098 A  
HETATM   10  C   UNL     1      -8.647   2.996  65.400  1.00  0.00    -0.112 A  
ENDBRANCH   3   5
ENDBRANCH   2   3
TORSDOF 2
ENDMDL
MODEL      186
REMARK 921   NORMALIZED FREE ENERGY PREDICTED BY IDOCK:   -1.51 KCAL/MOL
REMARK 922        TOTAL FREE ENERGY PREDICTED BY IDOCK:   -1.76 KCAL/MOL
REMARK 923 INTER-LIGAND FREE ENERGY PREDICTED BY IDOCK:   -1.70 KCAL/MOL
REMARK 924 INTRA-LIGAND FREE ENERGY PREDICTED BY IDOCK:   -0.06 KCAL/MOL
REMARK 927      BINDING AFFINITY PREDICTED BY RF-SCORE:    0.00 PKD
ROOT
HETATM    1  C   UNL     1     -11.436   6.427  69.792  1.00  0.00    -0.399 C  
HETATM    2  O   UNL     1     -11.064   5.913  71.073  1.00  0.00    -0.284 OA 
ENDROOT
BRANCH   2   3
HETATM    3  C   UNL     1      -9.942   6.473  71.586  1.00  0.00    -0.177 C  
HETATM    4  O   UNL     1      -9.487   7.566  71.290  1.00  0.00    -0.151 OA 
BRANCH   3   5
HETATM    5  C   UNL     1      -9.323   5.583  72.593  1.00  0.00    -0.150 A  
HETATM    6  C   UNL     1     -10.069   4.797  73.460  1.00  0.00    -0.162 A  
HETATM    7  N   UNL     1      -9.525   3.982  74.401  1.00  0.00    -0.106 NA 
HETATM    8  C   UNL     1      -8.176   3.953  74.475  1.00  0.00    -0.089 A  
HETATM    9  C   UNL     1      -7.345   4.698  73.652  1.00  0.00    -0.081 A  
HETATM   10  C   UNL     1      -7.931   5.524  72.695  1.00  0.00    -0.103 A  
ENDBRANCH   3   5
ENDBRANCH   2   3
TORSDOF 2
ENDMDL
MODEL      187
REMARK 921   NORMALIZED FREE ENERGY PREDICTED BY IDOCK:   -1.49 KCAL/MOL
REMARK 922        TOTAL FREE ENERGY PREDICTED BY IDOCK:   -1.74 KCAL/MOL
REMARK 923 INTER-LIGAND FREE ENERGY PREDICTED BY IDOCK:   -1.64 KCAL/MOL
REMARK 924 INTRA-LIGAND FREE ENERGY PREDICTED BY IDOCK:   -0.10 KCAL/MOL
REMARK 927      BINDING AFFINITY PREDICTED BY RF-SCORE:    0.00 PKD
ROOT
HETATM    1  C   UNL     1     -11.195   6.443  67.790  1.00  0.00    -0.152 C  
HETATM    2  O   UNL     1     -11.577   6.126  69.130  1.00  0.00    -0.287 OA 
ENDROOT
BRANCH   2   3
HETATM    3  C   UNL     1     -10.703   6.561  70.070  1.00  0.00    -0.249 C  
HETATM    4  O   UNL     1     -10.766   7.623  70.670  1.00  0.00    -0.223 OA 
BRANCH   3   5
HETATM    5  C   UNL     1      -9.639   5.560  70.302  1.00  0.00    -0.227 A  
HETATM    6  C   UNL     1      -9.910   4.239  70.630  1.00  0.00    -0.195 A  
HETATM    7  N   UNL     1      -8.951   3.305  70.860  1.00  0.00    -0.089 NA 
HETATM    8  C   UNL     1      -7.666   3.711  70.755  1.00  0.00    -0.043 A  
HETATM    9  C   UNL     1      -7.295   5.006  70.429  1.00  0.00    -0.055 A  
HETATM   10  C   UNL     1      -8.300   5.944  70.197  1.00  0.00    -0.118 A  
ENDBRANCH   3   5
ENDBRANCH   2   3
TORSDOF 2
ENDMDL
MODEL      188
REMARK 921   NORMALIZED FREE ENERGY PREDICTED BY IDOCK:   -1.45 KCAL/MOL
REMARK 922        TOTAL FREE ENERGY PREDICTED BY IDOCK:   -1.69 KCAL/MOL
REMARK 923 INTER-LIGAND FREE ENERGY PREDICTED BY IDOCK:   -1.62 KCAL/MOL
REMARK 924 INTRA-LIGAND FREE ENERGY PREDICTED BY IDOCK:   -0.07 KCAL/MOL
REMARK 927      BINDING AFFINITY PREDICTED BY RF-SCORE:    0.00 PKD
ROOT
HETATM    1  C   UNL     1     -11.398   6.665  69.745  1.00  0.00    -0.354 C  
HETATM    2  O   UNL     1     -11.269   5.766  70.849  1.00  0.00    -0.245 OA 
ENDROOT
BRANCH   2   3
HETATM    3  C   UNL     1     -10.059   5.813  71.458  1.00  0.00    -0.196 C  
HETATM    4  O   UNL     1      -9.816   6.352  72.526  1.00  0.00    -0.167 OA 
BRANCH   3   5
HETATM    5  C   UNL     1      -9.040   5.095  70.661  1.00  0.00    -0.178 A  
HETATM    6  C   UNL     1      -7.903   5.715  70.162  1.00  0.00    -0.091 A  
HETATM    7  N   UNL     1      -6.961   5.082  69.417  1.00  0.00    -0.053 NA 
HETATM    8  C   UNL     1      -7.166   3.770  69.162  1.00  0.00    -0.050 A  
HETATM    9  C   UNL     1      -8.266   3.062  69.619  1.00  0.00    -0.069 A  
HETATM   10  C   UNL     1      -9.217   3.737  70.382  1.00  0.00    -0.213 A  
ENDBRANCH   3   5
ENDBRANCH   2   3
TORSDOF 2
ENDMDL
MODEL      189
REMARK 921   NORMALIZED FREE ENERGY PREDICTED BY IDOCK:   -1.44 KCAL/MOL
REMARK 922        TOTAL FREE ENERGY PREDICTED BY IDOCK:   -1.68 KCAL/MOL
REMARK 923 INTER-LIGAND FREE ENERGY PREDICTED BY IDOCK:   -1.63 KCAL/MOL
REMARK 924 INTRA-LIGAND FREE ENERGY PREDICTED BY IDOCK:   -0.04 KCAL/MOL
REMARK 927      BINDING AFFINITY PREDICTED BY RF-SCORE:    0.00 PKD
ROOT
HETATM    1  C   UNL     1      -8.168   5.866  73.886  1.00  0.00    -0.108 C  
HETATM    2  O   UNL     1      -8.437   4.850  72.917  1.00  0.00    -0.107 OA 
ENDROOT
BRANCH   2   3
HETATM    3  C   UNL     1      -8.150   5.212  71.643  1.00  0.00    -0.115 C  
HETATM    4  O   UNL     1      -7.216   4.798  70.974  1.00  0.00    -0.055 OA 
BRANCH   3   5
HETATM    5  C   UNL     1      -9.141   6.187  71.138  1.00  0.00    -0.151 A  
HETATM    6  C   UNL     1     -10.505   5.931  71.121  1.00  0.00    -0.233 A  
HETATM    7  N   UNL     1     -11.433   6.803  70.650  1.00  0.00    -0.329 NA 
HETATM    8  C   UNL     1     -10.975   7.984  70.178  1.00  0.00    -0.226 A  
HETATM    9  C   UNL     1      -9.634   8.334  70.156  1.00  0.00    -0.167 A  
HETATM   10  C   UNL     1      -8.704   7.420  70.647  1.00  0.00    -0.142 A  
ENDBRANCH   3   5
ENDBRANCH   2   3
TORSDOF 2
ENDMDL
MODEL      190
REMARK 921   NORMALIZED FREE ENERGY PREDICTED BY IDOCK:   -1.40 KCAL/MOL
REMARK 922        TOTAL FREE ENERGY PREDICTED BY IDOCK:   -1.64 KCAL/MOL
REMARK 923 INTER-LIGAND FREE ENERGY PREDICTED BY IDOCK:   -1.61 KCAL/MOL
REMARK 924 INTRA-LIGAND FREE ENERGY PREDICTED BY IDOCK:   -0.02 KCAL/MOL
REMARK 927      BINDING AFFINITY PREDICTED BY RF-SCORE:    0.00 PKD
ROOT
HETATM    1  C   UNL     1      -7.915   5.404  71.127  1.00  0.00    -0.109 C  
HETATM    2  O   UNL     1      -9.104   6.197  71.119  1.00  0.00    -0.145 OA 
ENDROOT
BRANCH   2   3
HETATM    3  C   UNL     1      -9.043   7.290  71.918  1.00  0.00    -0.133 C  
HETATM    4  O   UNL     1      -9.450   7.362  73.066  1.00  0.00    -0.156 OA 
BRANCH   3   5
HETATM    5  C   UNL     1      -8.386   8.416  71.218  1.00  0.00    -0.174 A  
HETATM    6  C   UNL     1      -7.086   8.817  71.494  1.00  0.00    -0.083 A  
HETATM    7  N   UNL     1      -6.467   9.855  70.874  1.00  0.00    -0.263 NA 
HETATM    8  C   UNL     1      -7.180  10.518  69.937  1.00  0.00    -0.130 A  
HETATM    9  C   UNL     1      -8.482  10.192  69.589  1.00  0.00    -0.172 A  
HETATM   10  C   UNL     1      -9.092   9.122  70.240  1.00  0.00    -0.247 A  
ENDBRANCH   3   5
ENDBRANCH   2   3
TORSDOF 2
ENDMDL
MODEL      191
REMARK 921   NORMALIZED FREE ENERGY PREDICTED BY IDOCK:   -1.40 KCAL/MOL
REMARK 922        TOTAL FREE ENERGY PREDICTED BY IDOCK:   -1.63 KCAL/MOL
REMARK 923 INTER-LIGAND FREE ENERGY PREDICTED BY IDOCK:   -1.56 KCAL/MOL
REMARK 924 INTRA-LIGAND FREE ENERGY PREDICTED BY IDOCK:   -0.07 KCAL/MOL
REMARK 927      BINDING AFFINITY PREDICTED BY RF-SCORE:    0.00 PKD
ROOT
HETATM    1  C   UNL     1     -11.632  11.194  68.057  1.00  0.00    -0.263 C  
HETATM    2  O   UNL     1     -10.364  11.834  68.211  1.00  0.00    -0.192 OA 
ENDROOT
BRANCH   2   3
HETATM    3  C   UNL     1      -9.672  11.971  67.054  1.00  0.00    -0.196 C  
HETATM    4  O   UNL     1      -9.897  12.791  66.178  1.00  0.00    -0.262 OA 
BRANCH   3   5
HETATM    5  C   UNL     1      -8.567  10.991  66.983  1.00  0.00    -0.140 A  
HETATM    6  C   UNL     1      -8.031  10.547  65.781  1.00  0.00    -0.158 A  
HETATM    7  N   UNL     1      -7.026   9.640  65.690  1.00  0.00    -0.092 NA 
HETATM    8  C   UNL     1      -6.534   9.157  66.853  1.00  0.00    -0.067 A  
HETATM    9  C   UNL     1      -6.998   9.540  68.102  1.00  0.00    -0.078 A  
HETATM   10  C   UNL     1      -8.030  10.474  68.165  1.00  0.00    -0.111 A  
ENDBRANCH   3   5
ENDBRANCH   2   3
TORSDOF 2
ENDMDL
MODEL      192
REMARK 921   NORMALIZED FREE ENERGY PREDICTED BY IDOCK:   -1.39 KCAL/MOL
REMARK 922        TOTAL FREE ENERGY PREDICTED BY IDOCK:   -1.62 KCAL/MOL
REMARK 923 INTER-LIGAND FREE ENERGY PREDICTED BY IDOCK:   -1.57 KCAL/MOL
REMARK 924 INTRA-LIGAND FREE ENERGY PREDICTED BY IDOCK:   -0.05 KCAL/MOL
REMARK 927      BINDING AFFINITY PREDICTED BY RF-SCORE:    0.00 PKD
ROOT
HETATM    1  C   UNL     1     -10.921   6.403  67.552  1.00  0.00    -0.364 C  
HETATM    2  O   UNL     1     -10.510   6.099  68.887  1.00  0.00    -0.188 OA 
ENDROOT
BRANCH   2   3
HETATM    3  C   UNL     1      -9.267   6.541  69.194  1.00  0.00    -0.135 C  
HETATM    4  O   UNL     1      -8.488   7.082  68.425  1.00  0.00    -0.123 OA 
BRANCH   3   5
HETATM    5  C   UNL     1      -8.961   6.299  70.621  1.00  0.00    -0.144 A  
HETATM    6  C   UNL     1      -9.736   6.808  71.654  1.00  0.00    -0.162 A  
HETATM    7  N   UNL     1      -9.469   6.610  72.970  1.00  0.00    -0.141 NA 
HETATM    8  C   UNL     1      -8.378   5.868  73.265  1.00  0.00    -0.116 A  
HETATM    9  C   UNL     1      -7.544   5.313  72.307  1.00  0.00    -0.096 A  
HETATM   10  C   UNL     1      -7.844   5.531  70.964  1.00  0.00    -0.105 A  
ENDBRANCH   3   5
ENDBRANCH   2   3
TORSDOF 2
ENDMDL
MODEL      193
REMARK 921   NORMALIZED FREE ENERGY PREDICTED BY IDOCK:   -1.39 KCAL/MOL
REMARK 922        TOTAL FREE ENERGY PREDICTED BY IDOCK:   -1.62 KCAL/MOL
REMARK 923 INTER-LIGAND FREE ENERGY PREDICTED BY IDOCK:   -1.56 KCAL/MOL
REMARK 924 INTRA-LIGAND FREE ENERGY PREDICTED BY IDOCK:   -0.07 KCAL/MOL
REMARK 927      BINDING AFFINITY PREDICTED BY RF-SCORE:    0.00 PKD
ROOT
HETATM    1  C   UNL     1      -7.603   9.598  70.225  1.00  0.00    -0.166 C  
HETATM    2  O   UNL     1      -8.593   8.709  69.702  1.00  0.00    -0.126 OA 
ENDROOT
BRANCH   2   3
HETATM    3  C   UNL     1      -8.095   7.531  69.255  1.00  0.00    -0.126 C  
HETATM    4  O   UNL     1      -7.019   7.045  69.563  1.00  0.00    -0.059 OA 
BRANCH   3   5
HETATM    5  C   UNL     1      -9.048   6.873  68.334  1.00  0.00    -0.126 A  
HETATM    6  C   UNL     1     -10.387   7.230  68.257  1.00  0.00    -0.193 A  
HETATM    7  N   UNL     1     -11.283   6.633  67.430  1.00  0.00    -0.310 NA 
HETATM    8  C   UNL     1     -10.817   5.636  66.644  1.00  0.00    -0.204 A  
HETATM    9  C   UNL     1      -9.498   5.211  66.645  1.00  0.00    -0.147 A  
HETATM   10  C   UNL     1      -8.600   5.842  67.503  1.00  0.00    -0.102 A  
ENDBRANCH   3   5
ENDBRANCH   2   3
TORSDOF 2
ENDMDL
MODEL      194
REMARK 921   NORMALIZED FREE ENERGY PREDICTED BY IDOCK:   -1.38 KCAL/MOL
REMARK 922        TOTAL FREE ENERGY PREDICTED BY IDOCK:   -1.61 KCAL/MOL
REMARK 923 INTER-LIGAND FREE ENERGY PREDICTED BY IDOCK:   -1.57 KCAL/MOL
REMARK 924 INTRA-LIGAND FREE ENERGY PREDICTED BY IDOCK:   -0.05 KCAL/MOL
REMARK 927      BINDING AFFINITY PREDICTED BY RF-SCORE:    0.00 PKD
ROOT
HETATM    1  C   UNL     1      -9.481   4.995  73.404  1.00  0.00    -0.136 C  
HETATM    2  O   UNL     1      -9.683   6.166  72.609  1.00  0.00    -0.157 OA 
ENDROOT
BRANCH   2   3
HETATM    3  C   UNL     1      -8.731   7.116  72.777  1.00  0.00    -0.118 C  
HETATM    4  O   UNL     1      -7.981   7.217  73.735  1.00  0.00    -0.102 OA 
BRANCH   3   5
HETATM    5  C   UNL     1      -8.694   8.034  71.618  1.00  0.00    -0.169 A  
HETATM    6  C   UNL     1      -9.673   8.991  71.386  1.00  0.00    -0.299 A  
HETATM    7  N   UNL     1      -9.668   9.836  70.323  1.00  0.00    -0.253 NA 
HETATM    8  C   UNL     1      -8.637   9.719  69.456  1.00  0.00    -0.179 A  
HETATM    9  C   UNL     1      -7.610   8.799  69.603  1.00  0.00    -0.076 A  
HETATM   10  C   UNL     1      -7.641   7.945  70.704  1.00  0.00    -0.077 A  
ENDBRANCH   3   5
ENDBRANCH   2   3
TORSDOF 2
ENDMDL
MODEL      195
REMARK 921   NORMALIZED FREE ENERGY PREDICTED BY IDOCK:   -1.30 KCAL/MOL
REMARK 922        TOTAL FREE ENERGY PREDICTED BY IDOCK:   -1.53 KCAL/MOL
REMARK 923 INTER-LIGAND FREE ENERGY PREDICTED BY IDOCK:   -1.44 KCAL/MOL
REMARK 924 INTRA-LIGAND FREE ENERGY PREDICTED BY IDOCK:   -0.08 KCAL/MOL
REMARK 927      BINDING AFFINITY PREDICTED BY RF-SCORE:    0.00 PKD
ROOT
HETATM    1  C   UNL     1      -9.536   8.033  69.824  1.00  0.00    -0.171 C  
HETATM    2  O   UNL     1      -9.502   7.149  70.946  1.00  0.00    -0.160 OA 
ENDROOT
BRANCH   2   3
HETATM    3  C   UNL     1      -8.290   6.585  71.167  1.00  0.00    -0.122 C  
HETATM    4  O   UNL     1      -7.823   5.632  70.564  1.00  0.00    -0.094 OA 
BRANCH   3   5
HETATM    5  C   UNL     1      -7.569   7.295  72.246  1.00  0.00    -0.085 A  
HETATM    6  C   UNL     1      -8.221   7.935  73.291  1.00  0.00    -0.182 A  
HETATM    7  N   UNL     1      -7.582   8.603  74.286  1.00  0.00    -0.415 NA 
HETATM    8  C   UNL     1      -6.232   8.630  74.233  1.00  0.00    -0.124 A  
HETATM    9  C   UNL     1      -5.490   8.018  73.234  1.00  0.00    -0.046 A  
HETATM   10  C   UNL     1      -6.172   7.338  72.227  1.00  0.00    -0.043 A  
ENDBRANCH   3   5
ENDBRANCH   2   3
TORSDOF 2
ENDMDL
MODEL      196
REMARK 921   NORMALIZED FREE ENERGY PREDICTED BY IDOCK:   -1.30 KCAL/MOL
REMARK 922        TOTAL FREE ENERGY PREDICTED BY IDOCK:   -1.52 KCAL/MOL
REMARK 923 INTER-LIGAND FREE ENERGY PREDICTED BY IDOCK:   -1.43 KCAL/MOL
REMARK 924 INTRA-LIGAND FREE ENERGY PREDICTED BY IDOCK:   -0.09 KCAL/MOL
REMARK 927      BINDING AFFINITY PREDICTED BY RF-SCORE:    0.00 PKD
ROOT
HETATM    1  C   UNL     1      -8.932   6.751  67.382  1.00  0.00    -0.115 C  
HETATM    2  O   UNL     1      -8.928   5.964  66.189  1.00  0.00    -0.145 OA 
ENDROOT
BRANCH   2   3
HETATM    3  C   UNL     1      -9.665   4.830  66.274  1.00  0.00    -0.196 C  
HETATM    4  O   UNL     1     -10.787   4.670  65.820  1.00  0.00    -0.293 OA 
BRANCH   3   5
HETATM    5  C   UNL     1      -8.920   3.771  66.989  1.00  0.00    -0.157 A  
HETATM    6  C   UNL     1      -7.659   3.344  66.598  1.00  0.00    -0.077 A  
HETATM    7  N   UNL     1      -6.961   2.366  67.230  1.00  0.00    -0.044 NA 
HETATM    8  C   UNL     1      -7.552   1.792  68.302  1.00  0.00    -0.046 A  
HETATM    9  C   UNL     1      -8.805   2.151  68.773  1.00  0.00    -0.144 A  
HETATM   10  C   UNL     1      -9.498   3.159  68.105  1.00  0.00    -0.217 A  
ENDBRANCH   3   5
ENDBRANCH   2   3
TORSDOF 2
ENDMDL
MODEL      197
REMARK 921   NORMALIZED FREE ENERGY PREDICTED BY IDOCK:   -1.29 KCAL/MOL
REMARK 922        TOTAL FREE ENERGY PREDICTED BY IDOCK:   -1.51 KCAL/MOL
REMARK 923 INTER-LIGAND FREE ENERGY PREDICTED BY IDOCK:   -1.72 KCAL/MOL
REMARK 924 INTRA-LIGAND FREE ENERGY PREDICTED BY IDOCK:    0.21 KCAL/MOL
REMARK 927      BINDING AFFINITY PREDICTED BY RF-SCORE:    0.00 PKD
ROOT
HETATM    1  C   UNL     1     -10.275   5.242  70.702  1.00  0.00    -0.257 C  
HETATM    2  O   UNL     1     -11.176   5.696  71.714  1.00  0.00    -0.242 OA 
ENDROOT
BRANCH   2   3
HETATM    3  C   UNL     1     -10.900   6.938  72.180  1.00  0.00    -0.225 C  
HETATM    4  O   UNL     1     -11.688   7.868  72.249  1.00  0.00    -0.313 OA 
BRANCH   3   5
HETATM    5  C   UNL     1      -9.493   7.031  72.626  1.00  0.00    -0.163 A  
HETATM    6  C   UNL     1      -8.591   7.935  72.082  1.00  0.00    -0.140 A  
HETATM    7  N   UNL     1      -7.291   8.031  72.465  1.00  0.00    -0.095 NA 
HETATM    8  C   UNL     1      -6.879   7.187  73.437  1.00  0.00    -0.069 A  
HETATM    9  C   UNL     1      -7.704   6.253  74.044  1.00  0.00    -0.091 A  
HETATM   10  C   UNL     1      -9.033   6.178  73.632  1.00  0.00    -0.128 A  
ENDBRANCH   3   5
ENDBRANCH   2   3
TORSDOF 2
ENDMDL
MODEL      198
REMARK 921   NORMALIZED FREE ENERGY PREDICTED BY IDOCK:   -1.27 KCAL/MOL
REMARK 922        TOTAL FREE ENERGY PREDICTED BY IDOCK:   -1.49 KCAL/MOL
REMARK 923 INTER-LIGAND FREE ENERGY PREDICTED BY IDOCK:   -1.41 KCAL/MOL
REMARK 924 INTRA-LIGAND FREE ENERGY PREDICTED BY IDOCK:   -0.08 KCAL/MOL
REMARK 927      BINDING AFFINITY PREDICTED BY RF-SCORE:    0.00 PKD
ROOT
HETATM    1  C   UNL     1     -11.718   6.110  72.226  1.00  0.00    -0.302 C  
HETATM    2  O   UNL     1     -10.926   5.857  71.064  1.00  0.00    -0.277 OA 
ENDROOT
BRANCH   2   3
HETATM    3  C   UNL     1     -10.066   6.858  70.755  1.00  0.00    -0.194 C  
HETATM    4  O   UNL     1     -10.375   7.999  70.452  1.00  0.00    -0.200 OA 
BRANCH   3   5
HETATM    5  C   UNL     1      -8.664   6.395  70.849  1.00  0.00    -0.136 A  
HETATM    6  C   UNL     1      -8.319   5.052  70.915  1.00  0.00    -0.112 A  
HETATM    7  N   UNL     1      -7.042   4.602  71.015  1.00  0.00    -0.036 NA 
HETATM    8  C   UNL     1      -6.067   5.539  71.047  1.00  0.00    -0.029 A  
HETATM    9  C   UNL     1      -6.309   6.902  70.982  1.00  0.00    -0.041 A  
HETATM   10  C   UNL     1      -7.630   7.334  70.879  1.00  0.00    -0.084 A  
ENDBRANCH   3   5
ENDBRANCH   2   3
TORSDOF 2
ENDMDL
MODEL      199
REMARK 921   NORMALIZED FREE ENERGY PREDICTED BY IDOCK:   -1.24 KCAL/MOL
REMARK 922        TOTAL FREE ENERGY PREDICTED BY IDOCK:   -1.46 KCAL/MOL
REMARK 923 INTER-LIGAND FREE ENERGY PREDICTED BY IDOCK:   -1.39 KCAL/MOL
REMARK 924 INTRA-LIGAND FREE ENERGY PREDICTED BY IDOCK:   -0.07 KCAL/MOL
REMARK 927      BINDING AFFINITY PREDICTED BY RF-SCORE:    0.00 PKD
ROOT
HETATM    1  C   UNL     1      -6.418   3.695  65.563  1.00  0.00    -0.033 C  
HETATM    2  O   UNL     1      -7.277   3.509  66.690  1.00  0.00    -0.065 OA 
ENDROOT
BRANCH   2   3
HETATM    3  C   UNL     1      -8.574   3.822  66.451  1.00  0.00    -0.113 C  
HETATM    4  O   UNL     1      -9.218   3.501  65.465  1.00  0.00    -0.145 OA 
BRANCH   3   5
HETATM    5  C   UNL     1      -9.140   4.607  67.570  1.00  0.00    -0.134 A  
HETATM    6  C   UNL     1     -10.003   5.677  67.376  1.00  0.00    -0.156 A  
HETATM    7  N   UNL     1     -10.526   6.420  68.385  1.00  0.00    -0.197 NA 
HETATM    8  C   UNL     1     -10.170   6.076  69.643  1.00  0.00    -0.208 A  
HETATM    9  C   UNL     1      -9.318   5.023  69.939  1.00  0.00    -0.198 A  
HETATM   10  C   UNL     1      -8.798   4.276  68.884  1.00  0.00    -0.139 A  
ENDBRANCH   3   5
ENDBRANCH   2   3
TORSDOF 2
ENDMDL
MODEL      200
REMARK 921   NORMALIZED FREE ENERGY PREDICTED BY IDOCK:   -1.23 KCAL/MOL
REMARK 922        TOTAL FREE ENERGY PREDICTED BY IDOCK:   -1.44 KCAL/MOL
REMARK 923 INTER-LIGAND FREE ENERGY PREDICTED BY IDOCK:   -1.37 KCAL/MOL
REMARK 924 INTRA-LIGAND FREE ENERGY PREDICTED BY IDOCK:   -0.07 KCAL/MOL
REMARK 927      BINDING AFFINITY PREDICTED BY RF-SCORE:    0.00 PKD
ROOT
HETATM    1  C   UNL     1      -5.522   6.889  68.617  1.00  0.00    -0.017 C  
HETATM    2  O   UNL     1      -6.761   6.269  68.266  1.00  0.00    -0.062 OA 
ENDROOT
BRANCH   2   3
HETATM    3  C   UNL     1      -7.355   5.607  69.288  1.00  0.00    -0.074 C  
HETATM    4  O   UNL     1      -6.848   4.723  69.960  1.00  0.00    -0.042 OA 
BRANCH   3   5
HETATM    5  C   UNL     1      -8.728   6.110  69.513  1.00  0.00    -0.130 A  
HETATM    6  C   UNL     1      -9.589   5.553  70.449  1.00  0.00    -0.172 A  
HETATM    7  N   UNL     1     -10.856   5.989  70.665  1.00  0.00    -0.280 NA 
HETATM    8  C   UNL     1     -11.280   7.029  69.912  1.00  0.00    -0.246 A  
HETATM    9  C   UNL     1     -10.495   7.655  68.956  1.00  0.00    -0.214 A  
HETATM   10  C   UNL     1      -9.197   7.187  68.757  1.00  0.00    -0.136 A  
ENDBRANCH   3   5
ENDBRANCH   2   3
TORSDOF 2
ENDMDL
MODEL      201
REMARK 921   NORMALIZED FREE ENERGY PREDICTED BY IDOCK:   -1.23 KCAL/MOL
REMARK 922        TOTAL FREE ENERGY PREDICTED BY IDOCK:   -1.44 KCAL/MOL
REMARK 923 INTER-LIGAND FREE ENERGY PREDICTED BY IDOCK:   -1.36 KCAL/MOL
REMARK 924 INTRA-LIGAND FREE ENERGY PREDICTED BY IDOCK:   -0.08 KCAL/MOL
REMARK 927      BINDING AFFINITY PREDICTED BY RF-SCORE:    0.00 PKD
ROOT
HETATM    1  C   UNL     1      -5.760   6.019  64.506  1.00  0.00    -0.021 C  
HETATM    2  O   UNL     1      -7.145   6.271  64.751  1.00  0.00    -0.053 OA 
ENDROOT
BRANCH   2   3
HETATM    3  C   UNL     1      -7.785   6.878  63.722  1.00  0.00    -0.118 C  
HETATM    4  O   UNL     1      -7.971   6.402  62.614  1.00  0.00    -0.098 OA 
BRANCH   3   5
HETATM    5  C   UNL     1      -8.261   8.221  64.118  1.00  0.00    -0.107 A  
HETATM    6  C   UNL     1      -8.622   8.537  65.421  1.00  0.00    -0.176 A  
HETATM    7  N   UNL     1      -9.074   9.758  65.807  1.00  0.00    -0.165 NA 
HETATM    8  C   UNL     1      -9.166  10.704  64.846  1.00  0.00    -0.217 A  
HETATM    9  C   UNL     1      -8.825  10.489  63.520  1.00  0.00    -0.208 A  
HETATM   10  C   UNL     1      -8.364   9.226  63.153  1.00  0.00    -0.196 A  
ENDBRANCH   3   5
ENDBRANCH   2   3
TORSDOF 2
ENDMDL
MODEL      202
REMARK 921   NORMALIZED FREE ENERGY PREDICTED BY IDOCK:   -1.21 KCAL/MOL
REMARK 922        TOTAL FREE ENERGY PREDICTED BY IDOCK:   -1.42 KCAL/MOL
REMARK 923 INTER-LIGAND FREE ENERGY PREDICTED BY IDOCK:   -1.35 KCAL/MOL
REMARK 924 INTRA-LIGAND FREE ENERGY PREDICTED BY IDOCK:   -0.07 KCAL/MOL
REMARK 927      BINDING AFFINITY PREDICTED BY RF-SCORE:    0.00 PKD
ROOT
HETATM    1  C   UNL     1      -9.871   5.579  68.386  1.00  0.00    -0.141 C  
HETATM    2  O   UNL     1      -9.290   6.006  67.151  1.00  0.00    -0.115 OA 
ENDROOT
BRANCH   2   3
HETATM    3  C   UNL     1      -8.209   6.809  67.300  1.00  0.00    -0.121 C  
HETATM    4  O   UNL     1      -7.153   6.499  67.828  1.00  0.00    -0.082 OA 
BRANCH   3   5
HETATM    5  C   UNL     1      -8.461   8.143  66.712  1.00  0.00    -0.123 A  
HETATM    6  C   UNL     1      -8.936   9.215  67.457  1.00  0.00    -0.122 A  
HETATM    7  N   UNL     1      -9.187  10.444  66.938  1.00  0.00    -0.150 NA 
HETATM    8  C   UNL     1      -8.950  10.608  65.617  1.00  0.00    -0.185 A  
HETATM    9  C   UNL     1      -8.473   9.602  64.791  1.00  0.00    -0.168 A  
HETATM   10  C   UNL     1      -8.223   8.351  65.351  1.00  0.00    -0.144 A  
ENDBRANCH   3   5
ENDBRANCH   2   3
TORSDOF 2
ENDMDL
MODEL      203
REMARK 921   NORMALIZED FREE ENERGY PREDICTED BY IDOCK:   -1.21 KCAL/MOL
REMARK 922        TOTAL FREE ENERGY PREDICTED BY IDOCK:   -1.42 KCAL/MOL
REMARK 923 INTER-LIGAND FREE ENERGY PREDICTED BY IDOCK:   -1.34 KCAL/MOL
REMARK 924 INTRA-LIGAND FREE ENERGY PREDICTED BY IDOCK:   -0.08 KCAL/MOL
REMARK 927      BINDING AFFINITY PREDICTED BY RF-SCORE:    0.00 PKD
ROOT
HETATM    1  C   UNL     1      -9.184   3.383  66.639  1.00  0.00    -0.169 C  
HETATM    2  O   UNL     1      -8.018   4.207  66.715  1.00  0.00    -0.096 OA 
ENDROOT
BRANCH   2   3
HETATM    3  C   UNL     1      -8.284   5.534  66.769  1.00  0.00    -0.105 C  
HETATM    4  O   UNL     1      -8.217   6.317  65.835  1.00  0.00    -0.116 OA 
BRANCH   3   5
HETATM    5  C   UNL     1      -8.697   5.933  68.133  1.00  0.00    -0.111 A  
HETATM    6  C   UNL     1      -7.917   5.690  69.255  1.00  0.00    -0.096 A  
HETATM    7  N   UNL     1      -8.279   6.035  70.517  1.00  0.00    -0.111 NA 
HETATM    8  C   UNL     1      -9.474   6.651  70.662  1.00  0.00    -0.169 A  
HETATM    9  C   UNL     1     -10.322   6.940  69.604  1.00  0.00    -0.224 A  
HETATM   10  C   UNL     1      -9.923   6.576  68.319  1.00  0.00    -0.145 A  
ENDBRANCH   3   5
ENDBRANCH   2   3
TORSDOF 2
ENDMDL
MODEL      204
REMARK 921   NORMALIZED FREE ENERGY PREDICTED BY IDOCK:   -1.14 KCAL/MOL
REMARK 922        TOTAL FREE ENERGY PREDICTED BY IDOCK:   -1.35 KCAL/MOL
REMARK 923 INTER-LIGAND FREE ENERGY PREDICTED BY IDOCK:   -1.27 KCAL/MOL
REMARK 924 INTRA-LIGAND FREE ENERGY PREDICTED BY IDOCK:   -0.08 KCAL/MOL
REMARK 927      BINDING AFFINITY PREDICTED BY RF-SCORE:    0.00 PKD
ROOT
HETATM    1  C   UNL     1     -11.082   5.962  69.772  1.00  0.00    -0.352 C  
HETATM    2  O   UNL     1      -9.851   6.453  69.237  1.00  0.00    -0.145 OA 
ENDROOT
BRANCH   2   3
HETATM    3  C   UNL     1      -8.898   5.502  69.084  1.00  0.00    -0.102 C  
HETATM    4  O   UNL     1      -8.427   4.811  69.973  1.00  0.00    -0.074 OA 
BRANCH   3   5
HETATM    5  C   UNL     1      -8.496   5.385  67.665  1.00  0.00    -0.105 A  
HETATM    6  C   UNL     1      -8.517   4.181  66.975  1.00  0.00    -0.100 A  
HETATM    7  N   UNL     1      -8.141   4.045  65.677  1.00  0.00    -0.100 NA 
HETATM    8  C   UNL     1      -7.728   5.165  65.043  1.00  0.00    -0.085 A  
HETATM    9  C   UNL     1      -7.676   6.414  65.643  1.00  0.00    -0.094 A  
HETATM   10  C   UNL     1      -8.069   6.523  66.976  1.00  0.00    -0.113 A  
ENDBRANCH   3   5
ENDBRANCH   2   3
TORSDOF 2
ENDMDL
MODEL      205
REMARK 921   NORMALIZED FREE ENERGY PREDICTED BY IDOCK:   -1.09 KCAL/MOL
REMARK 922        TOTAL FREE ENERGY PREDICTED BY IDOCK:   -1.29 KCAL/MOL
REMARK 923 INTER-LIGAND FREE ENERGY PREDICTED BY IDOCK:   -1.19 KCAL/MOL
REMARK 924 INTRA-LIGAND FREE ENERGY PREDICTED BY IDOCK:   -0.10 KCAL/MOL
REMARK 927      BINDING AFFINITY PREDICTED BY RF-SCORE:    0.00 PKD
ROOT
HETATM    1  C   UNL     1     -10.921   6.403  67.552  1.00  0.00    -0.364 C  
HETATM    2  O   UNL     1     -10.510   6.099  68.887  1.00  0.00    -0.188 OA 
ENDROOT
BRANCH   2   3
HETATM    3  C   UNL     1      -9.267   6.541  69.194  1.00  0.00    -0.135 C  
HETATM    4  O   UNL     1      -8.996   7.608  69.723  1.00  0.00    -0.140 OA 
BRANCH   3   5
HETATM    5  C   UNL     1      -8.245   5.540  68.819  1.00  0.00    -0.102 A  
HETATM    6  C   UNL     1      -8.245   4.243  69.314  1.00  0.00    -0.070 A  
HETATM    7  N   UNL     1      -7.311   3.310  68.994  1.00  0.00    -0.049 NA 
HETATM    8  C   UNL     1      -6.336   3.693  68.140  1.00  0.00    -0.036 A  
HETATM    9  C   UNL     1      -6.251   4.962  67.588  1.00  0.00    -0.039 A  
HETATM   10  C   UNL     1      -7.224   5.898  67.934  1.00  0.00    -0.072 A  
ENDBRANCH   3   5
ENDBRANCH   2   3
TORSDOF 2
ENDMDL
MODEL      206
REMARK 921   NORMALIZED FREE ENERGY PREDICTED BY IDOCK:   -0.94 KCAL/MOL
REMARK 922        TOTAL FREE ENERGY PREDICTED BY IDOCK:   -1.12 KCAL/MOL
REMARK 923 INTER-LIGAND FREE ENERGY PREDICTED BY IDOCK:   -1.35 KCAL/MOL
REMARK 924 INTRA-LIGAND FREE ENERGY PREDICTED BY IDOCK:    0.22 KCAL/MOL
REMARK 927      BINDING AFFINITY PREDICTED BY RF-SCORE:    0.00 PKD
ROOT
HETATM    1  C   UNL     1      -8.399   6.597  71.310  1.00  0.00    -0.124 C  
HETATM    2  O   UNL     1      -9.034   7.870  71.174  1.00  0.00    -0.134 OA 
ENDROOT
BRANCH   2   3
HETATM    3  C   UNL     1      -8.560   8.615  70.146  1.00  0.00    -0.138 C  
HETATM    4  O   UNL     1      -8.071   9.730  70.236  1.00  0.00    -0.176 OA 
BRANCH   3   5
HETATM    5  C   UNL     1      -8.693   7.889  68.865  1.00  0.00    -0.135 A  
HETATM    6  C   UNL     1      -9.845   7.201  68.507  1.00  0.00    -0.153 A  
HETATM    7  N   UNL     1      -9.987   6.517  67.343  1.00  0.00    -0.133 NA 
HETATM    8  C   UNL     1      -8.929   6.522  66.500  1.00  0.00    -0.143 A  
HETATM    9  C   UNL     1      -7.739   7.181  66.765  1.00  0.00    -0.098 A  
HETATM   10  C   UNL     1      -7.622   7.877  67.967  1.00  0.00    -0.113 A  
ENDBRANCH   3   5
ENDBRANCH   2   3
TORSDOF 2
ENDMDL
MODEL      207
REMARK 921   NORMALIZED FREE ENERGY PREDICTED BY IDOCK:   -0.91 KCAL/MOL
REMARK 922        TOTAL FREE ENERGY PREDICTED BY IDOCK:   -1.09 KCAL/MOL
REMARK 923 INTER-LIGAND FREE ENERGY PREDICTED BY IDOCK:   -1.02 KCAL/MOL
REMARK 924 INTRA-LIGAND FREE ENERGY PREDICTED BY IDOCK:   -0.07 KCAL/MOL
REMARK 927      BINDING AFFINITY PREDICTED BY RF-SCORE:    0.00 PKD
ROOT
HETATM    1  C   UNL     1      -7.499   9.285  62.541  1.00  0.00    -0.102 C  
HETATM    2  O   UNL     1      -8.303   8.540  63.459  1.00  0.00    -0.157 OA 
ENDROOT
BRANCH   2   3
HETATM    3  C   UNL     1      -7.739   8.382  64.681  1.00  0.00    -0.112 C  
HETATM    4  O   UNL     1      -7.295   9.274  65.386  1.00  0.00    -0.088 OA 
BRANCH   3   5
HETATM    5  C   UNL     1      -7.740   6.957  65.080  1.00  0.00    -0.109 A  
HETATM    6  C   UNL     1      -6.747   6.067  64.693  1.00  0.00    -0.046 A  
HETATM    7  N   UNL     1      -6.733   4.754  65.036  1.00  0.00    -0.044 NA 
HETATM    8  C   UNL     1      -7.756   4.312  65.800  1.00  0.00    -0.090 A  
HETATM    9  C   UNL     1      -8.792   5.122  66.240  1.00  0.00    -0.124 A  
HETATM   10  C   UNL     1      -8.780   6.467  65.875  1.00  0.00    -0.152 A  
ENDBRANCH   3   5
ENDBRANCH   2   3
TORSDOF 2
ENDMDL
MODEL      208
REMARK 921   NORMALIZED FREE ENERGY PREDICTED BY IDOCK:   -0.90 KCAL/MOL
REMARK 922        TOTAL FREE ENERGY PREDICTED BY IDOCK:   -1.07 KCAL/MOL
REMARK 923 INTER-LIGAND FREE ENERGY PREDICTED BY IDOCK:   -1.40 KCAL/MOL
REMARK 924 INTRA-LIGAND FREE ENERGY PREDICTED BY IDOCK:    0.33 KCAL/MOL
REMARK 927      BINDING AFFINITY PREDICTED BY RF-SCORE:    0.00 PKD
ROOT
HETATM    1  C   UNL     1      -9.928   7.080  67.636  1.00  0.00    -0.154 C  
HETATM    2  O   UNL     1      -9.238   5.984  67.031  1.00  0.00    -0.118 OA 
ENDROOT
BRANCH   2   3
HETATM    3  C   UNL     1      -9.464   4.791  67.633  1.00  0.00    -0.146 C  
HETATM    4  O   UNL     1      -9.898   3.787  67.091  1.00  0.00    -0.175 OA 
BRANCH   3   5
HETATM    5  C   UNL     1      -9.094   4.846  69.064  1.00  0.00    -0.150 A  
HETATM    6  C   UNL     1      -9.844   4.232  70.058  1.00  0.00    -0.205 A  
HETATM    7  N   UNL     1      -9.533   4.279  71.379  1.00  0.00    -0.147 NA 
HETATM    8  C   UNL     1      -8.421   4.970  71.718  1.00  0.00    -0.124 A  
HETATM    9  C   UNL     1      -7.606   5.613  70.800  1.00  0.00    -0.091 A  
HETATM   10  C   UNL     1      -7.949   5.547  69.451  1.00  0.00    -0.094 A  
ENDBRANCH   3   5
ENDBRANCH   2   3
TORSDOF 2
ENDMDL
MODEL      209
REMARK 921   NORMALIZED FREE ENERGY PREDICTED BY IDOCK:   -0.78 KCAL/MOL
REMARK 922        TOTAL FREE ENERGY PREDICTED BY IDOCK:   -0.95 KCAL/MOL
REMARK 923 INTER-LIGAND FREE ENERGY PREDICTED BY IDOCK:   -0.84 KCAL/MOL
REMARK 924 INTRA-LIGAND FREE ENERGY PREDICTED BY IDOCK:   -0.10 KCAL/MOL
REMARK 927      BINDING AFFINITY PREDICTED BY RF-SCORE:    0.00 PKD
ROOT
HETATM    1  C   UNL     1      -7.310   9.427  62.417  1.00  0.00    -0.101 C  
HETATM    2  O   UNL     1      -8.368   8.636  62.964  1.00  0.00    -0.186 OA 
ENDROOT
BRANCH   2   3
HETATM    3  C   UNL     1      -8.021   7.947  64.078  1.00  0.00    -0.124 C  
HETATM    4  O   UNL     1      -8.135   8.341  65.228  1.00  0.00    -0.125 OA 
BRANCH   3   5
HETATM    5  C   UNL     1      -7.487   6.613  63.726  1.00  0.00    -0.090 A  
HETATM    6  C   UNL     1      -6.212   6.195  64.084  1.00  0.00    -0.029 A  
HETATM    7  N   UNL     1      -5.696   4.982  63.762  1.00  0.00    -0.017 NA 
HETATM    8  C   UNL     1      -6.490   4.150  63.052  1.00  0.00    -0.026 A  
HETATM    9  C   UNL     1      -7.778   4.473  62.652  1.00  0.00    -0.061 A  
HETATM   10  C   UNL     1      -8.282   5.725  62.998  1.00  0.00    -0.084 A  
ENDBRANCH   3   5
ENDBRANCH   2   3
TORSDOF 2
ENDMDL
