MODEL        1
REMARK 921   NORMALIZED FREE ENERGY PREDICTED BY IDOCK:   -8.14 KCAL/MOL
REMARK 922        TOTAL FREE ENERGY PREDICTED BY IDOCK:  -11.35 KCAL/MOL
REMARK 923 INTER-LIGAND FREE ENERGY PREDICTED BY IDOCK:  -11.00 KCAL/MOL
REMARK 924 INTRA-LIGAND FREE ENERGY PREDICTED BY IDOCK:   -0.35 KCAL/MOL
REMARK 927      BINDING AFFINITY PREDICTED BY RF-SCORE:    0.00 PKD
ROOT
HETATM    1  C   UNL     1     -11.512  15.082  66.047  1.00  0.00    -0.221 C  
HETATM    2  C   UNL     1     -11.239  15.018  64.659  1.00  0.00    -0.342 C  
HETATM    3  C   UNL     1     -10.238  14.373  65.573  1.00  0.00    -0.386 C  
HETATM    4  C   UNL     1     -10.802  13.957  67.532  1.00  0.00    -0.266 C  
HETATM    5  C   UNL     1      -7.355  19.346  66.453  1.00  0.00    -0.264 C  
HETATM    6  O   UNL     1     -12.172  14.315  67.976  1.00  0.00    -0.562 OA 
HETATM    7  C   UNL     1     -10.919  13.268  66.358  1.00  0.00    -0.301 C  
HETATM    8  C   UNL     1     -11.898  12.238  65.879  1.00  0.00    -0.420 C  
HETATM    9  H   UNL     1     -12.430  14.125  68.870  1.00  0.00     0.000 HD 
HETATM   10  C   UNL     1      -6.002  18.915  66.823  1.00  0.00    -0.161 C  
HETATM   11  C   UNL     1      -8.302  18.466  66.830  1.00  0.00    -0.271 C  
HETATM   12  C   UNL     1      -9.051  13.022  66.678  1.00  0.00    -0.181 C  
HETATM   13  C   UNL     1     -10.106  20.023  65.949  1.00  0.00    -0.497 C  
HETATM   14  C   UNL     1      -8.358  14.417  67.423  1.00  0.00    -0.201 C  
HETATM   15  O   UNL     1      -8.676  14.304  68.823  1.00  0.00    -0.251 OA 
HETATM   16  C   UNL     1      -8.721  15.955  66.890  1.00  0.00    -0.272 C  
HETATM   17  C   UNL     1      -8.074  17.210  68.949  1.00  0.00    -0.203 C  
HETATM   18  C   UNL     1      -7.830  17.122  67.444  1.00  0.00    -0.191 C  
HETATM   19  C   UNL     1      -6.322  16.861  66.923  1.00  0.00    -0.237 C  
HETATM   20  H   UNL     1      -8.295  15.072  69.233  1.00  0.00     0.000 HD 
HETATM   21  C   UNL     1     -10.399  16.302  66.853  1.00  0.00    -0.299 C  
HETATM   22  C   UNL     1     -10.638  17.644  66.180  1.00  0.00    -0.220 C  
HETATM   23  O   UNL     1      -5.338  19.427  67.707  1.00  0.00    -0.175 OA 
HETATM   24  C   UNL     1      -9.792  18.769  66.764  1.00  0.00    -0.374 C  
HETATM   25  C   UNL     1      -5.591  17.642  66.107  1.00  0.00    -0.241 C  
ENDROOT
BRANCH   4  26
HETATM   26  C   UNL     1     -10.750  12.476  68.605  1.00  0.00    -0.234 C  
HETATM   27  O   UNL     1      -9.775  11.705  68.633  1.00  0.00    -0.192 OA 
BRANCH  26  28
HETATM   28  C   UNL     1     -11.982  11.939  69.509  1.00  0.00    -0.292 C  
BRANCH  28  29
HETATM   29  O   UNL     1     -12.255  12.932  70.630  1.00  0.00    -0.372 OA 
BRANCH  29  30
HETATM   30  C   UNL     1     -13.123  12.652  71.662  1.00  0.00    -0.323 C  
HETATM   31  O   UNL     1     -13.379  11.517  72.036  1.00  0.00    -0.476 OA 
BRANCH  30  32
HETATM   32  C   UNL     1     -13.760  13.916  72.303  1.00  0.00    -0.660 C  
BRANCH  32  33
HETATM   33  C   UNL     1     -13.622  15.197  71.450  1.00  0.00    -0.570 C  
HETATM   34  C   UNL     1     -12.303  15.957  71.485  1.00  0.00    -0.448 C  
HETATM   35  O   UNL     1     -11.900  16.437  72.674  1.00  0.00    -0.533 OA 
HETATM   36  O   UNL     1     -11.628  16.146  70.480  1.00  0.00    -0.366 OA 
ENDBRANCH  32  33
ENDBRANCH  30  32
ENDBRANCH  29  30
ENDBRANCH  28  29
ENDBRANCH  26  28
ENDBRANCH   4  26
TORSDOF 6
ENDMDL
MODEL        2
REMARK 921   NORMALIZED FREE ENERGY PREDICTED BY IDOCK:   -7.95 KCAL/MOL
REMARK 922        TOTAL FREE ENERGY PREDICTED BY IDOCK:  -11.08 KCAL/MOL
REMARK 923 INTER-LIGAND FREE ENERGY PREDICTED BY IDOCK:  -10.64 KCAL/MOL
REMARK 924 INTRA-LIGAND FREE ENERGY PREDICTED BY IDOCK:   -0.44 KCAL/MOL
REMARK 927      BINDING AFFINITY PREDICTED BY RF-SCORE:    0.00 PKD
ROOT
HETATM    1  C   UNL     1     -11.730  14.738  69.243  1.00  0.00    -0.347 C  
HETATM    2  C   UNL     1     -11.031  15.212  70.381  1.00  0.00    -0.268 C  
HETATM    3  C   UNL     1     -10.197  14.687  69.248  1.00  0.00    -0.156 C  
HETATM    4  C   UNL     1     -11.082  14.475  67.377  1.00  0.00    -0.314 C  
HETATM    5  C   UNL     1     -10.567   9.186  71.100  1.00  0.00    -0.379 C  
HETATM    6  O   UNL     1     -12.511  14.839  67.212  1.00  0.00    -0.460 OA 
HETATM    7  C   UNL     1     -10.464  15.518  68.007  1.00  0.00    -0.259 C  
HETATM    8  C   UNL     1     -10.602  17.005  67.880  1.00  0.00    -0.365 C  
HETATM    9  H   UNL     1     -12.915  14.742  66.358  1.00  0.00     0.000 HD 
HETATM   10  C   UNL     1      -9.377   8.539  70.536  1.00  0.00    -0.170 C  
HETATM   11  C   UNL     1     -11.027  10.190  70.327  1.00  0.00    -0.380 C  
HETATM   12  C   UNL     1      -8.930  14.462  67.575  1.00  0.00    -0.192 C  
HETATM   13  C   UNL     1     -12.968  10.537  71.929  1.00  0.00    -0.553 C  
HETATM   14  C   UNL     1      -9.287  12.775  67.674  1.00  0.00    -0.191 C  
HETATM   15  O   UNL     1      -9.940  12.446  66.434  1.00  0.00    -0.231 OA 
HETATM   16  C   UNL     1     -10.162  12.148  68.949  1.00  0.00    -0.057 C  
HETATM   17  C   UNL     1     -10.910  10.029  67.861  1.00  0.00    -0.323 C  
HETATM   18  C   UNL     1     -10.186  10.585  69.085  1.00  0.00    -0.241 C  
HETATM   19  C   UNL     1      -8.666  10.106  69.364  1.00  0.00    -0.186 C  
HETATM   20  H   UNL     1     -10.137  11.519  66.489  1.00  0.00     0.000 HD 
HETATM   21  C   UNL     1     -11.680  12.903  69.191  1.00  0.00    -0.376 C  
HETATM   22  C   UNL     1     -12.313  12.398  70.478  1.00  0.00    -0.346 C  
HETATM   23  O   UNL     1      -9.371   7.422  70.048  1.00  0.00    -0.152 OA 
HETATM   24  C   UNL     1     -12.363  10.877  70.567  1.00  0.00    -0.463 C  
HETATM   25  C   UNL     1      -8.192   9.484  70.459  1.00  0.00    -0.203 C  
ENDROOT
BRANCH   4  26
HETATM   26  C   UNL     1     -10.661  15.016  65.680  1.00  0.00    -0.354 C  
HETATM   27  O   UNL     1      -9.488  15.157  65.295  1.00  0.00    -0.128 OA 
BRANCH  26  28
HETATM   28  C   UNL     1     -11.734  15.491  64.563  1.00  0.00    -0.253 C  
BRANCH  28  29
HETATM   29  O   UNL     1     -12.090  14.310  63.671  1.00  0.00    -0.437 OA 
BRANCH  29  30
HETATM   30  C   UNL     1     -12.407  13.073  64.184  1.00  0.00    -0.358 C  
HETATM   31  O   UNL     1     -13.050  12.915  65.212  1.00  0.00    -0.682 OA 
BRANCH  30  32
HETATM   32  C   UNL     1     -11.861  11.887  63.341  1.00  0.00    -0.512 C  
BRANCH  32  33
HETATM   33  C   UNL     1     -10.320  11.810  63.279  1.00  0.00    -0.446 C  
HETATM   34  C   UNL     1      -9.646  10.467  63.531  1.00  0.00    -0.326 C  
HETATM   35  O   UNL     1      -9.850   9.891  64.728  1.00  0.00    -0.307 OA 
HETATM   36  O   UNL     1      -8.934   9.924  62.695  1.00  0.00    -0.225 OA 
ENDBRANCH  32  33
ENDBRANCH  30  32
ENDBRANCH  29  30
ENDBRANCH  28  29
ENDBRANCH  26  28
ENDBRANCH   4  26
TORSDOF 6
ENDMDL
MODEL        3
REMARK 921   NORMALIZED FREE ENERGY PREDICTED BY IDOCK:   -7.49 KCAL/MOL
REMARK 922        TOTAL FREE ENERGY PREDICTED BY IDOCK:  -10.47 KCAL/MOL
REMARK 923 INTER-LIGAND FREE ENERGY PREDICTED BY IDOCK:   -9.96 KCAL/MOL
REMARK 924 INTRA-LIGAND FREE ENERGY PREDICTED BY IDOCK:   -0.51 KCAL/MOL
REMARK 927      BINDING AFFINITY PREDICTED BY RF-SCORE:    0.00 PKD
ROOT
HETATM    1  C   UNL     1      -9.961   9.499  65.962  1.00  0.00    -0.348 C  
HETATM    2  C   UNL     1      -8.927   9.551  64.996  1.00  0.00    -0.258 C  
HETATM    3  C   UNL     1      -8.604  10.094  66.357  1.00  0.00    -0.137 C  
HETATM    4  C   UNL     1      -9.842   9.587  67.950  1.00  0.00    -0.156 C  
HETATM    5  C   UNL     1     -10.752  15.355  65.122  1.00  0.00    -0.460 C  
HETATM    6  O   UNL     1     -11.014   8.712  67.699  1.00  0.00    -0.495 OA 
HETATM    7  C   UNL     1      -8.754   8.987  67.384  1.00  0.00    -0.122 C  
HETATM    8  C   UNL     1      -8.314   7.556  67.298  1.00  0.00    -0.118 C  
HETATM    9  H   UNL     1     -11.580   8.481  68.426  1.00  0.00     0.000 HD 
HETATM   10  C   UNL     1     -10.048  16.254  66.044  1.00  0.00    -0.356 C  
HETATM   11  C   UNL     1     -10.918  14.118  65.629  1.00  0.00    -0.308 C  
HETATM   12  C   UNL     1      -7.877  10.408  68.314  1.00  0.00    -0.105 C  
HETATM   13  C   UNL     1     -12.215  13.437  63.554  1.00  0.00    -0.468 C  
HETATM   14  C   UNL     1      -8.845  11.838  68.322  1.00  0.00    -0.172 C  
HETATM   15  O   UNL     1      -9.800  11.650  69.383  1.00  0.00    -0.385 OA 
HETATM   16  C   UNL     1      -9.633  12.359  66.947  1.00  0.00    -0.219 C  
HETATM   17  C   UNL     1     -11.351  13.800  68.044  1.00  0.00    -0.318 C  
HETATM   18  C   UNL     1     -10.245  13.803  66.991  1.00  0.00    -0.254 C  
HETATM   19  C   UNL     1      -9.016  14.839  67.169  1.00  0.00    -0.239 C  
HETATM   20  H   UNL     1     -10.333  12.436  69.387  1.00  0.00     0.000 HD 
HETATM   21  C   UNL     1     -10.652  11.179  66.238  1.00  0.00    -0.309 C  
HETATM   22  C   UNL     1     -11.171  11.678  64.898  1.00  0.00    -0.287 C  
HETATM   23  O   UNL     1     -10.578  17.174  66.642  1.00  0.00    -0.277 OA 
HETATM   24  C   UNL     1     -11.800  13.064  64.976  1.00  0.00    -0.401 C  
HETATM   25  C   UNL     1      -8.626  15.800  66.312  1.00  0.00    -0.307 C  
ENDROOT
BRANCH   4  26
HETATM   26  C   UNL     1      -9.578   8.896  69.624  1.00  0.00    -0.169 C  
HETATM   27  O   UNL     1      -8.937   9.498  70.502  1.00  0.00    -0.242 OA 
BRANCH  26  28
HETATM   28  C   UNL     1     -10.016   7.409  70.095  1.00  0.00    -0.184 C  
BRANCH  28  29
HETATM   29  O   UNL     1     -11.534   7.331  70.169  1.00  0.00    -0.248 OA 
BRANCH  29  30
HETATM   30  C   UNL     1     -12.202   7.172  71.362  1.00  0.00    -0.362 C  
HETATM   31  O   UNL     1     -12.056   6.202  72.092  1.00  0.00    -0.327 OA 
BRANCH  30  32
HETATM   32  C   UNL     1     -13.176   8.337  71.694  1.00  0.00    -0.349 C  
BRANCH  32  33
HETATM   33  C   UNL     1     -12.474   9.670  72.037  1.00  0.00    -0.412 C  
HETATM   34  C   UNL     1     -12.783  10.896  71.186  1.00  0.00    -0.429 C  
HETATM   35  O   UNL     1     -12.494  10.824  69.875  1.00  0.00    -0.322 OA 
HETATM   36  O   UNL     1     -13.261  11.919  71.660  1.00  0.00    -0.412 OA 
ENDBRANCH  32  33
ENDBRANCH  30  32
ENDBRANCH  29  30
ENDBRANCH  28  29
ENDBRANCH  26  28
ENDBRANCH   4  26
TORSDOF 6
ENDMDL
MODEL        4
REMARK 921   NORMALIZED FREE ENERGY PREDICTED BY IDOCK:   -7.43 KCAL/MOL
REMARK 922        TOTAL FREE ENERGY PREDICTED BY IDOCK:  -10.39 KCAL/MOL
REMARK 923 INTER-LIGAND FREE ENERGY PREDICTED BY IDOCK:  -10.27 KCAL/MOL
REMARK 924 INTRA-LIGAND FREE ENERGY PREDICTED BY IDOCK:   -0.11 KCAL/MOL
REMARK 927      BINDING AFFINITY PREDICTED BY RF-SCORE:    0.00 PKD
ROOT
HETATM    1  C   UNL     1     -10.922  12.692  63.777  1.00  0.00    -0.481 C  
HETATM    2  C   UNL     1     -12.101  12.042  63.336  1.00  0.00    -0.597 C  
HETATM    3  C   UNL     1     -11.967  12.262  64.815  1.00  0.00    -0.429 C  
HETATM    4  C   UNL     1     -10.567  13.644  65.492  1.00  0.00    -0.296 C  
HETATM    5  C   UNL     1      -8.920   7.370  65.592  1.00  0.00     0.002 C  
HETATM    6  O   UNL     1      -9.735  14.369  64.500  1.00  0.00    -0.505 OA 
HETATM    7  C   UNL     1     -11.868  13.751  65.090  1.00  0.00    -0.365 C  
HETATM    8  C   UNL     1     -12.655  14.875  64.486  1.00  0.00    -0.065 C  
HETATM    9  H   UNL     1      -9.096  15.000  64.809  1.00  0.00     0.000 HD 
HETATM   10  C   UNL     1      -9.155   7.021  66.998  1.00  0.00    -0.137 C  
HETATM   11  C   UNL     1      -8.955   8.699  65.373  1.00  0.00    -0.181 C  
HETATM   12  C   UNL     1     -12.137  12.948  66.804  1.00  0.00    -0.335 C  
HETATM   13  C   UNL     1      -8.365   8.317  62.932  1.00  0.00    -0.088 C  
HETATM   14  C   UNL     1     -10.869  11.835  67.176  1.00  0.00    -0.258 C  
HETATM   15  O   UNL     1      -9.777  12.642  67.655  1.00  0.00    -0.189 OA 
HETATM   16  C   UNL     1     -10.306  10.752  66.039  1.00  0.00    -0.300 C  
HETATM   17  C   UNL     1      -8.084  10.272  67.072  1.00  0.00    -0.121 C  
HETATM   18  C   UNL     1      -9.362   9.612  66.560  1.00  0.00    -0.212 C  
HETATM   19  C   UNL     1     -10.226   8.707  67.586  1.00  0.00    -0.300 C  
HETATM   20  H   UNL     1      -9.080  12.030  67.860  1.00  0.00     0.000 HD 
HETATM   21  C   UNL     1      -9.795  11.480  64.575  1.00  0.00    -0.278 C  
HETATM   22  C   UNL     1      -9.482  10.409  63.542  1.00  0.00    -0.356 C  
HETATM   23  O   UNL     1      -8.295   6.606  67.754  1.00  0.00    -0.121 OA 
HETATM   24  C   UNL     1      -8.530   9.336  64.059  1.00  0.00    -0.202 C  
HETATM   25  C   UNL     1     -10.549   7.407  67.458  1.00  0.00    -0.340 C  
ENDROOT
BRANCH   4  26
HETATM   26  C   UNL     1     -10.612  15.079  66.627  1.00  0.00    -0.301 C  
HETATM   27  O   UNL     1     -11.526  15.248  67.453  1.00  0.00    -0.324 OA 
BRANCH  26  28
HETATM   28  C   UNL     1      -9.576  16.323  66.594  1.00  0.00    -0.246 C  
BRANCH  28  29
HETATM   29  O   UNL     1     -10.039  17.338  65.558  1.00  0.00    -0.581 OA 
BRANCH  29  30
HETATM   30  C   UNL     1     -10.529  18.575  65.912  1.00  0.00    -0.347 C  
HETATM   31  O   UNL     1     -10.776  19.457  65.103  1.00  0.00    -0.365 OA 
BRANCH  30  32
HETATM   32  C   UNL     1     -10.730  18.753  67.442  1.00  0.00    -0.487 C  
BRANCH  32  33
HETATM   33  C   UNL     1      -9.872  19.875  68.068  1.00  0.00    -0.534 C  
HETATM   34  C   UNL     1      -8.359  19.813  67.903  1.00  0.00    -0.304 C  
HETATM   35  O   UNL     1      -7.728  18.740  68.411  1.00  0.00    -0.293 OA 
HETATM   36  O   UNL     1      -7.723  20.699  67.345  1.00  0.00    -0.337 OA 
ENDBRANCH  32  33
ENDBRANCH  30  32
ENDBRANCH  29  30
ENDBRANCH  28  29
ENDBRANCH  26  28
ENDBRANCH   4  26
TORSDOF 6
ENDMDL
MODEL        5
REMARK 921   NORMALIZED FREE ENERGY PREDICTED BY IDOCK:   -7.42 KCAL/MOL
REMARK 922        TOTAL FREE ENERGY PREDICTED BY IDOCK:  -10.36 KCAL/MOL
REMARK 923 INTER-LIGAND FREE ENERGY PREDICTED BY IDOCK:  -10.33 KCAL/MOL
REMARK 924 INTRA-LIGAND FREE ENERGY PREDICTED BY IDOCK:   -0.03 KCAL/MOL
REMARK 927      BINDING AFFINITY PREDICTED BY RF-SCORE:    0.00 PKD
ROOT
HETATM    1  C   UNL     1     -10.050   9.728  66.142  1.00  0.00    -0.315 C  
HETATM    2  C   UNL     1      -8.988   9.719  65.205  1.00  0.00    -0.233 C  
HETATM    3  C   UNL     1      -8.731  10.420  66.508  1.00  0.00    -0.143 C  
HETATM    4  C   UNL     1     -10.001  10.037  68.111  1.00  0.00    -0.153 C  
HETATM    5  C   UNL     1     -11.043  15.419  64.640  1.00  0.00    -0.361 C  
HETATM    6  O   UNL     1     -11.128   9.090  67.924  1.00  0.00    -0.506 OA 
HETATM    7  C   UNL     1      -8.872   9.426  67.645  1.00  0.00    -0.118 C  
HETATM    8  C   UNL     1      -8.374   8.014  67.730  1.00  0.00    -0.129 C  
HETATM    9  H   UNL     1     -11.708   8.915  68.656  1.00  0.00     0.000 HD 
HETATM   10  C   UNL     1     -10.406  16.442  65.477  1.00  0.00    -0.313 C  
HETATM   11  C   UNL     1     -11.177  14.238  65.275  1.00  0.00    -0.337 C  
HETATM   12  C   UNL     1      -8.082  10.976  68.438  1.00  0.00    -0.134 C  
HETATM   13  C   UNL     1     -12.377  13.281  63.251  1.00  0.00    -0.317 C  
HETATM   14  C   UNL     1      -9.106  12.355  68.261  1.00  0.00    -0.183 C  
HETATM   15  O   UNL     1     -10.087  12.243  69.308  1.00  0.00    -0.396 OA 
HETATM   16  C   UNL     1      -9.868  12.690  66.815  1.00  0.00    -0.236 C  
HETATM   17  C   UNL     1     -11.677  14.166  67.697  1.00  0.00    -0.421 C  
HETATM   18  C   UNL     1     -10.538  14.102  66.682  1.00  0.00    -0.278 C  
HETATM   19  C   UNL     1      -9.357  15.203  66.780  1.00  0.00    -0.268 C  
HETATM   20  H   UNL     1     -10.651  13.002  69.211  1.00  0.00     0.000 HD 
HETATM   21  C   UNL     1     -10.815  11.396  66.211  1.00  0.00    -0.318 C  
HETATM   22  C   UNL     1     -11.310  11.724  64.811  1.00  0.00    -0.313 C  
HETATM   23  O   UNL     1     -10.992  17.398  65.955  1.00  0.00    -0.052 OA 
HETATM   24  C   UNL     1     -11.995  13.082  64.717  1.00  0.00    -0.443 C  
HETATM   25  C   UNL     1      -8.976  16.081  65.834  1.00  0.00    -0.256 C  
ENDROOT
BRANCH   4  26
HETATM   26  C   UNL     1      -9.765   9.543  69.857  1.00  0.00    -0.224 C  
HETATM   27  O   UNL     1      -8.721   9.005  70.264  1.00  0.00    -0.149 OA 
BRANCH  26  28
HETATM   28  C   UNL     1     -10.903   9.623  71.007  1.00  0.00    -0.342 C  
BRANCH  28  29
HETATM   29  O   UNL     1     -12.060  10.480  70.514  1.00  0.00    -0.289 OA 
BRANCH  29  30
HETATM   30  C   UNL     1     -12.909  11.134  71.378  1.00  0.00    -0.439 C  
HETATM   31  O   UNL     1     -13.640  10.556  72.169  1.00  0.00    -0.308 OA 
BRANCH  30  32
HETATM   32  C   UNL     1     -12.862  12.682  71.249  1.00  0.00    -0.344 C  
BRANCH  32  33
HETATM   33  C   UNL     1     -13.585  13.435  72.388  1.00  0.00    -0.708 C  
HETATM   34  C   UNL     1     -13.058  14.800  72.809  1.00  0.00    -0.474 C  
HETATM   35  O   UNL     1     -11.797  14.857  73.271  1.00  0.00    -0.272 OA 
HETATM   36  O   UNL     1     -13.742  15.814  72.749  1.00  0.00    -0.561 OA 
ENDBRANCH  32  33
ENDBRANCH  30  32
ENDBRANCH  29  30
ENDBRANCH  28  29
ENDBRANCH  26  28
ENDBRANCH   4  26
TORSDOF 6
ENDMDL
MODEL        6
REMARK 921   NORMALIZED FREE ENERGY PREDICTED BY IDOCK:   -7.13 KCAL/MOL
REMARK 922        TOTAL FREE ENERGY PREDICTED BY IDOCK:   -9.98 KCAL/MOL
REMARK 923 INTER-LIGAND FREE ENERGY PREDICTED BY IDOCK:   -9.92 KCAL/MOL
REMARK 924 INTRA-LIGAND FREE ENERGY PREDICTED BY IDOCK:   -0.05 KCAL/MOL
REMARK 927      BINDING AFFINITY PREDICTED BY RF-SCORE:    0.00 PKD
ROOT
HETATM    1  C   UNL     1     -10.873  12.560  63.748  1.00  0.00    -0.489 C  
HETATM    2  C   UNL     1     -12.037  11.871  63.327  1.00  0.00    -0.466 C  
HETATM    3  C   UNL     1     -11.935  12.189  64.790  1.00  0.00    -0.377 C  
HETATM    4  C   UNL     1     -10.561  13.626  65.403  1.00  0.00    -0.317 C  
HETATM    5  C   UNL     1      -8.865   7.388  65.947  1.00  0.00    -0.149 C  
HETATM    6  O   UNL     1      -9.714  14.292  64.382  1.00  0.00    -0.483 OA 
HETATM    7  C   UNL     1     -11.854  13.694  64.969  1.00  0.00    -0.379 C  
HETATM    8  C   UNL     1     -12.638  14.768  64.277  1.00  0.00    -0.057 C  
HETATM    9  H   UNL     1      -9.087  14.948  64.661  1.00  0.00     0.000 HD 
HETATM   10  C   UNL     1      -9.126   7.130  67.368  1.00  0.00    -0.121 C  
HETATM   11  C   UNL     1      -8.907   8.699  65.641  1.00  0.00    -0.227 C  
HETATM   12  C   UNL     1     -12.151  13.002  66.727  1.00  0.00    -0.366 C  
HETATM   13  C   UNL     1      -8.263   8.164  63.243  1.00  0.00    -0.073 C  
HETATM   14  C   UNL     1     -10.882  11.929  67.195  1.00  0.00    -0.255 C  
HETATM   15  O   UNL     1      -9.807  12.775  67.643  1.00  0.00    -0.205 OA 
HETATM   16  C   UNL     1     -10.287  10.779  66.144  1.00  0.00    -0.300 C  
HETATM   17  C   UNL     1      -8.083  10.389  67.250  1.00  0.00    -0.114 C  
HETATM   18  C   UNL     1      -9.345   9.684  66.757  1.00  0.00    -0.193 C  
HETATM   19  C   UNL     1     -10.222   8.840  67.823  1.00  0.00    -0.285 C  
HETATM   20  H   UNL     1      -9.109  12.185  67.901  1.00  0.00     0.000 HD 
HETATM   21  C   UNL     1      -9.753  11.414  64.645  1.00  0.00    -0.275 C  
HETATM   22  C   UNL     1      -9.410  10.280  63.692  1.00  0.00    -0.338 C  
HETATM   23  O   UNL     1      -8.278   6.774  68.167  1.00  0.00    -0.113 OA 
HETATM   24  C   UNL     1      -8.460   9.253  64.297  1.00  0.00    -0.202 C  
HETATM   25  C   UNL     1     -10.532   7.532  67.774  1.00  0.00    -0.288 C  
ENDROOT
BRANCH   4  26
HETATM   26  C   UNL     1     -10.641  15.132  66.440  1.00  0.00    -0.305 C  
HETATM   27  O   UNL     1     -11.143  15.133  67.577  1.00  0.00    -0.303 OA 
BRANCH  26  28
HETATM   28  C   UNL     1     -10.206  16.616  65.960  1.00  0.00    -0.351 C  
BRANCH  28  29
HETATM   29  O   UNL     1      -8.687  16.700  65.893  1.00  0.00    -0.483 OA 
BRANCH  29  30
HETATM   30  C   UNL     1      -7.962  17.524  66.723  1.00  0.00    -0.241 C  
HETATM   31  O   UNL     1      -7.360  17.124  67.709  1.00  0.00    -0.163 OA 
BRANCH  30  32
HETATM   32  C   UNL     1      -7.986  19.018  66.298  1.00  0.00    -0.302 C  
BRANCH  32  33
HETATM   33  C   UNL     1      -8.510  19.979  67.389  1.00  0.00    -0.391 C  
HETATM   34  C   UNL     1      -9.872  19.701  68.011  1.00  0.00    -0.415 C  
HETATM   35  O   UNL     1     -10.935  19.698  67.189  1.00  0.00    -0.467 OA 
HETATM   36  O   UNL     1     -10.016  19.500  69.211  1.00  0.00    -0.427 OA 
ENDBRANCH  32  33
ENDBRANCH  30  32
ENDBRANCH  29  30
ENDBRANCH  28  29
ENDBRANCH  26  28
ENDBRANCH   4  26
TORSDOF 6
ENDMDL
MODEL        7
REMARK 921   NORMALIZED FREE ENERGY PREDICTED BY IDOCK:   -7.11 KCAL/MOL
REMARK 922        TOTAL FREE ENERGY PREDICTED BY IDOCK:   -9.95 KCAL/MOL
REMARK 923 INTER-LIGAND FREE ENERGY PREDICTED BY IDOCK:  -10.21 KCAL/MOL
REMARK 924 INTRA-LIGAND FREE ENERGY PREDICTED BY IDOCK:    0.27 KCAL/MOL
REMARK 927      BINDING AFFINITY PREDICTED BY RF-SCORE:    0.00 PKD
ROOT
HETATM    1  C   UNL     1     -10.843  12.528  63.748  1.00  0.00    -0.489 C  
HETATM    2  C   UNL     1     -12.011  11.842  63.335  1.00  0.00    -0.528 C  
HETATM    3  C   UNL     1     -11.854  12.077  64.809  1.00  0.00    -0.325 C  
HETATM    4  C   UNL     1     -10.480  13.502  65.449  1.00  0.00    -0.315 C  
HETATM    5  C   UNL     1      -8.655   7.277  65.556  1.00  0.00    -0.090 C  
HETATM    6  O   UNL     1      -9.688  14.243  64.436  1.00  0.00    -0.483 OA 
HETATM    7  C   UNL     1     -11.792  13.569  65.073  1.00  0.00    -0.377 C  
HETATM    8  C   UNL     1     -12.621  14.666  64.477  1.00  0.00    -0.174 C  
HETATM    9  H   UNL     1      -9.061  14.894  64.727  1.00  0.00     0.000 HD 
HETATM   10  C   UNL     1      -8.853   6.932  66.968  1.00  0.00    -0.119 C  
HETATM   11  C   UNL     1      -8.732   8.603  65.329  1.00  0.00    -0.200 C  
HETATM   12  C   UNL     1     -12.003  12.771  66.797  1.00  0.00    -0.389 C  
HETATM   13  C   UNL     1      -8.180   8.221  62.880  1.00  0.00    -0.134 C  
HETATM   14  C   UNL     1     -10.697  11.697  67.150  1.00  0.00    -0.247 C  
HETATM   15  O   UNL     1      -9.619  12.538  67.602  1.00  0.00    -0.181 OA 
HETATM   16  C   UNL     1     -10.126  10.622  66.009  1.00  0.00    -0.308 C  
HETATM   17  C   UNL     1      -7.872  10.212  67.000  1.00  0.00    -0.102 C  
HETATM   18  C   UNL     1      -9.141   9.513  66.518  1.00  0.00    -0.185 C  
HETATM   19  C   UNL     1      -9.958   8.591  67.567  1.00  0.00    -0.258 C  
HETATM   20  H   UNL     1      -8.901  11.947  67.796  1.00  0.00     0.000 HD 
HETATM   21  C   UNL     1      -9.666  11.355  64.530  1.00  0.00    -0.268 C  
HETATM   22  C   UNL     1      -9.343  10.285  63.499  1.00  0.00    -0.341 C  
HETATM   23  O   UNL     1      -7.965   6.547  67.710  1.00  0.00    -0.112 OA 
HETATM   24  C   UNL     1      -8.351   9.243  64.003  1.00  0.00    -0.179 C  
HETATM   25  C   UNL     1     -10.247   7.282  67.454  1.00  0.00    -0.304 C  
ENDROOT
BRANCH   4  26
HETATM   26  C   UNL     1     -10.543  14.943  66.576  1.00  0.00    -0.306 C  
HETATM   27  O   UNL     1      -9.626  15.780  66.642  1.00  0.00    -0.224 OA 
BRANCH  26  28
HETATM   28  C   UNL     1     -11.699  15.210  67.679  1.00  0.00    -0.216 C  
BRANCH  28  29
HETATM   29  O   UNL     1     -11.113  15.046  69.074  1.00  0.00    -0.238 OA 
BRANCH  29  30
HETATM   30  C   UNL     1     -11.003  16.101  69.951  1.00  0.00    -0.362 C  
HETATM   31  O   UNL     1     -10.443  17.152  69.674  1.00  0.00    -0.232 OA 
BRANCH  30  32
HETATM   32  C   UNL     1     -11.648  15.829  71.339  1.00  0.00    -0.511 C  
BRANCH  32  33
HETATM   33  C   UNL     1     -13.087  15.271  71.271  1.00  0.00    -0.540 C  
HETATM   34  C   UNL     1     -13.336  13.839  71.727  1.00  0.00    -0.383 C  
HETATM   35  O   UNL     1     -12.686  12.863  71.070  1.00  0.00    -0.333 OA 
HETATM   36  O   UNL     1     -14.101  13.567  72.644  1.00  0.00    -0.762 OA 
ENDBRANCH  32  33
ENDBRANCH  30  32
ENDBRANCH  29  30
ENDBRANCH  28  29
ENDBRANCH  26  28
ENDBRANCH   4  26
TORSDOF 6
ENDMDL
MODEL        8
REMARK 921   NORMALIZED FREE ENERGY PREDICTED BY IDOCK:   -7.05 KCAL/MOL
REMARK 922        TOTAL FREE ENERGY PREDICTED BY IDOCK:   -9.87 KCAL/MOL
REMARK 923 INTER-LIGAND FREE ENERGY PREDICTED BY IDOCK:   -9.33 KCAL/MOL
REMARK 924 INTRA-LIGAND FREE ENERGY PREDICTED BY IDOCK:   -0.54 KCAL/MOL
REMARK 927      BINDING AFFINITY PREDICTED BY RF-SCORE:    0.00 PKD
ROOT
HETATM    1  C   UNL     1     -10.947  12.700  63.854  1.00  0.00    -0.468 C  
HETATM    2  C   UNL     1     -12.139  12.045  63.459  1.00  0.00    -0.628 C  
HETATM    3  C   UNL     1     -11.990  12.347  64.922  1.00  0.00    -0.458 C  
HETATM    4  C   UNL     1     -10.563  13.744  65.508  1.00  0.00    -0.307 C  
HETATM    5  C   UNL     1      -9.012   7.460  65.957  1.00  0.00    -0.156 C  
HETATM    6  O   UNL     1      -9.728  14.397  64.470  1.00  0.00    -0.505 OA 
HETATM    7  C   UNL     1     -11.866  13.848  65.111  1.00  0.00    -0.370 C  
HETATM    8  C   UNL     1     -12.640  14.947  64.448  1.00  0.00    -0.050 C  
HETATM    9  H   UNL     1      -9.077  15.034  64.737  1.00  0.00     0.000 HD 
HETATM   10  C   UNL     1      -9.241   7.197  67.382  1.00  0.00    -0.127 C  
HETATM   11  C   UNL     1      -9.029   8.775  65.662  1.00  0.00    -0.248 C  
HETATM   12  C   UNL     1     -12.133  13.149  66.870  1.00  0.00    -0.377 C  
HETATM   13  C   UNL     1      -8.464   8.244  63.243  1.00  0.00     0.040 C  
HETATM   14  C   UNL     1     -10.879  12.039  67.295  1.00  0.00    -0.246 C  
HETATM   15  O   UNL     1      -9.771  12.855  67.720  1.00  0.00    -0.202 OA 
HETATM   16  C   UNL     1     -10.342  10.884  66.219  1.00  0.00    -0.306 C  
HETATM   17  C   UNL     1      -8.120  10.429  67.261  1.00  0.00    -0.114 C  
HETATM   18  C   UNL     1      -9.412   9.761  66.797  1.00  0.00    -0.209 C  
HETATM   19  C   UNL     1     -10.281   8.930  67.880  1.00  0.00    -0.274 C  
HETATM   20  H   UNL     1      -9.082  12.245  67.954  1.00  0.00     0.000 HD 
HETATM   21  C   UNL     1      -9.832  11.519  64.711  1.00  0.00    -0.286 C  
HETATM   22  C   UNL     1      -9.544  10.385  63.740  1.00  0.00    -0.366 C  
HETATM   23  O   UNL     1      -8.381   6.812  68.155  1.00  0.00    -0.117 OA 
HETATM   24  C   UNL     1      -8.604   9.329  64.311  1.00  0.00    -0.214 C  
HETATM   25  C   UNL     1     -10.625   7.630  67.829  1.00  0.00    -0.265 C  
ENDROOT
BRANCH   4  26
HETATM   26  C   UNL     1     -10.577  15.242  66.559  1.00  0.00    -0.304 C  
HETATM   27  O   UNL     1     -11.110  15.265  67.682  1.00  0.00    -0.307 OA 
BRANCH  26  28
HETATM   28  C   UNL     1     -10.036  16.700  66.107  1.00  0.00    -0.337 C  
BRANCH  28  29
HETATM   29  O   UNL     1      -8.564  16.597  65.731  1.00  0.00    -0.464 OA 
BRANCH  29  30
HETATM   30  C   UNL     1      -7.649  17.563  66.083  1.00  0.00    -0.285 C  
HETATM   31  O   UNL     1      -7.201  18.384  65.295  1.00  0.00    -0.504 OA 
BRANCH  30  32
HETATM   32  C   UNL     1      -7.224  17.508  67.576  1.00  0.00    -0.184 C  
BRANCH  32  33
HETATM   33  C   UNL     1      -6.263  16.348  67.919  1.00  0.00    -0.143 C  
HETATM   34  C   UNL     1      -6.828  14.937  68.011  1.00  0.00    -0.137 C  
HETATM   35  O   UNL     1      -7.782  14.714  68.931  1.00  0.00    -0.130 OA 
HETATM   36  O   UNL     1      -6.433  14.025  67.294  1.00  0.00    -0.286 OA 
ENDBRANCH  32  33
ENDBRANCH  30  32
ENDBRANCH  29  30
ENDBRANCH  28  29
ENDBRANCH  26  28
ENDBRANCH   4  26
TORSDOF 6
ENDMDL
MODEL        9
REMARK 921   NORMALIZED FREE ENERGY PREDICTED BY IDOCK:   -7.01 KCAL/MOL
REMARK 922        TOTAL FREE ENERGY PREDICTED BY IDOCK:   -9.81 KCAL/MOL
REMARK 923 INTER-LIGAND FREE ENERGY PREDICTED BY IDOCK:  -10.28 KCAL/MOL
REMARK 924 INTRA-LIGAND FREE ENERGY PREDICTED BY IDOCK:    0.46 KCAL/MOL
REMARK 927      BINDING AFFINITY PREDICTED BY RF-SCORE:    0.00 PKD
ROOT
HETATM    1  C   UNL     1      -7.794   9.878  68.989  1.00  0.00    -0.095 C  
HETATM    2  C   UNL     1      -6.975   8.892  68.386  1.00  0.00    -0.065 C  
HETATM    3  C   UNL     1      -8.458   8.718  68.237  1.00  0.00    -0.130 C  
HETATM    4  C   UNL     1      -9.694  10.349  68.613  1.00  0.00    -0.175 C  
HETATM    5  C   UNL     1      -8.969   5.948  73.325  1.00  0.00    -0.130 C  
HETATM    6  O   UNL     1      -9.080  11.636  69.026  1.00  0.00    -0.389 OA 
HETATM    7  C   UNL     1      -9.029   9.916  67.501  1.00  0.00    -0.141 C  
HETATM    8  C   UNL     1      -8.485  10.632  66.301  1.00  0.00    -0.155 C  
HETATM    9  H   UNL     1      -9.643  12.381  69.198  1.00  0.00     0.000 HD 
HETATM   10  C   UNL     1     -10.188   5.145  73.174  1.00  0.00    -0.183 C  
HETATM   11  C   UNL     1      -9.007   7.089  72.610  1.00  0.00    -0.141 C  
HETATM   12  C   UNL     1     -10.447   8.635  67.535  1.00  0.00    -0.335 C  
HETATM   13  C   UNL     1      -6.743   7.757  73.549  1.00  0.00    -0.098 C  
HETATM   14  C   UNL     1     -10.882   8.230  69.156  1.00  0.00    -0.017 C  
HETATM   15  O   UNL     1     -11.748   9.292  69.599  1.00  0.00    -0.418 OA 
HETATM   16  C   UNL     1      -9.722   7.935  70.317  1.00  0.00    -0.183 C  
HETATM   17  C   UNL     1     -11.130   8.330  72.340  1.00  0.00    -0.447 C  
HETATM   18  C   UNL     1     -10.219   7.307  71.666  1.00  0.00    -0.207 C  
HETATM   19  C   UNL     1     -10.823   5.847  71.320  1.00  0.00    -0.333 C  
HETATM   20  H   UNL     1     -11.987   9.070  70.491  1.00  0.00     0.000 HD 
HETATM   21  C   UNL     1      -8.583   9.202  70.503  1.00  0.00    -0.252 C  
HETATM   22  C   UNL     1      -7.466   8.764  71.437  1.00  0.00    -0.126 C  
HETATM   23  O   UNL     1     -11.030   5.008  74.045  1.00  0.00    -0.287 OA 
HETATM   24  C   UNL     1      -7.974   8.197  72.758  1.00  0.00    -0.209 C  
HETATM   25  C   UNL     1     -10.377   4.653  71.751  1.00  0.00    -0.208 C  
ENDROOT
BRANCH   4  26
HETATM   26  C   UNL     1     -11.041  11.188  67.702  1.00  0.00    -0.287 C  
HETATM   27  O   UNL     1     -12.133  11.461  68.227  1.00  0.00    -0.606 OA 
BRANCH  26  28
HETATM   28  C   UNL     1     -11.016  11.535  66.120  1.00  0.00    -0.266 C  
BRANCH  28  29
HETATM   29  O   UNL     1     -12.317  12.224  65.734  1.00  0.00    -0.622 OA 
BRANCH  29  30
HETATM   30  C   UNL     1     -12.357  13.536  65.317  1.00  0.00    -0.467 C  
HETATM   31  O   UNL     1     -12.839  13.889  64.251  1.00  0.00    -0.618 OA 
BRANCH  30  32
HETATM   32  C   UNL     1     -11.718  14.531  66.325  1.00  0.00    -0.364 C  
BRANCH  32  33
HETATM   33  C   UNL     1     -10.442  15.228  65.805  1.00  0.00    -0.365 C  
HETATM   34  C   UNL     1     -10.541  16.675  65.336  1.00  0.00    -0.237 C  
HETATM   35  O   UNL     1     -11.370  16.933  64.310  1.00  0.00    -1.202 OA 
HETATM   36  O   UNL     1      -9.891  17.576  65.850  1.00  0.00    -0.516 OA 
ENDBRANCH  32  33
ENDBRANCH  30  32
ENDBRANCH  29  30
ENDBRANCH  28  29
ENDBRANCH  26  28
ENDBRANCH   4  26
TORSDOF 6
ENDMDL
MODEL       10
REMARK 921   NORMALIZED FREE ENERGY PREDICTED BY IDOCK:   -6.92 KCAL/MOL
REMARK 922        TOTAL FREE ENERGY PREDICTED BY IDOCK:   -9.69 KCAL/MOL
REMARK 923 INTER-LIGAND FREE ENERGY PREDICTED BY IDOCK:   -9.74 KCAL/MOL
REMARK 924 INTRA-LIGAND FREE ENERGY PREDICTED BY IDOCK:    0.05 KCAL/MOL
REMARK 927      BINDING AFFINITY PREDICTED BY RF-SCORE:    0.00 PKD
ROOT
HETATM    1  C   UNL     1      -8.848  10.858  65.593  1.00  0.00    -0.201 C  
HETATM    2  C   UNL     1      -9.603  10.066  64.695  1.00  0.00    -0.363 C  
HETATM    3  C   UNL     1     -10.342  10.646  65.865  1.00  0.00    -0.291 C  
HETATM    4  C   UNL     1      -9.469  12.216  66.914  1.00  0.00    -0.210 C  
HETATM    5  C   UNL     1      -8.894   6.241  69.375  1.00  0.00    -0.127 C  
HETATM    6  O   UNL     1      -8.139  12.715  66.485  1.00  0.00    -0.397 OA 
HETATM    7  C   UNL     1     -10.263  12.160  65.804  1.00  0.00    -0.282 C  
HETATM    8  C   UNL     1     -10.414  13.064  64.617  1.00  0.00    -0.400 C  
HETATM    9  H   UNL     1      -7.740  13.432  66.963  1.00  0.00     0.000 HD 
HETATM   10  C   UNL     1      -9.948   6.235  70.395  1.00  0.00    -0.178 C  
HETATM   11  C   UNL     1      -8.648   7.473  68.889  1.00  0.00    -0.129 C  
HETATM   12  C   UNL     1     -11.574  11.787  67.143  1.00  0.00    -0.342 C  
HETATM   13  C   UNL     1      -6.780   6.536  67.445  1.00  0.00    -0.067 C  
HETATM   14  C   UNL     1     -10.899  10.860  68.435  1.00  0.00    -0.222 C  
HETATM   15  O   UNL     1     -10.219  11.811  69.276  1.00  0.00    -0.421 OA 
HETATM   16  C   UNL     1      -9.897   9.561  68.137  1.00  0.00    -0.177 C  
HETATM   17  C   UNL     1      -8.779   9.453  70.366  1.00  0.00    -0.278 C  
HETATM   18  C   UNL     1      -9.573   8.628  69.356  1.00  0.00    -0.166 C  
HETATM   19  C   UNL     1     -10.967   7.961  69.833  1.00  0.00    -0.179 C  
HETATM   20  H   UNL     1      -9.848  11.301  69.986  1.00  0.00     0.000 HD 
HETATM   21  C   UNL     1      -8.547   9.933  67.151  1.00  0.00    -0.125 C  
HETATM   22  C   UNL     1      -7.805   8.658  66.782  1.00  0.00    -0.094 C  
HETATM   23  O   UNL     1      -9.750   6.058  71.585  1.00  0.00    -0.159 OA 
HETATM   24  C   UNL     1      -7.464   7.790  67.988  1.00  0.00    -0.108 C  
HETATM   25  C   UNL     1     -11.293   6.655  69.832  1.00  0.00    -0.422 C  
ENDROOT
BRANCH   4  26
HETATM   26  C   UNL     1     -10.017  13.881  67.441  1.00  0.00    -0.240 C  
HETATM   27  O   UNL     1      -9.252  14.694  67.988  1.00  0.00    -0.187 OA 
BRANCH  26  28
HETATM   28  C   UNL     1     -11.544  14.417  67.385  1.00  0.00    -0.375 C  
BRANCH  28  29
HETATM   29  O   UNL     1     -11.856  15.188  68.660  1.00  0.00    -0.339 OA 
BRANCH  29  30
HETATM   30  C   UNL     1     -12.001  14.562  69.877  1.00  0.00    -0.328 C  
HETATM   31  O   UNL     1     -12.638  13.529  70.032  1.00  0.00    -0.212 OA 
BRANCH  30  32
HETATM   32  C   UNL     1     -11.290  15.297  71.047  1.00  0.00    -0.393 C  
BRANCH  32  33
HETATM   33  C   UNL     1     -12.244  16.076  71.980  1.00  0.00    -0.582 C  
HETATM   34  C   UNL     1     -12.688  15.420  73.281  1.00  0.00    -0.508 C  
HETATM   35  O   UNL     1     -13.365  14.263  73.187  1.00  0.00    -0.643 OA 
HETATM   36  O   UNL     1     -12.459  15.917  74.377  1.00  0.00    -0.599 OA 
ENDBRANCH  32  33
ENDBRANCH  30  32
ENDBRANCH  29  30
ENDBRANCH  28  29
ENDBRANCH  26  28
ENDBRANCH   4  26
TORSDOF 6
ENDMDL
MODEL       11
REMARK 921   NORMALIZED FREE ENERGY PREDICTED BY IDOCK:   -6.90 KCAL/MOL
REMARK 922        TOTAL FREE ENERGY PREDICTED BY IDOCK:   -9.66 KCAL/MOL
REMARK 923 INTER-LIGAND FREE ENERGY PREDICTED BY IDOCK:   -9.57 KCAL/MOL
REMARK 924 INTRA-LIGAND FREE ENERGY PREDICTED BY IDOCK:   -0.09 KCAL/MOL
REMARK 927      BINDING AFFINITY PREDICTED BY RF-SCORE:    0.00 PKD
ROOT
HETATM    1  C   UNL     1      -9.906  10.210  68.618  1.00  0.00    -0.170 C  
HETATM    2  C   UNL     1      -8.878  10.366  69.580  1.00  0.00    -0.111 C  
HETATM    3  C   UNL     1      -8.480   9.775  68.259  1.00  0.00    -0.114 C  
HETATM    4  C   UNL     1      -9.770   9.995  66.641  1.00  0.00    -0.194 C  
HETATM    5  C   UNL     1      -9.910   4.377  69.883  1.00  0.00    -0.290 C  
HETATM    6  O   UNL     1     -11.049  10.722  66.836  1.00  0.00    -0.244 OA 
HETATM    7  C   UNL     1      -8.774  10.775  67.156  1.00  0.00    -0.131 C  
HETATM    8  C   UNL     1      -8.530  12.254  67.136  1.00  0.00    -0.184 C  
HETATM    9  H   UNL     1     -11.638  10.823  66.098  1.00  0.00     0.000 HD 
HETATM   10  C   UNL     1      -9.089   3.516  69.024  1.00  0.00    -0.140 C  
HETATM   11  C   UNL     1     -10.238   5.541  69.289  1.00  0.00    -0.315 C  
HETATM   12  C   UNL     1      -7.711   9.420  66.325  1.00  0.00    -0.097 C  
HETATM   13  C   UNL     1     -11.621   6.190  71.318  1.00  0.00    -0.271 C  
HETATM   14  C   UNL     1      -8.480   7.877  66.426  1.00  0.00    -0.138 C  
HETATM   15  O   UNL     1      -9.448   7.859  65.360  1.00  0.00    -0.305 OA 
HETATM   16  C   UNL     1      -9.195   7.356  67.840  1.00  0.00    -0.132 C  
HETATM   17  C   UNL     1     -10.702   5.623  66.861  1.00  0.00    -0.350 C  
HETATM   18  C   UNL     1      -9.609   5.844  67.904  1.00  0.00    -0.120 C  
HETATM   19  C   UNL     1      -8.252   4.971  67.793  1.00  0.00    -0.098 C  
HETATM   20  H   UNL     1      -9.870   7.010  65.416  1.00  0.00     0.000 HD 
HETATM   21  C   UNL     1     -10.365   8.438  68.469  1.00  0.00    -0.232 C  
HETATM   22  C   UNL     1     -10.818   7.972  69.844  1.00  0.00    -0.217 C  
HETATM   23  O   UNL     1      -9.489   2.492  68.497  1.00  0.00    -0.197 OA 
HETATM   24  C   UNL     1     -11.255   6.512  69.870  1.00  0.00    -0.456 C  
HETATM   25  C   UNL     1      -7.739   4.135  68.715  1.00  0.00    -0.058 C  
ENDROOT
BRANCH   4  26
HETATM   26  C   UNL     1      -9.595  10.593  64.921  1.00  0.00    -0.269 C  
HETATM   27  O   UNL     1      -8.493  10.681  64.353  1.00  0.00    -0.157 OA 
BRANCH  26  28
HETATM   28  C   UNL     1     -10.800  11.188  64.016  1.00  0.00    -0.281 C  
BRANCH  28  29
HETATM   29  O   UNL     1     -11.002  12.659  64.349  1.00  0.00    -0.311 OA 
BRANCH  29  30
HETATM   30  C   UNL     1     -12.115  13.114  65.018  1.00  0.00    -0.415 C  
HETATM   31  O   UNL     1     -13.245  12.700  64.803  1.00  0.00    -0.846 OA 
BRANCH  30  32
HETATM   32  C   UNL     1     -11.806  14.216  66.070  1.00  0.00    -0.409 C  
BRANCH  32  33
HETATM   33  C   UNL     1     -10.614  15.126  65.701  1.00  0.00    -0.370 C  
HETATM   34  C   UNL     1     -10.898  16.465  65.034  1.00  0.00    -0.273 C  
HETATM   35  O   UNL     1     -11.532  16.440  63.849  1.00  0.00    -1.063 OA 
HETATM   36  O   UNL     1     -10.559  17.532  65.533  1.00  0.00    -0.612 OA 
ENDBRANCH  32  33
ENDBRANCH  30  32
ENDBRANCH  29  30
ENDBRANCH  28  29
ENDBRANCH  26  28
ENDBRANCH   4  26
TORSDOF 6
ENDMDL
MODEL       12
REMARK 921   NORMALIZED FREE ENERGY PREDICTED BY IDOCK:   -6.75 KCAL/MOL
REMARK 922        TOTAL FREE ENERGY PREDICTED BY IDOCK:   -9.46 KCAL/MOL
REMARK 923 INTER-LIGAND FREE ENERGY PREDICTED BY IDOCK:   -9.57 KCAL/MOL
REMARK 924 INTRA-LIGAND FREE ENERGY PREDICTED BY IDOCK:    0.11 KCAL/MOL
REMARK 927      BINDING AFFINITY PREDICTED BY RF-SCORE:    0.00 PKD
ROOT
HETATM    1  C   UNL     1     -11.937  14.437  69.439  1.00  0.00    -0.370 C  
HETATM    2  C   UNL     1     -11.383  14.883  70.664  1.00  0.00    -0.275 C  
HETATM    3  C   UNL     1     -10.412  14.517  69.579  1.00  0.00    -0.080 C  
HETATM    4  C   UNL     1     -11.113  14.369  67.626  1.00  0.00    -0.300 C  
HETATM    5  C   UNL     1     -10.430   8.882  71.020  1.00  0.00    -0.316 C  
HETATM    6  O   UNL     1     -12.550  14.621  67.357  1.00  0.00    -0.461 OA 
HETATM    7  C   UNL     1     -10.648  15.411  68.377  1.00  0.00    -0.247 C  
HETATM    8  C   UNL     1     -10.911  16.887  68.338  1.00  0.00    -0.347 C  
HETATM    9  H   UNL     1     -12.870  14.554  66.465  1.00  0.00     0.000 HD 
HETATM   10  C   UNL     1      -9.143   8.382  70.525  1.00  0.00    -0.150 C  
HETATM   11  C   UNL     1     -10.914   9.897  70.278  1.00  0.00    -0.366 C  
HETATM   12  C   UNL     1      -8.993  14.525  68.017  1.00  0.00    -0.180 C  
HETATM   13  C   UNL     1     -13.006   9.958  71.717  1.00  0.00    -0.549 C  
HETATM   14  C   UNL     1      -9.201  12.812  67.971  1.00  0.00    -0.208 C  
HETATM   15  O   UNL     1      -9.714  12.521  66.657  1.00  0.00    -0.229 OA 
HETATM   16  C   UNL     1     -10.119  12.019  69.117  1.00  0.00     0.182 C  
HETATM   17  C   UNL     1     -10.575   9.931  67.828  1.00  0.00    -0.313 C  
HETATM   18  C   UNL     1     -10.011  10.454  69.146  1.00  0.00    -0.237 C  
HETATM   19  C   UNL     1      -8.483  10.087  69.529  1.00  0.00    -0.186 C  
HETATM   20  H   UNL     1      -9.829  11.579  66.632  1.00  0.00     0.000 HD 
HETATM   21  C   UNL     1     -11.715  12.622  69.270  1.00  0.00    -0.379 C  
HETATM   22  C   UNL     1     -12.405  11.970  70.458  1.00  0.00    -0.369 C  
HETATM   23  O   UNL     1      -8.994   7.309  69.967  1.00  0.00    -0.141 OA 
HETATM   24  C   UNL     1     -12.323  10.448  70.441  1.00  0.00    -0.370 C  
HETATM   25  C   UNL     1      -8.048   9.428  70.619  1.00  0.00    -0.197 C  
ENDROOT
BRANCH   4  26
HETATM   26  C   UNL     1     -10.602  15.069  66.014  1.00  0.00    -0.322 C  
HETATM   27  O   UNL     1     -10.545  14.385  64.977  1.00  0.00    -0.381 OA 
BRANCH  26  28
HETATM   28  C   UNL     1     -10.052  16.575  65.787  1.00  0.00    -0.303 C  
BRANCH  28  29
HETATM   29  O   UNL     1      -8.538  16.541  65.632  1.00  0.00    -0.359 OA 
BRANCH  29  30
HETATM   30  C   UNL     1      -7.736  17.586  66.033  1.00  0.00    -0.202 C  
HETATM   31  O   UNL     1      -7.741  18.683  65.494  1.00  0.00    -0.457 OA 
BRANCH  30  32
HETATM   32  C   UNL     1      -6.809  17.239  67.231  1.00  0.00    -0.195 C  
BRANCH  32  33
HETATM   33  C   UNL     1      -7.323  17.747  68.597  1.00  0.00    -0.269 C  
HETATM   34  C   UNL     1      -7.688  19.219  68.737  1.00  0.00    -0.362 C  
HETATM   35  O   UNL     1      -6.713  20.118  68.517  1.00  0.00    -0.296 OA 
HETATM   36  O   UNL     1      -8.813  19.589  69.048  1.00  0.00    -0.340 OA 
ENDBRANCH  32  33
ENDBRANCH  30  32
ENDBRANCH  29  30
ENDBRANCH  28  29
ENDBRANCH  26  28
ENDBRANCH   4  26
TORSDOF 6
ENDMDL
MODEL       13
REMARK 921   NORMALIZED FREE ENERGY PREDICTED BY IDOCK:   -6.74 KCAL/MOL
REMARK 922        TOTAL FREE ENERGY PREDICTED BY IDOCK:   -9.45 KCAL/MOL
REMARK 923 INTER-LIGAND FREE ENERGY PREDICTED BY IDOCK:   -9.22 KCAL/MOL
REMARK 924 INTRA-LIGAND FREE ENERGY PREDICTED BY IDOCK:   -0.23 KCAL/MOL
REMARK 927      BINDING AFFINITY PREDICTED BY RF-SCORE:    0.00 PKD
ROOT
HETATM    1  C   UNL     1      -8.009  10.814  68.569  1.00  0.00    -0.130 C  
HETATM    2  C   UNL     1      -7.183   9.891  67.882  1.00  0.00    -0.087 C  
HETATM    3  C   UNL     1      -8.661   9.780  67.642  1.00  0.00    -0.125 C  
HETATM    4  C   UNL     1      -9.877  11.385  68.169  1.00  0.00    -0.191 C  
HETATM    5  C   UNL     1      -9.489   6.397  72.299  1.00  0.00    -0.149 C  
HETATM    6  O   UNL     1      -9.256  12.589  68.772  1.00  0.00    -0.394 OA 
HETATM    7  C   UNL     1      -9.167  11.079  67.042  1.00  0.00    -0.164 C  
HETATM    8  C   UNL     1      -8.548  11.926  65.972  1.00  0.00     0.129 C  
HETATM    9  H   UNL     1      -9.810  13.322  69.013  1.00  0.00     0.000 HD 
HETATM   10  C   UNL     1     -10.717   5.655  71.989  1.00  0.00    -0.235 C  
HETATM   11  C   UNL     1      -9.466   7.621  71.737  1.00  0.00    -0.178 C  
HETATM   12  C   UNL     1     -10.614   9.845  66.843  1.00  0.00    -0.248 C  
HETATM   13  C   UNL     1      -7.237   8.097  72.860  1.00  0.00    -0.141 C  
HETATM   14  C   UNL     1     -11.139   9.249  68.376  1.00  0.00     0.122 C  
HETATM   15  O   UNL     1     -12.002  10.269  68.911  1.00  0.00    -0.600 OA 
HETATM   16  C   UNL     1     -10.045   8.773  69.542  1.00  0.00    -0.202 C  
HETATM   17  C   UNL     1     -11.544   8.946  71.530  1.00  0.00    -0.388 C  
HETATM   18  C   UNL     1     -10.623   7.992  70.773  1.00  0.00    -0.228 C  
HETATM   19  C   UNL     1     -11.242   6.606  70.213  1.00  0.00    -0.408 C  
HETATM   20  H   UNL     1     -12.290   9.941  69.754  1.00  0.00     0.000 HD 
HETATM   21  C   UNL     1      -8.889   9.973  69.944  1.00  0.00    -0.177 C  
HETATM   22  C   UNL     1      -7.831   9.387  70.865  1.00  0.00    -0.097 C  
HETATM   23  O   UNL     1     -11.604   5.432  72.794  1.00  0.00    -0.307 OA 
HETATM   24  C   UNL     1      -8.417   8.670  72.075  1.00  0.00    -0.191 C  
HETATM   25  C   UNL     1     -10.846   5.355  70.507  1.00  0.00    -0.200 C  
ENDROOT
BRANCH   4  26
HETATM   26  C   UNL     1     -11.157  12.371  67.311  1.00  0.00    -0.281 C  
HETATM   27  O   UNL     1     -11.933  11.877  66.474  1.00  0.00    -0.588 OA 
BRANCH  26  28
HETATM   28  C   UNL     1     -11.332  13.977  67.436  1.00  0.00    -0.329 C  
BRANCH  28  29
HETATM   29  O   UNL     1     -12.379  14.289  68.495  1.00  0.00    -0.221 OA 
BRANCH  29  30
HETATM   30  C   UNL     1     -12.165  14.044  69.833  1.00  0.00    -0.340 C  
HETATM   31  O   UNL     1     -12.166  12.923  70.320  1.00  0.00    -0.339 OA 
BRANCH  30  32
HETATM   32  C   UNL     1     -11.933  15.330  70.674  1.00  0.00    -0.386 C  
BRANCH  32  33
HETATM   33  C   UNL     1     -13.142  15.748  71.540  1.00  0.00    -0.471 C  
HETATM   34  C   UNL     1     -13.079  15.512  73.043  1.00  0.00    -0.524 C  
HETATM   35  O   UNL     1     -12.935  14.242  73.461  1.00  0.00    -0.494 OA 
HETATM   36  O   UNL     1     -13.167  16.425  73.855  1.00  0.00    -0.662 OA 
ENDBRANCH  32  33
ENDBRANCH  30  32
ENDBRANCH  29  30
ENDBRANCH  28  29
ENDBRANCH  26  28
ENDBRANCH   4  26
TORSDOF 6
ENDMDL
MODEL       14
REMARK 921   NORMALIZED FREE ENERGY PREDICTED BY IDOCK:   -6.73 KCAL/MOL
REMARK 922        TOTAL FREE ENERGY PREDICTED BY IDOCK:   -9.44 KCAL/MOL
REMARK 923 INTER-LIGAND FREE ENERGY PREDICTED BY IDOCK:   -9.22 KCAL/MOL
REMARK 924 INTRA-LIGAND FREE ENERGY PREDICTED BY IDOCK:   -0.22 KCAL/MOL
REMARK 927      BINDING AFFINITY PREDICTED BY RF-SCORE:    0.00 PKD
ROOT
HETATM    1  C   UNL     1     -11.297  12.334  64.711  1.00  0.00    -0.371 C  
HETATM    2  C   UNL     1     -12.665  11.973  64.650  1.00  0.00    -0.006 C  
HETATM    3  C   UNL     1     -12.250  12.850  65.796  1.00  0.00    -0.498 C  
HETATM    4  C   UNL     1     -10.426  13.844  65.678  1.00  0.00    -0.312 C  
HETATM    5  C   UNL     1     -10.655   8.331  69.091  1.00  0.00    -0.179 C  
HETATM    6  O   UNL     1      -9.582  13.656  64.472  1.00  0.00    -0.451 OA 
HETATM    7  C   UNL     1     -11.687  14.149  65.251  1.00  0.00    -0.353 C  
HETATM    8  C   UNL     1     -12.201  15.001  64.130  1.00  0.00    -0.234 C  
HETATM    9  H   UNL     1      -8.749  14.110  64.418  1.00  0.00     0.000 HD 
HETATM   10  C   UNL     1     -10.764   8.835  70.465  1.00  0.00    -0.223 C  
HETATM   11  C   UNL     1     -10.340   9.298  68.207  1.00  0.00    -0.257 C  
HETATM   12  C   UNL     1     -11.911  14.454  67.125  1.00  0.00    -0.437 C  
HETATM   13  C   UNL     1     -10.263   7.574  66.343  1.00  0.00    -0.022 C  
HETATM   14  C   UNL     1     -10.975  13.338  68.053  1.00  0.00    -0.244 C  
HETATM   15  O   UNL     1      -9.637  13.872  68.062  1.00  0.00    -0.205 OA 
HETATM   16  C   UNL     1     -10.926  11.716  67.667  1.00  0.00    -0.294 C  
HETATM   17  C   UNL     1      -8.806  11.130  68.846  1.00  0.00    -0.086 C  
HETATM   18  C   UNL     1     -10.282  10.758  68.729  1.00  0.00    -0.207 C  
HETATM   19  C   UNL     1     -11.202  10.828  70.057  1.00  0.00    -0.366 C  
HETATM   20  H   UNL     1      -9.123  13.258  68.573  1.00  0.00     0.000 HD 
HETATM   21  C   UNL     1     -10.457  11.398  66.049  1.00  0.00    -0.305 C  
HETATM   22  C   UNL     1     -10.626   9.919  65.740  1.00  0.00     0.127 C  
HETATM   23  O   UNL     1      -9.953   8.603  71.345  1.00  0.00    -0.207 OA 
HETATM   24  C   UNL     1      -9.955   9.010  66.764  1.00  0.00    -0.332 C  
HETATM   25  C   UNL     1     -11.900   9.827  70.623  1.00  0.00    -0.360 C  
ENDROOT
BRANCH   4  26
HETATM   26  C   UNL     1      -9.884  15.579  65.890  1.00  0.00    -0.353 C  
HETATM   27  O   UNL     1      -8.706  15.884  66.144  1.00  0.00    -0.327 OA 
BRANCH  26  28
HETATM   28  C   UNL     1     -10.869  16.864  65.908  1.00  0.00    -0.037 C  
BRANCH  28  29
HETATM   29  O   UNL     1     -10.044  18.134  65.756  1.00  0.00    -0.563 OA 
BRANCH  29  30
HETATM   30  C   UNL     1     -10.410  19.322  66.347  1.00  0.00    -0.471 C  
HETATM   31  O   UNL     1     -10.349  20.404  65.781  1.00  0.00    -0.290 OA 
BRANCH  30  32
HETATM   32  C   UNL     1     -10.900  19.165  67.814  1.00  0.00    -0.398 C  
BRANCH  32  33
HETATM   33  C   UNL     1      -9.762  19.050  68.853  1.00  0.00    -0.442 C  
HETATM   34  C   UNL     1      -9.052  17.711  69.010  1.00  0.00    -0.034 C  
HETATM   35  O   UNL     1      -9.800  16.658  69.382  1.00  0.00    -0.219 OA 
HETATM   36  O   UNL     1      -7.849  17.582  68.824  1.00  0.00    -0.267 OA 
ENDBRANCH  32  33
ENDBRANCH  30  32
ENDBRANCH  29  30
ENDBRANCH  28  29
ENDBRANCH  26  28
ENDBRANCH   4  26
TORSDOF 6
ENDMDL
MODEL       15
REMARK 921   NORMALIZED FREE ENERGY PREDICTED BY IDOCK:   -6.71 KCAL/MOL
REMARK 922        TOTAL FREE ENERGY PREDICTED BY IDOCK:   -9.40 KCAL/MOL
REMARK 923 INTER-LIGAND FREE ENERGY PREDICTED BY IDOCK:   -9.75 KCAL/MOL
REMARK 924 INTRA-LIGAND FREE ENERGY PREDICTED BY IDOCK:    0.34 KCAL/MOL
REMARK 927      BINDING AFFINITY PREDICTED BY RF-SCORE:    0.00 PKD
ROOT
HETATM    1  C   UNL     1     -11.536  15.092  65.937  1.00  0.00    -0.224 C  
HETATM    2  C   UNL     1     -11.240  15.026  64.554  1.00  0.00    -0.276 C  
HETATM    3  C   UNL     1     -10.257  14.377  65.485  1.00  0.00    -0.386 C  
HETATM    4  C   UNL     1     -10.856  13.965  67.434  1.00  0.00    -0.285 C  
HETATM    5  C   UNL     1      -7.371  19.341  66.410  1.00  0.00    -0.264 C  
HETATM    6  O   UNL     1     -12.231  14.328  67.855  1.00  0.00    -0.573 OA 
HETATM    7  C   UNL     1     -10.956  13.275  66.259  1.00  0.00    -0.296 C  
HETATM    8  C   UNL     1     -11.930  12.249  65.765  1.00  0.00    -0.362 C  
HETATM    9  H   UNL     1     -12.505  14.140  68.745  1.00  0.00     0.000 HD 
HETATM   10  C   UNL     1      -6.026  18.904  66.803  1.00  0.00    -0.161 C  
HETATM   11  C   UNL     1      -8.328  18.464  66.771  1.00  0.00    -0.271 C  
HETATM   12  C   UNL     1      -9.094  13.022  66.610  1.00  0.00    -0.181 C  
HETATM   13  C   UNL     1     -10.110  20.027  65.860  1.00  0.00    -0.497 C  
HETATM   14  C   UNL     1      -8.408  14.416  67.366  1.00  0.00    -0.201 C  
HETATM   15  O   UNL     1      -8.750  14.305  68.760  1.00  0.00    -0.251 OA 
HETATM   16  C   UNL     1      -8.757  15.955  66.826  1.00  0.00    -0.303 C  
HETATM   17  C   UNL     1      -8.140  17.208  68.895  1.00  0.00    -0.203 C  
HETATM   18  C   UNL     1      -7.871  17.118  67.394  1.00  0.00    -0.191 C  
HETATM   19  C   UNL     1      -6.355  16.851  66.899  1.00  0.00    -0.237 C  
HETATM   20  H   UNL     1      -8.373  15.071  69.176  1.00  0.00     0.000 HD 
HETATM   21  C   UNL     1     -10.433  16.307  66.761  1.00  0.00    -0.287 C  
HETATM   22  C   UNL     1     -10.655  17.650  66.083  1.00  0.00    -0.220 C  
HETATM   23  O   UNL     1      -5.374  19.415  67.697  1.00  0.00    -0.171 OA 
HETATM   24  C   UNL     1      -9.815  18.772  66.681  1.00  0.00    -0.387 C  
HETATM   25  C   UNL     1      -5.608  17.630  66.094  1.00  0.00    -0.241 C  
ENDROOT
BRANCH   4  26
HETATM   26  C   UNL     1     -10.827  12.484  68.508  1.00  0.00    -0.243 C  
HETATM   27  O   UNL     1      -9.826  11.755  68.615  1.00  0.00    -0.198 OA 
BRANCH  26  28
HETATM   28  C   UNL     1     -12.104  11.893  69.311  1.00  0.00    -0.210 C  
BRANCH  28  29
HETATM   29  O   UNL     1     -11.685  10.649  70.081  1.00  0.00    -0.276 OA 
BRANCH  29  30
HETATM   30  C   UNL     1     -12.238  10.318  71.297  1.00  0.00    -0.395 C  
HETATM   31  O   UNL     1     -13.093  10.992  71.853  1.00  0.00    -0.486 OA 
BRANCH  30  32
HETATM   32  C   UNL     1     -11.664   9.010  71.910  1.00  0.00    -0.445 C  
BRANCH  32  33
HETATM   33  C   UNL     1     -10.583   8.326  71.045  1.00  0.00    -0.243 C  
HETATM   34  C   UNL     1     -11.028   7.398  69.921  1.00  0.00    -0.223 C  
HETATM   35  O   UNL     1     -11.753   6.320  70.265  1.00  0.00    -0.384 OA 
HETATM   36  O   UNL     1     -10.736   7.602  68.749  1.00  0.00    -0.177 OA 
ENDBRANCH  32  33
ENDBRANCH  30  32
ENDBRANCH  29  30
ENDBRANCH  28  29
ENDBRANCH  26  28
ENDBRANCH   4  26
TORSDOF 6
ENDMDL
MODEL       16
REMARK 921   NORMALIZED FREE ENERGY PREDICTED BY IDOCK:   -6.66 KCAL/MOL
REMARK 922        TOTAL FREE ENERGY PREDICTED BY IDOCK:   -9.34 KCAL/MOL
REMARK 923 INTER-LIGAND FREE ENERGY PREDICTED BY IDOCK:   -9.79 KCAL/MOL
REMARK 924 INTRA-LIGAND FREE ENERGY PREDICTED BY IDOCK:    0.45 KCAL/MOL
REMARK 927      BINDING AFFINITY PREDICTED BY RF-SCORE:    0.00 PKD
ROOT
HETATM    1  C   UNL     1      -7.699  13.638  67.404  1.00  0.00    -0.156 C  
HETATM    2  C   UNL     1      -7.019  13.807  68.635  1.00  0.00    -0.102 C  
HETATM    3  C   UNL     1      -8.510  13.978  68.661  1.00  0.00    -0.103 C  
HETATM    4  C   UNL     1      -9.623  13.244  67.063  1.00  0.00    -0.243 C  
HETATM    5  C   UNL     1      -8.216  19.577  67.116  1.00  0.00    -0.308 C  
HETATM    6  O   UNL     1      -8.917  12.580  65.940  1.00  0.00    -0.426 OA 
HETATM    7  C   UNL     1      -9.168  12.683  68.223  1.00  0.00    -0.184 C  
HETATM    8  C   UNL     1      -8.819  11.275  68.600  1.00  0.00    -0.141 C  
HETATM    9  H   UNL     1      -9.424  12.244  65.211  1.00  0.00     0.000 HD 
HETATM   10  C   UNL     1      -9.463  20.156  67.631  1.00  0.00    -0.387 C  
HETATM   11  C   UNL     1      -8.347  18.280  66.777  1.00  0.00    -0.269 C  
HETATM   12  C   UNL     1     -10.591  13.746  68.929  1.00  0.00    -0.224 C  
HETATM   13  C   UNL     1      -5.941  18.245  65.965  1.00  0.00    -0.233 C  
HETATM   14  C   UNL     1     -10.754  15.227  68.056  1.00  0.00    -0.268 C  
HETATM   15  O   UNL     1     -11.505  14.896  66.873  1.00  0.00    -0.351 OA 
HETATM   16  C   UNL     1      -9.421  16.136  67.635  1.00  0.00    -0.220 C  
HETATM   17  C   UNL     1     -10.454  17.451  65.782  1.00  0.00    -0.221 C  
HETATM   18  C   UNL     1      -9.696  17.585  67.100  1.00  0.00    -0.279 C  
HETATM   19  C   UNL     1     -10.387  18.417  68.304  1.00  0.00    -0.384 C  
HETATM   20  H   UNL     1     -11.595  15.711  66.393  1.00  0.00     0.000 HD 
HETATM   21  C   UNL     1      -8.236  15.269  66.752  1.00  0.00    -0.215 C  
HETATM   22  C   UNL     1      -6.988  16.120  66.581  1.00  0.00     0.035 C  
HETATM   23  O   UNL     1     -10.147  20.960  67.022  1.00  0.00    -0.242 OA 
HETATM   24  C   UNL     1      -7.277  17.507  66.020  1.00  0.00    -0.298 C  
HETATM   25  C   UNL     1      -9.903  19.506  68.929  1.00  0.00    -0.522 C  
ENDROOT
BRANCH   4  26
HETATM   26  C   UNL     1     -11.085  12.155  66.899  1.00  0.00    -0.297 C  
HETATM   27  O   UNL     1     -12.086  12.477  66.237  1.00  0.00    -0.574 OA 
BRANCH  26  28
HETATM   28  C   UNL     1     -11.292  10.753  67.683  1.00  0.00    -0.252 C  
BRANCH  28  29
HETATM   29  O   UNL     1     -12.300  10.948  68.807  1.00  0.00    -0.495 OA 
BRANCH  29  30
HETATM   30  C   UNL     1     -12.124  10.392  70.054  1.00  0.00    -0.222 C  
HETATM   31  O   UNL     1     -11.543   9.333  70.243  1.00  0.00    -0.225 OA 
BRANCH  30  32
HETATM   32  C   UNL     1     -12.745  11.231  71.205  1.00  0.00    -0.510 C  
BRANCH  32  33
HETATM   33  C   UNL     1     -12.974  12.718  70.854  1.00  0.00    -0.080 C  
HETATM   34  C   UNL     1     -13.216  13.706  71.988  1.00  0.00    -0.434 C  
HETATM   35  O   UNL     1     -14.288  13.494  72.770  1.00  0.00    -0.640 OA 
HETATM   36  O   UNL     1     -12.483  14.667  72.187  1.00  0.00    -0.324 OA 
ENDBRANCH  32  33
ENDBRANCH  30  32
ENDBRANCH  29  30
ENDBRANCH  28  29
ENDBRANCH  26  28
ENDBRANCH   4  26
TORSDOF 6
ENDMDL
MODEL       17
REMARK 921   NORMALIZED FREE ENERGY PREDICTED BY IDOCK:   -6.63 KCAL/MOL
REMARK 922        TOTAL FREE ENERGY PREDICTED BY IDOCK:   -9.30 KCAL/MOL
REMARK 923 INTER-LIGAND FREE ENERGY PREDICTED BY IDOCK:   -9.22 KCAL/MOL
REMARK 924 INTRA-LIGAND FREE ENERGY PREDICTED BY IDOCK:   -0.09 KCAL/MOL
REMARK 927      BINDING AFFINITY PREDICTED BY RF-SCORE:    0.00 PKD
ROOT
HETATM    1  C   UNL     1     -10.802  12.646  64.609  1.00  0.00    -0.349 C  
HETATM    2  C   UNL     1     -11.955  11.902  64.256  1.00  0.00    -0.353 C  
HETATM    3  C   UNL     1     -11.941  12.511  65.628  1.00  0.00    -0.492 C  
HETATM    4  C   UNL     1     -10.570  14.023  66.030  1.00  0.00    -0.297 C  
HETATM    5  C   UNL     1      -9.088   8.005  67.948  1.00  0.00    -0.134 C  
HETATM    6  O   UNL     1      -9.640  14.454  64.958  1.00  0.00    -0.462 OA 
HETATM    7  C   UNL     1     -11.830  14.019  65.503  1.00  0.00    -0.370 C  
HETATM    8  C   UNL     1     -12.535  14.939  64.553  1.00  0.00    -0.223 C  
HETATM    9  H   UNL     1      -9.014  15.145  65.141  1.00  0.00     0.000 HD 
HETATM   10  C   UNL     1      -9.450   8.047  69.370  1.00  0.00    -0.159 C  
HETATM   11  C   UNL     1      -9.073   9.226  67.380  1.00  0.00    -0.141 C  
HETATM   12  C   UNL     1     -12.261  13.705  67.338  1.00  0.00    -0.283 C  
HETATM   13  C   UNL     1      -8.289   8.203  65.191  1.00  0.00    -0.152 C  
HETATM   14  C   UNL     1     -11.056  12.733  68.103  1.00  0.00    -0.256 C  
HETATM   15  O   UNL     1      -9.990  13.638  68.444  1.00  0.00    -0.231 OA 
HETATM   16  C   UNL     1     -10.425  11.384  67.352  1.00  0.00    -0.239 C  
HETATM   17  C   UNL     1      -8.311  11.198  68.665  1.00  0.00    -0.154 C  
HETATM   18  C   UNL     1      -9.557  10.425  68.239  1.00  0.00    -0.152 C  
HETATM   19  C   UNL     1     -10.525   9.829  69.389  1.00  0.00    -0.241 C  
HETATM   20  H   UNL     1      -9.327  13.103  68.864  1.00  0.00     0.000 HD 
HETATM   21  C   UNL     1      -9.776  11.692  65.796  1.00  0.00    -0.262 C  
HETATM   22  C   UNL     1      -9.403  10.382  65.120  1.00  0.00    -0.271 C  
HETATM   23  O   UNL     1      -8.666   7.849  70.282  1.00  0.00    -0.136 OA 
HETATM   24  C   UNL     1      -8.524   9.487  65.986  1.00  0.00    -0.132 C  
HETATM   25  C   UNL     1     -10.867   8.543  69.586  1.00  0.00    -0.157 C  
ENDROOT
BRANCH   4  26
HETATM   26  C   UNL     1     -10.676  15.710  66.732  1.00  0.00    -0.300 C  
HETATM   27  O   UNL     1     -11.182  15.940  67.844  1.00  0.00    -0.343 OA 
BRANCH  26  28
HETATM   28  C   UNL     1     -10.262  17.068  65.954  1.00  0.00    -0.296 C  
BRANCH  28  29
HETATM   29  O   UNL     1      -8.745  17.164  65.877  1.00  0.00    -0.526 OA 
BRANCH  29  30
HETATM   30  C   UNL     1      -8.091  18.370  65.762  1.00  0.00     0.222 C  
HETATM   31  O   UNL     1      -6.914  18.470  65.447  1.00  0.00    -0.514 OA 
BRANCH  30  32
HETATM   32  C   UNL     1      -8.986  19.599  66.082  1.00  0.00    -0.375 C  
BRANCH  32  33
HETATM   33  C   UNL     1      -8.642  20.303  67.414  1.00  0.00    -0.420 C  
HETATM   34  C   UNL     1      -8.513  19.456  68.674  1.00  0.00    -0.359 C  
HETATM   35  O   UNL     1      -9.597  18.763  69.062  1.00  0.00    -0.326 OA 
HETATM   36  O   UNL     1      -7.479  19.406  69.327  1.00  0.00    -0.337 OA 
ENDBRANCH  32  33
ENDBRANCH  30  32
ENDBRANCH  29  30
ENDBRANCH  28  29
ENDBRANCH  26  28
ENDBRANCH   4  26
TORSDOF 6
ENDMDL
MODEL       18
REMARK 921   NORMALIZED FREE ENERGY PREDICTED BY IDOCK:   -6.61 KCAL/MOL
REMARK 922        TOTAL FREE ENERGY PREDICTED BY IDOCK:   -9.27 KCAL/MOL
REMARK 923 INTER-LIGAND FREE ENERGY PREDICTED BY IDOCK:   -9.72 KCAL/MOL
REMARK 924 INTRA-LIGAND FREE ENERGY PREDICTED BY IDOCK:    0.45 KCAL/MOL
REMARK 927      BINDING AFFINITY PREDICTED BY RF-SCORE:    0.00 PKD
ROOT
HETATM    1  C   UNL     1      -7.676  13.605  67.508  1.00  0.00    -0.183 C  
HETATM    2  C   UNL     1      -7.031  13.763  68.759  1.00  0.00    -0.109 C  
HETATM    3  C   UNL     1      -8.522  13.932  68.744  1.00  0.00    -0.008 C  
HETATM    4  C   UNL     1      -9.589  13.211  67.110  1.00  0.00    -0.235 C  
HETATM    5  C   UNL     1      -8.193  19.545  67.258  1.00  0.00    -0.321 C  
HETATM    6  O   UNL     1      -8.851  12.558  66.002  1.00  0.00    -0.416 OA 
HETATM    7  C   UNL     1      -9.166  12.640  68.277  1.00  0.00    -0.184 C  
HETATM    8  C   UNL     1      -8.825  11.229  68.651  1.00  0.00    -0.141 C  
HETATM    9  H   UNL     1      -9.337  12.228  65.256  1.00  0.00     0.000 HD 
HETATM   10  C   UNL     1      -9.455  20.118  67.743  1.00  0.00    -0.354 C  
HETATM   11  C   UNL     1      -8.313  18.251  66.905  1.00  0.00    -0.256 C  
HETATM   12  C   UNL     1     -10.610  13.696  68.953  1.00  0.00    -0.211 C  
HETATM   13  C   UNL     1      -5.885  18.226  66.159  1.00  0.00    -0.216 C  
HETATM   14  C   UNL     1     -10.750  15.184  68.089  1.00  0.00    -0.254 C  
HETATM   15  O   UNL     1     -11.468  14.863  66.883  1.00  0.00    -0.351 OA 
HETATM   16  C   UNL     1      -9.407  16.099  67.713  1.00  0.00    -0.211 C  
HETATM   17  C   UNL     1     -10.390  17.428  65.843  1.00  0.00    -0.276 C  
HETATM   18  C   UNL     1      -9.670  17.552  67.183  1.00  0.00    -0.279 C  
HETATM   19  C   UNL     1     -10.394  18.372  68.375  1.00  0.00    -0.357 C  
HETATM   20  H   UNL     1     -11.545  15.682  66.407  1.00  0.00     0.000 HD 
HETATM   21  C   UNL     1      -8.197  15.240  66.855  1.00  0.00    -0.263 C  
HETATM   22  C   UNL     1      -6.945  16.094  66.727  1.00  0.00    -0.107 C  
HETATM   23  O   UNL     1     -10.123  20.927  67.123  1.00  0.00    -0.280 OA 
HETATM   24  C   UNL     1      -7.222  17.486  66.171  1.00  0.00    -0.343 C  
HETATM   25  C   UNL     1      -9.930  19.456  69.023  1.00  0.00    -0.477 C  
ENDROOT
BRANCH   4  26
HETATM   26  C   UNL     1     -11.044  12.122  66.896  1.00  0.00    -0.297 C  
HETATM   27  O   UNL     1     -12.002  12.424  66.164  1.00  0.00    -0.549 OA 
BRANCH  26  28
HETATM   28  C   UNL     1     -11.305  10.749  67.714  1.00  0.00    -0.279 C  
BRANCH  28  29
HETATM   29  O   UNL     1     -12.341  10.998  68.801  1.00  0.00    -0.533 OA 
BRANCH  29  30
HETATM   30  C   UNL     1     -12.152  10.591  70.102  1.00  0.00    -0.300 C  
HETATM   31  O   UNL     1     -12.539  11.228  71.070  1.00  0.00    -0.376 OA 
BRANCH  30  32
HETATM   32  C   UNL     1     -11.385   9.245  70.230  1.00  0.00    -0.238 C  
BRANCH  32  33
HETATM   33  C   UNL     1     -11.419   8.629  71.646  1.00  0.00    -0.375 C  
HETATM   34  C   UNL     1     -12.417   7.513  71.931  1.00  0.00    -0.303 C  
HETATM   35  O   UNL     1     -13.721   7.801  71.782  1.00  0.00    -0.347 OA 
HETATM   36  O   UNL     1     -12.066   6.397  72.295  1.00  0.00    -0.292 OA 
ENDBRANCH  32  33
ENDBRANCH  30  32
ENDBRANCH  29  30
ENDBRANCH  28  29
ENDBRANCH  26  28
ENDBRANCH   4  26
TORSDOF 6
ENDMDL
MODEL       19
REMARK 921   NORMALIZED FREE ENERGY PREDICTED BY IDOCK:   -6.60 KCAL/MOL
REMARK 922        TOTAL FREE ENERGY PREDICTED BY IDOCK:   -9.26 KCAL/MOL
REMARK 923 INTER-LIGAND FREE ENERGY PREDICTED BY IDOCK:   -9.18 KCAL/MOL
REMARK 924 INTRA-LIGAND FREE ENERGY PREDICTED BY IDOCK:   -0.08 KCAL/MOL
REMARK 927      BINDING AFFINITY PREDICTED BY RF-SCORE:    0.00 PKD
ROOT
HETATM    1  C   UNL     1      -8.763   9.232  66.801  1.00  0.00    -0.138 C  
HETATM    2  C   UNL     1      -9.530   8.370  65.978  1.00  0.00    -0.224 C  
HETATM    3  C   UNL     1     -10.293   9.303  66.873  1.00  0.00    -0.316 C  
HETATM    4  C   UNL     1      -9.293  10.931  67.698  1.00  0.00    -0.156 C  
HETATM    5  C   UNL     1     -10.068   5.659  71.400  1.00  0.00    -0.254 C  
HETATM    6  O   UNL     1      -7.855  11.122  67.389  1.00  0.00    -0.113 OA 
HETATM    7  C   UNL     1      -9.945  10.736  66.514  1.00  0.00    -0.260 C  
HETATM    8  C   UNL     1      -9.792  11.356  65.158  1.00  0.00    -0.302 C  
HETATM    9  H   UNL     1      -7.398  11.865  67.765  1.00  0.00     0.000 HD 
HETATM   10  C   UNL     1     -11.223   6.038  72.222  1.00  0.00    -0.293 C  
HETATM   11  C   UNL     1      -9.555   6.699  70.714  1.00  0.00    -0.183 C  
HETATM   12  C   UNL     1     -11.453  10.872  67.680  1.00  0.00    -0.281 C  
HETATM   13  C   UNL     1      -7.718   5.198  69.806  1.00  0.00    -0.071 C  
HETATM   14  C   UNL     1     -11.111  10.178  69.224  1.00  0.00    -0.225 C  
HETATM   15  O   UNL     1     -10.383  11.189  69.947  1.00  0.00    -0.407 OA 
HETATM   16  C   UNL     1     -10.322   8.715  69.362  1.00  0.00    -0.221 C  
HETATM   17  C   UNL     1      -9.517   8.962  71.711  1.00  0.00    -0.334 C  
HETATM   18  C   UNL     1     -10.314   8.050  70.783  1.00  0.00    -0.214 C  
HETATM   19  C   UNL     1     -11.851   7.717  71.163  1.00  0.00    -0.314 C  
HETATM   20  H   UNL     1     -10.195  10.807  70.796  1.00  0.00     0.000 HD 
HETATM   21  C   UNL     1      -8.818   8.655  68.543  1.00  0.00    -0.142 C  
HETATM   22  C   UNL     1      -8.271   7.236  68.566  1.00  0.00    -0.125 C  
HETATM   23  O   UNL     1     -11.203   6.112  73.438  1.00  0.00    -0.147 OA 
HETATM   24  C   UNL     1      -8.234   6.628  69.963  1.00  0.00    -0.130 C  
HETATM   25  C   UNL     1     -12.396   6.506  71.381  1.00  0.00    -0.254 C  
ENDROOT
BRANCH   4  26
HETATM   26  C   UNL     1      -9.603  12.732  67.778  1.00  0.00    -0.204 C  
HETATM   27  O   UNL     1     -10.721  13.207  68.043  1.00  0.00    -0.223 OA 
BRANCH  26  28
HETATM   28  C   UNL     1      -8.526  13.879  67.392  1.00  0.00    -0.199 C  
BRANCH  28  29
HETATM   29  O   UNL     1      -9.187  15.246  67.490  1.00  0.00    -0.195 OA 
BRANCH  29  30
HETATM   30  C   UNL     1      -9.439  16.020  66.379  1.00  0.00    -0.293 C  
HETATM   31  O   UNL     1      -8.641  16.825  65.924  1.00  0.00    -0.500 OA 
BRANCH  30  32
HETATM   32  C   UNL     1     -10.845  15.784  65.760  1.00  0.00    -0.286 C  
BRANCH  32  33
HETATM   33  C   UNL     1     -10.894  14.648  64.713  1.00  0.00    -0.402 C  
HETATM   34  C   UNL     1     -12.234  13.985  64.419  1.00  0.00    -0.426 C  
HETATM   35  O   UNL     1     -12.854  13.373  65.442  1.00  0.00    -0.594 OA 
HETATM   36  O   UNL     1     -12.735  13.988  63.302  1.00  0.00    -0.750 OA 
ENDBRANCH  32  33
ENDBRANCH  30  32
ENDBRANCH  29  30
ENDBRANCH  28  29
ENDBRANCH  26  28
ENDBRANCH   4  26
TORSDOF 6
ENDMDL
MODEL       20
REMARK 921   NORMALIZED FREE ENERGY PREDICTED BY IDOCK:   -6.56 KCAL/MOL
REMARK 922        TOTAL FREE ENERGY PREDICTED BY IDOCK:   -9.21 KCAL/MOL
REMARK 923 INTER-LIGAND FREE ENERGY PREDICTED BY IDOCK:   -8.64 KCAL/MOL
REMARK 924 INTRA-LIGAND FREE ENERGY PREDICTED BY IDOCK:   -0.56 KCAL/MOL
REMARK 927      BINDING AFFINITY PREDICTED BY RF-SCORE:    0.00 PKD
ROOT
HETATM    1  C   UNL     1     -10.973  12.526  65.062  1.00  0.00    -0.329 C  
HETATM    2  C   UNL     1     -12.253  11.978  64.801  1.00  0.00    -0.236 C  
HETATM    3  C   UNL     1     -12.094  12.735  66.087  1.00  0.00    -0.429 C  
HETATM    4  C   UNL     1     -10.453  13.995  66.305  1.00  0.00    -0.286 C  
HETATM    5  C   UNL     1     -10.101   8.082  68.950  1.00  0.00    -0.209 C  
HETATM    6  O   UNL     1      -9.481  14.108  65.190  1.00  0.00    -0.478 OA 
HETATM    7  C   UNL     1     -11.702  14.168  65.778  1.00  0.00    -0.360 C  
HETATM    8  C   UNL     1     -12.240  15.084  64.721  1.00  0.00    -0.223 C  
HETATM    9  H   UNL     1      -8.732  14.683  65.289  1.00  0.00     0.000 HD 
HETATM   10  C   UNL     1     -10.418   8.363  70.355  1.00  0.00    -0.214 C  
HETATM   11  C   UNL     1      -9.866   9.200  68.237  1.00  0.00    -0.181 C  
HETATM   12  C   UNL     1     -12.146  14.167  67.638  1.00  0.00    -0.337 C  
HETATM   13  C   UNL     1      -9.337   7.789  66.192  1.00  0.00    -0.162 C  
HETATM   14  C   UNL     1     -11.132  13.082  68.519  1.00  0.00    -0.266 C  
HETATM   15  O   UNL     1      -9.906  13.801  68.749  1.00  0.00    -0.352 OA 
HETATM   16  C   UNL     1     -10.785  11.556  67.940  1.00  0.00    -0.241 C  
HETATM   17  C   UNL     1      -8.717  11.130  69.272  1.00  0.00     0.158 C  
HETATM   18  C   UNL     1     -10.095  10.563  68.941  1.00  0.00    -0.215 C  
HETATM   19  C   UNL     1     -11.135  10.307  70.153  1.00  0.00    -0.385 C  
HETATM   20  H   UNL     1      -9.348  13.204  69.233  1.00  0.00     0.000 HD 
HETATM   21  C   UNL     1     -10.121  11.544  66.361  1.00  0.00    -0.250 C  
HETATM   22  C   UNL     1     -10.018  10.115  65.851  1.00  0.00    -0.334 C  
HETATM   23  O   UNL     1      -9.667   8.132  71.287  1.00  0.00    -0.156 OA 
HETATM   24  C   UNL     1      -9.307   9.181  66.822  1.00  0.00    -0.213 C  
HETATM   25  C   UNL     1     -11.711   9.143  70.505  1.00  0.00    -0.193 C  
ENDROOT
BRANCH   4  26
HETATM   26  C   UNL     1     -10.223  15.743  66.794  1.00  0.00    -0.282 C  
HETATM   27  O   UNL     1     -10.850  16.263  67.733  1.00  0.00    -0.328 OA 
BRANCH  26  28
HETATM   28  C   UNL     1      -9.306  16.818  66.000  1.00  0.00    -0.210 C  
BRANCH  28  29
HETATM   29  O   UNL     1      -7.837  16.478  66.207  1.00  0.00    -0.306 OA 
BRANCH  29  30
HETATM   30  C   UNL     1      -7.383  15.850  67.345  1.00  0.00    -0.193 C  
HETATM   31  O   UNL     1      -7.172  14.648  67.411  1.00  0.00    -0.191 OA 
BRANCH  30  32
HETATM   32  C   UNL     1      -7.173  16.811  68.548  1.00  0.00    -0.194 C  
BRANCH  32  33
HETATM   33  C   UNL     1      -6.259  18.019  68.243  1.00  0.00    -0.183 C  
HETATM   34  C   UNL     1      -6.840  19.422  68.366  1.00  0.00    -0.282 C  
HETATM   35  O   UNL     1      -7.884  19.727  67.576  1.00  0.00    -0.265 OA 
HETATM   36  O   UNL     1      -6.381  20.256  69.137  1.00  0.00    -0.317 OA 
ENDBRANCH  32  33
ENDBRANCH  30  32
ENDBRANCH  29  30
ENDBRANCH  28  29
ENDBRANCH  26  28
ENDBRANCH   4  26
TORSDOF 6
ENDMDL
MODEL       21
REMARK 921   NORMALIZED FREE ENERGY PREDICTED BY IDOCK:   -6.56 KCAL/MOL
REMARK 922        TOTAL FREE ENERGY PREDICTED BY IDOCK:   -9.20 KCAL/MOL
REMARK 923 INTER-LIGAND FREE ENERGY PREDICTED BY IDOCK:   -9.37 KCAL/MOL
REMARK 924 INTRA-LIGAND FREE ENERGY PREDICTED BY IDOCK:    0.17 KCAL/MOL
REMARK 927      BINDING AFFINITY PREDICTED BY RF-SCORE:    0.00 PKD
ROOT
HETATM    1  C   UNL     1     -11.656  15.217  65.742  1.00  0.00    -0.097 C  
HETATM    2  C   UNL     1     -11.235  15.272  64.390  1.00  0.00    -0.191 C  
HETATM    3  C   UNL     1     -10.444  14.385  65.306  1.00  0.00    -0.410 C  
HETATM    4  C   UNL     1     -11.283  13.835  67.129  1.00  0.00    -0.311 C  
HETATM    5  C   UNL     1      -7.036  18.740  67.106  1.00  0.00    -0.206 C  
HETATM    6  O   UNL     1     -12.633  14.339  67.479  1.00  0.00    -0.513 OA 
HETATM    7  C   UNL     1     -11.355  13.310  65.870  1.00  0.00    -0.333 C  
HETATM    8  C   UNL     1     -12.402  12.499  65.167  1.00  0.00    -0.496 C  
HETATM    9  H   UNL     1     -13.017  14.088  68.311  1.00  0.00     0.000 HD 
HETATM   10  C   UNL     1      -5.806  18.073  67.548  1.00  0.00    -0.146 C  
HETATM   11  C   UNL     1      -8.131  17.973  67.270  1.00  0.00    -0.218 C  
HETATM   12  C   UNL     1      -9.587  12.754  66.338  1.00  0.00    -0.254 C  
HETATM   13  C   UNL     1      -9.593  19.871  66.427  1.00  0.00    -0.537 C  
HETATM   14  C   UNL     1      -8.802  13.936  67.323  1.00  0.00    -0.221 C  
HETATM   15  O   UNL     1      -9.293  13.711  68.658  1.00  0.00    -0.334 OA 
HETATM   16  C   UNL     1      -8.890  15.562  66.962  1.00  0.00    -0.255 C  
HETATM   17  C   UNL     1      -8.323  16.461  69.220  1.00  0.00    -0.101 C  
HETATM   18  C   UNL     1      -7.920  16.512  67.748  1.00  0.00    -0.171 C  
HETATM   19  C   UNL     1      -6.410  16.091  67.348  1.00  0.00    -0.206 C  
HETATM   20  H   UNL     1      -8.862  14.361  69.199  1.00  0.00     0.000 HD 
HETATM   21  C   UNL     1     -10.490  16.156  66.805  1.00  0.00    -0.294 C  
HETATM   22  C   UNL     1     -10.465  17.587  66.292  1.00  0.00    -0.283 C  
HETATM   23  O   UNL     1      -5.185  18.375  68.553  1.00  0.00    -0.167 OA 
HETATM   24  C   UNL     1      -9.548  18.499  67.099  1.00  0.00    -0.302 C  
HETATM   25  C   UNL     1      -5.491  16.844  66.717  1.00  0.00    -0.154 C  
ENDROOT
BRANCH   4  26
HETATM   26  C   UNL     1     -11.556  12.249  68.000  1.00  0.00    -0.349 C  
HETATM   27  O   UNL     1     -12.134  12.181  69.098  1.00  0.00    -0.267 OA 
BRANCH  26  28
HETATM   28  C   UNL     1     -10.975  10.814  67.522  1.00  0.00    -0.312 C  
BRANCH  28  29
HETATM   29  O   UNL     1     -10.690   9.953  68.744  1.00  0.00    -0.210 OA 
BRANCH  29  30
HETATM   30  C   UNL     1      -9.510  10.045  69.447  1.00  0.00    -0.223 C  
HETATM   31  O   UNL     1      -8.567  10.737  69.091  1.00  0.00    -0.150 OA 
BRANCH  30  32
HETATM   32  C   UNL     1      -9.479   9.174  70.734  1.00  0.00    -0.334 C  
BRANCH  32  33
HETATM   33  C   UNL     1     -10.679   8.213  70.877  1.00  0.00    -0.246 C  
HETATM   34  C   UNL     1     -11.378   8.115  72.228  1.00  0.00    -0.364 C  
HETATM   35  O   UNL     1     -10.639   7.707  73.274  1.00  0.00    -0.365 OA 
HETATM   36  O   UNL     1     -12.564   8.380  72.373  1.00  0.00    -0.354 OA 
ENDBRANCH  32  33
ENDBRANCH  30  32
ENDBRANCH  29  30
ENDBRANCH  28  29
ENDBRANCH  26  28
ENDBRANCH   4  26
TORSDOF 6
ENDMDL
MODEL       22
REMARK 921   NORMALIZED FREE ENERGY PREDICTED BY IDOCK:   -6.48 KCAL/MOL
REMARK 922        TOTAL FREE ENERGY PREDICTED BY IDOCK:   -9.10 KCAL/MOL
REMARK 923 INTER-LIGAND FREE ENERGY PREDICTED BY IDOCK:   -9.31 KCAL/MOL
REMARK 924 INTRA-LIGAND FREE ENERGY PREDICTED BY IDOCK:    0.21 KCAL/MOL
REMARK 927      BINDING AFFINITY PREDICTED BY RF-SCORE:    0.00 PKD
ROOT
HETATM    1  C   UNL     1      -9.961   9.479  65.864  1.00  0.00    -0.342 C  
HETATM    2  C   UNL     1      -8.865   9.862  65.052  1.00  0.00    -0.220 C  
HETATM    3  C   UNL     1      -8.703  10.047  66.533  1.00  0.00    -0.142 C  
HETATM    4  C   UNL     1     -10.007   9.046  67.809  1.00  0.00    -0.187 C  
HETATM    5  C   UNL     1     -11.254  15.273  66.483  1.00  0.00    -0.228 C  
HETATM    6  O   UNL     1     -11.064   8.184  67.225  1.00  0.00    -0.451 OA 
HETATM    7  C   UNL     1      -8.824   8.700  67.220  1.00  0.00    -0.141 C  
HETATM    8  C   UNL     1      -8.241   7.380  66.814  1.00  0.00    -0.121 C  
HETATM    9  H   UNL     1     -11.659   7.727  67.806  1.00  0.00     0.000 HD 
HETATM   10  C   UNL     1     -10.716  15.946  67.671  1.00  0.00    -0.312 C  
HETATM   11  C   UNL     1     -11.337  13.937  66.635  1.00  0.00    -0.342 C  
HETATM   12  C   UNL     1      -8.165   9.885  68.568  1.00  0.00    -0.106 C  
HETATM   13  C   UNL     1     -12.395  13.737  64.334  1.00  0.00    -0.389 C  
HETATM   14  C   UNL     1      -9.267  11.185  68.846  1.00  0.00    -0.096 C  
HETATM   15  O   UNL     1     -10.279  10.652  69.721  1.00  0.00    -0.402 OA 
HETATM   16  C   UNL     1      -9.992  11.992  67.579  1.00  0.00    -0.199 C  
HETATM   17  C   UNL     1     -11.924  12.959  68.830  1.00  0.00    -0.290 C  
HETATM   18  C   UNL     1     -10.745  13.323  67.931  1.00  0.00    -0.252 C  
HETATM   19  C   UNL     1      -9.641  14.364  68.492  1.00  0.00    -0.217 C  
HETATM   20  H   UNL     1     -10.885  11.368  69.873  1.00  0.00     0.000 HD 
HETATM   21  C   UNL     1     -10.832  10.970  66.491  1.00  0.00    -0.269 C  
HETATM   22  C   UNL     1     -11.292  11.766  65.279  1.00  0.00    -0.284 C  
HETATM   23  O   UNL     1     -11.379  16.632  68.428  1.00  0.00    -0.321 OA 
HETATM   24  C   UNL     1     -12.058  13.032  65.647  1.00  0.00    -0.507 C  
HETATM   25  C   UNL     1      -9.281  15.544  67.955  1.00  0.00    -0.187 C  
ENDROOT
BRANCH   4  26
HETATM   26  C   UNL     1      -9.807   7.957  69.266  1.00  0.00    -0.177 C  
HETATM   27  O   UNL     1     -10.631   7.074  69.558  1.00  0.00    -0.219 OA 
BRANCH  26  28
HETATM   28  C   UNL     1      -8.643   8.105  70.384  1.00  0.00    -0.131 C  
BRANCH  28  29
HETATM   29  O   UNL     1      -9.203   8.824  71.603  1.00  0.00    -0.231 OA 
BRANCH  29  30
HETATM   30  C   UNL     1      -9.431   8.176  72.796  1.00  0.00    -0.279 C  
HETATM   31  O   UNL     1      -8.545   7.903  73.593  1.00  0.00    -0.205 OA 
BRANCH  30  32
HETATM   32  C   UNL     1     -10.922   7.810  73.034  1.00  0.00    -0.442 C  
BRANCH  32  33
HETATM   33  C   UNL     1     -11.926   8.809  72.417  1.00  0.00    -0.369 C  
HETATM   34  C   UNL     1     -13.383   8.387  72.279  1.00  0.00    -0.266 C  
HETATM   35  O   UNL     1     -13.641   7.311  71.515  1.00  0.00    -0.388 OA 
HETATM   36  O   UNL     1     -14.297   8.995  72.821  1.00  0.00    -0.596 OA 
ENDBRANCH  32  33
ENDBRANCH  30  32
ENDBRANCH  29  30
ENDBRANCH  28  29
ENDBRANCH  26  28
ENDBRANCH   4  26
TORSDOF 6
ENDMDL
MODEL       23
REMARK 921   NORMALIZED FREE ENERGY PREDICTED BY IDOCK:   -6.46 KCAL/MOL
REMARK 922        TOTAL FREE ENERGY PREDICTED BY IDOCK:   -9.07 KCAL/MOL
REMARK 923 INTER-LIGAND FREE ENERGY PREDICTED BY IDOCK:   -9.28 KCAL/MOL
REMARK 924 INTRA-LIGAND FREE ENERGY PREDICTED BY IDOCK:    0.22 KCAL/MOL
REMARK 927      BINDING AFFINITY PREDICTED BY RF-SCORE:    0.00 PKD
ROOT
HETATM    1  C   UNL     1      -9.154  11.071  65.587  1.00  0.00    -0.223 C  
HETATM    2  C   UNL     1      -9.890  10.279  64.672  1.00  0.00    -0.396 C  
HETATM    3  C   UNL     1     -10.628  10.770  65.883  1.00  0.00    -0.216 C  
HETATM    4  C   UNL     1      -9.810  12.337  66.980  1.00  0.00    -0.205 C  
HETATM    5  C   UNL     1      -8.874   6.299  69.161  1.00  0.00    -0.128 C  
HETATM    6  O   UNL     1      -8.518  12.922  66.544  1.00  0.00    -0.420 OA 
HETATM    7  C   UNL     1     -10.627  12.287  65.887  1.00  0.00    -0.290 C  
HETATM    8  C   UNL     1     -10.853  13.232  64.745  1.00  0.00    -0.374 C  
HETATM    9  H   UNL     1      -8.144  13.637  67.045  1.00  0.00     0.000 HD 
HETATM   10  C   UNL     1      -9.902   6.195  70.204  1.00  0.00    -0.171 C  
HETATM   11  C   UNL     1      -8.703   7.562  68.725  1.00  0.00    -0.128 C  
HETATM   12  C   UNL     1     -11.885  11.791  67.237  1.00  0.00    -0.186 C  
HETATM   13  C   UNL     1      -6.826   6.785  67.200  1.00  0.00    -0.069 C  
HETATM   14  C   UNL     1     -11.133  10.845  68.471  1.00  0.00    -0.256 C  
HETATM   15  O   UNL     1     -10.482  11.792  69.338  1.00  0.00    -0.430 OA 
HETATM   16  C   UNL     1     -10.074   9.612  68.094  1.00  0.00    -0.205 C  
HETATM   17  C   UNL     1      -8.898   9.467  70.291  1.00  0.00    -0.281 C  
HETATM   18  C   UNL     1      -9.673   8.646  69.263  1.00  0.00    -0.173 C  
HETATM   19  C   UNL     1     -11.020   7.888  69.741  1.00  0.00    -0.148 C  
HETATM   20  H   UNL     1     -10.068  11.272  70.017  1.00  0.00     0.000 HD 
HETATM   21  C   UNL     1      -8.769  10.096  67.096  1.00  0.00    -0.131 C  
HETATM   22  C   UNL     1      -7.973   8.878  66.654  1.00  0.00    -0.103 C  
HETATM   23  O   UNL     1      -9.665   5.978  71.379  1.00  0.00    -0.163 OA 
HETATM   24  C   UNL     1      -7.559   7.978  67.812  1.00  0.00    -0.102 C  
HETATM   25  C   UNL     1     -11.279   6.569  69.689  1.00  0.00    -0.446 C  
ENDROOT
BRANCH   4  26
HETATM   26  C   UNL     1     -10.429  13.947  67.593  1.00  0.00    -0.245 C  
HETATM   27  O   UNL     1     -11.614  14.126  67.920  1.00  0.00    -0.299 OA 
BRANCH  26  28
HETATM   28  C   UNL     1      -9.563  15.315  67.647  1.00  0.00    -0.206 C  
BRANCH  28  29
HETATM   29  O   UNL     1     -10.507  16.509  67.649  1.00  0.00    -0.291 OA 
BRANCH  29  30
HETATM   30  C   UNL     1     -10.533  17.424  66.620  1.00  0.00    -0.253 C  
HETATM   31  O   UNL     1     -10.476  17.112  65.440  1.00  0.00    -0.633 OA 
BRANCH  30  32
HETATM   32  C   UNL     1     -10.630  18.899  67.099  1.00  0.00    -0.531 C  
BRANCH  32  33
HETATM   33  C   UNL     1      -9.709  19.875  66.333  1.00  0.00    -0.558 C  
HETATM   34  C   UNL     1      -8.201  19.693  66.444  1.00  0.00    -0.337 C  
HETATM   35  O   UNL     1      -7.658  19.791  67.670  1.00  0.00    -0.266 OA 
HETATM   36  O   UNL     1      -7.492  19.479  65.468  1.00  0.00    -0.420 OA 
ENDBRANCH  32  33
ENDBRANCH  30  32
ENDBRANCH  29  30
ENDBRANCH  28  29
ENDBRANCH  26  28
ENDBRANCH   4  26
TORSDOF 6
ENDMDL
MODEL       24
REMARK 921   NORMALIZED FREE ENERGY PREDICTED BY IDOCK:   -6.44 KCAL/MOL
REMARK 922        TOTAL FREE ENERGY PREDICTED BY IDOCK:   -9.04 KCAL/MOL
REMARK 923 INTER-LIGAND FREE ENERGY PREDICTED BY IDOCK:   -9.03 KCAL/MOL
REMARK 924 INTRA-LIGAND FREE ENERGY PREDICTED BY IDOCK:   -0.01 KCAL/MOL
REMARK 927      BINDING AFFINITY PREDICTED BY RF-SCORE:    0.00 PKD
ROOT
HETATM    1  C   UNL     1      -9.523  13.623  68.013  1.00  0.00    -0.209 C  
HETATM    2  C   UNL     1     -10.288  13.804  69.191  1.00  0.00     0.010 C  
HETATM    3  C   UNL     1     -10.800  14.469  67.946  1.00  0.00    -0.260 C  
HETATM    4  C   UNL     1     -10.061  13.839  66.106  1.00  0.00    -0.307 C  
HETATM    5  C   UNL     1      -7.494  19.191  68.725  1.00  0.00    -0.379 C  
HETATM    6  O   UNL     1      -9.046  12.757  66.072  1.00  0.00    -0.436 OA 
HETATM    7  C   UNL     1     -11.089  13.411  66.899  1.00  0.00    -0.309 C  
HETATM    8  C   UNL     1     -11.755  12.078  67.065  1.00  0.00    -0.341 C  
HETATM    9  H   UNL     1      -8.709  12.469  65.232  1.00  0.00     0.000 HD 
HETATM   10  C   UNL     1      -8.207  20.249  68.000  1.00  0.00    -0.090 C  
HETATM   11  C   UNL     1      -7.677  17.973  68.178  1.00  0.00    -0.274 C  
HETATM   12  C   UNL     1     -11.872  15.014  66.212  1.00  0.00    -0.024 C  
HETATM   13  C   UNL     1      -6.101  16.961  69.894  1.00  0.00    -0.190 C  
HETATM   14  C   UNL     1     -10.682  16.247  66.001  1.00  0.00    -0.214 C  
HETATM   15  O   UNL     1     -10.038  15.951  64.748  1.00  0.00    -0.412 OA 
HETATM   16  C   UNL     1      -9.526  16.545  67.166  1.00  0.00    -0.246 C  
HETATM   17  C   UNL     1      -7.858  17.715  65.725  1.00  0.00     0.068 C  
HETATM   18  C   UNL     1      -8.682  17.857  67.002  1.00  0.00    -0.254 C  
HETATM   19  C   UNL     1      -9.706  19.103  67.123  1.00  0.00    -0.393 C  
HETATM   20  H   UNL     1      -9.384  16.629  64.632  1.00  0.00     0.000 HD 
HETATM   21  C   UNL     1      -8.612  15.165  67.609  1.00  0.00    -0.180 C  
HETATM   22  C   UNL     1      -7.724  15.490  68.801  1.00  0.00    -0.159 C  
HETATM   23  O   UNL     1      -7.661  21.092  67.309  1.00  0.00    -0.313 OA 
HETATM   24  C   UNL     1      -6.883  16.745  68.599  1.00  0.00    -0.175 C  
HETATM   25  C   UNL     1      -9.712  20.070  68.058  1.00  0.00    -0.492 C  
ENDROOT
BRANCH   4  26
HETATM   26  C   UNL     1     -10.814  13.297  64.529  1.00  0.00    -0.394 C  
HETATM   27  O   UNL     1     -11.891  13.756  64.110  1.00  0.00    -0.414 OA 
BRANCH  26  28
HETATM   28  C   UNL     1     -10.254  12.098  63.595  1.00  0.00    -0.433 C  
BRANCH  28  29
HETATM   29  O   UNL     1     -10.530  10.762  64.270  1.00  0.00    -0.367 OA 
BRANCH  29  30
HETATM   30  C   UNL     1      -9.533   9.847  64.520  1.00  0.00    -0.264 C  
HETATM   31  O   UNL     1      -8.804   9.391  63.650  1.00  0.00    -0.221 OA 
BRANCH  30  32
HETATM   32  C   UNL     1      -9.424   9.433  66.014  1.00  0.00    -0.304 C  
BRANCH  32  33
HETATM   33  C   UNL     1      -9.380   7.907  66.247  1.00  0.00    -0.225 C  
HETATM   34  C   UNL     1     -10.353   7.294  67.247  1.00  0.00    -0.279 C  
HETATM   35  O   UNL     1     -10.272   7.717  68.521  1.00  0.00    -0.190 OA 
HETATM   36  O   UNL     1     -11.172   6.442  66.928  1.00  0.00    -0.368 OA 
ENDBRANCH  32  33
ENDBRANCH  30  32
ENDBRANCH  29  30
ENDBRANCH  28  29
ENDBRANCH  26  28
ENDBRANCH   4  26
TORSDOF 6
ENDMDL
MODEL       25
REMARK 921   NORMALIZED FREE ENERGY PREDICTED BY IDOCK:   -6.43 KCAL/MOL
REMARK 922        TOTAL FREE ENERGY PREDICTED BY IDOCK:   -9.04 KCAL/MOL
REMARK 923 INTER-LIGAND FREE ENERGY PREDICTED BY IDOCK:   -9.71 KCAL/MOL
REMARK 924 INTRA-LIGAND FREE ENERGY PREDICTED BY IDOCK:    0.68 KCAL/MOL
REMARK 927      BINDING AFFINITY PREDICTED BY RF-SCORE:    0.00 PKD
ROOT
HETATM    1  C   UNL     1     -11.908  12.231  69.080  1.00  0.00    -0.355 C  
HETATM    2  C   UNL     1     -11.734  13.124  70.166  1.00  0.00    -0.250 C  
HETATM    3  C   UNL     1     -10.507  12.410  69.678  1.00  0.00     0.695 C  
HETATM    4  C   UNL     1     -10.557  11.513  67.802  1.00  0.00    -0.192 C  
HETATM    5  C   UNL     1     -11.519   7.738  72.990  1.00  0.00    -0.263 C  
HETATM    6  O   UNL     1     -11.803  11.595  67.000  1.00  0.00    -0.591 OA 
HETATM    7  C   UNL     1     -10.260  12.777  68.227  1.00  0.00    -0.245 C  
HETATM    8  C   UNL     1     -10.355  14.118  67.565  1.00  0.00    -0.248 C  
HETATM    9  H   UNL     1     -11.827  11.185  66.143  1.00  0.00     0.000 HD 
HETATM   10  C   UNL     1     -10.194   7.132  73.169  1.00  0.00    -0.276 C  
HETATM   11  C   UNL     1     -11.641   8.380  71.812  1.00  0.00    -0.372 C  
HETATM   12  C   UNL     1      -8.669  11.878  68.787  1.00  0.00     0.056 C  
HETATM   13  C   UNL     1     -14.068   8.907  72.348  1.00  0.00    -0.493 C  
HETATM   14  C   UNL     1      -9.013  10.267  69.306  1.00  0.00    -0.179 C  
HETATM   15  O   UNL     1      -9.105   9.486  68.100  1.00  0.00    -0.127 OA 
HETATM   16  C   UNL     1     -10.319   9.934  70.288  1.00  0.00    -0.339 C  
HETATM   17  C   UNL     1     -10.536   7.499  69.782  1.00  0.00    -0.245 C  
HETATM   18  C   UNL     1     -10.375   8.500  70.923  1.00  0.00    -0.245 C  
HETATM   19  C   UNL     1      -9.092   8.358  71.897  1.00  0.00    -0.288 C  
HETATM   20  H   UNL     1      -9.295   8.600  68.386  1.00  0.00     0.000 HD 
HETATM   21  C   UNL     1     -11.817  10.494  69.672  1.00  0.00    -0.306 C  
HETATM   22  C   UNL     1     -12.908  10.316  70.715  1.00  0.00    -0.427 C  
HETATM   23  O   UNL     1      -9.977   5.934  73.126  1.00  0.00    -0.169 OA 
HETATM   24  C   UNL     1     -12.969   8.903  71.285  1.00  0.00    -0.255 C  
HETATM   25  C   UNL     1      -9.092   8.173  73.230  1.00  0.00    -0.327 C  
ENDROOT
BRANCH   4  26
HETATM   26  C   UNL     1      -9.495  11.570  66.313  1.00  0.00    -0.217 C  
HETATM   27  O   UNL     1      -8.294  11.252  66.337  1.00  0.00    -0.165 OA 
BRANCH  26  28
HETATM   28  C   UNL     1      -9.946  12.154  64.871  1.00  0.00    -0.212 C  
BRANCH  28  29
HETATM   29  O   UNL     1     -11.283  11.543  64.475  1.00  0.00    -0.305 OA 
BRANCH  29  30
HETATM   30  C   UNL     1     -12.367  12.315  64.125  1.00  0.00    -0.451 C  
HETATM   31  O   UNL     1     -13.526  11.957  64.278  1.00  0.00    -0.545 OA 
BRANCH  30  32
HETATM   32  C   UNL     1     -11.983  13.687  63.503  1.00  0.00    -0.301 C  
BRANCH  32  33
HETATM   33  C   UNL     1     -12.307  14.902  64.400  1.00  0.00    -0.342 C  
HETATM   34  C   UNL     1     -11.251  15.987  64.566  1.00  0.00    -0.297 C  
HETATM   35  O   UNL     1     -10.074  15.623  65.102  1.00  0.00    -0.375 OA 
HETATM   36  O   UNL     1     -11.452  17.152  64.244  1.00  0.00    -1.062 OA 
ENDBRANCH  32  33
ENDBRANCH  30  32
ENDBRANCH  29  30
ENDBRANCH  28  29
ENDBRANCH  26  28
ENDBRANCH   4  26
TORSDOF 6
ENDMDL
MODEL       26
REMARK 921   NORMALIZED FREE ENERGY PREDICTED BY IDOCK:   -6.30 KCAL/MOL
REMARK 922        TOTAL FREE ENERGY PREDICTED BY IDOCK:   -8.86 KCAL/MOL
REMARK 923 INTER-LIGAND FREE ENERGY PREDICTED BY IDOCK:   -8.83 KCAL/MOL
REMARK 924 INTRA-LIGAND FREE ENERGY PREDICTED BY IDOCK:   -0.03 KCAL/MOL
REMARK 927      BINDING AFFINITY PREDICTED BY RF-SCORE:    0.00 PKD
ROOT
HETATM    1  C   UNL     1     -11.738  14.197  68.685  1.00  0.00    -0.385 C  
HETATM    2  C   UNL     1     -11.067  14.859  69.743  1.00  0.00    -0.300 C  
HETATM    3  C   UNL     1     -10.204  14.210  68.701  1.00  0.00    -0.238 C  
HETATM    4  C   UNL     1     -11.064  13.692  66.878  1.00  0.00    -0.304 C  
HETATM    5  C   UNL     1     -10.368   9.026  71.332  1.00  0.00    -0.396 C  
HETATM    6  O   UNL     1     -12.505  13.969  66.659  1.00  0.00    -0.496 OA 
HETATM    7  C   UNL     1     -10.493  14.840  67.351  1.00  0.00    -0.256 C  
HETATM    8  C   UNL     1     -10.690  16.286  67.009  1.00  0.00    -0.233 C  
HETATM    9  H   UNL     1     -12.898  13.733  65.828  1.00  0.00     0.000 HD 
HETATM   10  C   UNL     1      -9.149   8.352  70.871  1.00  0.00    -0.160 C  
HETATM   11  C   UNL     1     -10.862   9.887  70.421  1.00  0.00    -0.380 C  
HETATM   12  C   UNL     1      -8.915  13.795  67.081  1.00  0.00    -0.241 C  
HETATM   13  C   UNL     1     -12.828  10.385  71.951  1.00  0.00    -0.519 C  
HETATM   14  C   UNL     1      -9.206  12.128  67.424  1.00  0.00    -0.182 C  
HETATM   15  O   UNL     1      -9.835  11.596  66.243  1.00  0.00    -0.207 OA 
HETATM   16  C   UNL     1     -10.065  11.658  68.774  1.00  0.00    -0.169 C  
HETATM   17  C   UNL     1     -10.719   9.375  68.005  1.00  0.00    -0.246 C  
HETATM   18  C   UNL     1     -10.027  10.132  69.137  1.00  0.00    -0.221 C  
HETATM   19  C   UNL     1      -8.492   9.760  69.486  1.00  0.00    -0.176 C  
HETATM   20  H   UNL     1      -9.995  10.679  66.432  1.00  0.00     0.000 HD 
HETATM   21  C   UNL     1     -11.614  12.378  68.901  1.00  0.00    -0.364 C  
HETATM   22  C   UNL     1     -12.236  12.040  70.246  1.00  0.00    -0.348 C  
HETATM   23  O   UNL     1      -9.095   7.178  70.552  1.00  0.00    -0.154 OA 
HETATM   24  C   UNL     1     -12.226  10.547  70.556  1.00  0.00    -0.435 C  
HETATM   25  C   UNL     1      -8.003   9.324  70.661  1.00  0.00    -0.189 C  
ENDROOT
BRANCH   4  26
HETATM   26  C   UNL     1     -10.652  13.997  65.122  1.00  0.00    -0.386 C  
HETATM   27  O   UNL     1     -10.075  15.030  64.741  1.00  0.00    -0.256 OA 
BRANCH  26  28
HETATM   28  C   UNL     1     -11.099  13.052  63.884  1.00  0.00    -0.371 C  
BRANCH  28  29
HETATM   29  O   UNL     1      -9.863  12.419  63.261  1.00  0.00    -0.360 OA 
BRANCH  29  30
HETATM   30  C   UNL     1      -9.673  11.056  63.231  1.00  0.00    -0.364 C  
HETATM   31  O   UNL     1     -10.451  10.257  63.733  1.00  0.00     0.155 OA 
BRANCH  30  32
HETATM   32  C   UNL     1      -8.368  10.622  62.507  1.00  0.00    -0.242 C  
BRANCH  32  33
HETATM   33  C   UNL     1      -7.563   9.535  63.252  1.00  0.00    -0.115 C  
HETATM   34  C   UNL     1      -7.497   9.589  64.773  1.00  0.00    -0.112 C  
HETATM   35  O   UNL     1      -6.953  10.687  65.326  1.00  0.00    -0.090 OA 
HETATM   36  O   UNL     1      -7.906   8.676  65.480  1.00  0.00    -0.092 OA 
ENDBRANCH  32  33
ENDBRANCH  30  32
ENDBRANCH  29  30
ENDBRANCH  28  29
ENDBRANCH  26  28
ENDBRANCH   4  26
TORSDOF 6
ENDMDL
MODEL       27
REMARK 921   NORMALIZED FREE ENERGY PREDICTED BY IDOCK:   -6.30 KCAL/MOL
REMARK 922        TOTAL FREE ENERGY PREDICTED BY IDOCK:   -8.85 KCAL/MOL
REMARK 923 INTER-LIGAND FREE ENERGY PREDICTED BY IDOCK:   -8.94 KCAL/MOL
REMARK 924 INTRA-LIGAND FREE ENERGY PREDICTED BY IDOCK:    0.08 KCAL/MOL
REMARK 927      BINDING AFFINITY PREDICTED BY RF-SCORE:    0.00 PKD
ROOT
HETATM    1  C   UNL     1     -10.132   9.657  66.009  1.00  0.00    -0.318 C  
HETATM    2  C   UNL     1      -9.048   9.654  65.098  1.00  0.00    -0.279 C  
HETATM    3  C   UNL     1      -8.793  10.262  66.447  1.00  0.00    -0.158 C  
HETATM    4  C   UNL     1     -10.119   9.843  67.994  1.00  0.00    -0.171 C  
HETATM    5  C   UNL     1     -10.823  15.469  64.839  1.00  0.00    -0.447 C  
HETATM    6  O   UNL     1     -11.284   8.965  67.724  1.00  0.00    -0.442 OA 
HETATM    7  C   UNL     1      -9.008   9.208  67.517  1.00  0.00    -0.131 C  
HETATM    8  C   UNL     1      -8.578   7.772  67.526  1.00  0.00    -0.122 C  
HETATM    9  H   UNL     1     -11.890   8.773  68.430  1.00  0.00     0.000 HD 
HETATM   10  C   UNL     1     -10.161  16.408  65.752  1.00  0.00    -0.327 C  
HETATM   11  C   UNL     1     -11.027  14.260  65.397  1.00  0.00    -0.335 C  
HETATM   12  C   UNL     1      -8.168  10.668  68.422  1.00  0.00    -0.125 C  
HETATM   13  C   UNL     1     -12.218  13.485  63.291  1.00  0.00    -0.214 C  
HETATM   14  C   UNL     1      -9.122  12.103  68.307  1.00  0.00    -0.191 C  
HETATM   15  O   UNL     1     -10.134  11.975  69.323  1.00  0.00    -0.410 OA 
HETATM   16  C   UNL     1      -9.831  12.560  66.868  1.00  0.00    -0.229 C  
HETATM   17  C   UNL     1     -11.592  14.065  67.798  1.00  0.00    -0.378 C  
HETATM   18  C   UNL     1     -10.431  14.009  66.807  1.00  0.00    -0.277 C  
HETATM   19  C   UNL     1      -9.204  15.044  66.999  1.00  0.00    -0.246 C  
HETATM   20  H   UNL     1     -10.659  12.764  69.260  1.00  0.00     0.000 HD 
HETATM   21  C   UNL     1     -10.821  11.353  66.164  1.00  0.00    -0.310 C  
HETATM   22  C   UNL     1     -11.264  11.788  64.776  1.00  0.00    -0.333 C  
HETATM   23  O   UNL     1     -10.714  17.360  66.275  1.00  0.00    -0.227 OA 
HETATM   24  C   UNL     1     -11.883  13.181  64.751  1.00  0.00    -0.413 C  
HETATM   25  C   UNL     1      -8.759  15.959  66.118  1.00  0.00    -0.328 C  
ENDROOT
BRANCH   4  26
HETATM   26  C   UNL     1      -9.951   9.234  69.711  1.00  0.00    -0.199 C  
HETATM   27  O   UNL     1      -8.920   9.409  70.384  1.00  0.00    -0.218 OA 
BRANCH  26  28
HETATM   28  C   UNL     1     -11.036   8.309  70.480  1.00  0.00    -0.249 C  
BRANCH  28  29
HETATM   29  O   UNL     1     -10.786   8.379  71.980  1.00  0.00    -0.272 OA 
BRANCH  29  30
HETATM   30  C   UNL     1     -10.840   7.264  72.785  1.00  0.00    -0.314 C  
HETATM   31  O   UNL     1     -10.550   7.276  73.972  1.00  0.00    -0.313 OA 
BRANCH  30  32
HETATM   32  C   UNL     1     -11.292   5.977  72.040  1.00  0.00    -0.345 C  
BRANCH  32  33
HETATM   33  C   UNL     1     -10.257   4.830  72.069  1.00  0.00    -0.261 C  
HETATM   34  C   UNL     1      -8.977   4.984  71.258  1.00  0.00    -0.138 C  
HETATM   35  O   UNL     1      -9.105   5.134  69.928  1.00  0.00    -0.117 OA 
HETATM   36  O   UNL     1      -7.867   4.961  71.775  1.00  0.00    -0.101 OA 
ENDBRANCH  32  33
ENDBRANCH  30  32
ENDBRANCH  29  30
ENDBRANCH  28  29
ENDBRANCH  26  28
ENDBRANCH   4  26
TORSDOF 6
ENDMDL
MODEL       28
REMARK 921   NORMALIZED FREE ENERGY PREDICTED BY IDOCK:   -6.28 KCAL/MOL
REMARK 922        TOTAL FREE ENERGY PREDICTED BY IDOCK:   -8.83 KCAL/MOL
REMARK 923 INTER-LIGAND FREE ENERGY PREDICTED BY IDOCK:   -9.70 KCAL/MOL
REMARK 924 INTRA-LIGAND FREE ENERGY PREDICTED BY IDOCK:    0.87 KCAL/MOL
REMARK 927      BINDING AFFINITY PREDICTED BY RF-SCORE:    0.00 PKD
ROOT
HETATM    1  C   UNL     1     -10.596   6.058  70.409  1.00  0.00    -0.332 C  
HETATM    2  C   UNL     1      -9.338   5.573  70.843  1.00  0.00    -0.191 C  
HETATM    3  C   UNL     1      -9.543   7.059  70.897  1.00  0.00    -0.167 C  
HETATM    4  C   UNL     1     -11.484   7.801  70.793  1.00  0.00    -0.272 C  
HETATM    5  C   UNL     1      -7.945   7.804  65.354  1.00  0.00    -0.125 C  
HETATM    6  O   UNL     1     -12.611   6.846  70.660  1.00  0.00    -0.571 OA 
HETATM    7  C   UNL     1     -10.701   7.369  71.826  1.00  0.00    -0.242 C  
HETATM    8  C   UNL     1     -11.024   6.770  73.162  1.00  0.00    -0.279 C  
HETATM    9  H   UNL     1     -13.498   7.184  70.613  1.00  0.00     0.000 HD 
HETATM   10  C   UNL     1      -7.483   9.195  65.299  1.00  0.00    -0.097 C  
HETATM   11  C   UNL     1      -8.912   7.614  66.273  1.00  0.00    -0.203 C  
HETATM   12  C   UNL     1      -9.870   9.058  71.490  1.00  0.00    -0.381 C  
HETATM   13  C   UNL     1      -9.106   5.180  65.571  1.00  0.00    -0.157 C  
HETATM   14  C   UNL     1      -9.887   9.436  69.805  1.00  0.00    -0.201 C  
HETATM   15  O   UNL     1     -11.202   9.961  69.542  1.00  0.00    -0.289 OA 
HETATM   16  C   UNL     1      -9.502   8.291  68.656  1.00  0.00    -0.147 C  
HETATM   17  C   UNL     1     -10.606   9.367  66.693  1.00  0.00    -0.170 C  
HETATM   18  C   UNL     1      -9.275   8.809  67.193  1.00  0.00    -0.167 C  
HETATM   19  C   UNL     1      -7.992   9.793  67.227  1.00  0.00    -0.106 C  
HETATM   20  H   UNL     1     -11.211  10.168  68.615  1.00  0.00     0.000 HD 
HETATM   21  C   UNL     1     -10.432   6.856  68.763  1.00  0.00    -0.223 C  
HETATM   22  C   UNL     1      -9.883   5.808  67.807  1.00  0.00    -0.144 C  
HETATM   23  O   UNL     1      -7.730   9.963  64.386  1.00  0.00    -0.132 OA 
HETATM   24  C   UNL     1      -9.713   6.324  66.383  1.00  0.00    -0.146 C  
HETATM   25  C   UNL     1      -6.817   9.629  66.592  1.00  0.00    -0.084 C  
ENDROOT
BRANCH   4  26
HETATM   26  C   UNL     1     -12.477   8.966  71.795  1.00  0.00    -0.362 C  
HETATM   27  O   UNL     1     -12.634   8.827  73.020  1.00  0.00    -0.225 OA 
BRANCH  26  28
HETATM   28  C   UNL     1     -13.350  10.193  71.199  1.00  0.00    -0.295 C  
BRANCH  28  29
HETATM   29  O   UNL     1     -13.239  11.391  72.132  1.00  0.00    -0.490 OA 
BRANCH  29  30
HETATM   30  C   UNL     1     -13.114  12.678  71.660  1.00  0.00    -0.323 C  
HETATM   31  O   UNL     1     -12.319  13.002  70.790  1.00  0.00    -0.363 OA 
BRANCH  30  32
HETATM   32  C   UNL     1     -14.073  13.691  72.346  1.00  0.00    -0.586 C  
BRANCH  32  33
HETATM   33  C   UNL     1     -13.840  15.162  71.936  1.00  0.00    -0.607 C  
HETATM   34  C   UNL     1     -12.783  15.968  72.680  1.00  0.00    -0.438 C  
HETATM   35  O   UNL     1     -12.951  16.130  74.003  1.00  0.00    -0.668 OA 
HETATM   36  O   UNL     1     -11.819  16.466  72.112  1.00  0.00    -0.525 OA 
ENDBRANCH  32  33
ENDBRANCH  30  32
ENDBRANCH  29  30
ENDBRANCH  28  29
ENDBRANCH  26  28
ENDBRANCH   4  26
TORSDOF 6
ENDMDL
MODEL       29
REMARK 921   NORMALIZED FREE ENERGY PREDICTED BY IDOCK:   -6.28 KCAL/MOL
REMARK 922        TOTAL FREE ENERGY PREDICTED BY IDOCK:   -8.83 KCAL/MOL
REMARK 923 INTER-LIGAND FREE ENERGY PREDICTED BY IDOCK:   -8.71 KCAL/MOL
REMARK 924 INTRA-LIGAND FREE ENERGY PREDICTED BY IDOCK:   -0.12 KCAL/MOL
REMARK 927      BINDING AFFINITY PREDICTED BY RF-SCORE:    0.00 PKD
ROOT
HETATM    1  C   UNL     1     -10.656  12.645  64.183  1.00  0.00    -0.434 C  
HETATM    2  C   UNL     1     -11.808  12.126  63.543  1.00  0.00    -0.597 C  
HETATM    3  C   UNL     1     -11.811  12.119  65.044  1.00  0.00    -0.357 C  
HETATM    4  C   UNL     1     -10.437  13.316  66.048  1.00  0.00    -0.286 C  
HETATM    5  C   UNL     1      -9.025   7.023  65.344  1.00  0.00     0.178 C  
HETATM    6  O   UNL     1      -9.487  14.137  65.257  1.00  0.00    -0.514 OA 
HETATM    7  C   UNL     1     -11.688  13.544  65.550  1.00  0.00    -0.361 C  
HETATM    8  C   UNL     1     -12.373  14.782  65.053  1.00  0.00    -0.209 C  
HETATM    9  H   UNL     1      -8.860  14.684  65.715  1.00  0.00     0.000 HD 
HETATM   10  C   UNL     1      -9.409   6.482  66.654  1.00  0.00    -0.158 C  
HETATM   11  C   UNL     1      -8.993   8.369  65.328  1.00  0.00    -0.055 C  
HETATM   12  C   UNL     1     -12.150  12.510  67.090  1.00  0.00    -0.135 C  
HETATM   13  C   UNL     1      -8.181   8.324  62.921  1.00  0.00    -0.134 C  
HETATM   14  C   UNL     1     -10.964  11.295  67.403  1.00  0.00    -0.282 C  
HETATM   15  O   UNL     1      -9.897  11.968  68.097  1.00  0.00    -0.190 OA 
HETATM   16  C   UNL     1     -10.330  10.365  66.171  1.00  0.00    -0.269 C  
HETATM   17  C   UNL     1      -8.238   9.630  67.318  1.00  0.00    -0.114 C  
HETATM   18  C   UNL     1      -9.482   9.116  66.597  1.00  0.00    -0.242 C  
HETATM   19  C   UNL     1     -10.472   8.113  67.390  1.00  0.00    -0.356 C  
HETATM   20  H   UNL     1      -9.245  11.299  68.269  1.00  0.00     0.000 HD 
HETATM   21  C   UNL     1      -9.654  11.276  64.887  1.00  0.00    -0.266 C  
HETATM   22  C   UNL     1      -9.279  10.354  63.737  1.00  0.00    -0.302 C  
HETATM   23  O   UNL     1      -8.641   5.918  67.414  1.00  0.00    -0.108 OA 
HETATM   24  C   UNL     1      -8.420   9.172  64.170  1.00  0.00    -0.198 C  
HETATM   25  C   UNL     1     -10.826   6.863  67.038  1.00  0.00    -0.436 C  
ENDROOT
BRANCH   4  26
HETATM   26  C   UNL     1     -10.543  14.567  67.378  1.00  0.00    -0.271 C  
HETATM   27  O   UNL     1      -9.544  15.160  67.819  1.00  0.00    -0.202 OA 
BRANCH  26  28
HETATM   28  C   UNL     1     -11.888  14.935  68.203  1.00  0.00    -0.278 C  
BRANCH  28  29
HETATM   29  O   UNL     1     -11.507  15.491  69.568  1.00  0.00    -0.285 OA 
BRANCH  29  30
HETATM   30  C   UNL     1     -11.791  14.822  70.737  1.00  0.00    -0.312 C  
HETATM   31  O   UNL     1     -11.226  15.048  71.797  1.00  0.00    -0.340 OA 
BRANCH  30  32
HETATM   32  C   UNL     1     -12.894  13.737  70.584  1.00  0.00    -0.262 C  
BRANCH  32  33
HETATM   33  C   UNL     1     -12.694  12.500  71.488  1.00  0.00    -0.325 C  
HETATM   34  C   UNL     1     -12.395  11.158  70.830  1.00  0.00    -0.399 C  
HETATM   35  O   UNL     1     -13.317  10.669  69.983  1.00  0.00     0.040 OA 
HETATM   36  O   UNL     1     -11.370  10.529  71.061  1.00  0.00    -0.257 OA 
ENDBRANCH  32  33
ENDBRANCH  30  32
ENDBRANCH  29  30
ENDBRANCH  28  29
ENDBRANCH  26  28
ENDBRANCH   4  26
TORSDOF 6
ENDMDL
MODEL       30
REMARK 921   NORMALIZED FREE ENERGY PREDICTED BY IDOCK:   -6.28 KCAL/MOL
REMARK 922        TOTAL FREE ENERGY PREDICTED BY IDOCK:   -8.82 KCAL/MOL
REMARK 923 INTER-LIGAND FREE ENERGY PREDICTED BY IDOCK:   -9.22 KCAL/MOL
REMARK 924 INTRA-LIGAND FREE ENERGY PREDICTED BY IDOCK:    0.39 KCAL/MOL
REMARK 927      BINDING AFFINITY PREDICTED BY RF-SCORE:    0.00 PKD
ROOT
HETATM    1  C   UNL     1     -11.446  11.140  68.340  1.00  0.00    -0.377 C  
HETATM    2  C   UNL     1     -11.033  10.970  69.684  1.00  0.00    -0.286 C  
HETATM    3  C   UNL     1     -10.031  11.572  68.742  1.00  0.00    -0.169 C  
HETATM    4  C   UNL     1     -10.704  12.334  66.927  1.00  0.00    -0.232 C  
HETATM    5  C   UNL     1      -8.129   6.379  66.939  1.00  0.00    -0.109 C  
HETATM    6  O   UNL     1     -12.151  12.258  66.608  1.00  0.00    -0.612 OA 
HETATM    7  C   UNL     1     -10.589  12.866  68.180  1.00  0.00    -0.249 C  
HETATM    8  C   UNL     1     -11.328  13.960  68.891  1.00  0.00    -0.319 C  
HETATM    9  H   UNL     1     -12.459  12.606  65.780  1.00  0.00     0.000 HD 
HETATM   10  C   UNL     1      -6.765   6.643  66.467  1.00  0.00    -0.056 C  
HETATM   11  C   UNL     1      -8.946   7.440  66.785  1.00  0.00    -0.159 C  
HETATM   12  C   UNL     1      -8.745  12.861  67.673  1.00  0.00    -0.185 C  
HETATM   13  C   UNL     1     -10.893   6.075  67.680  1.00  0.00    -0.386 C  
HETATM   14  C   UNL     1      -8.374  11.491  66.690  1.00  0.00    -0.167 C  
HETATM   15  O   UNL     1      -8.803  11.843  65.361  1.00  0.00    -0.401 OA 
HETATM   16  C   UNL     1      -8.939   9.969  67.075  1.00  0.00    -0.152 C  
HETATM   17  C   UNL     1      -8.716   8.924  64.819  1.00  0.00    -0.162 C  
HETATM   18  C   UNL     1      -8.316   8.766  66.284  1.00  0.00    -0.120 C  
HETATM   19  C   UNL     1      -6.741   8.716  66.651  1.00  0.00    -0.068 C  
HETATM   20  H   UNL     1      -8.598  11.089  64.821  1.00  0.00     0.000 HD 
HETATM   21  C   UNL     1     -10.639   9.885  67.268  1.00  0.00    -0.316 C  
HETATM   22  C   UNL     1     -11.035   8.516  67.800  1.00  0.00     0.093 C  
HETATM   23  O   UNL     1      -6.286   6.160  65.455  1.00  0.00    -0.035 OA 
HETATM   24  C   UNL     1     -10.452   7.365  66.989  1.00  0.00    -0.404 C  
HETATM   25  C   UNL     1      -6.077   7.726  67.276  1.00  0.00    -0.049 C  
ENDROOT
BRANCH   4  26
HETATM   26  C   UNL     1     -10.507  13.923  66.040  1.00  0.00    -0.298 C  
HETATM   27  O   UNL     1     -10.582  14.011  64.803  1.00  0.00    -0.397 OA 
BRANCH  26  28
HETATM   28  C   UNL     1     -10.089  15.327  66.731  1.00  0.00    -0.258 C  
BRANCH  28  29
HETATM   29  O   UNL     1      -9.756  16.343  65.647  1.00  0.00    -0.492 OA 
BRANCH  29  30
HETATM   30  C   UNL     1     -10.666  17.283  65.219  1.00  0.00    -0.010 C  
HETATM   31  O   UNL     1     -11.469  17.081  64.320  1.00  0.00    -1.124 OA 
BRANCH  30  32
HETATM   32  C   UNL     1     -10.572  18.636  65.977  1.00  0.00    -0.410 C  
BRANCH  32  33
HETATM   33  C   UNL     1      -9.159  18.969  66.506  1.00  0.00    -0.348 C  
HETATM   34  C   UNL     1      -8.914  18.928  68.009  1.00  0.00    -0.305 C  
HETATM   35  O   UNL     1      -9.640  19.762  68.773  1.00  0.00    -0.361 OA 
HETATM   36  O   UNL     1      -8.087  18.183  68.518  1.00  0.00    -0.294 OA 
ENDBRANCH  32  33
ENDBRANCH  30  32
ENDBRANCH  29  30
ENDBRANCH  28  29
ENDBRANCH  26  28
ENDBRANCH   4  26
TORSDOF 6
ENDMDL
MODEL       31
REMARK 921   NORMALIZED FREE ENERGY PREDICTED BY IDOCK:   -6.24 KCAL/MOL
REMARK 922        TOTAL FREE ENERGY PREDICTED BY IDOCK:   -8.78 KCAL/MOL
REMARK 923 INTER-LIGAND FREE ENERGY PREDICTED BY IDOCK:   -9.07 KCAL/MOL
REMARK 924 INTRA-LIGAND FREE ENERGY PREDICTED BY IDOCK:    0.29 KCAL/MOL
REMARK 927      BINDING AFFINITY PREDICTED BY RF-SCORE:    0.00 PKD
ROOT
HETATM    1  C   UNL     1      -7.982  10.957  68.243  1.00  0.00    -0.121 C  
HETATM    2  C   UNL     1      -7.198  10.004  67.546  1.00  0.00    -0.089 C  
HETATM    3  C   UNL     1      -8.684   9.926  67.350  1.00  0.00    -0.129 C  
HETATM    4  C   UNL     1      -9.846  11.566  67.888  1.00  0.00    -0.185 C  
HETATM    5  C   UNL     1      -9.456   6.627  72.077  1.00  0.00    -0.148 C  
HETATM    6  O   UNL     1      -9.180  12.763  68.457  1.00  0.00    -0.336 OA 
HETATM    7  C   UNL     1      -9.177  11.228  66.747  1.00  0.00    -0.186 C  
HETATM    8  C   UNL     1      -8.569  12.046  65.647  1.00  0.00     0.492 C  
HETATM    9  H   UNL     1      -9.710  13.512  68.703  1.00  0.00     0.000 HD 
HETATM   10  C   UNL     1     -10.709   5.911  71.812  1.00  0.00    -0.245 C  
HETATM   11  C   UNL     1      -9.420   7.842  71.497  1.00  0.00    -0.184 C  
HETATM   12  C   UNL     1     -10.657  10.027  66.606  1.00  0.00    -0.196 C  
HETATM   13  C   UNL     1      -7.149   8.280  72.548  1.00  0.00    -0.122 C  
HETATM   14  C   UNL     1     -11.152   9.464  68.162  1.00  0.00     0.059 C  
HETATM   15  O   UNL     1     -11.974  10.512  68.708  1.00  0.00    -0.670 OA 
HETATM   16  C   UNL     1     -10.036   8.978  69.303  1.00  0.00    -0.188 C  
HETATM   17  C   UNL     1     -11.472   9.214  71.331  1.00  0.00    -0.420 C  
HETATM   18  C   UNL     1     -10.596   8.228  70.562  1.00  0.00    -0.233 C  
HETATM   19  C   UNL     1     -11.264   6.850  70.040  1.00  0.00    -0.347 C  
HETATM   20  H   UNL     1     -12.246  10.203  69.564  1.00  0.00     0.000 HD 
HETATM   21  C   UNL     1      -8.841  10.155  69.654  1.00  0.00    -0.184 C  
HETATM   22  C   UNL     1      -7.770   9.557  70.553  1.00  0.00    -0.177 C  
HETATM   23  O   UNL     1     -11.578   5.719  72.646  1.00  0.00    -0.300 OA 
HETATM   24  C   UNL     1      -8.338   8.871  71.790  1.00  0.00    -0.073 C  
HETATM   25  C   UNL     1     -10.888   5.593  70.340  1.00  0.00    -0.326 C  
ENDROOT
BRANCH   4  26
HETATM   26  C   UNL     1     -11.127  12.571  67.054  1.00  0.00    -0.281 C  
HETATM   27  O   UNL     1     -12.022  12.067  66.354  1.00  0.00    -0.611 OA 
BRANCH  26  28
HETATM   28  C   UNL     1     -11.162  14.191  67.020  1.00  0.00    -0.318 C  
BRANCH  28  29
HETATM   29  O   UNL     1     -11.500  14.658  65.611  1.00  0.00    -0.340 OA 
BRANCH  29  30
HETATM   30  C   UNL     1     -10.946  15.793  65.062  1.00  0.00    -0.417 C  
HETATM   31  O   UNL     1     -11.287  16.254  63.983  1.00  0.00    -0.822 OA 
BRANCH  30  32
HETATM   32  C   UNL     1      -9.831  16.430  65.938  1.00  0.00    -0.344 C  
BRANCH  32  33
HETATM   33  C   UNL     1     -10.261  17.717  66.674  1.00  0.00    -0.361 C  
HETATM   34  C   UNL     1      -9.800  19.061  66.124  1.00  0.00    -0.329 C  
HETATM   35  O   UNL     1      -8.475  19.276  66.057  1.00  0.00    -0.427 OA 
HETATM   36  O   UNL     1     -10.587  19.928  65.765  1.00  0.00    -0.507 OA 
ENDBRANCH  32  33
ENDBRANCH  30  32
ENDBRANCH  29  30
ENDBRANCH  28  29
ENDBRANCH  26  28
ENDBRANCH   4  26
TORSDOF 6
ENDMDL
MODEL       32
REMARK 921   NORMALIZED FREE ENERGY PREDICTED BY IDOCK:   -6.24 KCAL/MOL
REMARK 922        TOTAL FREE ENERGY PREDICTED BY IDOCK:   -8.78 KCAL/MOL
REMARK 923 INTER-LIGAND FREE ENERGY PREDICTED BY IDOCK:   -8.95 KCAL/MOL
REMARK 924 INTRA-LIGAND FREE ENERGY PREDICTED BY IDOCK:    0.17 KCAL/MOL
REMARK 927      BINDING AFFINITY PREDICTED BY RF-SCORE:    0.00 PKD
ROOT
HETATM    1  C   UNL     1     -10.898  10.049  68.626  1.00  0.00    -0.265 C  
HETATM    2  C   UNL     1     -10.113   9.767  69.771  1.00  0.00    -0.268 C  
HETATM    3  C   UNL     1      -9.691  10.942  68.938  1.00  0.00    -0.198 C  
HETATM    4  C   UNL     1     -11.050  11.739  67.580  1.00  0.00    -0.272 C  
HETATM    5  C   UNL     1      -6.549   7.653  65.314  1.00  0.00    -0.044 C  
HETATM    6  O   UNL     1     -12.395  11.123  67.463  1.00  0.00     0.020 OA 
HETATM    7  C   UNL     1     -10.814  11.961  68.907  1.00  0.00    -0.261 C  
HETATM    8  C   UNL     1     -11.691  12.431  70.028  1.00  0.00    -0.307 C  
HETATM    9  H   UNL     1     -13.016  11.487  66.844  1.00  0.00     0.000 HD 
HETATM   10  C   UNL     1      -5.555   8.580  64.760  1.00  0.00    -0.047 C  
HETATM   11  C   UNL     1      -7.710   8.261  65.626  1.00  0.00    -0.092 C  
HETATM   12  C   UNL     1      -9.304  12.868  68.167  1.00  0.00    -0.214 C  
HETATM   13  C   UNL     1      -8.704   6.025  66.306  1.00  0.00    -0.138 C  
HETATM   14  C   UNL     1      -8.724  12.062  66.754  1.00  0.00    -0.192 C  
HETATM   15  O   UNL     1      -9.586  12.493  65.684  1.00  0.00    -0.398 OA 
HETATM   16  C   UNL     1      -8.563  10.403  66.707  1.00  0.00    -0.125 C  
HETATM   17  C   UNL     1      -8.571  10.112  64.228  1.00  0.00    -0.200 C  
HETATM   18  C   UNL     1      -7.771   9.806  65.492  1.00  0.00    -0.121 C  
HETATM   19  C   UNL     1      -6.253  10.355  65.594  1.00  0.00    -0.126 C  
HETATM   20  H   UNL     1      -9.267  12.050  64.907  1.00  0.00     0.000 HD 
HETATM   21  C   UNL     1      -9.996   9.552  67.105  1.00  0.00    -0.261 C  
HETATM   22  C   UNL     1      -9.703   8.064  67.221  1.00  0.00    -0.232 C  
HETATM   23  O   UNL     1      -5.216   8.600  63.590  1.00  0.00    -0.059 OA 
HETATM   24  C   UNL     1      -8.970   7.500  66.009  1.00  0.00    -0.164 C  
HETATM   25  C   UNL     1      -5.131   9.632  65.766  1.00  0.00    -0.035 C  
ENDROOT
BRANCH   4  26
HETATM   26  C   UNL     1     -11.695  13.415  67.230  1.00  0.00    -0.380 C  
HETATM   27  O   UNL     1     -11.667  14.331  68.070  1.00  0.00    -0.315 OA 
BRANCH  26  28
HETATM   28  C   UNL     1     -12.477  13.847  65.878  1.00  0.00    -0.481 C  
BRANCH  28  29
HETATM   29  O   UNL     1     -11.467  14.320  64.841  1.00  0.00    -0.344 OA 
BRANCH  29  30
HETATM   30  C   UNL     1     -11.106  15.642  64.720  1.00  0.00    -0.412 C  
HETATM   31  O   UNL     1     -11.613  16.407  63.912  1.00  0.00    -1.100 OA 
BRANCH  30  32
HETATM   32  C   UNL     1      -9.979  16.075  65.699  1.00  0.00    -0.346 C  
BRANCH  32  33
HETATM   33  C   UNL     1     -10.356  17.262  66.613  1.00  0.00    -0.305 C  
HETATM   34  C   UNL     1      -9.947  18.667  66.189  1.00  0.00    -0.330 C  
HETATM   35  O   UNL     1      -8.633  18.908  66.041  1.00  0.00    -0.467 OA 
HETATM   36  O   UNL     1     -10.766  19.558  65.997  1.00  0.00    -0.467 OA 
ENDBRANCH  32  33
ENDBRANCH  30  32
ENDBRANCH  29  30
ENDBRANCH  28  29
ENDBRANCH  26  28
ENDBRANCH   4  26
TORSDOF 6
ENDMDL
MODEL       33
REMARK 921   NORMALIZED FREE ENERGY PREDICTED BY IDOCK:   -6.23 KCAL/MOL
REMARK 922        TOTAL FREE ENERGY PREDICTED BY IDOCK:   -8.76 KCAL/MOL
REMARK 923 INTER-LIGAND FREE ENERGY PREDICTED BY IDOCK:   -8.76 KCAL/MOL
REMARK 924 INTRA-LIGAND FREE ENERGY PREDICTED BY IDOCK:   -0.00 KCAL/MOL
REMARK 927      BINDING AFFINITY PREDICTED BY RF-SCORE:    0.00 PKD
ROOT
HETATM    1  C   UNL     1     -10.815   5.816  70.303  1.00  0.00    -0.373 C  
HETATM    2  C   UNL     1      -9.645   5.181  70.787  1.00  0.00    -0.241 C  
HETATM    3  C   UNL     1      -9.651   6.682  70.800  1.00  0.00    -0.183 C  
HETATM    4  C   UNL     1     -11.473   7.671  70.618  1.00  0.00    -0.258 C  
HETATM    5  C   UNL     1      -7.818   7.056  65.293  1.00  0.00    -0.121 C  
HETATM    6  O   UNL     1     -12.713   6.871  70.474  1.00  0.00    -0.569 OA 
HETATM    7  C   UNL     1     -10.783   7.169  71.685  1.00  0.00    -0.236 C  
HETATM    8  C   UNL     1     -11.219   6.655  73.024  1.00  0.00    -0.179 C  
HETATM    9  H   UNL     1     -13.545   7.322  70.391  1.00  0.00     0.000 HD 
HETATM   10  C   UNL     1      -7.173   8.373  65.219  1.00  0.00    -0.082 C  
HETATM   11  C   UNL     1      -8.826   7.021  66.186  1.00  0.00    -0.165 C  
HETATM   12  C   UNL     1      -9.726   8.723  71.336  1.00  0.00    -0.351 C  
HETATM   13  C   UNL     1      -9.324   4.616  65.536  1.00  0.00    -0.159 C  
HETATM   14  C   UNL     1      -9.646   9.053  69.642  1.00  0.00    -0.171 C  
HETATM   15  O   UNL     1     -10.872   9.740  69.326  1.00  0.00    -0.219 OA 
HETATM   16  C   UNL     1      -9.385   7.836  68.533  1.00  0.00    -0.147 C  
HETATM   17  C   UNL     1     -10.282   8.994  66.512  1.00  0.00    -0.318 C  
HETATM   18  C   UNL     1      -9.052   8.279  67.065  1.00  0.00    -0.172 C  
HETATM   19  C   UNL     1      -7.650   9.085  67.116  1.00  0.00    -0.091 C  
HETATM   20  H   UNL     1     -10.828   9.921  68.395  1.00  0.00     0.000 HD 
HETATM   21  C   UNL     1     -10.501   6.540  68.645  1.00  0.00    -0.252 C  
HETATM   22  C   UNL     1     -10.070   5.403  67.731  1.00  0.00    -0.215 C  
HETATM   23  O   UNL     1      -7.291   9.141  64.281  1.00  0.00    -0.100 OA 
HETATM   24  C   UNL     1      -9.794   5.853  66.301  1.00  0.00    -0.119 C  
HETATM   25  C   UNL     1      -6.491   8.750  66.521  1.00  0.00    -0.063 C  
ENDROOT
BRANCH   4  26
HETATM   26  C   UNL     1     -12.329   8.985  71.562  1.00  0.00    -0.331 C  
HETATM   27  O   UNL     1     -12.465   8.940  72.797  1.00  0.00    -0.280 OA 
BRANCH  26  28
HETATM   28  C   UNL     1     -13.103  10.247  70.905  1.00  0.00    -0.344 C  
BRANCH  28  29
HETATM   29  O   UNL     1     -12.201  11.472  70.952  1.00  0.00    -0.368 OA 
BRANCH  29  30
HETATM   30  C   UNL     1     -12.693  12.735  71.192  1.00  0.00    -0.263 C  
HETATM   31  O   UNL     1     -13.306  13.038  72.205  1.00  0.00    -0.517 OA 
BRANCH  30  32
HETATM   32  C   UNL     1     -12.407  13.746  70.046  1.00  0.00    -0.364 C  
BRANCH  32  33
HETATM   33  C   UNL     1     -11.242  13.337  69.118  1.00  0.00    -0.305 C  
HETATM   34  C   UNL     1     -11.570  12.737  67.757  1.00  0.00    -0.353 C  
HETATM   35  O   UNL     1     -12.276  11.593  67.743  1.00  0.00    -0.560 OA 
HETATM   36  O   UNL     1     -11.204  13.252  66.707  1.00  0.00    -0.289 OA 
ENDBRANCH  32  33
ENDBRANCH  30  32
ENDBRANCH  29  30
ENDBRANCH  28  29
ENDBRANCH  26  28
ENDBRANCH   4  26
TORSDOF 6
ENDMDL
MODEL       34
REMARK 921   NORMALIZED FREE ENERGY PREDICTED BY IDOCK:   -6.19 KCAL/MOL
REMARK 922        TOTAL FREE ENERGY PREDICTED BY IDOCK:   -8.70 KCAL/MOL
REMARK 923 INTER-LIGAND FREE ENERGY PREDICTED BY IDOCK:   -8.88 KCAL/MOL
REMARK 924 INTRA-LIGAND FREE ENERGY PREDICTED BY IDOCK:    0.18 KCAL/MOL
REMARK 927      BINDING AFFINITY PREDICTED BY RF-SCORE:    0.00 PKD
ROOT
HETATM    1  C   UNL     1      -9.256  10.899  65.548  1.00  0.00    -0.232 C  
HETATM    2  C   UNL     1     -10.535  10.689  64.978  1.00  0.00    -0.278 C  
HETATM    3  C   UNL     1     -10.499  11.076  66.428  1.00  0.00    -0.312 C  
HETATM    4  C   UNL     1      -8.750  11.905  67.193  1.00  0.00    -0.176 C  
HETATM    5  C   UNL     1      -9.801   5.584  68.208  1.00  0.00    -0.185 C  
HETATM    6  O   UNL     1      -7.586  12.084  66.291  1.00  0.00    -0.354 OA 
HETATM    7  C   UNL     1      -9.841  12.437  66.565  1.00  0.00    -0.244 C  
HETATM    8  C   UNL     1     -10.029  13.663  65.723  1.00  0.00    -0.277 C  
HETATM    9  H   UNL     1      -6.788  12.463  66.639  1.00  0.00     0.000 HD 
HETATM   10  C   UNL     1     -10.321   5.584  69.580  1.00  0.00    -0.289 C  
HETATM   11  C   UNL     1      -9.271   6.771  67.853  1.00  0.00    -0.112 C  
HETATM   12  C   UNL     1     -10.610  12.085  68.279  1.00  0.00    -0.233 C  
HETATM   13  C   UNL     1      -8.602   5.804  65.602  1.00  0.00    -0.151 C  
HETATM   14  C   UNL     1      -9.953  10.647  68.973  1.00  0.00    -0.213 C  
HETATM   15  O   UNL     1      -8.693  11.039  69.550  1.00  0.00    -0.377 OA 
HETATM   16  C   UNL     1      -9.745   9.263  68.066  1.00  0.00    -0.172 C  
HETATM   17  C   UNL     1      -8.045   8.141  69.509  1.00  0.00    -0.119 C  
HETATM   18  C   UNL     1      -9.411   7.948  68.854  1.00  0.00    -0.150 C  
HETATM   19  C   UNL     1     -10.680   7.622  69.802  1.00  0.00    -0.243 C  
HETATM   20  H   UNL     1      -8.332  10.248  69.932  1.00  0.00     0.000 HD 
HETATM   21  C   UNL     1      -8.816   9.494  66.645  1.00  0.00    -0.150 C  
HETATM   22  C   UNL     1      -8.843   8.232  65.796  1.00  0.00    -0.194 C  
HETATM   23  O   UNL     1      -9.797   4.998  70.511  1.00  0.00    -0.185 OA 
HETATM   24  C   UNL     1      -8.473   6.975  66.574  1.00  0.00    -0.125 C  
HETATM   25  C   UNL     1     -11.483   6.544  69.752  1.00  0.00    -0.443 C  
ENDROOT
BRANCH   4  26
HETATM   26  C   UNL     1      -8.346  13.410  68.152  1.00  0.00    -0.164 C  
HETATM   27  O   UNL     1      -7.503  13.413  69.066  1.00  0.00    -0.055 OA 
BRANCH  26  28
HETATM   28  C   UNL     1      -9.111  14.831  68.019  1.00  0.00    -0.179 C  
BRANCH  28  29
HETATM   29  O   UNL     1      -9.817  15.149  69.330  1.00  0.00    -0.225 OA 
BRANCH  29  30
HETATM   30  C   UNL     1     -11.151  15.485  69.382  1.00  0.00    -0.291 C  
HETATM   31  O   UNL     1     -11.866  15.557  68.393  1.00  0.00    -0.351 OA 
BRANCH  30  32
HETATM   32  C   UNL     1     -11.666  15.780  70.818  1.00  0.00    -0.430 C  
BRANCH  32  33
HETATM   33  C   UNL     1     -13.070  15.209  71.118  1.00  0.00    -0.515 C  
HETATM   34  C   UNL     1     -13.175  13.825  71.746  1.00  0.00    -0.386 C  
HETATM   35  O   UNL     1     -12.658  12.794  71.055  1.00  0.00    -0.363 OA 
HETATM   36  O   UNL     1     -13.716  13.636  72.829  1.00  0.00    -0.707 OA 
ENDBRANCH  32  33
ENDBRANCH  30  32
ENDBRANCH  29  30
ENDBRANCH  28  29
ENDBRANCH  26  28
ENDBRANCH   4  26
TORSDOF 6
ENDMDL
MODEL       35
REMARK 921   NORMALIZED FREE ENERGY PREDICTED BY IDOCK:   -6.18 KCAL/MOL
REMARK 922        TOTAL FREE ENERGY PREDICTED BY IDOCK:   -8.69 KCAL/MOL
REMARK 923 INTER-LIGAND FREE ENERGY PREDICTED BY IDOCK:   -8.36 KCAL/MOL
REMARK 924 INTRA-LIGAND FREE ENERGY PREDICTED BY IDOCK:   -0.33 KCAL/MOL
REMARK 927      BINDING AFFINITY PREDICTED BY RF-SCORE:    0.00 PKD
ROOT
HETATM    1  C   UNL     1      -6.008  14.095  68.097  1.00  0.00    -0.133 C  
HETATM    2  C   UNL     1      -5.707  14.512  69.417  1.00  0.00    -0.095 C  
HETATM    3  C   UNL     1      -7.134  14.140  69.137  1.00  0.00    -0.099 C  
HETATM    4  C   UNL     1      -7.558  13.035  67.425  1.00  0.00    -0.137 C  
HETATM    5  C   UNL     1      -8.474  19.454  67.191  1.00  0.00    -0.317 C  
HETATM    6  O   UNL     1      -6.444  12.652  66.524  1.00  0.00    -0.268 OA 
HETATM    7  C   UNL     1      -7.195  12.689  68.696  1.00  0.00    -0.108 C  
HETATM    8  C   UNL     1      -6.468  11.504  69.257  1.00  0.00    -0.103 C  
HETATM    9  H   UNL     1      -6.636  12.147  65.743  1.00  0.00     0.000 HD 
HETATM   10  C   UNL     1      -9.923  19.557  67.401  1.00  0.00    -0.383 C  
HETATM   11  C   UNL     1      -8.073  18.191  66.949  1.00  0.00    -0.254 C  
HETATM   12  C   UNL     1      -9.013  13.185  69.017  1.00  0.00     0.473 C  
HETATM   13  C   UNL     1      -5.689  19.006  66.624  1.00  0.00    -0.169 C  
HETATM   14  C   UNL     1      -9.488  14.498  68.001  1.00  0.00    -0.209 C  
HETATM   15  O   UNL     1      -9.809  13.905  66.729  1.00  0.00    -0.258 OA 
HETATM   16  C   UNL     1      -8.495  15.817  67.768  1.00  0.00    -0.162 C  
HETATM   17  C   UNL     1      -9.500  16.651  65.641  1.00  0.00     0.048 C  
HETATM   18  C   UNL     1      -9.134  17.065  67.064  1.00  0.00    -0.234 C  
HETATM   19  C   UNL     1     -10.308  17.612  68.033  1.00  0.00    -0.375 C  
HETATM   20  H   UNL     1     -10.070  14.627  66.171  1.00  0.00     0.000 HD 
HETATM   21  C   UNL     1      -6.924  15.417  67.211  1.00  0.00    -0.180 C  
HETATM   22  C   UNL     1      -6.041  16.655  67.212  1.00  0.00    -0.195 C  
HETATM   23  O   UNL     1     -10.697  20.056  66.602  1.00  0.00    -0.429 OA 
HETATM   24  C   UNL     1      -6.667  17.840  66.485  1.00  0.00    -0.259 C  
HETATM   25  C   UNL     1     -10.376  18.810  68.641  1.00  0.00    -0.261 C  
ENDROOT
BRANCH   4  26
HETATM   26  C   UNL     1      -8.482  11.495  67.078  1.00  0.00    -0.164 C  
HETATM   27  O   UNL     1      -9.314  11.022  67.870  1.00  0.00    -0.152 OA 
BRANCH  26  28
HETATM   28  C   UNL     1      -8.230  10.528  65.803  1.00  0.00    -0.160 C  
BRANCH  28  29
HETATM   29  O   UNL     1      -9.549  10.289  65.082  1.00  0.00    -0.230 OA 
BRANCH  29  30
HETATM   30  C   UNL     1      -9.731  10.617  63.757  1.00  0.00    -0.327 C  
HETATM   31  O   UNL     1      -9.436   9.873  62.833  1.00  0.00    -0.276 OA 
BRANCH  30  32
HETATM   32  C   UNL     1     -10.335  12.032  63.541  1.00  0.00    -0.492 C  
BRANCH  32  33
HETATM   33  C   UNL     1     -11.868  12.100  63.718  1.00  0.00    -0.592 C  
HETATM   34  C   UNL     1     -12.429  12.729  64.987  1.00  0.00    -0.506 C  
HETATM   35  O   UNL     1     -12.095  12.157  66.156  1.00  0.00    -0.621 OA 
HETATM   36  O   UNL     1     -13.165  13.708  64.964  1.00  0.00    -0.729 OA 
ENDBRANCH  32  33
ENDBRANCH  30  32
ENDBRANCH  29  30
ENDBRANCH  28  29
ENDBRANCH  26  28
ENDBRANCH   4  26
TORSDOF 6
ENDMDL
MODEL       36
REMARK 921   NORMALIZED FREE ENERGY PREDICTED BY IDOCK:   -6.07 KCAL/MOL
REMARK 922        TOTAL FREE ENERGY PREDICTED BY IDOCK:   -8.55 KCAL/MOL
REMARK 923 INTER-LIGAND FREE ENERGY PREDICTED BY IDOCK:   -9.07 KCAL/MOL
REMARK 924 INTRA-LIGAND FREE ENERGY PREDICTED BY IDOCK:    0.52 KCAL/MOL
REMARK 927      BINDING AFFINITY PREDICTED BY RF-SCORE:    0.00 PKD
ROOT
HETATM    1  C   UNL     1      -9.009  10.940  65.554  1.00  0.00    -0.213 C  
HETATM    2  C   UNL     1      -9.890  10.309  64.641  1.00  0.00    -0.396 C  
HETATM    3  C   UNL     1     -10.489  10.796  65.928  1.00  0.00    -0.270 C  
HETATM    4  C   UNL     1      -9.421  12.173  67.065  1.00  0.00    -0.201 C  
HETATM    5  C   UNL     1      -9.104   5.927  68.791  1.00  0.00    -0.116 C  
HETATM    6  O   UNL     1      -8.095  12.630  66.580  1.00  0.00    -0.405 OA 
HETATM    7  C   UNL     1     -10.301  12.299  66.029  1.00  0.00    -0.273 C  
HETATM    8  C   UNL     1     -10.477  13.342  64.967  1.00  0.00    -0.378 C  
HETATM    9  H   UNL     1      -7.607  13.259  67.099  1.00  0.00     0.000 HD 
HETATM   10  C   UNL     1     -10.073   5.871  69.892  1.00  0.00    -0.198 C  
HETATM   11  C   UNL     1      -8.806   7.188  68.424  1.00  0.00    -0.127 C  
HETATM   12  C   UNL     1     -11.528  11.859  67.427  1.00  0.00    -0.393 C  
HETATM   13  C   UNL     1      -7.132   6.305  66.730  1.00  0.00    -0.073 C  
HETATM   14  C   UNL     1     -10.825  10.746  68.545  1.00  0.00    -0.228 C  
HETATM   15  O   UNL     1     -10.012  11.545  69.424  1.00  0.00    -0.415 OA 
HETATM   16  C   UNL     1      -9.950   9.427  68.020  1.00  0.00    -0.209 C  
HETATM   17  C   UNL     1      -8.671   8.987  70.117  1.00  0.00    -0.184 C  
HETATM   18  C   UNL     1      -9.602   8.339  69.095  1.00  0.00    -0.160 C  
HETATM   19  C   UNL     1     -11.000   7.714  69.614  1.00  0.00    -0.145 C  
HETATM   20  H   UNL     1      -9.625  10.932  70.039  1.00  0.00     0.000 HD 
HETATM   21  C   UNL     1      -8.657   9.822  66.967  1.00  0.00    -0.127 C  
HETATM   22  C   UNL     1      -8.045   8.553  66.396  1.00  0.00    -0.103 C  
HETATM   23  O   UNL     1      -9.795   5.545  71.032  1.00  0.00    -0.168 OA 
HETATM   24  C   UNL     1      -7.676   7.530  67.465  1.00  0.00    -0.118 C  
HETATM   25  C   UNL     1     -11.422   6.442  69.497  1.00  0.00    -0.412 C  
ENDROOT
BRANCH   4  26
HETATM   26  C   UNL     1      -9.799  13.797  67.819  1.00  0.00    -0.234 C  
HETATM   27  O   UNL     1     -10.872  14.028  68.403  1.00  0.00    -0.235 OA 
BRANCH  26  28
HETATM   28  C   UNL     1      -8.869  15.117  67.697  1.00  0.00    -0.173 C  
BRANCH  28  29
HETATM   29  O   UNL     1      -9.631  16.322  68.231  1.00  0.00    -0.212 OA 
BRANCH  29  30
HETATM   30  C   UNL     1      -8.995  17.480  68.616  1.00  0.00    -0.260 C  
HETATM   31  O   UNL     1      -7.787  17.560  68.784  1.00  0.00    -0.267 OA 
BRANCH  30  32
HETATM   32  C   UNL     1      -9.958  18.681  68.832  1.00  0.00    -0.399 C  
BRANCH  32  33
HETATM   33  C   UNL     1     -10.669  19.162  67.548  1.00  0.00    -0.555 C  
HETATM   34  C   UNL     1     -10.176  18.642  66.203  1.00  0.00    -0.416 C  
HETATM   35  O   UNL     1      -8.902  18.913  65.869  1.00  0.00    -0.460 OA 
HETATM   36  O   UNL     1     -10.897  18.012  65.440  1.00  0.00    -0.547 OA 
ENDBRANCH  32  33
ENDBRANCH  30  32
ENDBRANCH  29  30
ENDBRANCH  28  29
ENDBRANCH  26  28
ENDBRANCH   4  26
TORSDOF 6
ENDMDL
MODEL       37
REMARK 921   NORMALIZED FREE ENERGY PREDICTED BY IDOCK:   -6.06 KCAL/MOL
REMARK 922        TOTAL FREE ENERGY PREDICTED BY IDOCK:   -8.53 KCAL/MOL
REMARK 923 INTER-LIGAND FREE ENERGY PREDICTED BY IDOCK:   -8.36 KCAL/MOL
REMARK 924 INTRA-LIGAND FREE ENERGY PREDICTED BY IDOCK:   -0.17 KCAL/MOL
REMARK 927      BINDING AFFINITY PREDICTED BY RF-SCORE:    0.00 PKD
ROOT
HETATM    1  C   UNL     1      -9.743   9.994  69.124  1.00  0.00    -0.217 C  
HETATM    2  C   UNL     1      -8.600  10.080  69.957  1.00  0.00    -0.122 C  
HETATM    3  C   UNL     1      -8.382   9.560  68.565  1.00  0.00    -0.118 C  
HETATM    4  C   UNL     1      -9.857   9.892  67.136  1.00  0.00    -0.186 C  
HETATM    5  C   UNL     1      -9.717   4.098  70.051  1.00  0.00    -0.282 C  
HETATM    6  O   UNL     1     -11.086  10.625  67.529  1.00  0.00    -0.299 OA 
HETATM    7  C   UNL     1      -8.788  10.626  67.565  1.00  0.00    -0.132 C  
HETATM    8  C   UNL     1      -8.516  12.100  67.598  1.00  0.00    -0.163 C  
HETATM    9  H   UNL     1     -11.759  10.777  66.877  1.00  0.00     0.000 HD 
HETATM   10  C   UNL     1      -9.027   3.276  69.050  1.00  0.00    -0.129 C  
HETATM   11  C   UNL     1     -10.090   5.299  69.569  1.00  0.00    -0.322 C  
HETATM   12  C   UNL     1      -7.865   9.307  66.534  1.00  0.00    -0.100 C  
HETATM   13  C   UNL     1     -11.198   5.850  71.788  1.00  0.00    -0.311 C  
HETATM   14  C   UNL     1      -8.649   7.772  66.644  1.00  0.00    -0.136 C  
HETATM   15  O   UNL     1      -9.741   7.829  65.708  1.00  0.00    -0.403 OA 
HETATM   16  C   UNL     1      -9.195   7.180  68.105  1.00  0.00    -0.131 C  
HETATM   17  C   UNL     1     -10.849   5.529  67.226  1.00  0.00    -0.136 C  
HETATM   18  C   UNL     1      -9.631   5.673  68.135  1.00  0.00    -0.135 C  
HETATM   19  C   UNL     1      -8.317   4.788  67.808  1.00  0.00    -0.103 C  
HETATM   20  H   UNL     1     -10.172   6.985  65.768  1.00  0.00     0.000 HD 
HETATM   21  C   UNL     1     -10.255   8.241  68.934  1.00  0.00    -0.222 C  
HETATM   22  C   UNL     1     -10.544   7.702  70.327  1.00  0.00    -0.233 C  
HETATM   23  O   UNL     1      -9.512   2.291  68.521  1.00  0.00    -0.191 OA 
HETATM   24  C   UNL     1     -11.007   6.250  70.326  1.00  0.00    -0.400 C  
HETATM   25  C   UNL     1      -7.713   3.893  68.610  1.00  0.00    -0.060 C  
ENDROOT
BRANCH   4  26
HETATM   26  C   UNL     1      -9.882  10.587  65.443  1.00  0.00    -0.274 C  
HETATM   27  O   UNL     1      -9.493   9.945  64.452  1.00  0.00    -0.283 OA 
BRANCH  26  28
HETATM   28  C   UNL     1     -10.273  12.114  65.071  1.00  0.00    -0.283 C  
BRANCH  28  29
HETATM   29  O   UNL     1     -11.696  12.397  65.529  1.00  0.00    -0.375 OA 
BRANCH  29  30
HETATM   30  C   UNL     1     -12.179  13.678  65.673  1.00  0.00    -0.454 C  
HETATM   31  O   UNL     1     -13.209  14.073  65.146  1.00  0.00    -0.768 OA 
BRANCH  30  32
HETATM   32  C   UNL     1     -11.285  14.587  66.562  1.00  0.00    -0.344 C  
BRANCH  32  33
HETATM   33  C   UNL     1     -11.909  14.949  67.928  1.00  0.00    -0.286 C  
HETATM   34  C   UNL     1     -11.626  14.045  69.121  1.00  0.00    -0.313 C  
HETATM   35  O   UNL     1     -12.020  12.763  69.029  1.00  0.00    -0.292 OA 
HETATM   36  O   UNL     1     -11.075  14.453  70.137  1.00  0.00    -0.159 OA 
ENDBRANCH  32  33
ENDBRANCH  30  32
ENDBRANCH  29  30
ENDBRANCH  28  29
ENDBRANCH  26  28
ENDBRANCH   4  26
TORSDOF 6
ENDMDL
MODEL       38
REMARK 921   NORMALIZED FREE ENERGY PREDICTED BY IDOCK:   -6.02 KCAL/MOL
REMARK 922        TOTAL FREE ENERGY PREDICTED BY IDOCK:   -8.48 KCAL/MOL
REMARK 923 INTER-LIGAND FREE ENERGY PREDICTED BY IDOCK:   -8.82 KCAL/MOL
REMARK 924 INTRA-LIGAND FREE ENERGY PREDICTED BY IDOCK:    0.34 KCAL/MOL
REMARK 927      BINDING AFFINITY PREDICTED BY RF-SCORE:    0.00 PKD
ROOT
HETATM    1  C   UNL     1     -10.083   9.437  66.197  1.00  0.00    -0.324 C  
HETATM    2  C   UNL     1      -8.970   9.434  65.319  1.00  0.00    -0.250 C  
HETATM    3  C   UNL     1      -8.770  10.080  66.660  1.00  0.00    -0.138 C  
HETATM    4  C   UNL     1     -10.135   9.672  68.175  1.00  0.00    -0.175 C  
HETATM    5  C   UNL     1     -10.853  15.203  64.860  1.00  0.00    -0.437 C  
HETATM    6  O   UNL     1     -11.273   8.763  67.892  1.00  0.00    -0.410 OA 
HETATM    7  C   UNL     1      -8.997   9.049  67.749  1.00  0.00    -0.132 C  
HETATM    8  C   UNL     1      -8.538   7.623  67.807  1.00  0.00    -0.121 C  
HETATM    9  H   UNL     1     -11.896   8.576  68.583  1.00  0.00     0.000 HD 
HETATM   10  C   UNL     1     -10.239  16.178  65.769  1.00  0.00    -0.374 C  
HETATM   11  C   UNL     1     -11.050  14.004  65.442  1.00  0.00    -0.318 C  
HETATM   12  C   UNL     1      -8.215  10.548  68.642  1.00  0.00    -0.130 C  
HETATM   13  C   UNL     1     -12.159  13.153  63.320  1.00  0.00    -0.460 C  
HETATM   14  C   UNL     1      -9.194  11.959  68.462  1.00  0.00    -0.134 C  
HETATM   15  O   UNL     1     -10.235  11.835  69.449  1.00  0.00    -0.418 OA 
HETATM   16  C   UNL     1      -9.866  12.366  66.991  1.00  0.00    -0.214 C  
HETATM   17  C   UNL     1     -11.685  13.856  67.828  1.00  0.00    -0.401 C  
HETATM   18  C   UNL     1     -10.494  13.800  66.875  1.00  0.00    -0.272 C  
HETATM   19  C   UNL     1      -9.294  14.865  67.079  1.00  0.00    -0.240 C  
HETATM   20  H   UNL     1     -10.773  12.611  69.350  1.00  0.00     0.000 HD 
HETATM   21  C   UNL     1     -10.810  11.121  66.287  1.00  0.00    -0.266 C  
HETATM   22  C   UNL     1     -11.218  11.513  64.875  1.00  0.00    -0.242 C  
HETATM   23  O   UNL     1     -10.827  17.131  66.250  1.00  0.00    -0.134 OA 
HETATM   24  C   UNL     1     -11.863  12.891  64.797  1.00  0.00    -0.409 C  
HETATM   25  C   UNL     1      -8.840  15.767  66.189  1.00  0.00    -0.346 C  
ENDROOT
BRANCH   4  26
HETATM   26  C   UNL     1     -10.008   9.109  69.912  1.00  0.00    -0.197 C  
HETATM   27  O   UNL     1     -10.658   9.633  70.833  1.00  0.00    -0.304 OA 
BRANCH  26  28
HETATM   28  C   UNL     1      -8.967   7.992  70.453  1.00  0.00    -0.146 C  
BRANCH  28  29
HETATM   29  O   UNL     1      -9.732   6.913  71.206  1.00  0.00    -0.172 OA 
BRANCH  29  30
HETATM   30  C   UNL     1     -10.359   5.872  70.559  1.00  0.00    -0.235 C  
HETATM   31  O   UNL     1     -11.321   6.020  69.820  1.00  0.00    -0.409 OA 
BRANCH  30  32
HETATM   32  C   UNL     1      -9.737   4.481  70.865  1.00  0.00    -0.263 C  
BRANCH  32  33
HETATM   33  C   UNL     1     -10.277   3.814  72.149  1.00  0.00    -0.179 C  
HETATM   34  C   UNL     1     -10.063   4.520  73.482  1.00  0.00    -0.158 C  
HETATM   35  O   UNL     1      -8.794   4.743  73.864  1.00  0.00    -0.105 OA 
HETATM   36  O   UNL     1     -10.995   4.866  74.197  1.00  0.00    -0.310 OA 
ENDBRANCH  32  33
ENDBRANCH  30  32
ENDBRANCH  29  30
ENDBRANCH  28  29
ENDBRANCH  26  28
ENDBRANCH   4  26
TORSDOF 6
ENDMDL
MODEL       39
REMARK 921   NORMALIZED FREE ENERGY PREDICTED BY IDOCK:   -6.01 KCAL/MOL
REMARK 922        TOTAL FREE ENERGY PREDICTED BY IDOCK:   -8.47 KCAL/MOL
REMARK 923 INTER-LIGAND FREE ENERGY PREDICTED BY IDOCK:   -8.90 KCAL/MOL
REMARK 924 INTRA-LIGAND FREE ENERGY PREDICTED BY IDOCK:    0.43 KCAL/MOL
REMARK 927      BINDING AFFINITY PREDICTED BY RF-SCORE:    0.00 PKD
ROOT
HETATM    1  C   UNL     1     -10.896   5.580  69.994  1.00  0.00    -0.301 C  
HETATM    2  C   UNL     1      -9.908   4.687  70.476  1.00  0.00    -0.301 C  
HETATM    3  C   UNL     1      -9.549   6.144  70.463  1.00  0.00    -0.192 C  
HETATM    4  C   UNL     1     -11.078   7.544  70.283  1.00  0.00    -0.248 C  
HETATM    5  C   UNL     1      -7.757   5.983  64.933  1.00  0.00    -0.099 C  
HETATM    6  O   UNL     1     -12.478   7.067  70.165  1.00  0.00    -0.572 OA 
HETATM    7  C   UNL     1     -10.517   6.904  71.352  1.00  0.00    -0.230 C  
HETATM    8  C   UNL     1     -11.046   6.530  72.703  1.00  0.00    -0.291 C  
HETATM    9  H   UNL     1     -13.177   7.706  70.083  1.00  0.00     0.000 HD 
HETATM   10  C   UNL     1      -6.813   7.102  64.830  1.00  0.00    -0.047 C  
HETATM   11  C   UNL     1      -8.731   6.207  65.837  1.00  0.00    -0.158 C  
HETATM   12  C   UNL     1      -9.119   8.149  70.965  1.00  0.00    -0.176 C  
HETATM   13  C   UNL     1      -9.807   3.987  65.233  1.00  0.00    -0.199 C  
HETATM   14  C   UNL     1      -8.984   8.426  69.266  1.00  0.00    -0.150 C  
HETATM   15  O   UNL     1     -10.011   9.385  68.950  1.00  0.00    -0.169 OA 
HETATM   16  C   UNL     1      -9.043   7.166  68.174  1.00  0.00    -0.133 C  
HETATM   17  C   UNL     1      -9.659   8.480  66.143  1.00  0.00    -0.276 C  
HETATM   18  C   UNL     1      -8.632   7.495  66.696  1.00  0.00    -0.131 C  
HETATM   19  C   UNL     1      -7.076   7.936  66.719  1.00  0.00    -0.077 C  
HETATM   20  H   UNL     1      -9.937   9.538  68.015  1.00  0.00     0.000 HD 
HETATM   21  C   UNL     1     -10.438   6.182  68.320  1.00  0.00    -0.284 C  
HETATM   22  C   UNL     1     -10.310   4.962  67.421  1.00  0.00    -0.127 C  
HETATM   23  O   UNL     1      -6.753   7.863  63.880  1.00  0.00    -0.061 OA 
HETATM   24  C   UNL     1      -9.952   5.311  65.981  1.00  0.00    -0.152 C  
HETATM   25  C   UNL     1      -6.042   7.320  66.118  1.00  0.00    -0.037 C  
ENDROOT
BRANCH   4  26
HETATM   26  C   UNL     1     -11.577   9.039  71.213  1.00  0.00    -0.317 C  
HETATM   27  O   UNL     1     -10.846   9.569  72.068  1.00  0.00    -0.105 OA 
BRANCH  26  28
HETATM   28  C   UNL     1     -13.034   9.742  71.130  1.00  0.00    -0.348 C  
BRANCH  28  29
HETATM   29  O   UNL     1     -13.053  10.971  72.028  1.00  0.00    -0.496 OA 
BRANCH  29  30
HETATM   30  C   UNL     1     -12.998  12.250  71.522  1.00  0.00    -0.289 C  
HETATM   31  O   UNL     1     -12.357  12.552  70.526  1.00  0.00    -0.332 OA 
BRANCH  30  32
HETATM   32  C   UNL     1     -13.818  13.283  72.343  1.00  0.00    -0.630 C  
BRANCH  32  33
HETATM   33  C   UNL     1     -13.898  14.685  71.699  1.00  0.00    -0.522 C  
HETATM   34  C   UNL     1     -13.146  15.834  72.359  1.00  0.00    -0.465 C  
HETATM   35  O   UNL     1     -13.489  16.149  73.620  1.00  0.00    -0.628 OA 
HETATM   36  O   UNL     1     -12.273  16.466  71.778  1.00  0.00    -0.356 OA 
ENDBRANCH  32  33
ENDBRANCH  30  32
ENDBRANCH  29  30
ENDBRANCH  28  29
ENDBRANCH  26  28
ENDBRANCH   4  26
TORSDOF 6
ENDMDL
MODEL       40
REMARK 921   NORMALIZED FREE ENERGY PREDICTED BY IDOCK:   -5.99 KCAL/MOL
REMARK 922        TOTAL FREE ENERGY PREDICTED BY IDOCK:   -8.43 KCAL/MOL
REMARK 923 INTER-LIGAND FREE ENERGY PREDICTED BY IDOCK:   -8.65 KCAL/MOL
REMARK 924 INTRA-LIGAND FREE ENERGY PREDICTED BY IDOCK:    0.22 KCAL/MOL
REMARK 927      BINDING AFFINITY PREDICTED BY RF-SCORE:    0.00 PKD
ROOT
HETATM    1  C   UNL     1      -9.067   7.766  67.177  1.00  0.00    -0.154 C  
HETATM    2  C   UNL     1     -10.185   7.150  66.563  1.00  0.00    -0.131 C  
HETATM    3  C   UNL     1     -10.476   8.243  67.550  1.00  0.00    -0.325 C  
HETATM    4  C   UNL     1      -8.936   9.535  68.086  1.00  0.00    -0.123 C  
HETATM    5  C   UNL     1     -10.303   4.623  72.099  1.00  0.00    -0.244 C  
HETATM    6  O   UNL     1      -7.592   9.339  67.488  1.00  0.00    -0.088 OA 
HETATM    7  C   UNL     1      -9.843   9.534  67.065  1.00  0.00    -0.246 C  
HETATM    8  C   UNL     1      -9.811  10.105  65.679  1.00  0.00    -0.347 C  
HETATM    9  H   UNL     1      -6.889   9.929  67.733  1.00  0.00     0.000 HD 
HETATM   10  C   UNL     1     -11.124   5.289  73.116  1.00  0.00    -0.324 C  
HETATM   11  C   UNL     1      -9.684   5.496  71.279  1.00  0.00    -0.215 C  
HETATM   12  C   UNL     1     -10.992  10.056  68.501  1.00  0.00    -0.255 C  
HETATM   13  C   UNL     1      -8.533   3.568  70.090  1.00  0.00    -0.096 C  
HETATM   14  C   UNL     1     -10.537   9.280  69.975  1.00  0.00    -0.228 C  
HETATM   15  O   UNL     1      -9.437  10.051  70.493  1.00  0.00    -0.347 OA 
HETATM   16  C   UNL     1     -10.151   7.658  70.018  1.00  0.00    -0.204 C  
HETATM   17  C   UNL     1      -8.848   7.656  72.147  1.00  0.00    -0.161 C  
HETATM   18  C   UNL     1     -10.030   7.000  71.437  1.00  0.00    -0.190 C  
HETATM   19  C   UNL     1     -11.489   7.085  72.130  1.00  0.00    -0.312 C  
HETATM   20  H   UNL     1      -9.187   9.624  71.304  1.00  0.00     0.000 HD 
HETATM   21  C   UNL     1      -8.916   7.206  68.920  1.00  0.00    -0.129 C  
HETATM   22  C   UNL     1      -8.769   5.693  68.896  1.00  0.00    -0.107 C  
HETATM   23  O   UNL     1     -10.838   5.342  74.300  1.00  0.00    -0.285 OA 
HETATM   24  C   UNL     1      -8.610   5.082  70.284  1.00  0.00    -0.116 C  
HETATM   25  C   UNL     1     -12.278   6.062  72.506  1.00  0.00    -0.044 C  
ENDROOT
BRANCH   4  26
HETATM   26  C   UNL     1      -8.736  11.353  68.146  1.00  0.00    -0.154 C  
HETATM   27  O   UNL     1      -7.631  11.899  68.307  1.00  0.00    -0.101 OA 
BRANCH  26  28
HETATM   28  C   UNL     1      -9.953  12.423  68.136  1.00  0.00    -0.215 C  
BRANCH  28  29
HETATM   29  O   UNL     1      -9.949  13.179  66.815  1.00  0.00    -0.239 OA 
BRANCH  29  30
HETATM   30  C   UNL     1     -10.793  14.239  66.575  1.00  0.00    -0.304 C  
HETATM   31  O   UNL     1     -10.420  15.402  66.537  1.00  0.00    -0.281 OA 
BRANCH  30  32
HETATM   32  C   UNL     1     -12.276  13.823  66.367  1.00  0.00    -0.480 C  
BRANCH  32  33
HETATM   33  C   UNL     1     -12.489  12.770  65.256  1.00  0.00    -0.528 C  
HETATM   34  C   UNL     1     -11.975  13.075  63.855  1.00  0.00    -0.485 C  
HETATM   35  O   UNL     1     -12.480  14.157  63.237  1.00  0.00    -0.758 OA 
HETATM   36  O   UNL     1     -11.146  12.370  63.292  1.00  0.00    -0.438 OA 
ENDBRANCH  32  33
ENDBRANCH  30  32
ENDBRANCH  29  30
ENDBRANCH  28  29
ENDBRANCH  26  28
ENDBRANCH   4  26
TORSDOF 6
ENDMDL
MODEL       41
REMARK 921   NORMALIZED FREE ENERGY PREDICTED BY IDOCK:   -5.98 KCAL/MOL
REMARK 922        TOTAL FREE ENERGY PREDICTED BY IDOCK:   -8.42 KCAL/MOL
REMARK 923 INTER-LIGAND FREE ENERGY PREDICTED BY IDOCK:   -8.63 KCAL/MOL
REMARK 924 INTRA-LIGAND FREE ENERGY PREDICTED BY IDOCK:    0.20 KCAL/MOL
REMARK 927      BINDING AFFINITY PREDICTED BY RF-SCORE:    0.00 PKD
ROOT
HETATM    1  C   UNL     1      -7.057   9.353  68.338  1.00  0.00    -0.072 C  
HETATM    2  C   UNL     1      -6.046   8.363  68.290  1.00  0.00    -0.046 C  
HETATM    3  C   UNL     1      -7.373   8.000  67.690  1.00  0.00    -0.093 C  
HETATM    4  C   UNL     1      -8.714   9.526  67.243  1.00  0.00    -0.128 C  
HETATM    5  C   UNL     1      -9.569   6.275  72.792  1.00  0.00    -0.155 C  
HETATM    6  O   UNL     1      -8.329  10.929  67.534  1.00  0.00    -0.116 OA 
HETATM    7  C   UNL     1      -7.684   8.954  66.552  1.00  0.00    -0.099 C  
HETATM    8  C   UNL     1      -6.772   9.468  65.479  1.00  0.00    -0.080 C  
HETATM    9  H   UNL     1      -8.940  11.627  67.330  1.00  0.00     0.000 HD 
HETATM   10  C   UNL     1     -10.629   5.329  72.423  1.00  0.00    -0.225 C  
HETATM   11  C   UNL     1      -9.388   7.237  71.866  1.00  0.00    -0.152 C  
HETATM   12  C   UNL     1      -8.979   7.557  66.393  1.00  0.00    -0.196 C  
HETATM   13  C   UNL     1      -7.628   8.327  73.339  1.00  0.00    -0.176 C  
HETATM   14  C   UNL     1      -9.949   7.442  67.818  1.00  0.00    -0.167 C  
HETATM   15  O   UNL     1     -10.949   8.470  67.686  1.00  0.00    -0.501 OA 
HETATM   16  C   UNL     1      -9.268   7.518  69.338  1.00  0.00    -0.149 C  
HETATM   17  C   UNL     1     -11.315   8.155  70.616  1.00  0.00    -0.256 C  
HETATM   18  C   UNL     1     -10.191   7.124  70.544  1.00  0.00    -0.206 C  
HETATM   19  C   UNL     1     -10.586   5.567  70.356  1.00  0.00    -0.350 C  
HETATM   20  H   UNL     1     -11.482   8.407  68.469  1.00  0.00     0.000 HD 
HETATM   21  C   UNL     1      -8.311   8.914  69.605  1.00  0.00    -0.123 C  
HETATM   22  C   UNL     1      -7.586   8.800  70.937  1.00  0.00    -0.109 C  
HETATM   23  O   UNL     1     -11.720   5.278  72.964  1.00  0.00    -0.294 OA 
HETATM   24  C   UNL     1      -8.511   8.459  72.099  1.00  0.00    -0.245 C  
HETATM   25  C   UNL     1     -10.284   4.541  71.173  1.00  0.00    -0.163 C  
ENDROOT
BRANCH   4  26
HETATM   26  C   UNL     1      -9.675  10.009  65.762  1.00  0.00    -0.257 C  
HETATM   27  O   UNL     1      -9.649   9.354  64.706  1.00  0.00    -0.150 OA 
BRANCH  26  28
HETATM   28  C   UNL     1     -10.534  11.375  65.616  1.00  0.00    -0.262 C  
BRANCH  28  29
HETATM   29  O   UNL     1     -11.372  11.580  66.870  1.00  0.00    -0.347 OA 
BRANCH  29  30
HETATM   30  C   UNL     1     -11.469  12.803  67.495  1.00  0.00    -0.336 C  
HETATM   31  O   UNL     1     -11.009  13.030  68.605  1.00  0.00    -0.247 OA 
BRANCH  30  32
HETATM   32  C   UNL     1     -12.232  13.871  66.664  1.00  0.00    -0.465 C  
BRANCH  32  33
HETATM   33  C   UNL     1     -11.346  14.645  65.662  1.00  0.00    -0.338 C  
HETATM   34  C   UNL     1     -11.956  15.079  64.334  1.00  0.00    -0.353 C  
HETATM   35  O   UNL     1     -12.416  14.111  63.523  1.00  0.00    -0.817 OA 
HETATM   36  O   UNL     1     -12.021  16.254  63.996  1.00  0.00    -0.955 OA 
ENDBRANCH  32  33
ENDBRANCH  30  32
ENDBRANCH  29  30
ENDBRANCH  28  29
ENDBRANCH  26  28
ENDBRANCH   4  26
TORSDOF 6
ENDMDL
MODEL       42
REMARK 921   NORMALIZED FREE ENERGY PREDICTED BY IDOCK:   -5.98 KCAL/MOL
REMARK 922        TOTAL FREE ENERGY PREDICTED BY IDOCK:   -8.42 KCAL/MOL
REMARK 923 INTER-LIGAND FREE ENERGY PREDICTED BY IDOCK:   -8.59 KCAL/MOL
REMARK 924 INTRA-LIGAND FREE ENERGY PREDICTED BY IDOCK:    0.17 KCAL/MOL
REMARK 927      BINDING AFFINITY PREDICTED BY RF-SCORE:    0.00 PKD
ROOT
HETATM    1  C   UNL     1     -12.006  13.120  68.663  1.00  0.00    -0.319 C  
HETATM    2  C   UNL     1     -11.912  13.435  70.041  1.00  0.00    -0.407 C  
HETATM    3  C   UNL     1     -10.744  13.821  69.181  1.00  0.00    -0.154 C  
HETATM    4  C   UNL     1     -11.006  13.884  67.118  1.00  0.00    -0.291 C  
HETATM    5  C   UNL     1      -8.253   8.588  69.659  1.00  0.00    -0.115 C  
HETATM    6  O   UNL     1     -12.333  13.540  66.551  1.00  0.00    -0.392 OA 
HETATM    7  C   UNL     1     -11.210  14.795  68.115  1.00  0.00    -0.307 C  
HETATM    8  C   UNL     1     -12.141  15.962  68.248  1.00  0.00     0.290 C  
HETATM    9  H   UNL     1     -12.453  13.569  65.609  1.00  0.00     0.000 HD 
HETATM   10  C   UNL     1      -6.828   8.846  69.418  1.00  0.00    -0.049 C  
HETATM   11  C   UNL     1      -9.055   9.440  68.993  1.00  0.00    -0.142 C  
HETATM   12  C   UNL     1      -9.301  14.847  68.032  1.00  0.00    -0.193 C  
HETATM   13  C   UNL     1     -11.097   8.210  69.871  1.00  0.00    -0.102 C  
HETATM   14  C   UNL     1      -8.651  13.290  67.665  1.00  0.00    -0.196 C  
HETATM   15  O   UNL     1      -8.771  13.149  66.237  1.00  0.00    -0.418 OA 
HETATM   16  C   UNL     1      -9.224  11.913  68.412  1.00  0.00    -0.173 C  
HETATM   17  C   UNL     1      -8.435  10.241  66.736  1.00  0.00    -0.123 C  
HETATM   18  C   UNL     1      -8.383  10.604  68.218  1.00  0.00    -0.122 C  
HETATM   19  C   UNL     1      -6.937  10.859  68.898  1.00  0.00    -0.084 C  
HETATM   20  H   UNL     1      -8.414  12.293  66.035  1.00  0.00     0.000 HD 
HETATM   21  C   UNL     1     -10.918  11.695  68.267  1.00  0.00    -0.273 C  
HETATM   22  C   UNL     1     -11.368  10.529  69.132  1.00  0.00    -0.319 C  
HETATM   23  O   UNL     1      -6.105   8.128  68.750  1.00  0.00    -0.041 OA 
HETATM   24  C   UNL     1     -10.562   9.257  68.894  1.00  0.00    -0.222 C  
HETATM   25  C   UNL     1      -6.396  10.203  69.941  1.00  0.00    -0.074 C  
ENDROOT
BRANCH   4  26
HETATM   26  C   UNL     1     -10.674  15.121  65.811  1.00  0.00    -0.351 C  
HETATM   27  O   UNL     1     -11.024  14.955  64.629  1.00  0.00    -0.370 OA 
BRANCH  26  28
HETATM   28  C   UNL     1      -9.796  16.468  66.007  1.00  0.00    -0.322 C  
BRANCH  28  29
HETATM   29  O   UNL     1     -10.583  17.663  65.489  1.00  0.00    -0.622 OA 
BRANCH  29  30
HETATM   30  C   UNL     1     -10.443  18.922  66.028  1.00  0.00    -0.446 C  
HETATM   31  O   UNL     1     -10.094  19.898  65.379  1.00  0.00    -0.312 OA 
BRANCH  30  32
HETATM   32  C   UNL     1     -10.759  18.990  67.548  1.00  0.00    -0.532 C  
BRANCH  32  33
HETATM   33  C   UNL     1      -9.719  19.775  68.377  1.00  0.00    -0.480 C  
HETATM   34  C   UNL     1      -8.251  19.386  68.263  1.00  0.00    -0.337 C  
HETATM   35  O   UNL     1      -7.918  18.133  68.616  1.00  0.00    -0.300 OA 
HETATM   36  O   UNL     1      -7.393  20.171  67.879  1.00  0.00    -0.288 OA 
ENDBRANCH  32  33
ENDBRANCH  30  32
ENDBRANCH  29  30
ENDBRANCH  28  29
ENDBRANCH  26  28
ENDBRANCH   4  26
TORSDOF 6
ENDMDL
MODEL       43
REMARK 921   NORMALIZED FREE ENERGY PREDICTED BY IDOCK:   -5.97 KCAL/MOL
REMARK 922        TOTAL FREE ENERGY PREDICTED BY IDOCK:   -8.41 KCAL/MOL
REMARK 923 INTER-LIGAND FREE ENERGY PREDICTED BY IDOCK:   -8.64 KCAL/MOL
REMARK 924 INTRA-LIGAND FREE ENERGY PREDICTED BY IDOCK:    0.23 KCAL/MOL
REMARK 927      BINDING AFFINITY PREDICTED BY RF-SCORE:    0.00 PKD
ROOT
HETATM    1  C   UNL     1     -11.379   7.727  71.223  1.00  0.00    -0.289 C  
HETATM    2  C   UNL     1     -11.517   8.307  72.508  1.00  0.00    -0.454 C  
HETATM    3  C   UNL     1     -10.188   8.478  71.831  1.00  0.00    -0.369 C  
HETATM    4  C   UNL     1     -10.063   8.137  69.783  1.00  0.00    -0.197 C  
HETATM    5  C   UNL     1      -8.186   3.371  73.765  1.00  0.00    -0.075 C  
HETATM    6  O   UNL     1     -11.285   7.728  69.047  1.00  0.00    -0.417 OA 
HETATM    7  C   UNL     1     -10.384   9.234  70.531  1.00  0.00    -0.312 C  
HETATM    8  C   UNL     1     -11.242  10.432  70.258  1.00  0.00    -0.395 C  
HETATM    9  H   UNL     1     -11.228   7.572  68.111  1.00  0.00     0.000 HD 
HETATM   10  C   UNL     1      -6.728   3.533  73.758  1.00  0.00    -0.036 C  
HETATM   11  C   UNL     1      -8.794   4.098  72.807  1.00  0.00    -0.111 C  
HETATM   12  C   UNL     1      -8.493   9.211  70.809  1.00  0.00    -0.256 C  
HETATM   13  C   UNL     1     -11.041   3.130  73.492  1.00  0.00    -0.316 C  
HETATM   14  C   UNL     1      -7.894   7.592  70.876  1.00  0.00    -0.090 C  
HETATM   15  O   UNL     1      -7.760   7.174  69.505  1.00  0.00    -0.108 OA 
HETATM   16  C   UNL     1      -8.686   6.410  71.746  1.00  0.00    -0.132 C  
HETATM   17  C   UNL     1      -7.719   4.414  70.601  1.00  0.00    -0.053 C  
HETATM   18  C   UNL     1      -7.914   5.063  71.969  1.00  0.00    -0.111 C  
HETATM   19  C   UNL     1      -6.603   5.404  72.854  1.00  0.00    -0.070 C  
HETATM   20  H   UNL     1      -7.431   6.284  69.542  1.00  0.00     0.000 HD 
HETATM   21  C   UNL     1     -10.335   6.219  71.321  1.00  0.00    -0.255 C  
HETATM   22  C   UNL     1     -11.014   5.263  72.289  1.00  0.00    -0.249 C  
HETATM   23  O   UNL     1      -5.945   2.674  73.390  1.00  0.00    -0.007 OA 
HETATM   24  C   UNL     1     -10.266   3.945  72.456  1.00  0.00    -0.233 C  
HETATM   25  C   UNL     1      -6.308   4.953  74.087  1.00  0.00    -0.061 C  
ENDROOT
BRANCH   4  26
HETATM   26  C   UNL     1      -9.415   9.078  68.353  1.00  0.00    -0.146 C  
HETATM   27  O   UNL     1      -8.309   9.645  68.373  1.00  0.00    -0.115 OA 
BRANCH  26  28
HETATM   28  C   UNL     1     -10.239   9.388  66.994  1.00  0.00    -0.255 C  
BRANCH  28  29
HETATM   29  O   UNL     1      -9.976  10.823  66.560  1.00  0.00    -0.199 OA 
BRANCH  29  30
HETATM   30  C   UNL     1     -10.930  11.810  66.674  1.00  0.00    -0.294 C  
HETATM   31  O   UNL     1     -12.065  11.606  67.079  1.00  0.00    -0.547 OA 
BRANCH  30  32
HETATM   32  C   UNL     1     -10.433  13.213  66.227  1.00  0.00    -0.291 C  
BRANCH  32  33
HETATM   33  C   UNL     1     -10.871  13.615  64.801  1.00  0.00    -0.402 C  
HETATM   34  C   UNL     1     -12.105  14.495  64.638  1.00  0.00    -0.473 C  
HETATM   35  O   UNL     1     -13.270  14.011  65.101  1.00  0.00    -0.768 OA 
HETATM   36  O   UNL     1     -12.060  15.594  64.099  1.00  0.00    -0.556 OA 
ENDBRANCH  32  33
ENDBRANCH  30  32
ENDBRANCH  29  30
ENDBRANCH  28  29
ENDBRANCH  26  28
ENDBRANCH   4  26
TORSDOF 6
ENDMDL
MODEL       44
REMARK 921   NORMALIZED FREE ENERGY PREDICTED BY IDOCK:   -5.91 KCAL/MOL
REMARK 922        TOTAL FREE ENERGY PREDICTED BY IDOCK:   -8.32 KCAL/MOL
REMARK 923 INTER-LIGAND FREE ENERGY PREDICTED BY IDOCK:   -7.40 KCAL/MOL
REMARK 924 INTRA-LIGAND FREE ENERGY PREDICTED BY IDOCK:   -0.92 KCAL/MOL
REMARK 927      BINDING AFFINITY PREDICTED BY RF-SCORE:    0.00 PKD
ROOT
HETATM    1  C   UNL     1      -7.774  12.922  67.642  1.00  0.00    -0.162 C  
HETATM    2  C   UNL     1      -6.989  12.980  68.820  1.00  0.00    -0.103 C  
HETATM    3  C   UNL     1      -8.132  12.007  68.819  1.00  0.00     0.007 C  
HETATM    4  C   UNL     1      -8.988  11.478  66.998  1.00  0.00    -0.174 C  
HETATM    5  C   UNL     1     -11.971  16.023  70.538  1.00  0.00    -0.268 C  
HETATM    6  O   UNL     1      -8.453  12.080  65.752  1.00  0.00    -0.350 OA 
HETATM    7  C   UNL     1      -7.926  10.995  67.708  1.00  0.00    -0.115 C  
HETATM    8  C   UNL     1      -6.668  10.290  67.298  1.00  0.00    -0.073 C  
HETATM    9  H   UNL     1      -8.843  11.839  64.920  1.00  0.00     0.000 HD 
HETATM   10  C   UNL     1     -13.035  15.247  71.186  1.00  0.00    -0.454 C  
HETATM   11  C   UNL     1     -11.360  15.343  69.549  1.00  0.00    -0.308 C  
HETATM   12  C   UNL     1      -9.353  10.286  68.763  1.00  0.00    -0.166 C  
HETATM   13  C   UNL     1      -9.927  17.375  69.030  1.00  0.00    -0.265 C  
HETATM   14  C   UNL     1     -10.694  11.373  68.809  1.00  0.00    -0.203 C  
HETATM   15  O   UNL     1     -11.410  11.153  67.579  1.00  0.00    -0.354 OA 
HETATM   16  C   UNL     1     -10.474  13.010  69.042  1.00  0.00    -0.023 C  
HETATM   17  C   UNL     1     -12.649  13.800  68.107  1.00  0.00     0.585 C  
HETATM   18  C   UNL     1     -11.759  13.857  69.346  1.00  0.00    -0.367 C  
HETATM   19  C   UNL     1     -12.360  13.327  70.751  1.00  0.00    -0.425 C  
HETATM   20  H   UNL     1     -12.147  11.752  67.604  1.00  0.00     0.000 HD 
HETATM   21  C   UNL     1      -9.396  13.735  67.925  1.00  0.00    -0.211 C  
HETATM   22  C   UNL     1      -9.115  15.173  68.332  1.00  0.00    -0.185 C  
HETATM   23  O   UNL     1     -14.225  15.472  71.052  1.00  0.00    -0.490 OA 
HETATM   24  C   UNL     1     -10.380  15.986  68.580  1.00  0.00    -0.241 C  
HETATM   25  C   UNL     1     -12.496  14.020  71.897  1.00  0.00    -0.293 C  
ENDROOT
BRANCH   4  26
HETATM   26  C   UNL     1      -9.381   9.897  66.166  1.00  0.00    -0.181 C  
HETATM   27  O   UNL     1      -9.639   8.856  66.796  1.00  0.00    -0.169 OA 
BRANCH  26  28
HETATM   28  C   UNL     1      -9.306   9.644  64.568  1.00  0.00    -0.182 C  
BRANCH  28  29
HETATM   29  O   UNL     1     -10.432  10.406  63.883  1.00  0.00    -0.070 OA 
BRANCH  29  30
HETATM   30  C   UNL     1     -10.251  11.668  63.362  1.00  0.00    -0.433 C  
HETATM   31  O   UNL     1      -9.193  12.054  62.887  1.00  0.00    -0.191 OA 
BRANCH  30  32
HETATM   32  C   UNL     1     -11.517  12.565  63.444  1.00  0.00    -0.523 C  
BRANCH  32  33
HETATM   33  C   UNL     1     -11.678  13.312  64.786  1.00  0.00    -0.390 C  
HETATM   34  C   UNL     1     -11.001  14.667  64.953  1.00  0.00    -0.407 C  
HETATM   35  O   UNL     1      -9.662  14.703  64.837  1.00  0.00    -0.072 OA 
HETATM   36  O   UNL     1     -11.630  15.689  65.195  1.00  0.00    -0.145 OA 
ENDBRANCH  32  33
ENDBRANCH  30  32
ENDBRANCH  29  30
ENDBRANCH  28  29
ENDBRANCH  26  28
ENDBRANCH   4  26
TORSDOF 6
ENDMDL
MODEL       45
REMARK 921   NORMALIZED FREE ENERGY PREDICTED BY IDOCK:   -5.86 KCAL/MOL
REMARK 922        TOTAL FREE ENERGY PREDICTED BY IDOCK:   -8.25 KCAL/MOL
REMARK 923 INTER-LIGAND FREE ENERGY PREDICTED BY IDOCK:   -8.17 KCAL/MOL
REMARK 924 INTRA-LIGAND FREE ENERGY PREDICTED BY IDOCK:   -0.08 KCAL/MOL
REMARK 927      BINDING AFFINITY PREDICTED BY RF-SCORE:    0.00 PKD
ROOT
HETATM    1  C   UNL     1     -11.781  13.134  67.440  1.00  0.00    -0.419 C  
HETATM    2  C   UNL     1     -10.995  14.062  68.167  1.00  0.00    -0.268 C  
HETATM    3  C   UNL     1     -10.255  13.083  67.303  1.00  0.00    -0.239 C  
HETATM    4  C   UNL     1     -11.308  12.062  65.828  1.00  0.00    -0.331 C  
HETATM    5  C   UNL     1     -10.201   8.990  71.434  1.00  0.00    -0.399 C  
HETATM    6  O   UNL     1     -12.761  12.321  65.673  1.00  0.00    -0.368 OA 
HETATM    7  C   UNL     1     -10.677  13.273  65.858  1.00  0.00    -0.284 C  
HETATM    8  C   UNL     1     -10.892  14.548  65.100  1.00  0.00    -0.407 C  
HETATM    9  H   UNL     1     -13.242  11.855  65.000  1.00  0.00     0.000 HD 
HETATM   10  C   UNL     1      -9.045   8.152  71.093  1.00  0.00    -0.154 C  
HETATM   11  C   UNL     1     -10.778   9.545  70.351  1.00  0.00    -0.341 C  
HETATM   12  C   UNL     1      -9.149  12.128  65.780  1.00  0.00     0.060 C  
HETATM   13  C   UNL     1     -12.566  10.581  71.828  1.00  0.00    -0.445 C  
HETATM   14  C   UNL     1      -9.421  10.665  66.656  1.00  0.00    -0.167 C  
HETATM   15  O   UNL     1     -10.177   9.820  65.768  1.00  0.00    -0.264 OA 
HETATM   16  C   UNL     1     -10.138  10.677  68.162  1.00  0.00    -0.179 C  
HETATM   17  C   UNL     1     -10.897   8.300  68.216  1.00  0.00     0.025 C  
HETATM   18  C   UNL     1     -10.081   9.340  68.980  1.00  0.00    -0.207 C  
HETATM   19  C   UNL     1      -8.522   9.028  69.279  1.00  0.00    -0.128 C  
HETATM   20  H   UNL     1     -10.327   9.015  66.251  1.00  0.00     0.000 HD 
HETATM   21  C   UNL     1     -11.657  11.469  68.204  1.00  0.00    -0.378 C  
HETATM   22  C   UNL     1     -12.138  11.595  69.641  1.00  0.00    -0.345 C  
HETATM   23  O   UNL     1      -9.039   6.935  71.156  1.00  0.00    -0.150 OA 
HETATM   24  C   UNL     1     -12.113  10.274  70.402  1.00  0.00    -0.373 C  
HETATM   25  C   UNL     1      -7.916   8.958  70.478  1.00  0.00    -0.133 C  
ENDROOT
BRANCH   4  26
HETATM   26  C   UNL     1     -11.080  11.786  64.033  1.00  0.00    -0.390 C  
HETATM   27  O   UNL     1     -12.037  11.653  63.251  1.00  0.00    -0.409 OA 
BRANCH  26  28
HETATM   28  C   UNL     1      -9.653  11.555  63.303  1.00  0.00    -0.346 C  
BRANCH  28  29
HETATM   29  O   UNL     1      -9.437  10.065  63.078  1.00  0.00    -0.297 OA 
BRANCH  29  30
HETATM   30  C   UNL     1      -8.183   9.525  62.900  1.00  0.00    -0.158 C  
HETATM   31  O   UNL     1      -7.157  10.191  62.898  1.00  0.00    -0.125 OA 
BRANCH  30  32
HETATM   32  C   UNL     1      -8.190   7.986  62.690  1.00  0.00    -0.129 C  
BRANCH  32  33
HETATM   33  C   UNL     1      -7.275   7.209  63.662  1.00  0.00    -0.075 C  
HETATM   34  C   UNL     1      -7.907   6.524  64.868  1.00  0.00    -0.114 C  
HETATM   35  O   UNL     1      -8.556   7.305  65.748  1.00  0.00    -0.145 OA 
HETATM   36  O   UNL     1      -7.827   5.316  65.052  1.00  0.00    -0.089 OA 
ENDBRANCH  32  33
ENDBRANCH  30  32
ENDBRANCH  29  30
ENDBRANCH  28  29
ENDBRANCH  26  28
ENDBRANCH   4  26
TORSDOF 6
ENDMDL
MODEL       46
REMARK 921   NORMALIZED FREE ENERGY PREDICTED BY IDOCK:   -5.85 KCAL/MOL
REMARK 922        TOTAL FREE ENERGY PREDICTED BY IDOCK:   -8.25 KCAL/MOL
REMARK 923 INTER-LIGAND FREE ENERGY PREDICTED BY IDOCK:   -8.41 KCAL/MOL
REMARK 924 INTRA-LIGAND FREE ENERGY PREDICTED BY IDOCK:    0.16 KCAL/MOL
REMARK 927      BINDING AFFINITY PREDICTED BY RF-SCORE:    0.00 PKD
ROOT
HETATM    1  C   UNL     1      -8.219  11.731  68.277  1.00  0.00    -0.157 C  
HETATM    2  C   UNL     1      -7.304  11.145  67.368  1.00  0.00    -0.108 C  
HETATM    3  C   UNL     1      -8.760  10.872  67.127  1.00  0.00    -0.132 C  
HETATM    4  C   UNL     1     -10.168  12.088  68.058  1.00  0.00    -0.198 C  
HETATM    5  C   UNL     1      -8.846   6.350  70.784  1.00  0.00    -0.144 C  
HETATM    6  O   UNL     1      -9.699  13.185  68.940  1.00  0.00    -0.409 OA 
HETATM    7  C   UNL     1      -9.480  12.185  66.882  1.00  0.00    -0.210 C  
HETATM    8  C   UNL     1      -9.046  13.357  66.054  1.00  0.00     0.207 C  
HETATM    9  H   UNL     1     -10.342  13.741  69.365  1.00  0.00     0.000 HD 
HETATM   10  C   UNL     1      -9.967   5.530  70.311  1.00  0.00    -0.216 C  
HETATM   11  C   UNL     1      -9.030   7.665  70.550  1.00  0.00    -0.151 C  
HETATM   12  C   UNL     1     -10.739  10.832  66.395  1.00  0.00    -0.228 C  
HETATM   13  C   UNL     1      -6.841   8.184  71.729  1.00  0.00    -0.073 C  
HETATM   14  C   UNL     1     -11.093   9.799  67.733  1.00  0.00    -0.075 C  
HETATM   15  O   UNL     1     -12.067  10.510  68.521  1.00  0.00    -0.793 OA 
HETATM   16  C   UNL     1      -9.883   9.223  68.727  1.00  0.00    -0.174 C  
HETATM   17  C   UNL     1     -11.288   8.663  70.713  1.00  0.00    -0.299 C  
HETATM   18  C   UNL     1     -10.278   8.081  69.727  1.00  0.00    -0.206 C  
HETATM   19  C   UNL     1     -10.716   6.800  68.842  1.00  0.00    -0.276 C  
HETATM   20  H   UNL     1     -12.261   9.941  69.257  1.00  0.00     0.000 HD 
HETATM   21  C   UNL     1      -8.896  10.449  69.405  1.00  0.00    -0.138 C  
HETATM   22  C   UNL     1      -7.717   9.822  70.134  1.00  0.00    -0.188 C  
HETATM   23  O   UNL     1     -10.770   4.979  71.044  1.00  0.00    -0.139 OA 
HETATM   24  C   UNL     1      -8.130   8.745  71.130  1.00  0.00    -0.192 C  
HETATM   25  C   UNL     1     -10.126   5.591  68.803  1.00  0.00    -0.256 C  
ENDROOT
BRANCH   4  26
HETATM   26  C   UNL     1     -11.621  13.048  67.495  1.00  0.00    -0.356 C  
HETATM   27  O   UNL     1     -12.511  12.555  66.781  1.00  0.00    -0.318 OA 
BRANCH  26  28
HETATM   28  C   UNL     1     -11.838  14.634  67.740  1.00  0.00    -0.329 C  
BRANCH  28  29
HETATM   29  O   UNL     1     -11.856  14.916  69.235  1.00  0.00    -0.299 OA 
BRANCH  29  30
HETATM   30  C   UNL     1     -11.170  15.973  69.790  1.00  0.00    -0.344 C  
HETATM   31  O   UNL     1     -11.446  16.457  70.878  1.00  0.00    -0.380 OA 
BRANCH  30  32
HETATM   32  C   UNL     1     -10.015  16.506  68.898  1.00  0.00    -0.262 C  
BRANCH  32  33
HETATM   33  C   UNL     1     -10.389  17.740  68.048  1.00  0.00    -0.395 C  
HETATM   34  C   UNL     1      -9.711  17.927  66.696  1.00  0.00    -0.319 C  
HETATM   35  O   UNL     1      -8.373  18.050  66.691  1.00  0.00    -0.244 OA 
HETATM   36  O   UNL     1     -10.342  17.978  65.648  1.00  0.00    -0.611 OA 
ENDBRANCH  32  33
ENDBRANCH  30  32
ENDBRANCH  29  30
ENDBRANCH  28  29
ENDBRANCH  26  28
ENDBRANCH   4  26
TORSDOF 6
ENDMDL
MODEL       47
REMARK 921   NORMALIZED FREE ENERGY PREDICTED BY IDOCK:   -5.83 KCAL/MOL
REMARK 922        TOTAL FREE ENERGY PREDICTED BY IDOCK:   -8.21 KCAL/MOL
REMARK 923 INTER-LIGAND FREE ENERGY PREDICTED BY IDOCK:   -8.37 KCAL/MOL
REMARK 924 INTRA-LIGAND FREE ENERGY PREDICTED BY IDOCK:    0.15 KCAL/MOL
REMARK 927      BINDING AFFINITY PREDICTED BY RF-SCORE:    0.00 PKD
ROOT
HETATM    1  C   UNL     1      -8.692   8.258  66.708  1.00  0.00    -0.143 C  
HETATM    2  C   UNL     1      -9.608   7.410  66.039  1.00  0.00     0.070 C  
HETATM    3  C   UNL     1     -10.194   8.537  66.839  1.00  0.00    -0.375 C  
HETATM    4  C   UNL     1      -8.953  10.109  67.402  1.00  0.00    -0.134 C  
HETATM    5  C   UNL     1     -10.150   5.476  71.783  1.00  0.00    -0.247 C  
HETATM    6  O   UNL     1      -7.523  10.072  67.007  1.00  0.00    -0.091 OA 
HETATM    7  C   UNL     1      -9.694   9.857  66.282  1.00  0.00    -0.281 C  
HETATM    8  C   UNL     1      -9.547  10.281  64.852  1.00  0.00    -0.365 C  
HETATM    9  H   UNL     1      -6.956  10.790  67.263  1.00  0.00     0.000 HD 
HETATM   10  C   UNL     1     -11.198   6.100  72.600  1.00  0.00    -0.274 C  
HETATM   11  C   UNL     1      -9.554   6.349  70.947  1.00  0.00    -0.189 C  
HETATM   12  C   UNL     1     -11.101  10.330  67.486  1.00  0.00    -0.302 C  
HETATM   13  C   UNL     1      -7.975   4.522  70.160  1.00  0.00    -0.063 C  
HETATM   14  C   UNL     1     -10.755   9.792  69.090  1.00  0.00    -0.221 C  
HETATM   15  O   UNL     1      -9.865  10.780  69.644  1.00  0.00    -0.432 OA 
HETATM   16  C   UNL     1     -10.146   8.267  69.381  1.00  0.00    -0.198 C  
HETATM   17  C   UNL     1      -9.177   8.693  71.641  1.00  0.00    -0.326 C  
HETATM   18  C   UNL     1     -10.135   7.785  70.874  1.00  0.00    -0.195 C  
HETATM   19  C   UNL     1     -11.675   7.704  71.362  1.00  0.00    -0.310 C  
HETATM   20  H   UNL     1      -9.675  10.484  70.526  1.00  0.00     0.000 HD 
HETATM   21  C   UNL     1      -8.713   7.911  68.511  1.00  0.00    -0.131 C  
HETATM   22  C   UNL     1      -8.345   6.447  68.693  1.00  0.00    -0.121 C  
HETATM   23  O   UNL     1     -11.096   6.319  73.794  1.00  0.00    -0.025 OA 
HETATM   24  C   UNL     1      -8.300   6.015  70.154  1.00  0.00    -0.120 C  
HETATM   25  C   UNL     1     -12.352   6.611  71.758  1.00  0.00    -0.385 C  
ENDROOT
BRANCH   4  26
HETATM   26  C   UNL     1      -9.032  11.932  67.262  1.00  0.00    -0.176 C  
HETATM   27  O   UNL     1      -8.014  12.643  67.211  1.00  0.00    -0.173 OA 
BRANCH  26  28
HETATM   28  C   UNL     1     -10.392  12.810  67.326  1.00  0.00    -0.232 C  
BRANCH  28  29
HETATM   29  O   UNL     1     -10.355  13.708  68.555  1.00  0.00    -0.239 OA 
BRANCH  29  30
HETATM   30  C   UNL     1     -11.451  13.879  69.371  1.00  0.00    -0.280 C  
HETATM   31  O   UNL     1     -12.018  12.956  69.938  1.00  0.00    -0.324 OA 
BRANCH  30  32
HETATM   32  C   UNL     1     -11.912  15.358  69.496  1.00  0.00    -0.358 C  
BRANCH  32  33
HETATM   33  C   UNL     1     -11.564  16.017  70.849  1.00  0.00    -0.453 C  
HETATM   34  C   UNL     1     -12.353  15.605  72.085  1.00  0.00    -0.430 C  
HETATM   35  O   UNL     1     -13.680  15.819  72.068  1.00  0.00    -0.451 OA 
HETATM   36  O   UNL     1     -11.818  15.109  73.070  1.00  0.00    -0.388 OA 
ENDBRANCH  32  33
ENDBRANCH  30  32
ENDBRANCH  29  30
ENDBRANCH  28  29
ENDBRANCH  26  28
ENDBRANCH   4  26
TORSDOF 6
ENDMDL
MODEL       48
REMARK 921   NORMALIZED FREE ENERGY PREDICTED BY IDOCK:   -5.82 KCAL/MOL
REMARK 922        TOTAL FREE ENERGY PREDICTED BY IDOCK:   -8.21 KCAL/MOL
REMARK 923 INTER-LIGAND FREE ENERGY PREDICTED BY IDOCK:   -8.40 KCAL/MOL
REMARK 924 INTRA-LIGAND FREE ENERGY PREDICTED BY IDOCK:    0.18 KCAL/MOL
REMARK 927      BINDING AFFINITY PREDICTED BY RF-SCORE:    0.00 PKD
ROOT
HETATM    1  C   UNL     1     -10.103   9.679  65.833  1.00  0.00    -0.304 C  
HETATM    2  C   UNL     1      -9.085   9.737  64.850  1.00  0.00    -0.278 C  
HETATM    3  C   UNL     1      -8.738  10.267  66.211  1.00  0.00    -0.157 C  
HETATM    4  C   UNL     1      -9.952   9.749  67.820  1.00  0.00    -0.168 C  
HETATM    5  C   UNL     1     -10.895  15.544  65.058  1.00  0.00    -0.468 C  
HETATM    6  O   UNL     1     -11.129   8.879  67.580  1.00  0.00    -0.478 OA 
HETATM    7  C   UNL     1      -8.874   9.152  67.230  1.00  0.00    -0.132 C  
HETATM    8  C   UNL     1      -8.439   7.721  67.124  1.00  0.00    -0.124 C  
HETATM    9  H   UNL     1     -11.683   8.642  68.314  1.00  0.00     0.000 HD 
HETATM   10  C   UNL     1     -10.174  16.433  65.976  1.00  0.00    -0.356 C  
HETATM   11  C   UNL     1     -11.055  14.302  65.557  1.00  0.00    -0.323 C  
HETATM   12  C   UNL     1      -7.978  10.563  68.158  1.00  0.00    -0.111 C  
HETATM   13  C   UNL     1     -12.388  13.643  63.497  1.00  0.00    -0.265 C  
HETATM   14  C   UNL     1      -8.943  11.994  68.195  1.00  0.00    -0.190 C  
HETATM   15  O   UNL     1      -9.881  11.799  69.270  1.00  0.00    -0.402 OA 
HETATM   16  C   UNL     1      -9.752  12.530  66.838  1.00  0.00    -0.232 C  
HETATM   17  C   UNL     1     -11.449  13.964  67.975  1.00  0.00    -0.339 C  
HETATM   18  C   UNL     1     -10.361  13.974  66.905  1.00  0.00    -0.269 C  
HETATM   19  C   UNL     1      -9.127  15.006  67.071  1.00  0.00    -0.249 C  
HETATM   20  H   UNL     1     -10.412  12.586  69.290  1.00  0.00     0.000 HD 
HETATM   21  C   UNL     1     -10.786  11.357  66.135  1.00  0.00    -0.320 C  
HETATM   22  C   UNL     1     -11.326  11.869  64.809  1.00  0.00    -0.344 C  
HETATM   23  O   UNL     1     -10.692  17.349  66.591  1.00  0.00    -0.225 OA 
HETATM   24  C   UNL     1     -11.950  13.256  64.909  1.00  0.00    -0.417 C  
HETATM   25  C   UNL     1      -8.748  15.974  66.217  1.00  0.00    -0.372 C  
ENDROOT
BRANCH   4  26
HETATM   26  C   UNL     1      -9.661   9.042  69.482  1.00  0.00    -0.170 C  
HETATM   27  O   UNL     1      -8.633   9.280  70.139  1.00  0.00    -0.158 OA 
BRANCH  26  28
HETATM   28  C   UNL     1     -10.614   7.952  70.208  1.00  0.00    -0.231 C  
BRANCH  28  29
HETATM   29  O   UNL     1      -9.756   6.835  70.784  1.00  0.00    -0.178 OA 
BRANCH  29  30
HETATM   30  C   UNL     1      -9.539   6.701  72.137  1.00  0.00    -0.147 C  
HETATM   31  O   UNL     1     -10.338   7.068  72.987  1.00  0.00    -0.213 OA 
BRANCH  30  32
HETATM   32  C   UNL     1      -8.174   6.047  72.490  1.00  0.00    -0.108 C  
BRANCH  32  33
HETATM   33  C   UNL     1      -7.503   6.624  73.756  1.00  0.00    -0.083 C  
HETATM   34  C   UNL     1      -6.909   8.025  73.692  1.00  0.00    -0.117 C  
HETATM   35  O   UNL     1      -5.923   8.235  72.802  1.00  0.00    -0.055 OA 
HETATM   36  O   UNL     1      -7.290   8.933  74.421  1.00  0.00    -0.411 OA 
ENDBRANCH  32  33
ENDBRANCH  30  32
ENDBRANCH  29  30
ENDBRANCH  28  29
ENDBRANCH  26  28
ENDBRANCH   4  26
TORSDOF 6
ENDMDL
MODEL       49
REMARK 921   NORMALIZED FREE ENERGY PREDICTED BY IDOCK:   -5.79 KCAL/MOL
REMARK 922        TOTAL FREE ENERGY PREDICTED BY IDOCK:   -8.17 KCAL/MOL
REMARK 923 INTER-LIGAND FREE ENERGY PREDICTED BY IDOCK:   -8.25 KCAL/MOL
REMARK 924 INTRA-LIGAND FREE ENERGY PREDICTED BY IDOCK:    0.08 KCAL/MOL
REMARK 927      BINDING AFFINITY PREDICTED BY RF-SCORE:    0.00 PKD
ROOT
HETATM    1  C   UNL     1      -8.495   8.151  66.615  1.00  0.00    -0.129 C  
HETATM    2  C   UNL     1      -9.383   7.248  65.981  1.00  0.00    -0.030 C  
HETATM    3  C   UNL     1     -10.006   8.381  66.745  1.00  0.00    -0.354 C  
HETATM    4  C   UNL     1      -8.819  10.014  67.245  1.00  0.00    -0.135 C  
HETATM    5  C   UNL     1      -9.827   5.498  71.792  1.00  0.00    -0.216 C  
HETATM    6  O   UNL     1      -7.391  10.015  66.843  1.00  0.00    -0.090 OA 
HETATM    7  C   UNL     1      -9.556   9.697  66.140  1.00  0.00    -0.295 C  
HETATM    8  C   UNL     1      -9.431  10.076  64.695  1.00  0.00    -0.367 C  
HETATM    9  H   UNL     1      -6.848  10.761  67.071  1.00  0.00     0.000 HD 
HETATM   10  C   UNL     1     -10.892   6.112  72.593  1.00  0.00    -0.245 C  
HETATM   11  C   UNL     1      -9.267   6.361  70.923  1.00  0.00    -0.161 C  
HETATM   12  C   UNL     1     -10.973  10.162  67.335  1.00  0.00    -0.295 C  
HETATM   13  C   UNL     1      -7.627   4.565  70.189  1.00  0.00    -0.053 C  
HETATM   14  C   UNL     1     -10.600   9.693  68.955  1.00  0.00    -0.218 C  
HETATM   15  O   UNL     1      -9.743  10.730  69.468  1.00  0.00    -0.414 OA 
HETATM   16  C   UNL     1      -9.935   8.201  69.295  1.00  0.00    -0.188 C  
HETATM   17  C   UNL     1      -8.970   8.740  71.533  1.00  0.00    -0.306 C  
HETATM   18  C   UNL     1      -9.900   7.773  70.803  1.00  0.00    -0.183 C  
HETATM   19  C   UNL     1     -11.433   7.654  71.303  1.00  0.00    -0.293 C  
HETATM   20  H   UNL     1      -9.538  10.472  70.359  1.00  0.00     0.000 HD 
HETATM   21  C   UNL     1      -8.495   7.866  68.429  1.00  0.00    -0.128 C  
HETATM   22  C   UNL     1      -8.073   6.423  68.659  1.00  0.00    -0.113 C  
HETATM   23  O   UNL     1     -10.792   6.376  73.779  1.00  0.00    -0.222 OA 
HETATM   24  C   UNL     1      -8.005   6.045  70.134  1.00  0.00    -0.106 C  
HETATM   25  C   UNL     1     -12.068   6.551  71.741  1.00  0.00    -0.393 C  
ENDROOT
BRANCH   4  26
HETATM   26  C   UNL     1      -8.964  11.827  67.043  1.00  0.00    -0.186 C  
HETATM   27  O   UNL     1      -8.401  12.632  67.805  1.00  0.00    -0.148 OA 
BRANCH  26  28
HETATM   28  C   UNL     1      -9.921  12.568  65.967  1.00  0.00    -0.257 C  
BRANCH  28  29
HETATM   29  O   UNL     1     -10.481  13.843  66.583  1.00  0.00    -0.268 OA 
BRANCH  29  30
HETATM   30  C   UNL     1     -11.777  13.928  67.040  1.00  0.00    -0.397 C  
HETATM   31  O   UNL     1     -12.744  14.048  66.302  1.00  0.00    -0.414 OA 
BRANCH  30  32
HETATM   32  C   UNL     1     -11.899  13.870  68.588  1.00  0.00    -0.407 C  
BRANCH  32  33
HETATM   33  C   UNL     1     -11.912  15.253  69.275  1.00  0.00    -0.327 C  
HETATM   34  C   UNL     1     -10.692  16.154  69.122  1.00  0.00    -0.292 C  
HETATM   35  O   UNL     1      -9.520  15.687  69.584  1.00  0.00    -0.282 OA 
HETATM   36  O   UNL     1     -10.759  17.267  68.613  1.00  0.00    -0.340 OA 
ENDBRANCH  32  33
ENDBRANCH  30  32
ENDBRANCH  29  30
ENDBRANCH  28  29
ENDBRANCH  26  28
ENDBRANCH   4  26
TORSDOF 6
ENDMDL
MODEL       50
REMARK 921   NORMALIZED FREE ENERGY PREDICTED BY IDOCK:   -5.78 KCAL/MOL
REMARK 922        TOTAL FREE ENERGY PREDICTED BY IDOCK:   -8.16 KCAL/MOL
REMARK 923 INTER-LIGAND FREE ENERGY PREDICTED BY IDOCK:   -8.19 KCAL/MOL
REMARK 924 INTRA-LIGAND FREE ENERGY PREDICTED BY IDOCK:    0.03 KCAL/MOL
REMARK 927      BINDING AFFINITY PREDICTED BY RF-SCORE:    0.00 PKD
ROOT
HETATM    1  C   UNL     1      -9.558  13.505  67.918  1.00  0.00    -0.218 C  
HETATM    2  C   UNL     1     -10.313  13.648  69.108  1.00  0.00     0.042 C  
HETATM    3  C   UNL     1     -10.844  14.340  67.886  1.00  0.00    -0.260 C  
HETATM    4  C   UNL     1     -10.119  13.764  66.023  1.00  0.00    -0.311 C  
HETATM    5  C   UNL     1      -7.578  19.073  68.754  1.00  0.00    -0.375 C  
HETATM    6  O   UNL     1      -9.094  12.695  65.950  1.00  0.00    -0.435 OA 
HETATM    7  C   UNL     1     -11.134  13.306  66.814  1.00  0.00    -0.313 C  
HETATM    8  C   UNL     1     -11.785  11.963  66.952  1.00  0.00    -0.291 C  
HETATM    9  H   UNL     1      -8.763  12.432  65.100  1.00  0.00     0.000 HD 
HETATM   10  C   UNL     1      -8.308  20.142  68.064  1.00  0.00    -0.150 C  
HETATM   11  C   UNL     1      -7.754  17.868  68.177  1.00  0.00    -0.256 C  
HETATM   12  C   UNL     1     -11.940  14.918  66.177  1.00  0.00    -0.051 C  
HETATM   13  C   UNL     1      -6.150  16.828  69.849  1.00  0.00    -0.194 C  
HETATM   14  C   UNL     1     -10.765  16.169  65.987  1.00  0.00    -0.241 C  
HETATM   15  O   UNL     1     -10.131  15.912  64.719  1.00  0.00    -0.412 OA 
HETATM   16  C   UNL     1      -9.600  16.448  67.147  1.00  0.00    -0.239 C  
HETATM   17  C   UNL     1      -7.958  17.672  65.720  1.00  0.00     0.102 C  
HETATM   18  C   UNL     1      -8.770  17.772  67.009  1.00  0.00    -0.254 C  
HETATM   19  C   UNL     1      -9.805  19.004  67.173  1.00  0.00    -0.383 C  
HETATM   20  H   UNL     1      -9.485  16.599  64.615  1.00  0.00     0.000 HD 
HETATM   21  C   UNL     1      -8.667  15.066  67.545  1.00  0.00    -0.194 C  
HETATM   22  C   UNL     1      -7.770  15.370  68.735  1.00  0.00    -0.150 C  
HETATM   23  O   UNL     1      -7.778  21.008  67.389  1.00  0.00    -0.312 OA 
HETATM   24  C   UNL     1      -6.944  16.638  68.558  1.00  0.00    -0.161 C  
HETATM   25  C   UNL     1      -9.811  19.947  68.133  1.00  0.00    -0.524 C  
ENDROOT
BRANCH   4  26
HETATM   26  C   UNL     1     -10.883  13.257  64.440  1.00  0.00    -0.403 C  
HETATM   27  O   UNL     1     -11.978  13.701  64.054  1.00  0.00    -0.437 OA 
BRANCH  26  28
HETATM   28  C   UNL     1     -10.307  12.106  63.457  1.00  0.00    -0.441 C  
BRANCH  28  29
HETATM   29  O   UNL     1     -10.422  10.752  64.143  1.00  0.00    -0.364 OA 
BRANCH  29  30
HETATM   30  C   UNL     1      -9.328   9.946  64.362  1.00  0.00    -0.265 C  
HETATM   31  O   UNL     1      -9.269   9.121  65.263  1.00  0.00    -0.221 OA 
BRANCH  30  32
HETATM   32  C   UNL     1      -8.163  10.188  63.363  1.00  0.00    -0.164 C  
BRANCH  32  33
HETATM   33  C   UNL     1      -6.837   9.501  63.758  1.00  0.00    -0.105 C  
HETATM   34  C   UNL     1      -6.481   8.172  63.104  1.00  0.00    -0.081 C  
HETATM   35  O   UNL     1      -7.329   7.146  63.296  1.00  0.00    -0.068 OA 
HETATM   36  O   UNL     1      -5.464   8.020  62.439  1.00  0.00    -0.063 OA 
ENDBRANCH  32  33
ENDBRANCH  30  32
ENDBRANCH  29  30
ENDBRANCH  28  29
ENDBRANCH  26  28
ENDBRANCH   4  26
TORSDOF 6
ENDMDL
MODEL       51
REMARK 921   NORMALIZED FREE ENERGY PREDICTED BY IDOCK:   -5.70 KCAL/MOL
REMARK 922        TOTAL FREE ENERGY PREDICTED BY IDOCK:   -8.05 KCAL/MOL
REMARK 923 INTER-LIGAND FREE ENERGY PREDICTED BY IDOCK:   -7.48 KCAL/MOL
REMARK 924 INTRA-LIGAND FREE ENERGY PREDICTED BY IDOCK:   -0.57 KCAL/MOL
REMARK 927      BINDING AFFINITY PREDICTED BY RF-SCORE:    0.00 PKD
ROOT
HETATM    1  C   UNL     1     -10.089  14.583  70.076  1.00  0.00     0.457 C  
HETATM    2  C   UNL     1     -10.853  15.451  70.893  1.00  0.00    -0.253 C  
HETATM    3  C   UNL     1     -11.333  15.257  69.484  1.00  0.00    -0.299 C  
HETATM    4  C   UNL     1     -10.610  13.634  68.402  1.00  0.00    -0.251 C  
HETATM    5  C   UNL     1      -7.857  19.421  67.386  1.00  0.00    -0.286 C  
HETATM    6  O   UNL     1      -9.636  12.718  69.045  1.00  0.00    -0.389 OA 
HETATM    7  C   UNL     1     -11.657  13.791  69.265  1.00  0.00    -0.362 C  
HETATM    8  C   UNL     1     -12.373  12.839  70.174  1.00  0.00    -0.235 C  
HETATM    9  H   UNL     1      -9.305  11.977  68.551  1.00  0.00     0.000 HD 
HETATM   10  C   UNL     1      -8.526  19.858  66.155  1.00  0.00    -0.319 C  
HETATM   11  C   UNL     1      -8.083  18.123  67.667  1.00  0.00    -0.234 C  
HETATM   12  C   UNL     1     -12.376  14.689  67.739  1.00  0.00     0.100 C  
HETATM   13  C   UNL     1      -6.554  18.290  69.689  1.00  0.00    -0.089 C  
HETATM   14  C   UNL     1     -11.139  15.522  66.866  1.00  0.00    -0.221 C  
HETATM   15  O   UNL     1     -10.501  14.520  66.053  1.00  0.00    -0.288 OA 
HETATM   16  C   UNL     1      -9.979  16.424  67.656  1.00  0.00    -0.252 C  
HETATM   17  C   UNL     1      -8.261  16.459  65.845  1.00  0.00     0.179 C  
HETATM   18  C   UNL     1      -9.086  17.356  66.765  1.00  0.00    -0.276 C  
HETATM   19  C   UNL     1     -10.063  18.456  66.093  1.00  0.00    -0.376 C  
HETATM   20  H   UNL     1      -9.821  14.977  65.574  1.00  0.00     0.000 HD 
HETATM   21  C   UNL     1      -9.119  15.556  68.857  1.00  0.00    -0.219 C  
HETATM   22  C   UNL     1      -8.226  16.502  69.643  1.00  0.00     0.477 C  
HETATM   23  O   UNL     1      -7.946  20.108  65.113  1.00  0.00    -0.084 OA 
HETATM   24  C   UNL     1      -7.338  17.367  68.757  1.00  0.00    -0.257 C  
HETATM   25  C   UNL     1     -10.037  19.790  66.269  1.00  0.00    -0.601 C  
ENDROOT
BRANCH   4  26
HETATM   26  C   UNL     1     -11.375  12.280  67.437  1.00  0.00    -0.325 C  
HETATM   27  O   UNL     1     -12.210  12.488  66.541  1.00  0.00    -0.569 OA 
BRANCH  26  28
HETATM   28  C   UNL     1     -11.162  10.700  67.723  1.00  0.00    -0.313 C  
BRANCH  28  29
HETATM   29  O   UNL     1      -9.693  10.347  67.533  1.00  0.00    -0.165 OA 
BRANCH  29  30
HETATM   30  C   UNL     1      -9.047  10.522  66.331  1.00  0.00    -0.162 C  
HETATM   31  O   UNL     1      -8.038  11.201  66.202  1.00  0.00    -0.165 OA 
BRANCH  30  32
HETATM   32  C   UNL     1      -9.725   9.785  65.143  1.00  0.00    -0.338 C  
BRANCH  32  33
HETATM   33  C   UNL     1      -9.663  10.551  63.803  1.00  0.00    -0.385 C  
HETATM   34  C   UNL     1     -10.611  11.725  63.590  1.00  0.00    -0.439 C  
HETATM   35  O   UNL     1     -11.929  11.468  63.639  1.00  0.00    -0.332 OA 
HETATM   36  O   UNL     1     -10.209  12.861  63.370  1.00  0.00    -0.215 OA 
ENDBRANCH  32  33
ENDBRANCH  30  32
ENDBRANCH  29  30
ENDBRANCH  28  29
ENDBRANCH  26  28
ENDBRANCH   4  26
TORSDOF 6
ENDMDL
MODEL       52
REMARK 921   NORMALIZED FREE ENERGY PREDICTED BY IDOCK:   -5.66 KCAL/MOL
REMARK 922        TOTAL FREE ENERGY PREDICTED BY IDOCK:   -7.99 KCAL/MOL
REMARK 923 INTER-LIGAND FREE ENERGY PREDICTED BY IDOCK:   -7.83 KCAL/MOL
REMARK 924 INTRA-LIGAND FREE ENERGY PREDICTED BY IDOCK:   -0.16 KCAL/MOL
REMARK 927      BINDING AFFINITY PREDICTED BY RF-SCORE:    0.00 PKD
ROOT
HETATM    1  C   UNL     1     -10.782  11.204  69.121  1.00  0.00    -0.262 C  
HETATM    2  C   UNL     1     -12.153  11.155  68.768  1.00  0.00    -0.232 C  
HETATM    3  C   UNL     1     -11.165  11.148  67.637  1.00  0.00    -0.364 C  
HETATM    4  C   UNL     1      -9.179  10.687  68.054  1.00  0.00    -0.148 C  
HETATM    5  C   UNL     1     -10.785  16.950  67.507  1.00  0.00    -0.270 C  
HETATM    6  O   UNL     1      -8.790  10.387  69.454  1.00  0.00    -0.220 OA 
HETATM    7  C   UNL     1     -10.275   9.926  67.761  1.00  0.00    -0.241 C  
HETATM    8  C   UNL     1     -10.652   8.516  68.106  1.00  0.00    -0.181 C  
HETATM    9  H   UNL     1      -7.884  10.177  69.644  1.00  0.00     0.000 HD 
HETATM   10  C   UNL     1     -10.357  17.249  66.136  1.00  0.00    -0.317 C  
HETATM   11  C   UNL     1     -10.327  15.761  67.946  1.00  0.00    -0.261 C  
HETATM   12  C   UNL     1      -9.910  10.629  66.021  1.00  0.00    -0.280 C  
HETATM   13  C   UNL     1     -11.387  16.186  70.215  1.00  0.00    -0.363 C  
HETATM   14  C   UNL     1      -9.310  12.245  66.116  1.00  0.00    -0.176 C  
HETATM   15  O   UNL     1      -7.909  12.118  66.426  1.00  0.00    -0.381 OA 
HETATM   16  C   UNL     1     -10.006  13.370  67.131  1.00  0.00    -0.242 C  
HETATM   17  C   UNL     1      -8.085  14.957  67.278  1.00  0.00    -0.234 C  
HETATM   18  C   UNL     1      -9.569  14.864  66.932  1.00  0.00    -0.256 C  
HETATM   19  C   UNL     1     -10.044  15.309  65.452  1.00  0.00    -0.397 C  
HETATM   20  H   UNL     1      -7.579  13.007  66.478  1.00  0.00     0.000 HD 
HETATM   21  C   UNL     1     -10.098  12.871  68.768  1.00  0.00    -0.058 C  
HETATM   22  C   UNL     1     -10.912  13.872  69.572  1.00  0.00    -0.109 C  
HETATM   23  O   UNL     1      -9.525  18.092  65.847  1.00  0.00    -0.520 OA 
HETATM   24  C   UNL     1     -10.440  15.311  69.395  1.00  0.00    -0.253 C  
HETATM   25  C   UNL     1     -10.930  16.269  65.130  1.00  0.00    -0.285 C  
ENDROOT
BRANCH   4  26
HETATM   26  C   UNL     1      -7.955   9.511  67.372  1.00  0.00    -0.106 C  
HETATM   27  O   UNL     1      -7.892   9.240  66.160  1.00  0.00    -0.098 OA 
BRANCH  26  28
HETATM   28  C   UNL     1      -6.938   8.612  68.255  1.00  0.00    -0.073 C  
BRANCH  28  29
HETATM   29  O   UNL     1      -7.728   7.559  69.019  1.00  0.00    -0.112 OA 
BRANCH  29  30
HETATM   30  C   UNL     1      -7.423   7.210  70.315  1.00  0.00    -0.085 C  
HETATM   31  O   UNL     1      -6.290   6.946  70.692  1.00  0.00    -0.044 OA 
BRANCH  30  32
HETATM   32  C   UNL     1      -8.657   7.169  71.259  1.00  0.00    -0.124 C  
BRANCH  32  33
HETATM   33  C   UNL     1      -9.778   6.213  70.795  1.00  0.00    -0.205 C  
HETATM   34  C   UNL     1     -11.172   6.383  71.386  1.00  0.00    -0.288 C  
HETATM   35  O   UNL     1     -11.297   6.243  72.717  1.00  0.00    -0.254 OA 
HETATM   36  O   UNL     1     -12.153   6.624  70.693  1.00  0.00    -0.394 OA 
ENDBRANCH  32  33
ENDBRANCH  30  32
ENDBRANCH  29  30
ENDBRANCH  28  29
ENDBRANCH  26  28
ENDBRANCH   4  26
TORSDOF 6
ENDMDL
MODEL       53
REMARK 921   NORMALIZED FREE ENERGY PREDICTED BY IDOCK:   -5.65 KCAL/MOL
REMARK 922        TOTAL FREE ENERGY PREDICTED BY IDOCK:   -7.98 KCAL/MOL
REMARK 923 INTER-LIGAND FREE ENERGY PREDICTED BY IDOCK:   -7.19 KCAL/MOL
REMARK 924 INTRA-LIGAND FREE ENERGY PREDICTED BY IDOCK:   -0.79 KCAL/MOL
REMARK 927      BINDING AFFINITY PREDICTED BY RF-SCORE:    0.00 PKD
ROOT
HETATM    1  C   UNL     1      -7.699   9.278  68.869  1.00  0.00    -0.079 C  
HETATM    2  C   UNL     1      -6.872   9.288  67.719  1.00  0.00    -0.079 C  
HETATM    3  C   UNL     1      -8.327   8.989  67.500  1.00  0.00    -0.116 C  
HETATM    4  C   UNL     1      -9.678   9.466  69.008  1.00  0.00    -0.166 C  
HETATM    5  C   UNL     1      -7.654   3.316  68.591  1.00  0.00    -0.052 C  
HETATM    6  O   UNL     1      -9.171  10.081  70.260  1.00  0.00    -0.373 OA 
HETATM    7  C   UNL     1      -9.154  10.173  67.963  1.00  0.00    -0.131 C  
HETATM    8  C   UNL     1      -8.906  11.636  67.751  1.00  0.00    -0.159 C  
HETATM    9  H   UNL     1      -9.788  10.299  70.948  1.00  0.00     0.000 HD 
HETATM   10  C   UNL     1      -8.772   2.681  67.883  1.00  0.00    -0.110 C  
HETATM   11  C   UNL     1      -7.950   4.559  69.020  1.00  0.00    -0.070 C  
HETATM   12  C   UNL     1     -10.377   9.060  67.004  1.00  0.00    -0.339 C  
HETATM   13  C   UNL     1      -5.665   4.729  70.117  1.00  0.00    -0.016 C  
HETATM   14  C   UNL     1     -10.489   7.494  67.723  1.00  0.00    -0.223 C  
HETATM   15  O   UNL     1     -11.397   7.643  68.830  1.00  0.00    -0.329 OA 
HETATM   16  C   UNL     1      -9.128   6.671  68.223  1.00  0.00    -0.123 C  
HETATM   17  C   UNL     1     -10.227   5.100  69.821  1.00  0.00    -0.357 C  
HETATM   18  C   UNL     1      -9.317   5.159  68.597  1.00  0.00    -0.164 C  
HETATM   19  C   UNL     1      -9.782   4.388  67.253  1.00  0.00    -0.222 C  
HETATM   20  H   UNL     1     -11.459   6.782  69.226  1.00  0.00     0.000 HD 
HETATM   21  C   UNL     1      -8.141   7.552  69.313  1.00  0.00    -0.126 C  
HETATM   22  C   UNL     1      -6.842   6.802  69.560  1.00  0.00    -0.054 C  
HETATM   23  O   UNL     1      -9.437   1.766  68.336  1.00  0.00    -0.181 OA 
HETATM   24  C   UNL     1      -7.054   5.348  69.963  1.00  0.00    -0.062 C  
HETATM   25  C   UNL     1      -9.126   3.411  66.602  1.00  0.00    -0.178 C  
ENDROOT
BRANCH   4  26
HETATM   26  C   UNL     1     -11.250  10.401  69.086  1.00  0.00    -0.246 C  
HETATM   27  O   UNL     1     -11.794  10.878  68.076  1.00  0.00    -0.585 OA 
BRANCH  26  28
HETATM   28  C   UNL     1     -12.015  10.819  70.451  1.00  0.00    -0.357 C  
BRANCH  28  29
HETATM   29  O   UNL     1     -13.009   9.728  70.827  1.00  0.00    -0.262 OA 
BRANCH  29  30
HETATM   30  C   UNL     1     -12.633   8.604  71.527  1.00  0.00    -0.322 C  
HETATM   31  O   UNL     1     -13.215   7.533  71.443  1.00  0.00    -0.349 OA 
BRANCH  30  32
HETATM   32  C   UNL     1     -11.402   8.825  72.450  1.00  0.00    -0.272 C  
BRANCH  32  33
HETATM   33  C   UNL     1     -10.462   7.604  72.554  1.00  0.00    -0.323 C  
HETATM   34  C   UNL     1      -9.092   7.791  73.196  1.00  0.00    -0.222 C  
HETATM   35  O   UNL     1      -8.256   8.668  72.614  1.00  0.00    -0.372 OA 
HETATM   36  O   UNL     1      -8.744   7.170  74.192  1.00  0.00    -0.170 OA 
ENDBRANCH  32  33
ENDBRANCH  30  32
ENDBRANCH  29  30
ENDBRANCH  28  29
ENDBRANCH  26  28
ENDBRANCH   4  26
TORSDOF 6
ENDMDL
MODEL       54
REMARK 921   NORMALIZED FREE ENERGY PREDICTED BY IDOCK:   -5.64 KCAL/MOL
REMARK 922        TOTAL FREE ENERGY PREDICTED BY IDOCK:   -7.97 KCAL/MOL
REMARK 923 INTER-LIGAND FREE ENERGY PREDICTED BY IDOCK:   -8.13 KCAL/MOL
REMARK 924 INTRA-LIGAND FREE ENERGY PREDICTED BY IDOCK:    0.16 KCAL/MOL
REMARK 927      BINDING AFFINITY PREDICTED BY RF-SCORE:    0.00 PKD
ROOT
HETATM    1  C   UNL     1     -11.624  15.280  65.719  1.00  0.00    -0.015 C  
HETATM    2  C   UNL     1     -11.215  15.322  64.363  1.00  0.00    -0.191 C  
HETATM    3  C   UNL     1     -10.387  14.482  65.291  1.00  0.00    -0.435 C  
HETATM    4  C   UNL     1     -11.192  13.942  67.132  1.00  0.00    -0.313 C  
HETATM    5  C   UNL     1      -7.120  18.990  66.972  1.00  0.00    -0.213 C  
HETATM    6  O   UNL     1     -12.557  14.406  67.483  1.00  0.00    -0.529 OA 
HETATM    7  C   UNL     1     -11.256  13.389  65.885  1.00  0.00    -0.314 C  
HETATM    8  C   UNL     1     -12.279  12.527  65.207  1.00  0.00    -0.493 C  
HETATM    9  H   UNL     1     -12.925  14.160  68.323  1.00  0.00     0.000 HD 
HETATM   10  C   UNL     1      -5.864  18.375  67.417  1.00  0.00    -0.150 C  
HETATM   11  C   UNL     1      -8.186  18.188  67.161  1.00  0.00    -0.237 C  
HETATM   12  C   UNL     1      -9.466  12.904  66.349  1.00  0.00    -0.228 C  
HETATM   13  C   UNL     1      -9.719  20.017  66.290  1.00  0.00    -0.546 C  
HETATM   14  C   UNL     1      -8.716  14.133  67.303  1.00  0.00    -0.218 C  
HETATM   15  O   UNL     1      -9.188  13.920  68.646  1.00  0.00    -0.295 OA 
HETATM   16  C   UNL     1      -8.863  15.747  66.908  1.00  0.00    -0.273 C  
HETATM   17  C   UNL     1      -8.310  16.713  69.143  1.00  0.00    -0.115 C  
HETATM   18  C   UNL     1      -7.920  16.746  67.667  1.00  0.00    -0.189 C  
HETATM   19  C   UNL     1      -6.400  16.370  67.263  1.00  0.00    -0.215 C  
HETATM   20  H   UNL     1      -8.776  14.596  69.170  1.00  0.00     0.000 HD 
HETATM   21  C   UNL     1     -10.483  16.282  66.753  1.00  0.00    -0.287 C  
HETATM   22  C   UNL     1     -10.512  17.702  66.210  1.00  0.00    -0.292 C  
HETATM   23  O   UNL     1      -5.247  18.720  68.410  1.00  0.00    -0.178 OA 
HETATM   24  C   UNL     1      -9.622  18.662  66.990  1.00  0.00    -0.319 C  
HETATM   25  C   UNL     1      -5.512  17.140  66.609  1.00  0.00    -0.203 C  
ENDROOT
BRANCH   4  26
HETATM   26  C   UNL     1     -11.404  12.366  68.037  1.00  0.00    -0.287 C  
HETATM   27  O   UNL     1     -11.710  12.323  69.242  1.00  0.00    -0.294 OA 
BRANCH  26  28
HETATM   28  C   UNL     1     -11.093  10.897  67.431  1.00  0.00    -0.307 C  
BRANCH  28  29
HETATM   29  O   UNL     1     -11.000   9.890  68.569  1.00  0.00    -0.225 OA 
BRANCH  29  30
HETATM   30  C   UNL     1      -9.802   9.569  69.167  1.00  0.00    -0.176 C  
HETATM   31  O   UNL     1      -9.630   9.582  70.378  1.00  0.00    -0.244 OA 
BRANCH  30  32
HETATM   32  C   UNL     1      -8.679   9.198  68.159  1.00  0.00    -0.129 C  
BRANCH  32  33
HETATM   33  C   UNL     1      -7.483  10.176  68.155  1.00  0.00    -0.083 C  
HETATM   34  C   UNL     1      -6.120   9.658  67.714  1.00  0.00    -0.052 C  
HETATM   35  O   UNL     1      -5.584   8.653  68.428  1.00  0.00    -0.037 OA 
HETATM   36  O   UNL     1      -5.516  10.133  66.761  1.00  0.00    -0.044 OA 
ENDBRANCH  32  33
ENDBRANCH  30  32
ENDBRANCH  29  30
ENDBRANCH  28  29
ENDBRANCH  26  28
ENDBRANCH   4  26
TORSDOF 6
ENDMDL
MODEL       55
REMARK 921   NORMALIZED FREE ENERGY PREDICTED BY IDOCK:   -5.60 KCAL/MOL
REMARK 922        TOTAL FREE ENERGY PREDICTED BY IDOCK:   -7.91 KCAL/MOL
REMARK 923 INTER-LIGAND FREE ENERGY PREDICTED BY IDOCK:   -8.19 KCAL/MOL
REMARK 924 INTRA-LIGAND FREE ENERGY PREDICTED BY IDOCK:    0.28 KCAL/MOL
REMARK 927      BINDING AFFINITY PREDICTED BY RF-SCORE:    0.00 PKD
ROOT
HETATM    1  C   UNL     1     -10.585   5.524  69.897  1.00  0.00    -0.387 C  
HETATM    2  C   UNL     1      -9.610   4.628  70.400  1.00  0.00    -0.271 C  
HETATM    3  C   UNL     1      -9.228   6.078  70.346  1.00  0.00    -0.167 C  
HETATM    4  C   UNL     1     -10.734   7.498  70.133  1.00  0.00    -0.239 C  
HETATM    5  C   UNL     1      -7.460   5.736  64.816  1.00  0.00    -0.076 C  
HETATM    6  O   UNL     1     -12.142   7.041  70.033  1.00  0.00    -0.608 OA 
HETATM    7  C   UNL     1     -10.179   6.878  71.217  1.00  0.00    -0.213 C  
HETATM    8  C   UNL     1     -10.709   6.550  72.580  1.00  0.00    -0.260 C  
HETATM    9  H   UNL     1     -12.830   7.689  69.936  1.00  0.00     0.000 HD 
HETATM   10  C   UNL     1      -6.498   6.836  64.680  1.00  0.00    -0.042 C  
HETATM   11  C   UNL     1      -8.426   6.001  65.717  1.00  0.00    -0.146 C  
HETATM   12  C   UNL     1      -8.762   8.089  70.791  1.00  0.00    -0.139 C  
HETATM   13  C   UNL     1      -9.541   3.783  65.178  1.00  0.00    -0.177 C  
HETATM   14  C   UNL     1      -8.630   8.317  69.085  1.00  0.00    -0.138 C  
HETATM   15  O   UNL     1      -9.642   9.284  68.746  1.00  0.00    -0.151 OA 
HETATM   16  C   UNL     1      -8.713   7.029  68.029  1.00  0.00    -0.126 C  
HETATM   17  C   UNL     1      -9.316   8.296  65.964  1.00  0.00    -0.217 C  
HETATM   18  C   UNL     1      -8.303   7.310  66.541  1.00  0.00    -0.121 C  
HETATM   19  C   UNL     1      -6.740   7.726  66.546  1.00  0.00    -0.062 C  
HETATM   20  H   UNL     1      -9.569   9.409  67.808  1.00  0.00     0.000 HD 
HETATM   21  C   UNL     1     -10.124   6.072  68.206  1.00  0.00    -0.194 C  
HETATM   22  C   UNL     1     -10.019   4.826  67.341  1.00  0.00    -0.204 C  
HETATM   23  O   UNL     1      -6.429   7.569  63.709  1.00  0.00    -0.052 OA 
HETATM   24  C   UNL     1      -9.661   5.129  65.890  1.00  0.00    -0.159 C  
HETATM   25  C   UNL     1      -5.718   7.077  65.959  1.00  0.00    -0.031 C  
ENDROOT
BRANCH   4  26
HETATM   26  C   UNL     1     -11.204   9.026  71.023  1.00  0.00    -0.295 C  
HETATM   27  O   UNL     1     -10.812   9.276  72.176  1.00  0.00    -0.215 OA 
BRANCH  26  28
HETATM   28  C   UNL     1     -12.262  10.128  70.483  1.00  0.00    -0.264 C  
BRANCH  28  29
HETATM   29  O   UNL     1     -11.507  11.367  70.022  1.00  0.00    -0.288 OA 
BRANCH  29  30
HETATM   30  C   UNL     1     -11.570  11.823  68.725  1.00  0.00    -0.307 C  
HETATM   31  O   UNL     1     -12.017  11.162  67.799  1.00  0.00    -0.630 OA 
BRANCH  30  32
HETATM   32  C   UNL     1     -11.004  13.259  68.539  1.00  0.00    -0.291 C  
BRANCH  32  33
HETATM   33  C   UNL     1     -11.971  14.235  67.833  1.00  0.00    -0.364 C  
HETATM   34  C   UNL     1     -12.036  14.224  66.311  1.00  0.00    -0.413 C  
HETATM   35  O   UNL     1     -10.905  14.512  65.645  1.00  0.00    -0.301 OA 
HETATM   36  O   UNL     1     -13.069  13.978  65.701  1.00  0.00    -0.639 OA 
ENDBRANCH  32  33
ENDBRANCH  30  32
ENDBRANCH  29  30
ENDBRANCH  28  29
ENDBRANCH  26  28
ENDBRANCH   4  26
TORSDOF 6
ENDMDL
MODEL       56
REMARK 921   NORMALIZED FREE ENERGY PREDICTED BY IDOCK:   -5.59 KCAL/MOL
REMARK 922        TOTAL FREE ENERGY PREDICTED BY IDOCK:   -7.90 KCAL/MOL
REMARK 923 INTER-LIGAND FREE ENERGY PREDICTED BY IDOCK:   -7.58 KCAL/MOL
REMARK 924 INTRA-LIGAND FREE ENERGY PREDICTED BY IDOCK:   -0.32 KCAL/MOL
REMARK 927      BINDING AFFINITY PREDICTED BY RF-SCORE:    0.00 PKD
ROOT
HETATM    1  C   UNL     1      -7.028   9.327  66.798  1.00  0.00    -0.081 C  
HETATM    2  C   UNL     1      -5.959  10.002  66.160  1.00  0.00    -0.068 C  
HETATM    3  C   UNL     1      -6.623  10.718  67.299  1.00  0.00    -0.075 C  
HETATM    4  C   UNL     1      -7.812   9.621  68.607  1.00  0.00    -0.081 C  
HETATM    5  C   UNL     1     -10.774  12.955  63.895  1.00  0.00    -0.390 C  
HETATM    6  O   UNL     1      -7.979   8.165  68.376  1.00  0.00    -0.119 OA 
HETATM    7  C   UNL     1      -6.474   9.892  68.563  1.00  0.00    -0.050 C  
HETATM    8  C   UNL     1      -5.271   9.153  69.068  1.00  0.00    -0.037 C  
HETATM    9  H   UNL     1      -8.521   7.663  68.973  1.00  0.00     0.000 HD 
HETATM   10  C   UNL     1     -11.214  14.158  64.612  1.00  0.00    -0.368 C  
HETATM   11  C   UNL     1     -10.344  11.985  64.725  1.00  0.00    -0.318 C  
HETATM   12  C   UNL     1      -7.115  11.591  69.157  1.00  0.00    -0.105 C  
HETATM   13  C   UNL     1      -9.970  10.446  62.738  1.00  0.00     0.040 C  
HETATM   14  C   UNL     1      -8.647  11.961  68.449  1.00  0.00    -0.152 C  
HETATM   15  O   UNL     1      -9.618  11.249  69.238  1.00  0.00    -0.410 OA 
HETATM   16  C   UNL     1      -8.939  11.694  66.828  1.00  0.00    -0.189 C  
HETATM   17  C   UNL     1     -11.433  11.638  66.919  1.00  0.00    -0.320 C  
HETATM   18  C   UNL     1     -10.250  12.321  66.237  1.00  0.00    -0.251 C  
HETATM   19  C   UNL     1     -10.111  13.927  66.362  1.00  0.00    -0.298 C  
HETATM   20  H   UNL     1     -10.460  11.452  68.848  1.00  0.00     0.000 HD 
HETATM   21  C   UNL     1      -8.629  10.088  66.319  1.00  0.00    -0.137 C  
HETATM   22  C   UNL     1      -8.740   9.991  64.806  1.00  0.00    -0.206 C  
HETATM   23  O   UNL     1     -12.378  14.504  64.719  1.00  0.00    -0.438 OA 
HETATM   24  C   UNL     1     -10.041  10.568  64.260  1.00  0.00    -0.380 C  
HETATM   25  C   UNL     1     -10.077  14.826  65.361  1.00  0.00    -0.406 C  
ENDROOT
BRANCH   4  26
HETATM   26  C   UNL     1      -7.895   9.428  70.425  1.00  0.00    -0.164 C  
HETATM   27  O   UNL     1      -6.993   9.827  71.181  1.00  0.00    -0.327 OA 
BRANCH  26  28
HETATM   28  C   UNL     1      -9.051   8.619  71.222  1.00  0.00    -0.212 C  
BRANCH  28  29
HETATM   29  O   UNL     1     -10.295   8.526  70.349  1.00  0.00    -0.194 OA 
BRANCH  29  30
HETATM   30  C   UNL     1     -11.456   7.932  70.788  1.00  0.00    -0.263 C  
HETATM   31  O   UNL     1     -12.257   8.486  71.527  1.00  0.00    -0.292 OA 
BRANCH  30  32
HETATM   32  C   UNL     1     -11.652   6.481  70.268  1.00  0.00    -0.473 C  
BRANCH  32  33
HETATM   33  C   UNL     1     -10.775   6.122  69.048  1.00  0.00    -0.377 C  
HETATM   34  C   UNL     1      -9.688   5.068  69.217  1.00  0.00    -0.179 C  
HETATM   35  O   UNL     1      -8.723   5.318  70.119  1.00  0.00    -0.116 OA 
HETATM   36  O   UNL     1      -9.668   4.035  68.559  1.00  0.00    -0.143 OA 
ENDBRANCH  32  33
ENDBRANCH  30  32
ENDBRANCH  29  30
ENDBRANCH  28  29
ENDBRANCH  26  28
ENDBRANCH   4  26
TORSDOF 6
ENDMDL
MODEL       57
REMARK 921   NORMALIZED FREE ENERGY PREDICTED BY IDOCK:   -5.59 KCAL/MOL
REMARK 922        TOTAL FREE ENERGY PREDICTED BY IDOCK:   -7.89 KCAL/MOL
REMARK 923 INTER-LIGAND FREE ENERGY PREDICTED BY IDOCK:   -8.16 KCAL/MOL
REMARK 924 INTRA-LIGAND FREE ENERGY PREDICTED BY IDOCK:    0.27 KCAL/MOL
REMARK 927      BINDING AFFINITY PREDICTED BY RF-SCORE:    0.00 PKD
ROOT
HETATM    1  C   UNL     1      -7.578  12.280  67.563  1.00  0.00    -0.155 C  
HETATM    2  C   UNL     1      -6.862  12.206  68.783  1.00  0.00    -0.095 C  
HETATM    3  C   UNL     1      -8.137  11.418  68.702  1.00  0.00    -0.141 C  
HETATM    4  C   UNL     1      -8.957  11.044  66.827  1.00  0.00    -0.157 C  
HETATM    5  C   UNL     1     -11.417  15.952  70.284  1.00  0.00    -0.376 C  
HETATM    6  O   UNL     1      -8.268  11.570  65.623  1.00  0.00    -0.368 OA 
HETATM    7  C   UNL     1      -8.022  10.398  67.584  1.00  0.00    -0.106 C  
HETATM    8  C   UNL     1      -6.864   9.515  67.231  1.00  0.00    -0.084 C  
HETATM    9  H   UNL     1      -8.643  11.400  64.767  1.00  0.00     0.000 HD 
HETATM   10  C   UNL     1     -12.621  15.339  70.858  1.00  0.00    -0.412 C  
HETATM   11  C   UNL     1     -10.861  15.197  69.317  1.00  0.00    -0.255 C  
HETATM   12  C   UNL     1      -9.598   9.902  68.547  1.00  0.00    -0.159 C  
HETATM   13  C   UNL     1      -9.111  16.993  68.915  1.00  0.00    -0.208 C  
HETATM   14  C   UNL     1     -10.759  11.180  68.540  1.00  0.00    -0.201 C  
HETATM   15  O   UNL     1     -11.430  11.084  67.269  1.00  0.00    -0.470 OA 
HETATM   16  C   UNL     1     -10.309  12.762  68.815  1.00  0.00    -0.136 C  
HETATM   17  C   UNL     1     -12.284  13.883  67.778  1.00  0.00    -0.217 C  
HETATM   18  C   UNL     1     -11.467  13.791  69.065  1.00  0.00    -0.349 C  
HETATM   19  C   UNL     1     -12.220  13.344  70.425  1.00  0.00    -0.415 C  
HETATM   20  H   UNL     1     -12.068  11.787  67.265  1.00  0.00     0.000 HD 
HETATM   21  C   UNL     1      -9.072  13.327  67.772  1.00  0.00    -0.202 C  
HETATM   22  C   UNL     1      -8.601  14.702  68.221  1.00  0.00    -0.167 C  
HETATM   23  O   UNL     1     -13.754  15.743  70.664  1.00  0.00    -0.329 OA 
HETATM   24  C   UNL     1      -9.741  15.694  68.415  1.00  0.00    -0.202 C  
HETATM   25  C   UNL     1     -12.315  14.037  71.574  1.00  0.00    -0.371 C  
ENDROOT
BRANCH   4  26
HETATM   26  C   UNL     1      -9.537   9.549  65.945  1.00  0.00    -0.261 C  
HETATM   27  O   UNL     1     -10.252   9.607  64.930  1.00  0.00     0.064 OA 
BRANCH  26  28
HETATM   28  C   UNL     1      -9.307   8.026  66.447  1.00  0.00    -0.200 C  
BRANCH  28  29
HETATM   29  O   UNL     1     -10.655   7.332  66.586  1.00  0.00    -0.249 OA 
BRANCH  29  30
HETATM   30  C   UNL     1     -10.802   6.148  67.273  1.00  0.00    -0.352 C  
HETATM   31  O   UNL     1     -10.679   5.048  66.754  1.00  0.00    -0.225 OA 
BRANCH  30  32
HETATM   32  C   UNL     1     -11.155   6.337  68.775  1.00  0.00    -0.424 C  
BRANCH  32  33
HETATM   33  C   UNL     1     -10.242   5.553  69.743  1.00  0.00    -0.336 C  
HETATM   34  C   UNL     1     -10.401   5.781  71.241  1.00  0.00    -0.223 C  
HETATM   35  O   UNL     1     -10.192   7.028  71.698  1.00  0.00    -0.194 OA 
HETATM   36  O   UNL     1     -10.693   4.878  72.015  1.00  0.00    -0.182 OA 
ENDBRANCH  32  33
ENDBRANCH  30  32
ENDBRANCH  29  30
ENDBRANCH  28  29
ENDBRANCH  26  28
ENDBRANCH   4  26
TORSDOF 6
ENDMDL
MODEL       58
REMARK 921   NORMALIZED FREE ENERGY PREDICTED BY IDOCK:   -5.58 KCAL/MOL
REMARK 922        TOTAL FREE ENERGY PREDICTED BY IDOCK:   -7.88 KCAL/MOL
REMARK 923 INTER-LIGAND FREE ENERGY PREDICTED BY IDOCK:   -7.52 KCAL/MOL
REMARK 924 INTRA-LIGAND FREE ENERGY PREDICTED BY IDOCK:   -0.37 KCAL/MOL
REMARK 927      BINDING AFFINITY PREDICTED BY RF-SCORE:    0.00 PKD
ROOT
HETATM    1  C   UNL     1     -11.593  10.192  71.065  1.00  0.00    -0.462 C  
HETATM    2  C   UNL     1     -12.978   9.934  70.919  1.00  0.00    -0.351 C  
HETATM    3  C   UNL     1     -12.073   9.375  69.859  1.00  0.00     0.419 C  
HETATM    4  C   UNL     1     -10.036   9.244  70.259  1.00  0.00    -0.219 C  
HETATM    5  C   UNL     1     -12.117  14.302  66.769  1.00  0.00    -0.446 C  
HETATM    6  O   UNL     1      -9.530   9.712  71.573  1.00  0.00    -0.242 OA 
HETATM    7  C   UNL     1     -11.092   8.412  70.500  1.00  0.00    -0.267 C  
HETATM    8  C   UNL     1     -11.343   7.368  71.546  1.00  0.00    -0.285 C  
HETATM    9  H   UNL     1      -8.600   9.652  71.756  1.00  0.00     0.000 HD 
HETATM   10  C   UNL     1     -11.808  13.869  65.402  1.00  0.00    -0.355 C  
HETATM   11  C   UNL     1     -11.547  13.517  67.704  1.00  0.00    -0.374 C  
HETATM   12  C   UNL     1     -10.900   8.135  68.618  1.00  0.00     0.037 C  
HETATM   13  C   UNL     1     -12.474  15.016  69.534  1.00  0.00    -0.122 C  
HETATM   14  C   UNL     1     -10.411   9.587  67.822  1.00  0.00    -0.239 C  
HETATM   15  O   UNL     1      -8.987   9.672  68.017  1.00  0.00    -0.123 OA 
HETATM   16  C   UNL     1     -11.114  11.055  68.187  1.00  0.00    -0.329 C  
HETATM   17  C   UNL     1      -9.305  12.543  67.324  1.00  0.00    -0.190 C  
HETATM   18  C   UNL     1     -10.799  12.248  67.218  1.00  0.00    -0.283 C  
HETATM   19  C   UNL     1     -11.406  11.860  65.769  1.00  0.00    -0.354 C  
HETATM   20  H   UNL     1      -8.718  10.471  67.579  1.00  0.00     0.000 HD 
HETATM   21  C   UNL     1     -11.056  11.461  69.851  1.00  0.00    -0.134 C  
HETATM   22  C   UNL     1     -11.881  12.711  70.111  1.00  0.00    -0.326 C  
HETATM   23  O   UNL     1     -11.060  14.466  64.647  1.00  0.00    -0.381 OA 
HETATM   24  C   UNL     1     -11.526  13.869  69.184  1.00  0.00    -0.345 C  
HETATM   25  C   UNL     1     -12.378  12.497  65.092  1.00  0.00    -0.496 C  
ENDROOT
BRANCH   4  26
HETATM   26  C   UNL     1      -8.782   7.916  70.154  1.00  0.00    -0.136 C  
HETATM   27  O   UNL     1      -8.944   6.897  69.461  1.00  0.00    -0.142 OA 
BRANCH  26  28
HETATM   28  C   UNL     1      -7.420   7.851  71.030  1.00  0.00    -0.073 C  
BRANCH  28  29
HETATM   29  O   UNL     1      -7.571   6.800  72.120  1.00  0.00    -0.092 OA 
BRANCH  29  30
HETATM   30  C   UNL     1      -8.069   7.103  73.367  1.00  0.00    -0.108 C  
HETATM   31  O   UNL     1      -8.580   8.178  73.645  1.00  0.00    -0.244 OA 
BRANCH  30  32
HETATM   32  C   UNL     1      -7.911   5.952  74.400  1.00  0.00    -0.096 C  
BRANCH  32  33
HETATM   33  C   UNL     1      -8.429   4.583  73.907  1.00  0.00    -0.103 C  
HETATM   34  C   UNL     1      -9.877   4.474  73.447  1.00  0.00    -0.133 C  
HETATM   35  O   UNL     1     -10.832   4.763  74.348  1.00  0.00    -0.344 OA 
HETATM   36  O   UNL     1     -10.181   4.128  72.312  1.00  0.00    -0.179 OA 
ENDBRANCH  32  33
ENDBRANCH  30  32
ENDBRANCH  29  30
ENDBRANCH  28  29
ENDBRANCH  26  28
ENDBRANCH   4  26
TORSDOF 6
ENDMDL
MODEL       59
REMARK 921   NORMALIZED FREE ENERGY PREDICTED BY IDOCK:   -5.58 KCAL/MOL
REMARK 922        TOTAL FREE ENERGY PREDICTED BY IDOCK:   -7.88 KCAL/MOL
REMARK 923 INTER-LIGAND FREE ENERGY PREDICTED BY IDOCK:   -7.91 KCAL/MOL
REMARK 924 INTRA-LIGAND FREE ENERGY PREDICTED BY IDOCK:    0.03 KCAL/MOL
REMARK 927      BINDING AFFINITY PREDICTED BY RF-SCORE:    0.00 PKD
ROOT
HETATM    1  C   UNL     1      -7.802  13.598  67.602  1.00  0.00    -0.178 C  
HETATM    2  C   UNL     1      -7.291  13.747  68.914  1.00  0.00    -0.076 C  
HETATM    3  C   UNL     1      -8.769  13.939  68.742  1.00  0.00     0.006 C  
HETATM    4  C   UNL     1      -9.668  13.234  67.003  1.00  0.00    -0.238 C  
HETATM    5  C   UNL     1      -8.200  19.546  67.308  1.00  0.00    -0.321 C  
HETATM    6  O   UNL     1      -8.826  12.569  65.978  1.00  0.00    -0.416 OA 
HETATM    7  C   UNL     1      -9.379  12.657  68.207  1.00  0.00    -0.195 C  
HETATM    8  C   UNL     1      -9.102  11.240  68.613  1.00  0.00    -0.153 C  
HETATM    9  H   UNL     1      -9.236  12.247  65.184  1.00  0.00     0.000 HD 
HETATM   10  C   UNL     1      -9.497  20.138  67.658  1.00  0.00    -0.387 C  
HETATM   11  C   UNL     1      -8.301  18.253  66.941  1.00  0.00    -0.256 C  
HETATM   12  C   UNL     1     -10.870  13.734  68.728  1.00  0.00    -0.281 C  
HETATM   13  C   UNL     1      -5.808  18.192  66.457  1.00  0.00    -0.193 C  
HETATM   14  C   UNL     1     -10.896  15.224  67.856  1.00  0.00    -0.288 C  
HETATM   15  O   UNL     1     -11.487  14.914  66.580  1.00  0.00    -0.349 OA 
HETATM   16  C   UNL     1      -9.507  16.118  67.626  1.00  0.00    -0.220 C  
HETATM   17  C   UNL     1     -10.267  17.462  65.665  1.00  0.00    -0.117 C  
HETATM   18  C   UNL     1      -9.690  17.575  67.074  1.00  0.00    -0.284 C  
HETATM   19  C   UNL     1     -10.524  18.406  68.183  1.00  0.00    -0.355 C  
HETATM   20  H   UNL     1     -11.501  15.734  66.101  1.00  0.00     0.000 HD 
HETATM   21  C   UNL     1      -8.226  15.241  66.900  1.00  0.00    -0.263 C  
HETATM   22  C   UNL     1      -6.955  16.076  66.906  1.00  0.00    -0.139 C  
HETATM   23  O   UNL     1     -10.083  20.956  66.971  1.00  0.00    -0.242 OA 
HETATM   24  C   UNL     1      -7.150  17.472  66.326  1.00  0.00    -0.340 C  
HETATM   25  C   UNL     1     -10.115  19.483  68.878  1.00  0.00    -0.486 C  
ENDROOT
BRANCH   4  26
HETATM   26  C   UNL     1     -11.108  12.167  66.634  1.00  0.00    -0.306 C  
HETATM   27  O   UNL     1     -11.986  11.915  67.477  1.00  0.00    -0.586 OA 
BRANCH  26  28
HETATM   28  C   UNL     1     -11.326  11.344  65.256  1.00  0.00     0.002 C  
BRANCH  28  29
HETATM   29  O   UNL     1      -9.988  10.803  64.774  1.00  0.00    -0.269 OA 
BRANCH  29  30
HETATM   30  C   UNL     1      -9.556   9.532  65.082  1.00  0.00    -0.200 C  
HETATM   31  O   UNL     1     -10.009   8.874  66.007  1.00  0.00    -0.270 OA 
BRANCH  30  32
HETATM   32  C   UNL     1      -8.427   9.013  64.150  1.00  0.00    -0.183 C  
BRANCH  32  33
HETATM   33  C   UNL     1      -7.188   8.472  64.897  1.00  0.00    -0.084 C  
HETATM   34  C   UNL     1      -6.672   9.241  66.107  1.00  0.00    -0.074 C  
HETATM   35  O   UNL     1      -6.275  10.509  65.905  1.00  0.00    -0.107 OA 
HETATM   36  O   UNL     1      -6.603   8.740  67.222  1.00  0.00    -0.057 OA 
ENDBRANCH  32  33
ENDBRANCH  30  32
ENDBRANCH  29  30
ENDBRANCH  28  29
ENDBRANCH  26  28
ENDBRANCH   4  26
TORSDOF 6
ENDMDL
MODEL       60
REMARK 921   NORMALIZED FREE ENERGY PREDICTED BY IDOCK:   -5.57 KCAL/MOL
REMARK 922        TOTAL FREE ENERGY PREDICTED BY IDOCK:   -7.87 KCAL/MOL
REMARK 923 INTER-LIGAND FREE ENERGY PREDICTED BY IDOCK:   -7.61 KCAL/MOL
REMARK 924 INTRA-LIGAND FREE ENERGY PREDICTED BY IDOCK:   -0.27 KCAL/MOL
REMARK 927      BINDING AFFINITY PREDICTED BY RF-SCORE:    0.00 PKD
ROOT
HETATM    1  C   UNL     1     -11.242  10.313  70.655  1.00  0.00    -0.406 C  
HETATM    2  C   UNL     1     -12.624  10.008  70.599  1.00  0.00    -0.301 C  
HETATM    3  C   UNL     1     -11.780   9.521  69.458  1.00  0.00     0.278 C  
HETATM    4  C   UNL     1      -9.715   9.453  69.706  1.00  0.00    -0.199 C  
HETATM    5  C   UNL     1     -12.221  14.545  66.563  1.00  0.00    -0.268 C  
HETATM    6  O   UNL     1      -9.132   9.894  70.996  1.00  0.00    -0.290 OA 
HETATM    7  C   UNL     1     -10.721   8.573  69.990  1.00  0.00    -0.234 C  
HETATM    8  C   UNL     1     -10.859   7.485  71.012  1.00  0.00    -0.249 C  
HETATM    9  H   UNL     1      -8.189   9.863  71.110  1.00  0.00     0.000 HD 
HETATM   10  C   UNL     1     -11.997  14.171  65.161  1.00  0.00    -0.388 C  
HETATM   11  C   UNL     1     -11.557  13.751  67.425  1.00  0.00    -0.393 C  
HETATM   12  C   UNL     1     -10.657   8.369  68.090  1.00  0.00    -0.175 C  
HETATM   13  C   UNL     1     -12.401  15.150  69.370  1.00  0.00    -0.165 C  
HETATM   14  C   UNL     1     -10.278   9.865  67.316  1.00  0.00    -0.222 C  
HETATM   15  O   UNL     1      -8.848   9.997  67.412  1.00  0.00    -0.128 OA 
HETATM   16  C   UNL     1     -11.004  11.292  67.785  1.00  0.00    -0.305 C  
HETATM   17  C   UNL     1      -9.316  12.876  66.850  1.00  0.00    -0.240 C  
HETATM   18  C   UNL     1     -10.802  12.528  66.840  1.00  0.00    -0.280 C  
HETATM   19  C   UNL     1     -11.499  12.168  65.425  1.00  0.00    -0.387 C  
HETATM   20  H   UNL     1      -8.639  10.820  66.986  1.00  0.00     0.000 HD 
HETATM   21  C   UNL     1     -10.839  11.642  69.454  1.00  0.00    -0.151 C  
HETATM   22  C   UNL     1     -11.687  12.851  69.817  1.00  0.00    -0.351 C  
HETATM   23  O   UNL     1     -11.328  14.822  64.378  1.00  0.00    -0.313 OA 
HETATM   24  C   UNL     1     -11.442  14.052  68.911  1.00  0.00    -0.331 C  
HETATM   25  C   UNL     1     -12.540  12.791  64.843  1.00  0.00    -0.541 C  
ENDROOT
BRANCH   4  26
HETATM   26  C   UNL     1      -8.426   8.177  69.462  1.00  0.00    -0.127 C  
HETATM   27  O   UNL     1      -7.245   8.463  69.199  1.00  0.00    -0.062 OA 
BRANCH  26  28
HETATM   28  C   UNL     1      -8.693   6.580  69.427  1.00  0.00    -0.134 C  
BRANCH  28  29
HETATM   29  O   UNL     1      -7.627   5.872  70.250  1.00  0.00    -0.089 OA 
BRANCH  29  30
HETATM   30  C   UNL     1      -7.866   5.426  71.531  1.00  0.00    -0.110 C  
HETATM   31  O   UNL     1      -8.883   4.832  71.858  1.00  0.00    -0.121 OA 
BRANCH  30  32
HETATM   32  C   UNL     1      -6.724   5.759  72.531  1.00  0.00    -0.069 C  
BRANCH  32  33
HETATM   33  C   UNL     1      -7.184   6.547  73.777  1.00  0.00    -0.084 C  
HETATM   34  C   UNL     1      -8.025   7.802  73.577  1.00  0.00    -0.159 C  
HETATM   35  O   UNL     1      -7.476   8.804  72.869  1.00  0.00    -0.357 OA 
HETATM   36  O   UNL     1      -9.151   7.917  74.044  1.00  0.00    -0.255 OA 
ENDBRANCH  32  33
ENDBRANCH  30  32
ENDBRANCH  29  30
ENDBRANCH  28  29
ENDBRANCH  26  28
ENDBRANCH   4  26
TORSDOF 6
ENDMDL
MODEL       61
REMARK 921   NORMALIZED FREE ENERGY PREDICTED BY IDOCK:   -5.57 KCAL/MOL
REMARK 922        TOTAL FREE ENERGY PREDICTED BY IDOCK:   -7.87 KCAL/MOL
REMARK 923 INTER-LIGAND FREE ENERGY PREDICTED BY IDOCK:   -7.34 KCAL/MOL
REMARK 924 INTRA-LIGAND FREE ENERGY PREDICTED BY IDOCK:   -0.52 KCAL/MOL
REMARK 927      BINDING AFFINITY PREDICTED BY RF-SCORE:    0.00 PKD
ROOT
HETATM    1  C   UNL     1     -11.420  10.283  70.798  1.00  0.00    -0.438 C  
HETATM    2  C   UNL     1     -12.814  10.046  70.725  1.00  0.00    -0.341 C  
HETATM    3  C   UNL     1     -11.981   9.518  69.593  1.00  0.00     0.427 C  
HETATM    4  C   UNL     1      -9.925   9.351  69.865  1.00  0.00    -0.212 C  
HETATM    5  C   UNL     1     -12.147  14.559  66.697  1.00  0.00    -0.319 C  
HETATM    6  O   UNL     1      -9.336   9.763  71.163  1.00  0.00    -0.313 OA 
HETATM    7  C   UNL     1     -10.975   8.521  70.137  1.00  0.00    -0.221 C  
HETATM    8  C   UNL     1     -11.177   7.441  71.156  1.00  0.00    -0.279 C  
HETATM    9  H   UNL     1      -8.398   9.687  71.288  1.00  0.00     0.000 HD 
HETATM   10  C   UNL     1     -11.925  14.175  65.298  1.00  0.00    -0.381 C  
HETATM   11  C   UNL     1     -11.532  13.733  67.566  1.00  0.00    -0.359 C  
HETATM   12  C   UNL     1     -10.899   8.314  68.238  1.00  0.00     0.025 C  
HETATM   13  C   UNL     1     -12.330  15.171  69.503  1.00  0.00    -0.206 C  
HETATM   14  C   UNL     1     -10.440   9.791  67.469  1.00  0.00    -0.251 C  
HETATM   15  O   UNL     1      -9.006   9.854  67.582  1.00  0.00    -0.128 OA 
HETATM   16  C   UNL     1     -11.101  11.251  67.931  1.00  0.00    -0.325 C  
HETATM   17  C   UNL     1      -9.328  12.752  67.017  1.00  0.00    -0.229 C  
HETATM   18  C   UNL     1     -10.830  12.476  66.989  1.00  0.00    -0.287 C  
HETATM   19  C   UNL     1     -11.526  12.150  65.566  1.00  0.00    -0.394 C  
HETATM   20  H   UNL     1      -8.753  10.666  67.159  1.00  0.00     0.000 HD 
HETATM   21  C   UNL     1     -10.940  11.592  69.602  1.00  0.00    -0.129 C  
HETATM   22  C   UNL     1     -11.733  12.840  69.957  1.00  0.00    -0.282 C  
HETATM   23  O   UNL     1     -11.216  14.793  64.523  1.00  0.00    -0.349 OA 
HETATM   24  C   UNL     1     -11.419  14.028  69.054  1.00  0.00    -0.337 C  
HETATM   25  C   UNL     1     -12.529  12.822  64.973  1.00  0.00    -0.572 C  
ENDROOT
BRANCH   4  26
HETATM   26  C   UNL     1      -8.696   8.015  69.635  1.00  0.00    -0.133 C  
HETATM   27  O   UNL     1      -8.996   6.904  69.166  1.00  0.00    -0.134 OA 
BRANCH  26  28
HETATM   28  C   UNL     1      -7.154   8.077  70.128  1.00  0.00    -0.049 C  
BRANCH  28  29
HETATM   29  O   UNL     1      -6.459   9.258  69.466  1.00  0.00    -0.042 OA 
BRANCH  29  30
HETATM   30  C   UNL     1      -6.370  10.490  70.073  1.00  0.00    -0.117 C  
HETATM   31  O   UNL     1      -6.328  10.642  71.285  1.00  0.00    -0.300 OA 
BRANCH  30  32
HETATM   32  C   UNL     1      -6.339  11.679  69.073  1.00  0.00    -0.072 C  
BRANCH  32  33
HETATM   33  C   UNL     1      -6.194  13.065  69.740  1.00  0.00    -0.104 C  
HETATM   34  C   UNL     1      -6.504  14.308  68.915  1.00  0.00    -0.092 C  
HETATM   35  O   UNL     1      -5.765  14.513  67.811  1.00  0.00    -0.243 OA 
HETATM   36  O   UNL     1      -7.377  15.105  69.233  1.00  0.00    -0.157 OA 
ENDBRANCH  32  33
ENDBRANCH  30  32
ENDBRANCH  29  30
ENDBRANCH  28  29
ENDBRANCH  26  28
ENDBRANCH   4  26
TORSDOF 6
ENDMDL
MODEL       62
REMARK 921   NORMALIZED FREE ENERGY PREDICTED BY IDOCK:   -5.53 KCAL/MOL
REMARK 922        TOTAL FREE ENERGY PREDICTED BY IDOCK:   -7.82 KCAL/MOL
REMARK 923 INTER-LIGAND FREE ENERGY PREDICTED BY IDOCK:   -8.33 KCAL/MOL
REMARK 924 INTRA-LIGAND FREE ENERGY PREDICTED BY IDOCK:    0.51 KCAL/MOL
REMARK 927      BINDING AFFINITY PREDICTED BY RF-SCORE:    0.00 PKD
ROOT
HETATM    1  C   UNL     1     -11.686  15.090  65.582  1.00  0.00    -0.123 C  
HETATM    2  C   UNL     1     -11.280  15.183  64.228  1.00  0.00    -0.027 C  
HETATM    3  C   UNL     1     -10.437  14.325  65.125  1.00  0.00    -0.432 C  
HETATM    4  C   UNL     1     -11.231  13.712  66.948  1.00  0.00    -0.312 C  
HETATM    5  C   UNL     1      -7.235  18.823  66.952  1.00  0.00    -0.223 C  
HETATM    6  O   UNL     1     -12.602  14.143  67.317  1.00  0.00    -0.516 OA 
HETATM    7  C   UNL     1     -11.289  13.200  65.683  1.00  0.00    -0.328 C  
HETATM    8  C   UNL     1     -12.300  12.346  64.979  1.00  0.00    -0.441 C  
HETATM    9  H   UNL     1     -12.965  13.863  68.148  1.00  0.00     0.000 HD 
HETATM   10  C   UNL     1      -5.969  18.212  67.374  1.00  0.00    -0.148 C  
HETATM   11  C   UNL     1      -8.289  18.000  67.115  1.00  0.00    -0.241 C  
HETATM   12  C   UNL     1      -9.491  12.727  66.128  1.00  0.00    -0.169 C  
HETATM   13  C   UNL     1      -9.851  19.833  66.309  1.00  0.00    -0.557 C  
HETATM   14  C   UNL     1      -8.757  13.934  67.122  1.00  0.00    -0.221 C  
HETATM   15  O   UNL     1      -9.224  13.669  68.458  1.00  0.00    -0.268 OA 
HETATM   16  C   UNL     1      -8.929  15.558  66.782  1.00  0.00    -0.295 C  
HETATM   17  C   UNL     1      -8.387  16.457  69.047  1.00  0.00    -0.225 C  
HETATM   18  C   UNL     1      -8.001  16.545  67.572  1.00  0.00    -0.176 C  
HETATM   19  C   UNL     1      -6.475  16.206  67.154  1.00  0.00    -0.184 C  
HETATM   20  H   UNL     1      -8.820  14.333  69.004  1.00  0.00     0.000 HD 
HETATM   21  C   UNL     1     -10.558  16.073  66.647  1.00  0.00    -0.297 C  
HETATM   22  C   UNL     1     -10.609  17.510  66.152  1.00  0.00    -0.211 C  
HETATM   23  O   UNL     1      -5.355  18.533  68.377  1.00  0.00    -0.170 OA 
HETATM   24  C   UNL     1      -9.732  18.457  66.963  1.00  0.00    -0.316 C  
HETATM   25  C   UNL     1      -5.601  17.011  66.524  1.00  0.00    -0.133 C  
ENDROOT
BRANCH   4  26
HETATM   26  C   UNL     1     -11.417  12.103  67.801  1.00  0.00    -0.332 C  
HETATM   27  O   UNL     1     -12.365  11.859  68.566  1.00  0.00    -0.298 OA 
BRANCH  26  28
HETATM   28  C   UNL     1     -10.331  10.902  67.765  1.00  0.00    -0.187 C  
BRANCH  28  29
HETATM   29  O   UNL     1      -9.677  10.773  69.134  1.00  0.00    -0.207 OA 
BRANCH  29  30
HETATM   30  C   UNL     1      -9.353   9.551  69.679  1.00  0.00    -0.200 C  
HETATM   31  O   UNL     1      -9.477   9.290  70.867  1.00  0.00    -0.258 OA 
BRANCH  30  32
HETATM   32  C   UNL     1      -8.801   8.531  68.645  1.00  0.00    -0.136 C  
BRANCH  32  33
HETATM   33  C   UNL     1      -9.313   7.087  68.843  1.00  0.00    -0.139 C  
HETATM   34  C   UNL     1     -10.076   6.422  67.705  1.00  0.00    -0.151 C  
HETATM   35  O   UNL     1     -11.216   7.009  67.303  1.00  0.00    -0.281 OA 
HETATM   36  O   UNL     1      -9.691   5.387  67.174  1.00  0.00    -0.129 OA 
ENDBRANCH  32  33
ENDBRANCH  30  32
ENDBRANCH  29  30
ENDBRANCH  28  29
ENDBRANCH  26  28
ENDBRANCH   4  26
TORSDOF 6
ENDMDL
MODEL       63
REMARK 921   NORMALIZED FREE ENERGY PREDICTED BY IDOCK:   -5.53 KCAL/MOL
REMARK 922        TOTAL FREE ENERGY PREDICTED BY IDOCK:   -7.81 KCAL/MOL
REMARK 923 INTER-LIGAND FREE ENERGY PREDICTED BY IDOCK:   -7.39 KCAL/MOL
REMARK 924 INTRA-LIGAND FREE ENERGY PREDICTED BY IDOCK:   -0.42 KCAL/MOL
REMARK 927      BINDING AFFINITY PREDICTED BY RF-SCORE:    0.00 PKD
ROOT
HETATM    1  C   UNL     1     -11.265  12.691  64.850  1.00  0.00    -0.332 C  
HETATM    2  C   UNL     1     -12.618  12.319  64.657  1.00  0.00    -0.376 C  
HETATM    3  C   UNL     1     -12.329  13.230  65.814  1.00  0.00    -0.505 C  
HETATM    4  C   UNL     1     -10.507  14.234  65.858  1.00  0.00    -0.307 C  
HETATM    5  C   UNL     1     -11.067   8.820  69.388  1.00  0.00     0.049 C  
HETATM    6  O   UNL     1      -9.541  14.019  64.753  1.00  0.00    -0.446 OA 
HETATM    7  C   UNL     1     -11.718  14.518  65.294  1.00  0.00    -0.361 C  
HETATM    8  C   UNL     1     -12.115  15.334  64.100  1.00  0.00    -0.146 C  
HETATM    9  H   UNL     1      -8.709  14.477  64.773  1.00  0.00     0.000 HD 
HETATM   10  C   UNL     1     -11.321   9.361  70.728  1.00  0.00    -0.300 C  
HETATM   11  C   UNL     1     -10.666   9.763  68.514  1.00  0.00    -0.252 C  
HETATM   12  C   UNL     1     -12.138  14.874  67.124  1.00  0.00    -0.009 C  
HETATM   13  C   UNL     1     -10.387   7.987  66.719  1.00  0.00    -0.360 C  
HETATM   14  C   UNL     1     -11.299  13.792  68.177  1.00  0.00    -0.284 C  
HETATM   15  O   UNL     1      -9.972  14.336  68.310  1.00  0.00    -0.225 OA 
HETATM   16  C   UNL     1     -11.203  12.160  67.845  1.00  0.00    -0.329 C  
HETATM   17  C   UNL     1      -9.215  11.624  69.256  1.00  0.00     0.480 C  
HETATM   18  C   UNL     1     -10.669  11.238  68.996  1.00  0.00    -0.257 C  
HETATM   19  C   UNL     1     -11.723  11.339  70.219  1.00  0.00    -0.415 C  
HETATM   20  H   UNL     1      -9.511  13.741  68.889  1.00  0.00     0.000 HD 
HETATM   21  C   UNL     1     -10.566  11.800  66.296  1.00  0.00    -0.292 C  
HETATM   22  C   UNL     1     -10.695  10.312  66.014  1.00  0.00    -0.017 C  
HETATM   23  O   UNL     1     -10.606   9.161  71.695  1.00  0.00    -0.339 OA 
HETATM   24  C   UNL     1     -10.131   9.437  67.128  1.00  0.00    -0.292 C  
HETATM   25  C   UNL     1     -12.472  10.349  70.738  1.00  0.00    -0.461 C  
ENDROOT
BRANCH   4  26
HETATM   26  C   UNL     1      -9.998  15.979  66.076  1.00  0.00    -0.339 C  
HETATM   27  O   UNL     1     -10.797  16.926  65.972  1.00  0.00    -0.169 OA 
BRANCH  26  28
HETATM   28  C   UNL     1      -8.473  16.482  66.285  1.00  0.00    -0.328 C  
BRANCH  28  29
HETATM   29  O   UNL     1      -7.658  15.370  66.931  1.00  0.00    -0.196 OA 
BRANCH  29  30
HETATM   30  C   UNL     1      -6.617  15.629  67.793  1.00  0.00    -0.161 C  
HETATM   31  O   UNL     1      -6.582  16.603  68.532  1.00  0.00    -0.134 OA 
BRANCH  30  32
HETATM   32  C   UNL     1      -5.478  14.574  67.733  1.00  0.00    -0.026 C  
BRANCH  32  33
HETATM   33  C   UNL     1      -5.832  13.222  68.390  1.00  0.00    -0.087 C  
HETATM   34  C   UNL     1      -6.054  12.011  67.492  1.00  0.00    -0.114 C  
HETATM   35  O   UNL     1      -7.048  12.088  66.591  1.00  0.00    -0.021 OA 
HETATM   36  O   UNL     1      -5.374  10.996  67.580  1.00  0.00    -0.040 OA 
ENDBRANCH  32  33
ENDBRANCH  30  32
ENDBRANCH  29  30
ENDBRANCH  28  29
ENDBRANCH  26  28
ENDBRANCH   4  26
TORSDOF 6
ENDMDL
MODEL       64
REMARK 921   NORMALIZED FREE ENERGY PREDICTED BY IDOCK:   -5.53 KCAL/MOL
REMARK 922        TOTAL FREE ENERGY PREDICTED BY IDOCK:   -7.81 KCAL/MOL
REMARK 923 INTER-LIGAND FREE ENERGY PREDICTED BY IDOCK:   -8.17 KCAL/MOL
REMARK 924 INTRA-LIGAND FREE ENERGY PREDICTED BY IDOCK:    0.36 KCAL/MOL
REMARK 927      BINDING AFFINITY PREDICTED BY RF-SCORE:    0.00 PKD
ROOT
HETATM    1  C   UNL     1      -7.819   9.528  69.658  1.00  0.00    -0.116 C  
HETATM    2  C   UNL     1      -6.869   8.615  69.138  1.00  0.00    -0.055 C  
HETATM    3  C   UNL     1      -8.314   8.302  68.881  1.00  0.00    -0.127 C  
HETATM    4  C   UNL     1      -9.720   9.815  69.131  1.00  0.00    -0.184 C  
HETATM    5  C   UNL     1      -8.957   5.561  73.970  1.00  0.00    -0.119 C  
HETATM    6  O   UNL     1      -9.261  11.158  69.563  1.00  0.00    -0.372 OA 
HETATM    7  C   UNL     1      -8.934   9.431  68.081  1.00  0.00    -0.128 C  
HETATM    8  C   UNL     1      -8.368  10.179  66.912  1.00  0.00    -0.122 C  
HETATM    9  H   UNL     1      -9.902  11.849  69.677  1.00  0.00     0.000 HD 
HETATM   10  C   UNL     1     -10.082   4.646  73.744  1.00  0.00    -0.172 C  
HETATM   11  C   UNL     1      -9.045   6.685  73.232  1.00  0.00    -0.143 C  
HETATM   12  C   UNL     1     -10.227   8.024  68.033  1.00  0.00    -0.260 C  
HETATM   13  C   UNL     1      -6.932   7.573  74.325  1.00  0.00    -0.113 C  
HETATM   14  C   UNL     1     -10.746   7.601  69.624  1.00  0.00    -0.228 C  
HETATM   15  O   UNL     1     -11.738   8.583  69.979  1.00  0.00    -0.453 OA 
HETATM   16  C   UNL     1      -9.656   7.430  70.875  1.00  0.00    -0.166 C  
HETATM   17  C   UNL     1     -11.247   7.717  72.778  1.00  0.00    -0.456 C  
HETATM   18  C   UNL     1     -10.196   6.775  72.195  1.00  0.00    -0.213 C  
HETATM   19  C   UNL     1     -10.635   5.261  71.833  1.00  0.00    -0.274 C  
HETATM   20  H   UNL     1     -12.023   8.350  70.855  1.00  0.00     0.000 HD 
HETATM   21  C   UNL     1      -8.657   8.800  71.121  1.00  0.00    -0.244 C  
HETATM   22  C   UNL     1      -7.580   8.481  72.146  1.00  0.00    -0.122 C  
HETATM   23  O   UNL     1     -10.972   4.442  74.551  1.00  0.00    -0.268 OA 
HETATM   24  C   UNL     1      -8.134   7.885  73.435  1.00  0.00    -0.228 C  
HETATM   25  C   UNL     1     -10.115   4.120  72.321  1.00  0.00    -0.247 C  
ENDROOT
BRANCH   4  26
HETATM   26  C   UNL     1     -11.064  10.512  68.104  1.00  0.00    -0.287 C  
HETATM   27  O   UNL     1     -12.195  10.755  68.558  1.00  0.00    -0.470 OA 
BRANCH  26  28
HETATM   28  C   UNL     1     -10.980  10.756  66.504  1.00  0.00    -0.075 C  
BRANCH  28  29
HETATM   29  O   UNL     1     -11.482  12.156  66.181  1.00  0.00    -0.346 OA 
BRANCH  29  30
HETATM   30  C   UNL     1     -10.660  13.259  66.230  1.00  0.00    -0.289 C  
HETATM   31  O   UNL     1     -10.042  13.681  65.264  1.00  0.00    -0.316 OA 
BRANCH  30  32
HETATM   32  C   UNL     1     -10.578  13.915  67.636  1.00  0.00    -0.247 C  
BRANCH  32  33
HETATM   33  C   UNL     1     -11.904  14.543  68.121  1.00  0.00    -0.348 C  
HETATM   34  C   UNL     1     -12.250  14.464  69.602  1.00  0.00    -0.307 C  
HETATM   35  O   UNL     1     -12.373  13.239  70.141  1.00  0.00    -0.301 OA 
HETATM   36  O   UNL     1     -12.424  15.463  70.289  1.00  0.00    -0.376 OA 
ENDBRANCH  32  33
ENDBRANCH  30  32
ENDBRANCH  29  30
ENDBRANCH  28  29
ENDBRANCH  26  28
ENDBRANCH   4  26
TORSDOF 6
ENDMDL
MODEL       65
REMARK 921   NORMALIZED FREE ENERGY PREDICTED BY IDOCK:   -5.52 KCAL/MOL
REMARK 922        TOTAL FREE ENERGY PREDICTED BY IDOCK:   -7.80 KCAL/MOL
REMARK 923 INTER-LIGAND FREE ENERGY PREDICTED BY IDOCK:   -7.63 KCAL/MOL
REMARK 924 INTRA-LIGAND FREE ENERGY PREDICTED BY IDOCK:   -0.16 KCAL/MOL
REMARK 927      BINDING AFFINITY PREDICTED BY RF-SCORE:    0.00 PKD
ROOT
HETATM    1  C   UNL     1      -9.478   9.476  65.367  1.00  0.00    -0.336 C  
HETATM    2  C   UNL     1      -8.460   9.712  64.411  1.00  0.00    -0.189 C  
HETATM    3  C   UNL     1      -8.178  10.154  65.817  1.00  0.00    -0.144 C  
HETATM    4  C   UNL     1      -9.353   9.392  67.355  1.00  0.00    -0.126 C  
HETATM    5  C   UNL     1     -10.809  15.287  65.070  1.00  0.00    -0.457 C  
HETATM    6  O   UNL     1     -10.441   8.439  67.023  1.00  0.00    -0.307 OA 
HETATM    7  C   UNL     1      -8.219   8.949  66.737  1.00  0.00    -0.111 C  
HETATM    8  C   UNL     1      -7.650   7.579  66.520  1.00  0.00    -0.089 C  
HETATM    9  H   UNL     1     -10.978   8.091  67.725  1.00  0.00     0.000 HD 
HETATM   10  C   UNL     1     -10.183  16.159  66.072  1.00  0.00    -0.356 C  
HETATM   11  C   UNL     1     -10.857  13.998  65.461  1.00  0.00    -0.311 C  
HETATM   12  C   UNL     1      -7.468  10.353  67.795  1.00  0.00    -0.088 C  
HETATM   13  C   UNL     1     -12.101  13.395  63.330  1.00  0.00    -0.437 C  
HETATM   14  C   UNL     1      -8.563  11.681  67.934  1.00  0.00    -0.150 C  
HETATM   15  O   UNL     1      -9.489  11.309  68.972  1.00  0.00    -0.366 OA 
HETATM   16  C   UNL     1      -9.406  12.252  66.612  1.00  0.00    -0.228 C  
HETATM   17  C   UNL     1     -11.241  13.421  67.835  1.00  0.00    -0.303 C  
HETATM   18  C   UNL     1     -10.148  13.623  66.788  1.00  0.00    -0.269 C  
HETATM   19  C   UNL     1      -9.017  14.747  67.062  1.00  0.00    -0.258 C  
HETATM   20  H   UNL     1     -10.092  12.039  69.048  1.00  0.00     0.000 HD 
HETATM   21  C   UNL     1     -10.318  11.053  65.796  1.00  0.00    -0.316 C  
HETATM   22  C   UNL     1     -10.891  11.623  64.508  1.00  0.00    -0.383 C  
HETATM   23  O   UNL     1     -10.791  16.967  66.751  1.00  0.00    -0.166 OA 
HETATM   24  C   UNL     1     -11.643  12.933  64.712  1.00  0.00    -0.373 C  
HETATM   25  C   UNL     1      -8.723  15.815  66.298  1.00  0.00    -0.358 C  
ENDROOT
BRANCH   4  26
HETATM   26  C   UNL     1      -9.014   8.577  68.958  1.00  0.00    -0.146 C  
HETATM   27  O   UNL     1      -7.966   8.771  69.597  1.00  0.00    -0.091 OA 
BRANCH  26  28
HETATM   28  C   UNL     1      -9.947   7.441  69.639  1.00  0.00    -0.182 C  
BRANCH  28  29
HETATM   29  O   UNL     1      -9.566   6.076  69.084  1.00  0.00    -0.129 OA 
BRANCH  29  30
HETATM   30  C   UNL     1      -8.609   5.284  69.679  1.00  0.00    -0.098 C  
HETATM   31  O   UNL     1      -8.200   5.463  70.817  1.00  0.00    -0.110 OA 
BRANCH  30  32
HETATM   32  C   UNL     1      -8.083   4.145  68.762  1.00  0.00    -0.074 C  
BRANCH  32  33
HETATM   33  C   UNL     1      -9.189   3.389  67.993  1.00  0.00    -0.238 C  
HETATM   34  C   UNL     1      -9.210   3.479  66.472  1.00  0.00    -0.173 C  
HETATM   35  O   UNL     1      -9.355   4.700  65.930  1.00  0.00    -0.137 OA 
HETATM   36  O   UNL     1      -9.112   2.490  65.755  1.00  0.00    -0.138 OA 
ENDBRANCH  32  33
ENDBRANCH  30  32
ENDBRANCH  29  30
ENDBRANCH  28  29
ENDBRANCH  26  28
ENDBRANCH   4  26
TORSDOF 6
ENDMDL
MODEL       66
REMARK 921   NORMALIZED FREE ENERGY PREDICTED BY IDOCK:   -5.52 KCAL/MOL
REMARK 922        TOTAL FREE ENERGY PREDICTED BY IDOCK:   -7.80 KCAL/MOL
REMARK 923 INTER-LIGAND FREE ENERGY PREDICTED BY IDOCK:   -7.50 KCAL/MOL
REMARK 924 INTRA-LIGAND FREE ENERGY PREDICTED BY IDOCK:   -0.30 KCAL/MOL
REMARK 927      BINDING AFFINITY PREDICTED BY RF-SCORE:    0.00 PKD
ROOT
HETATM    1  C   UNL     1      -9.691  14.308  69.315  1.00  0.00     0.140 C  
HETATM    2  C   UNL     1     -10.487  14.938  70.303  1.00  0.00     0.035 C  
HETATM    3  C   UNL     1     -10.869  15.185  68.873  1.00  0.00    -0.241 C  
HETATM    4  C   UNL     1     -10.116  13.914  67.408  1.00  0.00    -0.244 C  
HETATM    5  C   UNL     1      -7.131  19.604  68.305  1.00  0.00    -0.337 C  
HETATM    6  O   UNL     1      -9.218  12.804  67.812  1.00  0.00    -0.183 OA 
HETATM    7  C   UNL     1     -11.218  13.864  68.214  1.00  0.00    -0.298 C  
HETATM    8  C   UNL     1     -12.026  12.725  68.758  1.00  0.00    -0.278 C  
HETATM    9  H   UNL     1      -8.874  12.224  67.143  1.00  0.00     0.000 HD 
HETATM   10  C   UNL     1      -7.695  20.413  67.218  1.00  0.00    -0.333 C  
HETATM   11  C   UNL     1      -7.414  18.293  68.178  1.00  0.00    -0.270 C  
HETATM   12  C   UNL     1     -11.798  15.202  66.977  1.00  0.00    -0.026 C  
HETATM   13  C   UNL     1      -6.032  17.791  70.249  1.00  0.00    -0.036 C  
HETATM   14  C   UNL     1     -10.478  16.190  66.464  1.00  0.00    -0.297 C  
HETATM   15  O   UNL     1      -9.811  15.437  65.434  1.00  0.00    -0.331 OA 
HETATM   16  C   UNL     1      -9.352  16.765  67.553  1.00  0.00    -0.231 C  
HETATM   17  C   UNL     1      -7.507  17.241  65.941  1.00  0.00    -0.069 C  
HETATM   18  C   UNL     1      -8.370  17.872  67.031  1.00  0.00    -0.248 C  
HETATM   19  C   UNL     1      -9.264  19.166  66.653  1.00  0.00    -0.367 C  
HETATM   20  H   UNL     1      -9.085  15.981  65.152  1.00  0.00     0.000 HD 
HETATM   21  C   UNL     1      -8.607  15.545  68.497  1.00  0.00    -0.176 C  
HETATM   22  C   UNL     1      -7.747  16.177  69.579  1.00  0.00    -0.022 C  
HETATM   23  O   UNL     1      -7.034  20.926  66.332  1.00  0.00    -0.222 OA 
HETATM   24  C   UNL     1      -6.772  17.218  69.041  1.00  0.00    -0.238 C  
HETATM   25  C   UNL     1      -9.212  20.388  67.214  1.00  0.00    -0.525 C  
ENDROOT
BRANCH   4  26
HETATM   26  C   UNL     1     -10.847  12.938  66.044  1.00  0.00    -0.279 C  
HETATM   27  O   UNL     1     -11.966  13.194  65.564  1.00  0.00    -0.365 OA 
BRANCH  26  28
HETATM   28  C   UNL     1     -10.204  11.590  65.417  1.00  0.00    -0.264 C  
BRANCH  28  29
HETATM   29  O   UNL     1     -10.395  10.439  66.394  1.00  0.00    -0.236 OA 
BRANCH  29  30
HETATM   30  C   UNL     1      -9.908   9.176  66.143  1.00  0.00    -0.293 C  
HETATM   31  O   UNL     1      -9.141   8.920  65.226  1.00  0.00    -0.203 OA 
BRANCH  30  32
HETATM   32  C   UNL     1     -10.435   8.095  67.128  1.00  0.00    -0.396 C  
BRANCH  32  33
HETATM   33  C   UNL     1     -10.312   8.483  68.618  1.00  0.00    -0.224 C  
HETATM   34  C   UNL     1      -9.000   9.080  69.110  1.00  0.00    -0.140 C  
HETATM   35  O   UNL     1      -7.895   8.325  68.984  1.00  0.00    -0.100 OA 
HETATM   36  O   UNL     1      -8.935  10.194  69.614  1.00  0.00    -0.202 OA 
ENDBRANCH  32  33
ENDBRANCH  30  32
ENDBRANCH  29  30
ENDBRANCH  28  29
ENDBRANCH  26  28
ENDBRANCH   4  26
TORSDOF 6
ENDMDL
MODEL       67
REMARK 921   NORMALIZED FREE ENERGY PREDICTED BY IDOCK:   -5.47 KCAL/MOL
REMARK 922        TOTAL FREE ENERGY PREDICTED BY IDOCK:   -7.74 KCAL/MOL
REMARK 923 INTER-LIGAND FREE ENERGY PREDICTED BY IDOCK:   -7.65 KCAL/MOL
REMARK 924 INTRA-LIGAND FREE ENERGY PREDICTED BY IDOCK:   -0.09 KCAL/MOL
REMARK 927      BINDING AFFINITY PREDICTED BY RF-SCORE:    0.00 PKD
ROOT
HETATM    1  C   UNL     1     -11.210  10.194  70.751  1.00  0.00    -0.414 C  
HETATM    2  C   UNL     1     -12.593   9.887  70.715  1.00  0.00    -0.324 C  
HETATM    3  C   UNL     1     -11.764   9.397  69.564  1.00  0.00     0.363 C  
HETATM    4  C   UNL     1      -9.696   9.332  69.782  1.00  0.00    -0.189 C  
HETATM    5  C   UNL     1     -12.255  14.410  66.658  1.00  0.00    -0.340 C  
HETATM    6  O   UNL     1      -9.095   9.779  71.062  1.00  0.00    -0.341 OA 
HETATM    7  C   UNL     1     -10.697   8.452  70.084  1.00  0.00    -0.238 C  
HETATM    8  C   UNL     1     -10.818   7.368  71.112  1.00  0.00    -0.258 C  
HETATM    9  H   UNL     1      -8.151   9.749  71.162  1.00  0.00     0.000 HD 
HETATM   10  C   UNL     1     -12.051  14.032  65.255  1.00  0.00    -0.408 C  
HETATM   11  C   UNL     1     -11.577  13.620  67.513  1.00  0.00    -0.384 C  
HETATM   12  C   UNL     1     -10.660   8.241  68.184  1.00  0.00    -0.169 C  
HETATM   13  C   UNL     1     -12.394  15.024  69.465  1.00  0.00    -0.199 C  
HETATM   14  C   UNL     1     -10.295   9.735  67.399  1.00  0.00    -0.240 C  
HETATM   15  O   UNL     1      -8.863   9.869  67.474  1.00  0.00    -0.128 OA 
HETATM   16  C   UNL     1     -11.015  11.163  67.873  1.00  0.00    -0.307 C  
HETATM   17  C   UNL     1      -9.343  12.745  66.909  1.00  0.00    -0.234 C  
HETATM   18  C   UNL     1     -10.829  12.396  66.921  1.00  0.00    -0.286 C  
HETATM   19  C   UNL     1     -11.546  12.030  65.518  1.00  0.00    -0.352 C  
HETATM   20  H   UNL     1      -8.662  10.691  67.042  1.00  0.00     0.000 HD 
HETATM   21  C   UNL     1     -10.827  11.519  69.539  1.00  0.00    -0.121 C  
HETATM   22  C   UNL     1     -11.671  12.728  69.910  1.00  0.00    -0.321 C  
HETATM   23  O   UNL     1     -11.394  14.680  64.459  1.00  0.00    -0.367 OA 
HETATM   24  C   UNL     1     -11.440  13.926  68.997  1.00  0.00    -0.341 C  
HETATM   25  C   UNL     1     -12.596  12.649  64.949  1.00  0.00    -0.525 C  
ENDROOT
BRANCH   4  26
HETATM   26  C   UNL     1      -8.409   8.057  69.524  1.00  0.00    -0.127 C  
HETATM   27  O   UNL     1      -7.304   8.099  70.093  1.00  0.00    -0.058 OA 
BRANCH  26  28
HETATM   28  C   UNL     1      -8.504   6.843  68.456  1.00  0.00    -0.123 C  
BRANCH  28  29
HETATM   29  O   UNL     1      -7.525   7.095  67.318  1.00  0.00    -0.094 OA 
BRANCH  29  30
HETATM   30  C   UNL     1      -7.841   6.824  66.005  1.00  0.00    -0.104 C  
HETATM   31  O   UNL     1      -8.418   7.617  65.275  1.00  0.00    -0.138 OA 
BRANCH  30  32
HETATM   32  C   UNL     1      -7.406   5.408  65.537  1.00  0.00    -0.073 C  
BRANCH  32  33
HETATM   33  C   UNL     1      -8.538   4.580  64.889  1.00  0.00    -0.135 C  
HETATM   34  C   UNL     1      -9.731   4.179  65.747  1.00  0.00    -0.204 C  
HETATM   35  O   UNL     1      -9.485   3.414  66.825  1.00  0.00    -0.191 OA 
HETATM   36  O   UNL     1     -10.877   4.518  65.477  1.00  0.00    -0.280 OA 
ENDBRANCH  32  33
ENDBRANCH  30  32
ENDBRANCH  29  30
ENDBRANCH  28  29
ENDBRANCH  26  28
ENDBRANCH   4  26
TORSDOF 6
ENDMDL
MODEL       68
REMARK 921   NORMALIZED FREE ENERGY PREDICTED BY IDOCK:   -5.45 KCAL/MOL
REMARK 922        TOTAL FREE ENERGY PREDICTED BY IDOCK:   -7.71 KCAL/MOL
REMARK 923 INTER-LIGAND FREE ENERGY PREDICTED BY IDOCK:   -8.09 KCAL/MOL
REMARK 924 INTRA-LIGAND FREE ENERGY PREDICTED BY IDOCK:    0.39 KCAL/MOL
REMARK 927      BINDING AFFINITY PREDICTED BY RF-SCORE:    0.00 PKD
ROOT
HETATM    1  C   UNL     1      -7.975   9.999  69.206  1.00  0.00    -0.130 C  
HETATM    2  C   UNL     1      -6.646   9.783  68.767  1.00  0.00    -0.046 C  
HETATM    3  C   UNL     1      -7.741   9.365  67.829  1.00  0.00    -0.088 C  
HETATM    4  C   UNL     1      -9.658  10.109  68.143  1.00  0.00    -0.139 C  
HETATM    5  C   UNL     1      -8.328   4.148  70.332  1.00  0.00    -0.083 C  
HETATM    6  O   UNL     1      -9.895  11.025  69.286  1.00  0.00    -0.382 OA 
HETATM    7  C   UNL     1      -8.572  10.579  67.460  1.00  0.00    -0.121 C  
HETATM    8  C   UNL     1      -8.115  11.963  67.110  1.00  0.00    -0.172 C  
HETATM    9  H   UNL     1     -10.770  11.365  69.430  1.00  0.00     0.000 HD 
HETATM   10  C   UNL     1      -8.901   3.307  69.275  1.00  0.00    -0.100 C  
HETATM   11  C   UNL     1      -8.699   5.439  70.227  1.00  0.00    -0.135 C  
HETATM   12  C   UNL     1      -9.133   9.209  66.250  1.00  0.00    -0.222 C  
HETATM   13  C   UNL     1      -7.432   5.982  72.361  1.00  0.00    -0.099 C  
HETATM   14  C   UNL     1      -9.775   7.851  67.101  1.00  0.00    -0.191 C  
HETATM   15  O   UNL     1     -11.132   8.207  67.425  1.00  0.00    -0.470 OA 
HETATM   16  C   UNL     1      -9.019   7.241  68.457  1.00  0.00    -0.130 C  
HETATM   17  C   UNL     1     -10.968   6.031  69.440  1.00  0.00    -0.455 C  
HETATM   18  C   UNL     1      -9.524   5.851  68.979  1.00  0.00    -0.149 C  
HETATM   19  C   UNL     1      -9.215   4.763  67.822  1.00  0.00    -0.145 C  
HETATM   20  H   UNL     1     -11.486   7.460  67.893  1.00  0.00     0.000 HD 
HETATM   21  C   UNL     1      -8.747   8.403  69.686  1.00  0.00    -0.133 C  
HETATM   22  C   UNL     1      -7.891   7.802  70.790  1.00  0.00    -0.099 C  
HETATM   23  O   UNL     1      -9.785   2.489  69.456  1.00  0.00    -0.034 OA 
HETATM   24  C   UNL     1      -8.426   6.473  71.309  1.00  0.00    -0.126 C  
HETATM   25  C   UNL     1      -8.399   3.697  67.898  1.00  0.00    -0.101 C  
ENDROOT
BRANCH   4  26
HETATM   26  C   UNL     1     -10.904  10.952  67.101  1.00  0.00    -0.280 C  
HETATM   27  O   UNL     1     -12.085  11.100  67.459  1.00  0.00    -0.444 OA 
BRANCH  26  28
HETATM   28  C   UNL     1     -10.654  11.463  65.584  1.00  0.00    -0.258 C  
BRANCH  28  29
HETATM   29  O   UNL     1     -11.869  12.248  65.110  1.00  0.00    -0.369 OA 
BRANCH  29  30
HETATM   30  C   UNL     1     -11.996  13.602  65.322  1.00  0.00    -0.376 C  
HETATM   31  O   UNL     1     -13.062  14.148  65.564  1.00  0.00    -0.691 OA 
BRANCH  30  32
HETATM   32  C   UNL     1     -10.655  14.380  65.214  1.00  0.00    -0.398 C  
BRANCH  32  33
HETATM   33  C   UNL     1     -10.819  15.893  64.951  1.00  0.00    -0.420 C  
HETATM   34  C   UNL     1     -10.279  16.875  65.983  1.00  0.00    -0.336 C  
HETATM   35  O   UNL     1     -10.791  16.808  67.223  1.00  0.00    -0.258 OA 
HETATM   36  O   UNL     1      -9.423  17.708  65.710  1.00  0.00    -0.516 OA 
ENDBRANCH  32  33
ENDBRANCH  30  32
ENDBRANCH  29  30
ENDBRANCH  28  29
ENDBRANCH  26  28
ENDBRANCH   4  26
TORSDOF 6
ENDMDL
MODEL       69
REMARK 921   NORMALIZED FREE ENERGY PREDICTED BY IDOCK:   -5.43 KCAL/MOL
REMARK 922        TOTAL FREE ENERGY PREDICTED BY IDOCK:   -7.67 KCAL/MOL
REMARK 923 INTER-LIGAND FREE ENERGY PREDICTED BY IDOCK:   -8.58 KCAL/MOL
REMARK 924 INTRA-LIGAND FREE ENERGY PREDICTED BY IDOCK:    0.91 KCAL/MOL
REMARK 927      BINDING AFFINITY PREDICTED BY RF-SCORE:    0.00 PKD
ROOT
HETATM    1  C   UNL     1      -9.969  10.828  65.615  1.00  0.00    -0.317 C  
HETATM    2  C   UNL     1     -11.356  10.909  65.336  1.00  0.00     0.364 C  
HETATM    3  C   UNL     1     -10.877  11.600  66.580  1.00  0.00    -0.328 C  
HETATM    4  C   UNL     1      -8.843  11.984  66.784  1.00  0.00    -0.198 C  
HETATM    5  C   UNL     1     -11.259   6.771  69.798  1.00  0.00    -0.368 C  
HETATM    6  O   UNL     1      -7.919  11.559  65.704  1.00  0.00    -0.349 OA 
HETATM    7  C   UNL     1      -9.870  12.669  66.200  1.00  0.00    -0.265 C  
HETATM    8  C   UNL     1      -9.920  13.651  65.068  1.00  0.00    -0.205 C  
HETATM    9  H   UNL     1      -6.990  11.734  65.797  1.00  0.00     0.000 HD 
HETATM   10  C   UNL     1     -11.421   7.268  71.170  1.00  0.00    -0.283 C  
HETATM   11  C   UNL     1     -10.532   7.604  69.027  1.00  0.00    -0.214 C  
HETATM   12  C   UNL     1     -10.278  13.005  68.036  1.00  0.00    -0.233 C  
HETATM   13  C   UNL     1     -10.694   5.963  67.095  1.00  0.00    -0.387 C  
HETATM   14  C   UNL     1      -9.880  11.644  69.022  1.00  0.00     0.052 C  
HETATM   15  O   UNL     1      -8.463  11.739  69.255  1.00  0.00    -0.332 OA 
HETATM   16  C   UNL     1     -10.267  10.091  68.552  1.00  0.00    -0.196 C  
HETATM   17  C   UNL     1      -8.634   8.866  69.988  1.00  0.00    -0.145 C  
HETATM   18  C   UNL     1     -10.116   8.969  69.637  1.00  0.00    -0.202 C  
HETATM   19  C   UNL     1     -11.166   9.304  70.821  1.00  0.00    -0.351 C  
HETATM   20  H   UNL     1      -8.244  10.990  69.797  1.00  0.00     0.000 HD 
HETATM   21  C   UNL     1      -9.671   9.663  67.003  1.00  0.00    -0.232 C  
HETATM   22  C   UNL     1     -10.231   8.312  66.586  1.00  0.00    -0.333 C  
HETATM   23  O   UNL     1     -10.866   6.787  72.142  1.00  0.00    -0.217 OA 
HETATM   24  C   UNL     1     -10.034   7.229  67.640  1.00  0.00    -0.207 C  
HETATM   25  C   UNL     1     -12.214   8.560  71.221  1.00  0.00    -0.310 C  
ENDROOT
BRANCH   4  26
HETATM   26  C   UNL     1      -7.840  13.464  67.175  1.00  0.00    -0.019 C  
HETATM   27  O   UNL     1      -6.605  13.419  67.305  1.00  0.00    -0.234 OA 
BRANCH  26  28
HETATM   28  C   UNL     1      -8.440  14.929  67.520  1.00  0.00    -0.185 C  
BRANCH  28  29
HETATM   29  O   UNL     1      -7.742  15.975  66.663  1.00  0.00    -0.242 OA 
BRANCH  29  30
HETATM   30  C   UNL     1      -8.379  17.120  66.240  1.00  0.00    -0.263 C  
HETATM   31  O   UNL     1      -7.788  18.093  65.795  1.00  0.00    -0.526 OA 
BRANCH  30  32
HETATM   32  C   UNL     1      -9.924  17.069  66.393  1.00  0.00    -0.318 C  
BRANCH  32  33
HETATM   33  C   UNL     1     -10.446  17.607  67.744  1.00  0.00    -0.379 C  
HETATM   34  C   UNL     1      -9.783  18.841  68.342  1.00  0.00    -0.376 C  
HETATM   35  O   UNL     1      -8.472  18.758  68.626  1.00  0.00    -0.338 OA 
HETATM   36  O   UNL     1     -10.403  19.872  68.573  1.00  0.00    -0.448 OA 
ENDBRANCH  32  33
ENDBRANCH  30  32
ENDBRANCH  29  30
ENDBRANCH  28  29
ENDBRANCH  26  28
ENDBRANCH   4  26
TORSDOF 6
ENDMDL
MODEL       70
REMARK 921   NORMALIZED FREE ENERGY PREDICTED BY IDOCK:   -5.40 KCAL/MOL
REMARK 922        TOTAL FREE ENERGY PREDICTED BY IDOCK:   -7.64 KCAL/MOL
REMARK 923 INTER-LIGAND FREE ENERGY PREDICTED BY IDOCK:   -7.44 KCAL/MOL
REMARK 924 INTRA-LIGAND FREE ENERGY PREDICTED BY IDOCK:   -0.20 KCAL/MOL
REMARK 927      BINDING AFFINITY PREDICTED BY RF-SCORE:    0.00 PKD
ROOT
HETATM    1  C   UNL     1     -12.138  12.412  69.086  1.00  0.00    -0.195 C  
HETATM    2  C   UNL     1     -11.853  13.317  70.137  1.00  0.00    -0.333 C  
HETATM    3  C   UNL     1     -10.690  12.554  69.572  1.00  0.00     0.248 C  
HETATM    4  C   UNL     1     -10.914  11.627  67.722  1.00  0.00    -0.233 C  
HETATM    5  C   UNL     1     -11.597   7.975  73.041  1.00  0.00    -0.112 C  
HETATM    6  O   UNL     1     -12.214  11.737  67.016  1.00  0.00    -0.425 OA 
HETATM    7  C   UNL     1     -10.544  12.887  68.099  1.00  0.00    -0.249 C  
HETATM    8  C   UNL     1     -10.646  14.220  67.420  1.00  0.00    -0.276 C  
HETATM    9  H   UNL     1     -12.317  11.315  66.172  1.00  0.00     0.000 HD 
HETATM   10  C   UNL     1     -10.282   7.328  73.130  1.00  0.00    -0.298 C  
HETATM   11  C   UNL     1     -11.788   8.601  71.864  1.00  0.00    -0.420 C  
HETATM   12  C   UNL     1      -8.944  11.944  68.553  1.00  0.00    -0.115 C  
HETATM   13  C   UNL     1     -14.148   9.219  72.572  1.00  0.00    -0.319 C  
HETATM   14  C   UNL     1      -9.300  10.355  69.129  1.00  0.00    -0.199 C  
HETATM   15  O   UNL     1      -9.509   9.557  67.949  1.00  0.00    -0.132 OA 
HETATM   16  C   UNL     1     -10.537  10.083  70.214  1.00  0.00    -0.354 C  
HETATM   17  C   UNL     1     -10.871   7.649  69.773  1.00  0.00    -0.222 C  
HETATM   18  C   UNL     1     -10.591   8.663  70.879  1.00  0.00    -0.265 C  
HETATM   19  C   UNL     1      -9.242   8.494  71.755  1.00  0.00    -0.316 C  
HETATM   20  H   UNL     1      -9.705   8.683  68.265  1.00  0.00     0.000 HD 
HETATM   21  C   UNL     1     -12.058  10.684  69.702  1.00  0.00    -0.312 C  
HETATM   22  C   UNL     1     -13.072  10.560  70.829  1.00  0.00    -0.335 C  
HETATM   23  O   UNL     1     -10.108   6.123  73.095  1.00  0.00    -0.174 OA 
HETATM   24  C   UNL     1     -13.135   9.160  71.430  1.00  0.00    -0.363 C  
HETATM   25  C   UNL     1      -9.146   8.333  73.088  1.00  0.00    -0.305 C  
ENDROOT
BRANCH   4  26
HETATM   26  C   UNL     1      -9.967  11.623  66.156  1.00  0.00    -0.221 C  
HETATM   27  O   UNL     1      -9.059  12.439  65.922  1.00  0.00    -0.073 OA 
BRANCH  26  28
HETATM   28  C   UNL     1     -10.285  10.676  64.881  1.00  0.00    -0.324 C  
BRANCH  28  29
HETATM   29  O   UNL     1      -9.659   9.306  65.102  1.00  0.00    -0.213 OA 
BRANCH  29  30
HETATM   30  C   UNL     1      -8.533   8.896  64.423  1.00  0.00    -0.153 C  
HETATM   31  O   UNL     1      -8.404   8.995  63.212  1.00  0.00    -0.178 OA 
BRANCH  30  32
HETATM   32  C   UNL     1      -7.439   8.283  65.341  1.00  0.00    -0.085 C  
BRANCH  32  33
HETATM   33  C   UNL     1      -7.525   6.747  65.490  1.00  0.00    -0.083 C  
HETATM   34  C   UNL     1      -8.650   6.159  66.332  1.00  0.00    -0.131 C  
HETATM   35  O   UNL     1      -8.697   6.511  67.628  1.00  0.00    -0.116 OA 
HETATM   36  O   UNL     1      -9.479   5.385  65.870  1.00  0.00    -0.160 OA 
ENDBRANCH  32  33
ENDBRANCH  30  32
ENDBRANCH  29  30
ENDBRANCH  28  29
ENDBRANCH  26  28
ENDBRANCH   4  26
TORSDOF 6
ENDMDL
MODEL       71
REMARK 921   NORMALIZED FREE ENERGY PREDICTED BY IDOCK:   -5.30 KCAL/MOL
REMARK 922        TOTAL FREE ENERGY PREDICTED BY IDOCK:   -7.50 KCAL/MOL
REMARK 923 INTER-LIGAND FREE ENERGY PREDICTED BY IDOCK:   -7.15 KCAL/MOL
REMARK 924 INTRA-LIGAND FREE ENERGY PREDICTED BY IDOCK:   -0.35 KCAL/MOL
REMARK 927      BINDING AFFINITY PREDICTED BY RF-SCORE:    0.00 PKD
ROOT
HETATM    1  C   UNL     1     -11.400  10.015  71.034  1.00  0.00    -0.434 C  
HETATM    2  C   UNL     1     -12.796   9.784  70.964  1.00  0.00    -0.374 C  
HETATM    3  C   UNL     1     -11.966   9.246  69.834  1.00  0.00     0.381 C  
HETATM    4  C   UNL     1      -9.911   9.070  70.105  1.00  0.00    -0.189 C  
HETATM    5  C   UNL     1     -12.110  14.272  66.911  1.00  0.00    -0.440 C  
HETATM    6  O   UNL     1      -9.319   9.487  71.400  1.00  0.00    -0.302 OA 
HETATM    7  C   UNL     1     -10.965   8.247  70.383  1.00  0.00    -0.244 C  
HETATM    8  C   UNL     1     -11.172   7.173  71.409  1.00  0.00    -0.278 C  
HETATM    9  H   UNL     1      -8.381   9.406  71.524  1.00  0.00     0.000 HD 
HETATM   10  C   UNL     1     -11.891  13.879  65.514  1.00  0.00    -0.362 C  
HETATM   11  C   UNL     1     -11.498  13.448  67.784  1.00  0.00    -0.351 C  
HETATM   12  C   UNL     1     -10.892   8.029  68.485  1.00  0.00     0.042 C  
HETATM   13  C   UNL     1     -12.286  14.900  69.713  1.00  0.00    -0.283 C  
HETATM   14  C   UNL     1     -10.426   9.499  67.707  1.00  0.00    -0.254 C  
HETATM   15  O   UNL     1      -8.992   9.555  67.819  1.00  0.00    -0.123 OA 
HETATM   16  C   UNL     1     -11.080  10.965  68.161  1.00  0.00    -0.337 C  
HETATM   17  C   UNL     1      -9.300  12.452  67.238  1.00  0.00    -0.184 C  
HETATM   18  C   UNL     1     -10.803  12.184  67.213  1.00  0.00    -0.286 C  
HETATM   19  C   UNL     1     -11.503  11.853  65.793  1.00  0.00    -0.326 C  
HETATM   20  H   UNL     1      -8.736  10.364  67.391  1.00  0.00     0.000 HD 
HETATM   21  C   UNL     1     -10.914  11.315  69.831  1.00  0.00    -0.096 C  
HETATM   22  C   UNL     1     -11.701  12.569  70.179  1.00  0.00    -0.255 C  
HETATM   23  O   UNL     1     -11.180  14.489  64.734  1.00  0.00    -0.374 OA 
HETATM   24  C   UNL     1     -11.382  13.750  69.270  1.00  0.00    -0.325 C  
HETATM   25  C   UNL     1     -12.503  12.527  65.196  1.00  0.00    -0.451 C  
ENDROOT
BRANCH   4  26
HETATM   26  C   UNL     1      -8.689   7.727  69.882  1.00  0.00    -0.142 C  
HETATM   27  O   UNL     1      -7.536   7.935  69.466  1.00  0.00    -0.094 OA 
BRANCH  26  28
HETATM   28  C   UNL     1      -9.001   6.147  70.062  1.00  0.00    -0.147 C  
BRANCH  28  29
HETATM   29  O   UNL     1      -7.897   5.336  69.398  1.00  0.00    -0.085 OA 
BRANCH  29  30
HETATM   30  C   UNL     1      -8.155   4.442  68.383  1.00  0.00    -0.082 C  
HETATM   31  O   UNL     1      -7.356   3.593  68.015  1.00  0.00    -0.060 OA 
BRANCH  30  32
HETATM   32  C   UNL     1      -9.555   4.620  67.733  1.00  0.00    -0.203 C  
BRANCH  32  33
HETATM   33  C   UNL     1      -9.517   4.962  66.227  1.00  0.00    -0.160 C  
HETATM   34  C   UNL     1      -8.419   5.888  65.718  1.00  0.00    -0.148 C  
HETATM   35  O   UNL     1      -8.376   7.130  66.229  1.00  0.00    -0.117 OA 
HETATM   36  O   UNL     1      -7.608   5.539  64.869  1.00  0.00    -0.072 OA 
ENDBRANCH  32  33
ENDBRANCH  30  32
ENDBRANCH  29  30
ENDBRANCH  28  29
ENDBRANCH  26  28
ENDBRANCH   4  26
TORSDOF 6
ENDMDL
MODEL       72
REMARK 921   NORMALIZED FREE ENERGY PREDICTED BY IDOCK:   -5.30 KCAL/MOL
REMARK 922        TOTAL FREE ENERGY PREDICTED BY IDOCK:   -7.50 KCAL/MOL
REMARK 923 INTER-LIGAND FREE ENERGY PREDICTED BY IDOCK:   -7.82 KCAL/MOL
REMARK 924 INTRA-LIGAND FREE ENERGY PREDICTED BY IDOCK:    0.32 KCAL/MOL
REMARK 927      BINDING AFFINITY PREDICTED BY RF-SCORE:    0.00 PKD
ROOT
HETATM    1  C   UNL     1      -7.699   9.649  68.319  1.00  0.00    -0.082 C  
HETATM    2  C   UNL     1      -6.961   9.616  67.110  1.00  0.00    -0.085 C  
HETATM    3  C   UNL     1      -8.430   9.323  67.011  1.00  0.00    -0.124 C  
HETATM    4  C   UNL     1      -9.662   9.859  68.600  1.00  0.00    -0.157 C  
HETATM    5  C   UNL     1      -7.714   3.681  68.226  1.00  0.00    -0.061 C  
HETATM    6  O   UNL     1      -9.057  10.507  69.790  1.00  0.00    -0.409 OA 
HETATM    7  C   UNL     1      -9.213  10.529  67.497  1.00  0.00    -0.152 C  
HETATM    8  C   UNL     1      -8.972  11.982  67.221  1.00  0.00    -0.180 C  
HETATM    9  H   UNL     1      -9.619  10.752  70.516  1.00  0.00     0.000 HD 
HETATM   10  C   UNL     1      -8.886   3.035  67.625  1.00  0.00    -0.134 C  
HETATM   11  C   UNL     1      -7.969   4.939  68.637  1.00  0.00    -0.084 C  
HETATM   12  C   UNL     1     -10.512   9.397  66.667  1.00  0.00    -0.238 C  
HETATM   13  C   UNL     1      -5.607   5.123  69.553  1.00  0.00    -0.011 C  
HETATM   14  C   UNL     1     -10.580   7.855  67.442  1.00  0.00    -0.272 C  
HETATM   15  O   UNL     1     -11.401   8.047  68.609  1.00  0.00    -0.175 OA 
HETATM   16  C   UNL     1      -9.190   7.036  67.865  1.00  0.00    -0.125 C  
HETATM   17  C   UNL     1     -10.175   5.525  69.589  1.00  0.00    -0.336 C  
HETATM   18  C   UNL     1      -9.360   5.538  68.299  1.00  0.00    -0.127 C  
HETATM   19  C   UNL     1      -9.930   4.730  67.019  1.00  0.00    -0.235 C  
HETATM   20  H   UNL     1     -11.438   7.198  69.035  1.00  0.00     0.000 HD 
HETATM   21  C   UNL     1      -8.118   7.941  68.848  1.00  0.00    -0.125 C  
HETATM   22  C   UNL     1      -6.809   7.188  69.021  1.00  0.00    -0.061 C  
HETATM   23  O   UNL     1      -9.521   2.139  68.154  1.00  0.00    -0.206 OA 
HETATM   24  C   UNL     1      -6.999   5.749  69.484  1.00  0.00    -0.063 C  
HETATM   25  C   UNL     1      -9.332   3.727  66.351  1.00  0.00    -0.197 C  
ENDROOT
BRANCH   4  26
HETATM   26  C   UNL     1     -11.216  10.809  68.767  1.00  0.00    -0.272 C  
HETATM   27  O   UNL     1     -11.914  11.126  67.788  1.00  0.00    -0.630 OA 
BRANCH  26  28
HETATM   28  C   UNL     1     -11.773  11.446  70.148  1.00  0.00    -0.328 C  
BRANCH  28  29
HETATM   29  O   UNL     1     -11.920  12.952  69.987  1.00  0.00    -0.334 OA 
BRANCH  29  30
HETATM   30  C   UNL     1     -12.634  13.719  70.879  1.00  0.00    -0.356 C  
HETATM   31  O   UNL     1     -13.236  13.253  71.836  1.00  0.00    -0.404 OA 
BRANCH  30  32
HETATM   32  C   UNL     1     -12.617  15.238  70.552  1.00  0.00    -0.450 C  
BRANCH  32  33
HETATM   33  C   UNL     1     -11.290  15.739  69.940  1.00  0.00    -0.349 C  
HETATM   34  C   UNL     1     -11.247  16.048  68.448  1.00  0.00    -0.364 C  
HETATM   35  O   UNL     1     -11.515  15.038  67.603  1.00  0.00    -0.331 OA 
HETATM   36  O   UNL     1     -10.968  17.160  68.017  1.00  0.00    -0.362 OA 
ENDBRANCH  32  33
ENDBRANCH  30  32
ENDBRANCH  29  30
ENDBRANCH  28  29
ENDBRANCH  26  28
ENDBRANCH   4  26
TORSDOF 6
ENDMDL
MODEL       73
REMARK 921   NORMALIZED FREE ENERGY PREDICTED BY IDOCK:   -5.28 KCAL/MOL
REMARK 922        TOTAL FREE ENERGY PREDICTED BY IDOCK:   -7.48 KCAL/MOL
REMARK 923 INTER-LIGAND FREE ENERGY PREDICTED BY IDOCK:   -7.95 KCAL/MOL
REMARK 924 INTRA-LIGAND FREE ENERGY PREDICTED BY IDOCK:    0.47 KCAL/MOL
REMARK 927      BINDING AFFINITY PREDICTED BY RF-SCORE:    0.00 PKD
ROOT
HETATM    1  C   UNL     1      -9.949   5.442  71.680  1.00  0.00    -0.239 C  
HETATM    2  C   UNL     1      -8.586   5.376  72.059  1.00  0.00    -0.131 C  
HETATM    3  C   UNL     1      -9.017   6.602  71.309  1.00  0.00    -0.144 C  
HETATM    4  C   UNL     1     -11.050   7.027  71.182  1.00  0.00    -0.258 C  
HETATM    5  C   UNL     1      -8.248   4.091  66.120  1.00  0.00    -0.105 C  
HETATM    6  O   UNL     1     -12.018   6.106  71.826  1.00  0.00    -0.289 OA 
HETATM    7  C   UNL     1     -10.088   7.323  72.106  1.00  0.00    -0.207 C  
HETATM    8  C   UNL     1     -10.146   7.591  73.580  1.00  0.00    -0.378 C  
HETATM    9  H   UNL     1     -12.946   6.300  71.769  1.00  0.00     0.000 HD 
HETATM   10  C   UNL     1      -8.024   5.218  65.207  1.00  0.00    -0.106 C  
HETATM   11  C   UNL     1      -9.052   4.411  67.153  1.00  0.00    -0.143 C  
HETATM   12  C   UNL     1      -9.585   8.551  70.730  1.00  0.00    -0.217 C  
HETATM   13  C   UNL     1      -8.939   2.014  67.988  1.00  0.00    -0.184 C  
HETATM   14  C   UNL     1      -9.868   7.880  69.164  1.00  0.00    -0.174 C  
HETATM   15  O   UNL     1     -11.272   8.074  68.909  1.00  0.00    -0.396 OA 
HETATM   16  C   UNL     1      -9.447   6.306  68.806  1.00  0.00    -0.124 C  
HETATM   17  C   UNL     1     -10.940   5.977  66.833  1.00  0.00    -0.350 C  
HETATM   18  C   UNL     1      -9.487   5.893  67.293  1.00  0.00    -0.117 C  
HETATM   19  C   UNL     1      -8.383   6.790  66.523  1.00  0.00    -0.121 C  
HETATM   20  H   UNL     1     -11.427   7.705  68.048  1.00  0.00     0.000 HD 
HETATM   21  C   UNL     1     -10.116   5.146  69.875  1.00  0.00    -0.342 C  
HETATM   22  C   UNL     1      -9.528   3.774  69.586  1.00  0.00    -0.258 C  
HETATM   23  O   UNL     1      -8.500   5.297  64.088  1.00  0.00    -0.135 OA 
HETATM   24  C   UNL     1      -9.617   3.378  68.117  1.00  0.00    -0.158 C  
HETATM   25  C   UNL     1      -7.283   6.360  65.878  1.00  0.00    -0.078 C  
ENDROOT
BRANCH   4  26
HETATM   26  C   UNL     1     -12.087   8.495  71.527  1.00  0.00    -0.304 C  
HETATM   27  O   UNL     1     -13.310   8.415  71.734  1.00  0.00    -0.337 OA 
BRANCH  26  28
HETATM   28  C   UNL     1     -11.574  10.030  71.468  1.00  0.00    -0.224 C  
BRANCH  28  29
HETATM   29  O   UNL     1     -12.118  10.697  70.213  1.00  0.00    -0.287 OA 
BRANCH  29  30
HETATM   30  C   UNL     1     -12.157  12.065  70.068  1.00  0.00    -0.280 C  
HETATM   31  O   UNL     1     -12.500  12.827  70.959  1.00  0.00    -0.376 OA 
BRANCH  30  32
HETATM   32  C   UNL     1     -11.733  12.556  68.655  1.00  0.00    -0.368 C  
BRANCH  32  33
HETATM   33  C   UNL     1     -10.552  13.551  68.658  1.00  0.00    -0.259 C  
HETATM   34  C   UNL     1     -10.832  15.015  68.973  1.00  0.00    -0.242 C  
HETATM   35  O   UNL     1     -11.673  15.670  68.154  1.00  0.00    -0.331 OA 
HETATM   36  O   UNL     1     -10.313  15.593  69.920  1.00  0.00    -0.289 OA 
ENDBRANCH  32  33
ENDBRANCH  30  32
ENDBRANCH  29  30
ENDBRANCH  28  29
ENDBRANCH  26  28
ENDBRANCH   4  26
TORSDOF 6
ENDMDL
MODEL       74
REMARK 921   NORMALIZED FREE ENERGY PREDICTED BY IDOCK:   -5.27 KCAL/MOL
REMARK 922        TOTAL FREE ENERGY PREDICTED BY IDOCK:   -7.47 KCAL/MOL
REMARK 923 INTER-LIGAND FREE ENERGY PREDICTED BY IDOCK:   -7.63 KCAL/MOL
REMARK 924 INTRA-LIGAND FREE ENERGY PREDICTED BY IDOCK:    0.16 KCAL/MOL
REMARK 927      BINDING AFFINITY PREDICTED BY RF-SCORE:    0.00 PKD
ROOT
HETATM    1  C   UNL     1      -7.435  13.640  67.752  1.00  0.00    -0.172 C  
HETATM    2  C   UNL     1      -6.980  13.983  69.049  1.00  0.00    -0.112 C  
HETATM    3  C   UNL     1      -8.465  13.984  68.834  1.00  0.00     0.046 C  
HETATM    4  C   UNL     1      -9.231  13.004  67.166  1.00  0.00    -0.226 C  
HETATM    5  C   UNL     1      -8.492  19.441  66.821  1.00  0.00    -0.323 C  
HETATM    6  O   UNL     1      -8.292  12.338  66.231  1.00  0.00    -0.394 OA 
HETATM    7  C   UNL     1      -8.912  12.592  68.429  1.00  0.00    -0.125 C  
HETATM    8  C   UNL     1      -8.488  11.267  68.987  1.00  0.00     0.002 C  
HETATM    9  H   UNL     1      -8.641  11.890  65.469  1.00  0.00     0.000 HD 
HETATM   10  C   UNL     1      -9.856  19.913  67.086  1.00  0.00    -0.406 C  
HETATM   11  C   UNL     1      -8.436  18.114  66.592  1.00  0.00    -0.282 C  
HETATM   12  C   UNL     1     -10.529  13.539  68.810  1.00  0.00    -0.212 C  
HETATM   13  C   UNL     1      -5.940  18.289  66.156  1.00  0.00    -0.223 C  
HETATM   14  C   UNL     1     -10.698  14.918  67.784  1.00  0.00    -0.271 C  
HETATM   15  O   UNL     1     -11.215  14.411  66.539  1.00  0.00    -0.324 OA 
HETATM   16  C   UNL     1      -9.413  15.937  67.481  1.00  0.00    -0.219 C  
HETATM   17  C   UNL     1     -10.265  16.974  65.377  1.00  0.00    -0.008 C  
HETATM   18  C   UNL     1      -9.743  17.298  66.775  1.00  0.00    -0.285 C  
HETATM   19  C   UNL     1     -10.696  18.138  67.777  1.00  0.00    -0.355 C  
HETATM   20  H   UNL     1     -11.308  15.170  65.975  1.00  0.00     0.000 HD 
HETATM   21  C   UNL     1      -8.022  15.142  66.873  1.00  0.00    -0.155 C  
HETATM   22  C   UNL     1      -6.854  16.114  66.810  1.00  0.00    -0.049 C  
HETATM   23  O   UNL     1     -10.511  20.583  66.307  1.00  0.00    -0.185 OA 
HETATM   24  C   UNL     1      -7.188  17.410  66.082  1.00  0.00    -0.327 C  
HETATM   25  C   UNL     1     -10.430  19.321  68.359  1.00  0.00    -0.331 C  
ENDROOT
BRANCH   4  26
HETATM   26  C   UNL     1     -10.531  11.746  66.890  1.00  0.00    -0.223 C  
HETATM   27  O   UNL     1     -11.580  11.712  67.557  1.00  0.00    -0.456 OA 
BRANCH  26  28
HETATM   28  C   UNL     1     -10.410  10.492  65.873  1.00  0.00    -0.206 C  
BRANCH  28  29
HETATM   29  O   UNL     1      -9.417   9.483  66.433  1.00  0.00    -0.167 OA 
BRANCH  29  30
HETATM   30  C   UNL     1      -9.822   8.329  67.065  1.00  0.00    -0.232 C  
HETATM   31  O   UNL     1     -10.907   7.800  66.870  1.00  0.00    -0.311 OA 
BRANCH  30  32
HETATM   32  C   UNL     1      -8.775   7.762  68.064  1.00  0.00    -0.125 C  
BRANCH  32  33
HETATM   33  C   UNL     1      -9.365   6.812  69.130  1.00  0.00    -0.135 C  
HETATM   34  C   UNL     1     -10.672   7.202  69.809  1.00  0.00    -0.239 C  
HETATM   35  O   UNL     1     -10.685   8.352  70.504  1.00  0.00    -0.218 OA 
HETATM   36  O   UNL     1     -11.676   6.503  69.748  1.00  0.00    -0.382 OA 
ENDBRANCH  32  33
ENDBRANCH  30  32
ENDBRANCH  29  30
ENDBRANCH  28  29
ENDBRANCH  26  28
ENDBRANCH   4  26
TORSDOF 6
ENDMDL
MODEL       75
REMARK 921   NORMALIZED FREE ENERGY PREDICTED BY IDOCK:   -5.27 KCAL/MOL
REMARK 922        TOTAL FREE ENERGY PREDICTED BY IDOCK:   -7.46 KCAL/MOL
REMARK 923 INTER-LIGAND FREE ENERGY PREDICTED BY IDOCK:   -7.96 KCAL/MOL
REMARK 924 INTRA-LIGAND FREE ENERGY PREDICTED BY IDOCK:    0.49 KCAL/MOL
REMARK 927      BINDING AFFINITY PREDICTED BY RF-SCORE:    0.00 PKD
ROOT
HETATM    1  C   UNL     1      -6.854   9.438  66.731  1.00  0.00    -0.080 C  
HETATM    2  C   UNL     1      -5.830  10.205  66.124  1.00  0.00    -0.067 C  
HETATM    3  C   UNL     1      -6.579  10.854  67.251  1.00  0.00    -0.078 C  
HETATM    4  C   UNL     1      -7.703   9.650  68.522  1.00  0.00    -0.081 C  
HETATM    5  C   UNL     1     -10.820  12.763  63.759  1.00  0.00    -0.416 C  
HETATM    6  O   UNL     1      -7.741   8.187  68.278  1.00  0.00    -0.109 OA 
HETATM    7  C   UNL     1      -6.392  10.033  68.513  1.00  0.00    -0.049 C  
HETATM    8  C   UNL     1      -5.144   9.393  69.043  1.00  0.00    -0.037 C  
HETATM    9  H   UNL     1      -8.254   7.637  68.859  1.00  0.00     0.000 HD 
HETATM   10  C   UNL     1     -11.377  13.919  64.472  1.00  0.00    -0.372 C  
HETATM   11  C   UNL     1     -10.331  11.825  64.593  1.00  0.00    -0.336 C  
HETATM   12  C   UNL     1      -7.188  11.668  69.101  1.00  0.00    -0.064 C  
HETATM   13  C   UNL     1      -9.781  10.340  62.607  1.00  0.00    -0.145 C  
HETATM   14  C   UNL     1      -8.727  11.913  68.358  1.00  0.00    -0.157 C  
HETATM   15  O   UNL     1      -9.654  11.116  69.118  1.00  0.00    -0.380 OA 
HETATM   16  C   UNL     1      -8.957  11.636  66.729  1.00  0.00    -0.189 C  
HETATM   17  C   UNL     1     -11.439  11.370  66.758  1.00  0.00    -0.157 C  
HETATM   18  C   UNL     1     -10.302  12.156  66.109  1.00  0.00    -0.264 C  
HETATM   19  C   UNL     1     -10.302  13.767  66.247  1.00  0.00    -0.294 C  
HETATM   20  H   UNL     1     -10.500  11.251  68.709  1.00  0.00     0.000 HD 
HETATM   21  C   UNL     1      -8.502  10.066  66.218  1.00  0.00    -0.134 C  
HETATM   22  C   UNL     1      -8.567   9.973  64.702  1.00  0.00    -0.191 C  
HETATM   23  O   UNL     1     -12.568  14.165  64.552  1.00  0.00    -0.643 OA 
HETATM   24  C   UNL     1      -9.899  10.443  64.127  1.00  0.00    -0.379 C  
HETATM   25  C   UNL     1     -10.319  14.674  65.254  1.00  0.00    -0.425 C  
ENDROOT
BRANCH   4  26
HETATM   26  C   UNL     1      -7.814   9.436  70.336  1.00  0.00    -0.164 C  
HETATM   27  O   UNL     1      -6.989   9.938  71.120  1.00  0.00    -0.338 OA 
BRANCH  26  28
HETATM   28  C   UNL     1      -8.883   8.486  71.096  1.00  0.00    -0.179 C  
BRANCH  28  29
HETATM   29  O   UNL     1      -9.179   7.268  70.233  1.00  0.00    -0.155 OA 
BRANCH  29  30
HETATM   30  C   UNL     1     -10.187   6.381  70.537  1.00  0.00    -0.189 C  
HETATM   31  O   UNL     1     -10.011   5.178  70.658  1.00  0.00    -0.194 OA 
BRANCH  30  32
HETATM   32  C   UNL     1     -11.580   7.051  70.701  1.00  0.00    -0.379 C  
BRANCH  32  33
HETATM   33  C   UNL     1     -11.905   7.491  72.145  1.00  0.00    -0.338 C  
HETATM   34  C   UNL     1     -12.781   8.721  72.353  1.00  0.00    -0.368 C  
HETATM   35  O   UNL     1     -12.330   9.887  71.860  1.00  0.00    -0.380 OA 
HETATM   36  O   UNL     1     -13.848   8.672  72.952  1.00  0.00    -0.225 OA 
ENDBRANCH  32  33
ENDBRANCH  30  32
ENDBRANCH  29  30
ENDBRANCH  28  29
ENDBRANCH  26  28
ENDBRANCH   4  26
TORSDOF 6
ENDMDL
MODEL       76
REMARK 921   NORMALIZED FREE ENERGY PREDICTED BY IDOCK:   -5.26 KCAL/MOL
REMARK 922        TOTAL FREE ENERGY PREDICTED BY IDOCK:   -7.45 KCAL/MOL
REMARK 923 INTER-LIGAND FREE ENERGY PREDICTED BY IDOCK:   -7.34 KCAL/MOL
REMARK 924 INTRA-LIGAND FREE ENERGY PREDICTED BY IDOCK:   -0.10 KCAL/MOL
REMARK 927      BINDING AFFINITY PREDICTED BY RF-SCORE:    0.00 PKD
ROOT
HETATM    1  C   UNL     1     -10.853  10.937  69.088  1.00  0.00    -0.280 C  
HETATM    2  C   UNL     1     -12.235  10.900  68.779  1.00  0.00     0.036 C  
HETATM    3  C   UNL     1     -11.283  10.868  67.618  1.00  0.00    -0.379 C  
HETATM    4  C   UNL     1      -9.291  10.390  67.978  1.00  0.00    -0.140 C  
HETATM    5  C   UNL     1     -10.845  16.663  67.405  1.00  0.00    -0.186 C  
HETATM    6  O   UNL     1      -8.861  10.102  69.368  1.00  0.00    -0.170 OA 
HETATM    7  C   UNL     1     -10.403   9.637  67.729  1.00  0.00    -0.286 C  
HETATM    8  C   UNL     1     -10.785   8.236  68.103  1.00  0.00    -0.093 C  
HETATM    9  H   UNL     1      -7.951   9.884  69.533  1.00  0.00     0.000 HD 
HETATM   10  C   UNL     1     -10.457  16.941  66.017  1.00  0.00    -0.290 C  
HETATM   11  C   UNL     1     -10.386  15.475  67.844  1.00  0.00    -0.250 C  
HETATM   12  C   UNL     1     -10.086  10.315  65.970  1.00  0.00    -0.311 C  
HETATM   13  C   UNL     1     -11.369  15.939  70.140  1.00  0.00    -0.369 C  
HETATM   14  C   UNL     1      -9.465  11.926  66.026  1.00  0.00    -0.229 C  
HETATM   15  O   UNL     1      -8.057  11.786  66.293  1.00  0.00    -0.369 OA 
HETATM   16  C   UNL     1     -10.117  13.071  67.049  1.00  0.00    -0.243 C  
HETATM   17  C   UNL     1      -8.175  14.637  67.116  1.00  0.00    -0.227 C  
HETATM   18  C   UNL     1      -9.670  14.557  66.818  1.00  0.00    -0.269 C  
HETATM   19  C   UNL     1     -10.187  14.989  65.347  1.00  0.00    -0.411 C  
HETATM   20  H   UNL     1      -7.716  12.672  66.324  1.00  0.00     0.000 HD 
HETATM   21  C   UNL     1     -10.162  12.592  68.693  1.00  0.00    -0.166 C  
HETATM   22  C   UNL     1     -10.940  13.612  69.510  1.00  0.00    -0.054 C  
HETATM   23  O   UNL     1      -9.625  17.771  65.692  1.00  0.00    -0.484 OA 
HETATM   24  C   UNL     1     -10.458  15.043  69.301  1.00  0.00    -0.252 C  
HETATM   25  C   UNL     1     -11.072  15.955  65.042  1.00  0.00    -0.370 C  
ENDROOT
BRANCH   4  26
HETATM   26  C   UNL     1      -8.102   9.191  67.272  1.00  0.00    -0.106 C  
HETATM   27  O   UNL     1      -8.078   8.908  66.062  1.00  0.00    -0.106 OA 
BRANCH  26  28
HETATM   28  C   UNL     1      -7.069   8.289  68.135  1.00  0.00    -0.082 C  
BRANCH  28  29
HETATM   29  O   UNL     1      -7.828   7.147  68.795  1.00  0.00    -0.116 OA 
BRANCH  29  30
HETATM   30  C   UNL     1      -7.836   5.873  68.273  1.00  0.00    -0.105 C  
HETATM   31  O   UNL     1      -6.991   5.460  67.493  1.00  0.00    -0.062 OA 
BRANCH  30  32
HETATM   32  C   UNL     1      -9.031   5.006  68.759  1.00  0.00    -0.126 C  
BRANCH  32  33
HETATM   33  C   UNL     1      -9.497   3.942  67.740  1.00  0.00    -0.230 C  
HETATM   34  C   UNL     1      -9.960   4.405  66.364  1.00  0.00    -0.232 C  
HETATM   35  O   UNL     1     -11.015   5.236  66.317  1.00  0.00    -0.237 OA 
HETATM   36  O   UNL     1      -9.415   4.036  65.331  1.00  0.00    -0.150 OA 
ENDBRANCH  32  33
ENDBRANCH  30  32
ENDBRANCH  29  30
ENDBRANCH  28  29
ENDBRANCH  26  28
ENDBRANCH   4  26
TORSDOF 6
ENDMDL
MODEL       77
REMARK 921   NORMALIZED FREE ENERGY PREDICTED BY IDOCK:   -5.19 KCAL/MOL
REMARK 922        TOTAL FREE ENERGY PREDICTED BY IDOCK:   -7.35 KCAL/MOL
REMARK 923 INTER-LIGAND FREE ENERGY PREDICTED BY IDOCK:   -7.76 KCAL/MOL
REMARK 924 INTRA-LIGAND FREE ENERGY PREDICTED BY IDOCK:    0.41 KCAL/MOL
REMARK 927      BINDING AFFINITY PREDICTED BY RF-SCORE:    0.00 PKD
ROOT
HETATM    1  C   UNL     1     -11.186  14.230  67.646  1.00  0.00    -0.321 C  
HETATM    2  C   UNL     1     -11.652  14.558  66.349  1.00  0.00    -0.370 C  
HETATM    3  C   UNL     1     -10.281  13.951  66.439  1.00  0.00    -0.292 C  
HETATM    4  C   UNL     1      -9.741  12.970  68.192  1.00  0.00    -0.228 C  
HETATM    5  C   UNL     1      -7.723  19.085  67.399  1.00  0.00    -0.254 C  
HETATM    6  O   UNL     1     -10.716  12.902  69.307  1.00  0.00    -0.436 OA 
HETATM    7  C   UNL     1     -10.387  12.570  67.057  1.00  0.00    -0.236 C  
HETATM    8  C   UNL     1     -11.395  11.493  66.790  1.00  0.00    -0.309 C  
HETATM    9  H   UNL     1     -10.470  12.454  70.108  1.00  0.00     0.000 HD 
HETATM   10  C   UNL     1      -6.342  18.887  66.942  1.00  0.00    -0.183 C  
HETATM   11  C   UNL     1      -8.280  17.954  67.873  1.00  0.00    -0.246 C  
HETATM   12  C   UNL     1      -8.603  12.673  66.379  1.00  0.00     0.152 C  
HETATM   13  C   UNL     1     -10.389  19.238  68.470  1.00  0.00    -0.385 C  
HETATM   14  C   UNL     1      -7.731  13.970  67.114  1.00  0.00     0.022 C  
HETATM   15  O   UNL     1      -7.285  13.462  68.385  1.00  0.00    -0.093 OA 
HETATM   16  C   UNL     1      -8.426  15.471  67.326  1.00  0.00    -0.216 C  
HETATM   17  C   UNL     1      -6.917  16.314  69.126  1.00  0.00    -0.206 C  
HETATM   18  C   UNL     1      -7.465  16.640  67.739  1.00  0.00    -0.169 C  
HETATM   19  C   UNL     1      -6.416  16.849  66.526  1.00  0.00    -0.187 C  
HETATM   20  H   UNL     1      -6.806  14.175  68.790  1.00  0.00     0.000 HD 
HETATM   21  C   UNL     1      -9.910  15.438  68.182  1.00  0.00    -0.213 C  
HETATM   22  C   UNL     1     -10.555  16.815  68.158  1.00  0.00    -0.350 C  
HETATM   23  O   UNL     1      -5.360  19.309  67.528  1.00  0.00    -0.170 OA 
HETATM   24  C   UNL     1      -9.614  17.928  68.604  1.00  0.00    -0.331 C  
HETATM   25  C   UNL     1      -6.260  17.943  65.758  1.00  0.00    -0.252 C  
ENDROOT
BRANCH   4  26
HETATM   26  C   UNL     1      -9.043  11.326  68.590  1.00  0.00    -0.151 C  
HETATM   27  O   UNL     1      -8.115  11.173  69.402  1.00  0.00    -0.019 OA 
BRANCH  26  28
HETATM   28  C   UNL     1      -9.446   9.942  67.851  1.00  0.00    -0.133 C  
BRANCH  28  29
HETATM   29  O   UNL     1      -9.315   8.788  68.836  1.00  0.00    -0.144 OA 
BRANCH  29  30
HETATM   30  C   UNL     1     -10.327   7.877  69.037  1.00  0.00    -0.214 C  
HETATM   31  O   UNL     1     -10.671   7.057  68.198  1.00  0.00    -0.210 OA 
BRANCH  30  32
HETATM   32  C   UNL     1     -11.005   7.994  70.430  1.00  0.00    -0.248 C  
BRANCH  32  33
HETATM   33  C   UNL     1     -10.321   8.996  71.386  1.00  0.00    -0.396 C  
HETATM   34  C   UNL     1      -9.471   8.451  72.527  1.00  0.00    -0.289 C  
HETATM   35  O   UNL     1     -10.084   7.666  73.429  1.00  0.00    -0.311 OA 
HETATM   36  O   UNL     1      -8.281   8.716  72.643  1.00  0.00    -0.372 OA 
ENDBRANCH  32  33
ENDBRANCH  30  32
ENDBRANCH  29  30
ENDBRANCH  28  29
ENDBRANCH  26  28
ENDBRANCH   4  26
TORSDOF 6
ENDMDL
MODEL       78
REMARK 921   NORMALIZED FREE ENERGY PREDICTED BY IDOCK:   -5.17 KCAL/MOL
REMARK 922        TOTAL FREE ENERGY PREDICTED BY IDOCK:   -7.33 KCAL/MOL
REMARK 923 INTER-LIGAND FREE ENERGY PREDICTED BY IDOCK:   -7.74 KCAL/MOL
REMARK 924 INTRA-LIGAND FREE ENERGY PREDICTED BY IDOCK:    0.41 KCAL/MOL
REMARK 927      BINDING AFFINITY PREDICTED BY RF-SCORE:    0.00 PKD
ROOT
HETATM    1  C   UNL     1      -8.902   8.497  66.885  1.00  0.00    -0.153 C  
HETATM    2  C   UNL     1      -9.805   7.621  66.236  1.00  0.00    -0.080 C  
HETATM    3  C   UNL     1     -10.405   8.655  67.143  1.00  0.00    -0.369 C  
HETATM    4  C   UNL     1      -9.238  10.282  67.707  1.00  0.00    -0.141 C  
HETATM    5  C   UNL     1      -9.756   5.340  71.877  1.00  0.00    -0.204 C  
HETATM    6  O   UNL     1      -7.844  10.375  67.205  1.00  0.00    -0.108 OA 
HETATM    7  C   UNL     1     -10.044  10.037  66.632  1.00  0.00    -0.289 C  
HETATM    8  C   UNL     1     -10.041  10.549  65.223  1.00  0.00    -0.369 C  
HETATM    9  H   UNL     1      -7.311  11.118  67.461  1.00  0.00     0.000 HD 
HETATM   10  C   UNL     1     -10.777   5.838  72.805  1.00  0.00    -0.241 C  
HETATM   11  C   UNL     1      -9.291   6.299  71.053  1.00  0.00    -0.170 C  
HETATM   12  C   UNL     1     -11.383  10.336  67.964  1.00  0.00    -0.219 C  
HETATM   13  C   UNL     1      -7.653   4.642  70.041  1.00  0.00    -0.054 C  
HETATM   14  C   UNL     1     -10.874   9.739  69.502  1.00  0.00    -0.240 C  
HETATM   15  O   UNL     1     -10.016  10.759  70.047  1.00  0.00    -0.377 OA 
HETATM   16  C   UNL     1     -10.138   8.250  69.654  1.00  0.00    -0.199 C  
HETATM   17  C   UNL     1      -9.026   8.623  71.858  1.00  0.00    -0.301 C  
HETATM   18  C   UNL     1      -9.976   7.690  71.110  1.00  0.00    -0.188 C  
HETATM   19  C   UNL     1     -11.463   7.466  71.706  1.00  0.00    -0.297 C  
HETATM   20  H   UNL     1      -9.736  10.430  70.893  1.00  0.00     0.000 HD 
HETATM   21  C   UNL     1      -8.756   8.051  68.661  1.00  0.00    -0.131 C  
HETATM   22  C   UNL     1      -8.272   6.611  68.725  1.00  0.00    -0.120 C  
HETATM   23  O   UNL     1     -10.597   5.998  74.000  1.00  0.00    -0.269 OA 
HETATM   24  C   UNL     1      -8.082   6.104  70.150  1.00  0.00    -0.116 C  
HETATM   25  C   UNL     1     -12.027   6.305  72.084  1.00  0.00    -0.338 C  
ENDROOT
BRANCH   4  26
HETATM   26  C   UNL     1      -9.456  12.099  67.684  1.00  0.00    -0.187 C  
HETATM   27  O   UNL     1     -10.565  12.640  67.831  1.00  0.00    -0.211 OA 
BRANCH  26  28
HETATM   28  C   UNL     1      -8.291  13.171  67.342  1.00  0.00    -0.188 C  
BRANCH  28  29
HETATM   29  O   UNL     1      -8.799  14.577  67.630  1.00  0.00    -0.173 OA 
BRANCH  29  30
HETATM   30  C   UNL     1      -7.952  15.660  67.712  1.00  0.00    -0.144 C  
HETATM   31  O   UNL     1      -6.807  15.653  67.284  1.00  0.00    -0.187 OA 
BRANCH  30  32
HETATM   32  C   UNL     1      -8.583  16.894  68.414  1.00  0.00    -0.240 C  
BRANCH  32  33
HETATM   33  C   UNL     1     -10.025  17.213  67.960  1.00  0.00    -0.295 C  
HETATM   34  C   UNL     1     -10.294  18.541  67.264  1.00  0.00    -0.398 C  
HETATM   35  O   UNL     1     -10.025  19.663  67.954  1.00  0.00    -0.361 OA 
HETATM   36  O   UNL     1     -10.748  18.606  66.128  1.00  0.00    -0.382 OA 
ENDBRANCH  32  33
ENDBRANCH  30  32
ENDBRANCH  29  30
ENDBRANCH  28  29
ENDBRANCH  26  28
ENDBRANCH   4  26
TORSDOF 6
ENDMDL
MODEL       79
REMARK 921   NORMALIZED FREE ENERGY PREDICTED BY IDOCK:   -5.15 KCAL/MOL
REMARK 922        TOTAL FREE ENERGY PREDICTED BY IDOCK:   -7.30 KCAL/MOL
REMARK 923 INTER-LIGAND FREE ENERGY PREDICTED BY IDOCK:   -8.00 KCAL/MOL
REMARK 924 INTRA-LIGAND FREE ENERGY PREDICTED BY IDOCK:    0.69 KCAL/MOL
REMARK 927      BINDING AFFINITY PREDICTED BY RF-SCORE:    0.00 PKD
ROOT
HETATM    1  C   UNL     1     -10.835  13.768  66.904  1.00  0.00    -0.286 C  
HETATM    2  C   UNL     1     -11.658  13.596  68.044  1.00  0.00    -0.368 C  
HETATM    3  C   UNL     1     -10.256  14.070  68.291  1.00  0.00    -0.249 C  
HETATM    4  C   UNL     1      -9.171  14.845  66.693  1.00  0.00    -0.276 C  
HETATM    5  C   UNL     1      -8.102   8.669  68.369  1.00  0.00    -0.118 C  
HETATM    6  O   UNL     1      -9.806  14.901  65.354  1.00  0.00    -0.366 OA 
HETATM    7  C   UNL     1     -10.046  15.397  67.585  1.00  0.00    -0.236 C  
HETATM    8  C   UNL     1     -10.967  16.577  67.505  1.00  0.00    -0.166 C  
HETATM    9  H   UNL     1      -9.312  15.255  64.624  1.00  0.00     0.000 HD 
HETATM   10  C   UNL     1      -6.877   8.784  69.168  1.00  0.00    -0.055 C  
HETATM   11  C   UNL     1      -8.390   9.799  67.695  1.00  0.00    -0.114 C  
HETATM   12  C   UNL     1      -8.525  15.197  68.725  1.00  0.00    -0.180 C  
HETATM   13  C   UNL     1     -10.393   8.657  66.629  1.00  0.00    -0.303 C  
HETATM   14  C   UNL     1      -7.635  13.770  68.332  1.00  0.00    -0.135 C  
HETATM   15  O   UNL     1      -6.818  14.126  67.201  1.00  0.00    -0.402 OA 
HETATM   16  C   UNL     1      -8.407  12.323  68.031  1.00  0.00    -0.165 C  
HETATM   17  C   UNL     1      -6.577  11.198  66.760  1.00  0.00    -0.133 C  
HETATM   18  C   UNL     1      -7.502  11.043  67.964  1.00  0.00    -0.090 C  
HETATM   19  C   UNL     1      -6.838  10.849  69.426  1.00  0.00    -0.114 C  
HETATM   20  H   UNL     1      -6.329  13.341  66.984  1.00  0.00     0.000 HD 
HETATM   21  C   UNL     1      -9.602  12.411  66.806  1.00  0.00    -0.224 C  
HETATM   22  C   UNL     1     -10.374  11.103  66.738  1.00  0.00    -0.284 C  
HETATM   23  O   UNL     1      -5.827   8.228  68.896  1.00  0.00    -0.040 OA 
HETATM   24  C   UNL     1      -9.474   9.878  66.630  1.00  0.00    -0.220 C  
HETATM   25  C   UNL     1      -7.008   9.816  70.272  1.00  0.00    -0.135 C  
ENDROOT
BRANCH   4  26
HETATM   26  C   UNL     1      -8.221  16.381  66.401  1.00  0.00    -0.331 C  
HETATM   27  O   UNL     1      -6.981  16.392  66.305  1.00  0.00    -0.101 OA 
BRANCH  26  28
HETATM   28  C   UNL     1      -8.852  17.873  66.371  1.00  0.00    -0.228 C  
BRANCH  28  29
HETATM   29  O   UNL     1      -8.166  18.731  67.425  1.00  0.00    -0.259 OA 
BRANCH  29  30
HETATM   30  C   UNL     1      -8.356  20.093  67.498  1.00  0.00    -0.332 C  
HETATM   31  O   UNL     1      -9.454  20.624  67.429  1.00  0.00    -0.426 OA 
BRANCH  30  32
HETATM   32  C   UNL     1      -7.037  20.899  67.663  1.00  0.00    -0.339 C  
BRANCH  32  33
HETATM   33  C   UNL     1      -5.902  20.121  68.365  1.00  0.00    -0.288 C  
HETATM   34  C   UNL     1      -6.128  19.629  69.789  1.00  0.00    -0.305 C  
HETATM   35  O   UNL     1      -6.374  20.558  70.728  1.00  0.00    -0.536 OA 
HETATM   36  O   UNL     1      -6.078  18.443  70.089  1.00  0.00    -0.190 OA 
ENDBRANCH  32  33
ENDBRANCH  30  32
ENDBRANCH  29  30
ENDBRANCH  28  29
ENDBRANCH  26  28
ENDBRANCH   4  26
TORSDOF 6
ENDMDL
MODEL       80
REMARK 921   NORMALIZED FREE ENERGY PREDICTED BY IDOCK:   -5.14 KCAL/MOL
REMARK 922        TOTAL FREE ENERGY PREDICTED BY IDOCK:   -7.29 KCAL/MOL
REMARK 923 INTER-LIGAND FREE ENERGY PREDICTED BY IDOCK:   -7.89 KCAL/MOL
REMARK 924 INTRA-LIGAND FREE ENERGY PREDICTED BY IDOCK:    0.60 KCAL/MOL
REMARK 927      BINDING AFFINITY PREDICTED BY RF-SCORE:    0.00 PKD
ROOT
HETATM    1  C   UNL     1     -10.995  12.823  66.879  1.00  0.00    -0.291 C  
HETATM    2  C   UNL     1     -11.945  12.684  67.920  1.00  0.00    -0.307 C  
HETATM    3  C   UNL     1     -10.583  13.177  68.313  1.00  0.00    -0.260 C  
HETATM    4  C   UNL     1      -9.321  13.905  66.828  1.00  0.00    -0.275 C  
HETATM    5  C   UNL     1      -8.434   7.797  68.829  1.00  0.00    -0.129 C  
HETATM    6  O   UNL     1      -9.795  13.911  65.422  1.00  0.00    -0.502 OA 
HETATM    7  C   UNL     1     -10.296  14.480  67.592  1.00  0.00    -0.237 C  
HETATM    8  C   UNL     1     -11.206  15.650  67.364  1.00  0.00    -0.219 C  
HETATM    9  H   UNL     1      -9.220  14.243  64.743  1.00  0.00     0.000 HD 
HETATM   10  C   UNL     1      -7.311   7.948  69.762  1.00  0.00    -0.078 C  
HETATM   11  C   UNL     1      -8.645   8.902  68.087  1.00  0.00    -0.130 C  
HETATM   12  C   UNL     1      -8.918  14.331  68.908  1.00  0.00    -0.025 C  
HETATM   13  C   UNL     1     -10.506   7.710  66.835  1.00  0.00    -0.388 C  
HETATM   14  C   UNL     1      -7.984  12.898  68.671  1.00  0.00    -0.024 C  
HETATM   15  O   UNL     1      -7.042  13.221  67.631  1.00  0.00    -0.133 OA 
HETATM   16  C   UNL     1      -8.710  11.435  68.332  1.00  0.00    -0.157 C  
HETATM   17  C   UNL     1      -6.740  10.282  67.322  1.00  0.00    -0.073 C  
HETATM   18  C   UNL     1      -7.800  10.160  68.415  1.00  0.00    -0.093 C  
HETATM   19  C   UNL     1      -7.310  10.021  69.950  1.00  0.00    -0.163 C  
HETATM   20  H   UNL     1      -6.528  12.432  67.500  1.00  0.00     0.000 HD 
HETATM   21  C   UNL     1      -9.754  11.473  66.973  1.00  0.00    -0.202 C  
HETATM   22  C   UNL     1     -10.508  10.158  66.861  1.00  0.00    -0.286 C  
HETATM   23  O   UNL     1      -6.235   7.392  69.634  1.00  0.00    -0.030 OA 
HETATM   24  C   UNL     1      -9.597   8.936  66.901  1.00  0.00    -0.248 C  
HETATM   25  C   UNL     1      -7.574   9.017  70.806  1.00  0.00    -0.131 C  
ENDROOT
BRANCH   4  26
HETATM   26  C   UNL     1      -8.348  15.437  66.595  1.00  0.00    -0.220 C  
HETATM   27  O   UNL     1      -7.140  15.511  66.878  1.00  0.00    -0.203 OA 
BRANCH  26  28
HETATM   28  C   UNL     1      -8.960  16.866  66.138  1.00  0.00    -0.236 C  
BRANCH  28  29
HETATM   29  O   UNL     1      -7.822  17.808  65.772  1.00  0.00    -0.541 OA 
BRANCH  29  30
HETATM   30  C   UNL     1      -7.563  18.957  66.484  1.00  0.00    -0.251 C  
HETATM   31  O   UNL     1      -6.678  19.043  67.323  1.00  0.00    -0.197 OA 
BRANCH  30  32
HETATM   32  C   UNL     1      -8.512  20.137  66.134  1.00  0.00    -0.232 C  
BRANCH  32  33
HETATM   33  C   UNL     1      -9.345  20.656  67.327  1.00  0.00    -0.480 C  
HETATM   34  C   UNL     1     -10.265  19.682  68.052  1.00  0.00    -0.457 C  
HETATM   35  O   UNL     1     -11.243  19.107  67.330  1.00  0.00    -0.313 OA 
HETATM   36  O   UNL     1     -10.144  19.429  69.244  1.00  0.00    -0.378 OA 
ENDBRANCH  32  33
ENDBRANCH  30  32
ENDBRANCH  29  30
ENDBRANCH  28  29
ENDBRANCH  26  28
ENDBRANCH   4  26
TORSDOF 6
ENDMDL
MODEL       81
REMARK 921   NORMALIZED FREE ENERGY PREDICTED BY IDOCK:   -5.10 KCAL/MOL
REMARK 922        TOTAL FREE ENERGY PREDICTED BY IDOCK:   -7.24 KCAL/MOL
REMARK 923 INTER-LIGAND FREE ENERGY PREDICTED BY IDOCK:   -7.02 KCAL/MOL
REMARK 924 INTRA-LIGAND FREE ENERGY PREDICTED BY IDOCK:   -0.22 KCAL/MOL
REMARK 927      BINDING AFFINITY PREDICTED BY RF-SCORE:    0.00 PKD
ROOT
HETATM    1  C   UNL     1     -10.883   6.549  68.320  1.00  0.00    -0.359 C  
HETATM    2  C   UNL     1     -10.784   5.508  69.275  1.00  0.00    -0.288 C  
HETATM    3  C   UNL     1      -9.600   6.423  69.151  1.00  0.00    -0.143 C  
HETATM    4  C   UNL     1      -9.851   8.250  68.188  1.00  0.00    -0.172 C  
HETATM    5  C   UNL     1      -7.285   3.359  64.784  1.00  0.00    -0.066 C  
HETATM    6  O   UNL     1     -11.186   8.597  67.643  1.00  0.00    -0.380 OA 
HETATM    7  C   UNL     1     -10.029   7.841  69.479  1.00  0.00    -0.187 C  
HETATM    8  C   UNL     1     -10.922   8.323  70.583  1.00  0.00    -0.257 C  
HETATM    9  H   UNL     1     -11.301   9.431  67.204  1.00  0.00     0.000 HD 
HETATM   10  C   UNL     1      -5.852   3.667  64.851  1.00  0.00    -0.022 C  
HETATM   11  C   UNL     1      -8.057   4.377  65.213  1.00  0.00    -0.102 C  
HETATM   12  C   UNL     1      -8.119   7.900  69.433  1.00  0.00    -0.125 C  
HETATM   13  C   UNL     1     -10.142   3.045  64.637  1.00  0.00     0.061 C  
HETATM   14  C   UNL     1      -7.519   7.432  67.882  1.00  0.00    -0.101 C  
HETATM   15  O   UNL     1      -7.638   8.604  67.054  1.00  0.00    -0.084 OA 
HETATM   16  C   UNL     1      -8.141   6.112  67.075  1.00  0.00    -0.106 C  
HETATM   17  C   UNL     1      -7.400   6.720  64.770  1.00  0.00    -0.088 C  
HETATM   18  C   UNL     1      -7.342   5.613  65.820  1.00  0.00    -0.073 C  
HETATM   19  C   UNL     1      -5.892   5.121  66.340  1.00  0.00    -0.018 C  
HETATM   20  H   UNL     1      -7.308   8.346  66.201  1.00  0.00     0.000 HD 
HETATM   21  C   UNL     1      -9.840   6.164  66.858  1.00  0.00    -0.194 C  
HETATM   22  C   UNL     1     -10.332   4.843  66.289  1.00  0.00    -0.336 C  
HETATM   23  O   UNL     1      -5.151   3.876  63.877  1.00  0.00    -0.008 OA 
HETATM   24  C   UNL     1      -9.568   4.402  65.045  1.00  0.00    -0.175 C  
HETATM   25  C   UNL     1      -5.378   3.879  66.276  1.00  0.00    -0.013 C  
ENDROOT
BRANCH   4  26
HETATM   26  C   UNL     1      -9.473   9.991  68.603  1.00  0.00    -0.156 C  
HETATM   27  O   UNL     1      -8.600  10.307  69.429  1.00  0.00    -0.158 OA 
BRANCH  26  28
HETATM   28  C   UNL     1     -10.298  11.276  68.061  1.00  0.00    -0.183 C  
BRANCH  28  29
HETATM   29  O   UNL     1     -10.687  11.049  66.607  1.00  0.00    -0.254 OA 
BRANCH  29  30
HETATM   30  C   UNL     1      -9.769  11.116  65.583  1.00  0.00    -0.225 C  
HETATM   31  O   UNL     1      -8.582  11.347  65.759  1.00  0.00    -0.131 OA 
BRANCH  30  32
HETATM   32  C   UNL     1     -10.385  10.884  64.175  1.00  0.00    -0.432 C  
BRANCH  32  33
HETATM   33  C   UNL     1     -10.744  12.181  63.419  1.00  0.00    -0.461 C  
HETATM   34  C   UNL     1     -12.094  12.834  63.691  1.00  0.00    -0.543 C  
HETATM   35  O   UNL     1     -13.193  12.108  63.423  1.00  0.00    -0.689 OA 
HETATM   36  O   UNL     1     -12.195  13.976  64.123  1.00  0.00    -0.553 OA 
ENDBRANCH  32  33
ENDBRANCH  30  32
ENDBRANCH  29  30
ENDBRANCH  28  29
ENDBRANCH  26  28
ENDBRANCH   4  26
TORSDOF 6
ENDMDL
MODEL       82
REMARK 921   NORMALIZED FREE ENERGY PREDICTED BY IDOCK:   -5.10 KCAL/MOL
REMARK 922        TOTAL FREE ENERGY PREDICTED BY IDOCK:   -7.24 KCAL/MOL
REMARK 923 INTER-LIGAND FREE ENERGY PREDICTED BY IDOCK:   -7.42 KCAL/MOL
REMARK 924 INTRA-LIGAND FREE ENERGY PREDICTED BY IDOCK:    0.19 KCAL/MOL
REMARK 927      BINDING AFFINITY PREDICTED BY RF-SCORE:    0.00 PKD
ROOT
HETATM    1  C   UNL     1      -9.655   7.189  67.945  1.00  0.00    -0.145 C  
HETATM    2  C   UNL     1      -8.254   7.139  67.748  1.00  0.00    -0.115 C  
HETATM    3  C   UNL     1      -8.740   7.928  68.929  1.00  0.00    -0.135 C  
HETATM    4  C   UNL     1     -10.688   7.627  69.593  1.00  0.00    -0.228 C  
HETATM    5  C   UNL     1      -9.549  12.749  65.777  1.00  0.00    -0.102 C  
HETATM    6  O   UNL     1     -11.547   6.648  68.881  1.00  0.00    -0.601 OA 
HETATM    7  C   UNL     1      -9.501   7.008  69.865  1.00  0.00    -0.157 C  
HETATM    8  C   UNL     1      -9.159   5.615  70.300  1.00  0.00    -0.163 C  
HETATM    9  H   UNL     1     -12.436   6.510  69.184  1.00  0.00     0.000 HD 
HETATM   10  C   UNL     1      -9.456  13.837  66.758  1.00  0.00    -0.275 C  
HETATM   11  C   UNL     1     -10.033  11.610  66.310  1.00  0.00    -0.247 C  
HETATM   12  C   UNL     1      -9.245   8.622  70.857  1.00  0.00    -0.234 C  
HETATM   13  C   UNL     1      -9.944  10.499  64.028  1.00  0.00    -0.363 C  
HETATM   14  C   UNL     1      -9.977   9.967  70.058  1.00  0.00    -0.254 C  
HETATM   15  O   UNL     1     -11.374   9.904  70.400  1.00  0.00    -0.265 OA 
HETATM   16  C   UNL     1      -9.814  10.191  68.413  1.00  0.00    -0.164 C  
HETATM   17  C   UNL     1     -11.780  11.687  68.059  1.00  0.00    -0.351 C  
HETATM   18  C   UNL     1     -10.273  11.578  67.843  1.00  0.00    -0.200 C  
HETATM   19  C   UNL     1      -9.318  12.706  68.500  1.00  0.00    -0.082 C  
HETATM   20  H   UNL     1     -11.776  10.644  69.960  1.00  0.00     0.000 HD 
HETATM   21  C   UNL     1     -10.300   8.843  67.474  1.00  0.00    -0.328 C  
HETATM   22  C   UNL     1      -9.938   9.069  66.015  1.00  0.00    -0.246 C  
HETATM   23  O   UNL     1     -10.188  14.810  66.772  1.00  0.00    -0.259 OA 
HETATM   24  C   UNL     1     -10.433  10.405  65.472  1.00  0.00    -0.192 C  
HETATM   25  C   UNL     1      -8.463  13.528  67.863  1.00  0.00    -0.179 C  
ENDROOT
BRANCH   4  26
HETATM   26  C   UNL     1     -11.458   7.253  71.210  1.00  0.00    -0.276 C  
HETATM   27  O   UNL     1     -12.688   7.144  71.356  1.00  0.00    -0.367 OA 
BRANCH  26  28
HETATM   28  C   UNL     1     -10.664   7.160  72.619  1.00  0.00    -0.268 C  
BRANCH  28  29
HETATM   29  O   UNL     1     -11.203   5.988  73.426  1.00  0.00    -0.169 OA 
BRANCH  29  30
HETATM   30  C   UNL     1     -10.393   4.964  73.864  1.00  0.00    -0.244 C  
HETATM   31  O   UNL     1      -9.243   5.131  74.243  1.00  0.00    -0.114 OA 
BRANCH  30  32
HETATM   32  C   UNL     1     -11.072   3.567  73.819  1.00  0.00    -0.286 C  
BRANCH  32  33
HETATM   33  C   UNL     1     -10.095   2.396  73.573  1.00  0.00    -0.173 C  
HETATM   34  C   UNL     1      -9.319   2.357  72.263  1.00  0.00    -0.093 C  
HETATM   35  O   UNL     1     -10.033   2.295  71.126  1.00  0.00    -0.097 OA 
HETATM   36  O   UNL     1      -8.094   2.369  72.226  1.00  0.00    -0.053 OA 
ENDBRANCH  32  33
ENDBRANCH  30  32
ENDBRANCH  29  30
ENDBRANCH  28  29
ENDBRANCH  26  28
ENDBRANCH   4  26
TORSDOF 6
ENDMDL
MODEL       83
REMARK 921   NORMALIZED FREE ENERGY PREDICTED BY IDOCK:   -5.07 KCAL/MOL
REMARK 922        TOTAL FREE ENERGY PREDICTED BY IDOCK:   -7.19 KCAL/MOL
REMARK 923 INTER-LIGAND FREE ENERGY PREDICTED BY IDOCK:   -6.49 KCAL/MOL
REMARK 924 INTRA-LIGAND FREE ENERGY PREDICTED BY IDOCK:   -0.70 KCAL/MOL
REMARK 927      BINDING AFFINITY PREDICTED BY RF-SCORE:    0.00 PKD
ROOT
HETATM    1  C   UNL     1      -7.914   8.520  69.548  1.00  0.00    -0.106 C  
HETATM    2  C   UNL     1      -8.550   9.041  70.701  1.00  0.00    -0.245 C  
HETATM    3  C   UNL     1      -9.446   8.516  69.616  1.00  0.00    -0.165 C  
HETATM    4  C   UNL     1      -8.624   7.277  68.161  1.00  0.00    -0.122 C  
HETATM    5  C   UNL     1      -9.409  13.551  66.705  1.00  0.00    -0.262 C  
HETATM    6  O   UNL     1      -7.178   6.951  68.227  1.00  0.00    -0.085 OA 
HETATM    7  C   UNL     1      -9.154   7.043  69.398  1.00  0.00    -0.145 C  
HETATM    8  C   UNL     1      -8.917   5.969  70.417  1.00  0.00    -0.153 C  
HETATM    9  H   UNL     1      -6.803   6.386  67.563  1.00  0.00     0.000 HD 
HETATM   10  C   UNL     1     -10.654  13.524  65.929  1.00  0.00    -0.284 C  
HETATM   11  C   UNL     1      -8.900  12.320  66.913  1.00  0.00    -0.207 C  
HETATM   12  C   UNL     1     -10.767   7.376  68.428  1.00  0.00    -0.142 C  
HETATM   13  C   UNL     1      -6.901  13.344  68.100  1.00  0.00    -0.117 C  
HETATM   14  C   UNL     1     -10.523   8.575  67.209  1.00  0.00    -0.296 C  
HETATM   15  O   UNL     1      -9.926   7.880  66.099  1.00  0.00    -0.466 OA 
HETATM   16  C   UNL     1      -9.663   9.969  67.524  1.00  0.00    -0.189 C  
HETATM   17  C   UNL     1      -9.089  10.574  65.171  1.00  0.00    -0.227 C  
HETATM   18  C   UNL     1      -9.743  11.105  66.444  1.00  0.00    -0.235 C  
HETATM   19  C   UNL     1     -11.284  11.591  66.374  1.00  0.00    -0.307 C  
HETATM   20  H   UNL     1      -9.792   8.540  65.429  1.00  0.00     0.000 HD 
HETATM   21  C   UNL     1      -8.090   9.692  68.145  1.00  0.00    -0.105 C  
HETATM   22  C   UNL     1      -7.462  11.009  68.576  1.00  0.00    -0.106 C  
HETATM   23  O   UNL     1     -10.748  13.897  64.773  1.00  0.00    -0.382 OA 
HETATM   24  C   UNL     1      -7.515  12.082  67.495  1.00  0.00    -0.140 C  
HETATM   25  C   UNL     1     -11.772  12.810  66.665  1.00  0.00    -0.459 C  
ENDROOT
BRANCH   4  26
HETATM   26  C   UNL     1      -9.048   5.636  67.472  1.00  0.00    -0.106 C  
HETATM   27  O   UNL     1     -10.207   5.185  67.484  1.00  0.00    -0.181 OA 
BRANCH  26  28
HETATM   28  C   UNL     1      -7.977   4.558  66.910  1.00  0.00    -0.102 C  
BRANCH  28  29
HETATM   29  O   UNL     1      -7.079   5.230  65.881  1.00  0.00    -0.065 OA 
BRANCH  29  30
HETATM   30  C   UNL     1      -7.550   5.646  64.656  1.00  0.00    -0.085 C  
HETATM   31  O   UNL     1      -7.795   6.814  64.391  1.00  0.00    -0.108 OA 
BRANCH  30  32
HETATM   32  C   UNL     1      -7.758   4.489  63.640  1.00  0.00    -0.068 C  
BRANCH  32  33
HETATM   33  C   UNL     1      -9.214   4.332  63.148  1.00  0.00    -0.140 C  
HETATM   34  C   UNL     1     -10.196   3.555  64.015  1.00  0.00    -0.223 C  
HETATM   35  O   UNL     1      -9.907   2.268  64.271  1.00  0.00    -0.135 OA 
HETATM   36  O   UNL     1     -11.220   4.061  64.460  1.00  0.00    -0.336 OA 
ENDBRANCH  32  33
ENDBRANCH  30  32
ENDBRANCH  29  30
ENDBRANCH  28  29
ENDBRANCH  26  28
ENDBRANCH   4  26
TORSDOF 6
ENDMDL
MODEL       84
REMARK 921   NORMALIZED FREE ENERGY PREDICTED BY IDOCK:   -5.07 KCAL/MOL
REMARK 922        TOTAL FREE ENERGY PREDICTED BY IDOCK:   -7.19 KCAL/MOL
REMARK 923 INTER-LIGAND FREE ENERGY PREDICTED BY IDOCK:   -7.42 KCAL/MOL
REMARK 924 INTRA-LIGAND FREE ENERGY PREDICTED BY IDOCK:    0.24 KCAL/MOL
REMARK 927      BINDING AFFINITY PREDICTED BY RF-SCORE:    0.00 PKD
ROOT
HETATM    1  C   UNL     1      -7.664  10.229  68.892  1.00  0.00    -0.098 C  
HETATM    2  C   UNL     1      -6.792   9.280  68.304  1.00  0.00    -0.064 C  
HETATM    3  C   UNL     1      -8.255   9.126  68.005  1.00  0.00    -0.112 C  
HETATM    4  C   UNL     1      -9.520  10.736  68.373  1.00  0.00    -0.174 C  
HETATM    5  C   UNL     1      -9.240   6.025  72.825  1.00  0.00    -0.142 C  
HETATM    6  O   UNL     1      -8.948  11.988  68.927  1.00  0.00    -0.381 OA 
HETATM    7  C   UNL     1      -8.754  10.374  67.302  1.00  0.00    -0.125 C  
HETATM    8  C   UNL     1      -8.100  11.165  66.209  1.00  0.00    -0.142 C  
HETATM    9  H   UNL     1      -9.525  12.723  69.095  1.00  0.00     0.000 HD 
HETATM   10  C   UNL     1     -10.439   5.241  72.507  1.00  0.00    -0.216 C  
HETATM   11  C   UNL     1      -9.211   7.211  72.188  1.00  0.00    -0.144 C  
HETATM   12  C   UNL     1     -10.169   9.102  67.116  1.00  0.00    -0.329 C  
HETATM   13  C   UNL     1      -7.045   7.801  73.377  1.00  0.00    -0.110 C  
HETATM   14  C   UNL     1     -10.754   8.593  68.659  1.00  0.00    -0.051 C  
HETATM   15  O   UNL     1     -11.658   9.628  69.089  1.00  0.00    -0.453 OA 
HETATM   16  C   UNL     1      -9.708   8.213  69.901  1.00  0.00    -0.176 C  
HETATM   17  C   UNL     1     -11.300   8.480  71.804  1.00  0.00    -0.377 C  
HETATM   18  C   UNL     1     -10.329   7.499  71.152  1.00  0.00    -0.208 C  
HETATM   19  C   UNL     1     -10.898   6.069  70.653  1.00  0.00    -0.364 C  
HETATM   20  H   UNL     1     -11.980   9.347  69.937  1.00  0.00     0.000 HD 
HETATM   21  C   UNL     1      -8.592   9.458  70.277  1.00  0.00    -0.249 C  
HETATM   22  C   UNL     1      -7.567   8.951  71.280  1.00  0.00    -0.132 C  
HETATM   23  O   UNL     1     -11.359   5.051  73.284  1.00  0.00    -0.325 OA 
HETATM   24  C   UNL     1      -8.197   8.300  72.506  1.00  0.00    -0.224 C  
HETATM   25  C   UNL     1     -10.494   4.846  71.043  1.00  0.00    -0.164 C  
ENDROOT
BRANCH   4  26
HETATM   26  C   UNL     1     -10.776  11.642  67.398  1.00  0.00    -0.234 C  
HETATM   27  O   UNL     1     -11.102  11.301  66.248  1.00  0.00    -0.261 OA 
BRANCH  26  28
HETATM   28  C   UNL     1     -11.484  13.026  67.852  1.00  0.00    -0.311 C  
BRANCH  28  29
HETATM   29  O   UNL     1     -10.662  14.203  67.347  1.00  0.00    -0.279 OA 
BRANCH  29  30
HETATM   30  C   UNL     1     -10.644  15.417  67.996  1.00  0.00    -0.263 C  
HETATM   31  O   UNL     1     -11.624  15.904  68.540  1.00  0.00    -0.377 OA 
BRANCH  30  32
HETATM   32  C   UNL     1      -9.260  16.123  67.963  1.00  0.00    -0.195 C  
BRANCH  32  33
HETATM   33  C   UNL     1      -8.464  16.019  69.283  1.00  0.00    -0.224 C  
HETATM   34  C   UNL     1      -6.942  16.062  69.221  1.00  0.00    -0.205 C  
HETATM   35  O   UNL     1      -6.327  15.100  68.514  1.00  0.00    -0.086 OA 
HETATM   36  O   UNL     1      -6.287  16.923  69.797  1.00  0.00    -0.228 OA 
ENDBRANCH  32  33
ENDBRANCH  30  32
ENDBRANCH  29  30
ENDBRANCH  28  29
ENDBRANCH  26  28
ENDBRANCH   4  26
TORSDOF 6
ENDMDL
MODEL       85
REMARK 921   NORMALIZED FREE ENERGY PREDICTED BY IDOCK:   -5.04 KCAL/MOL
REMARK 922        TOTAL FREE ENERGY PREDICTED BY IDOCK:   -7.15 KCAL/MOL
REMARK 923 INTER-LIGAND FREE ENERGY PREDICTED BY IDOCK:   -7.36 KCAL/MOL
REMARK 924 INTRA-LIGAND FREE ENERGY PREDICTED BY IDOCK:    0.21 KCAL/MOL
REMARK 927      BINDING AFFINITY PREDICTED BY RF-SCORE:    0.00 PKD
ROOT
HETATM    1  C   UNL     1      -8.420   8.624  69.677  1.00  0.00    -0.129 C  
HETATM    2  C   UNL     1      -7.065   8.339  69.975  1.00  0.00    -0.043 C  
HETATM    3  C   UNL     1      -7.403   8.573  68.531  1.00  0.00    -0.092 C  
HETATM    4  C   UNL     1      -9.207   9.500  68.069  1.00  0.00    -0.129 C  
HETATM    5  C   UNL     1      -8.932   3.031  67.656  1.00  0.00    -0.192 C  
HETATM    6  O   UNL     1     -10.115   9.897  69.173  1.00  0.00    -0.179 OA 
HETATM    7  C   UNL     1      -7.962   9.974  68.371  1.00  0.00    -0.097 C  
HETATM    8  C   UNL     1      -7.487  11.255  68.988  1.00  0.00    -0.116 C  
HETATM    9  H   UNL     1     -10.938  10.320  68.963  1.00  0.00     0.000 HD 
HETATM   10  C   UNL     1      -8.743   2.831  66.215  1.00  0.00    -0.131 C  
HETATM   11  C   UNL     1      -9.269   4.298  67.965  1.00  0.00    -0.182 C  
HETATM   12  C   UNL     1      -7.638   9.364  66.588  1.00  0.00    -0.094 C  
HETATM   13  C   UNL     1      -9.478   3.651  70.413  1.00  0.00    -0.255 C  
HETATM   14  C   UNL     1      -8.552   7.940  66.242  1.00  0.00    -0.149 C  
HETATM   15  O   UNL     1      -9.874   8.402  65.910  1.00  0.00    -0.471 OA 
HETATM   16  C   UNL     1      -8.656   6.689  67.340  1.00  0.00    -0.119 C  
HETATM   17  C   UNL     1     -10.727   5.611  66.459  1.00  0.00    -0.296 C  
HETATM   18  C   UNL     1      -9.268   5.342  66.818  1.00  0.00    -0.128 C  
HETATM   19  C   UNL     1      -8.281   4.784  65.664  1.00  0.00    -0.113 C  
HETATM   20  H   UNL     1     -10.377   7.619  65.720  1.00  0.00     0.000 HD 
HETATM   21  C   UNL     1      -9.213   7.166  68.889  1.00  0.00    -0.137 C  
HETATM   22  C   UNL     1      -9.093   6.006  69.865  1.00  0.00    -0.147 C  
HETATM   23  O   UNL     1      -9.513   2.210  65.503  1.00  0.00    -0.023 OA 
HETATM   24  C   UNL     1      -9.732   4.720  69.351  1.00  0.00    -0.266 C  
HETATM   25  C   UNL     1      -7.578   3.637  65.673  1.00  0.00    -0.078 C  
ENDROOT
BRANCH   4  26
HETATM   26  C   UNL     1      -9.698  10.930  67.038  1.00  0.00    -0.176 C  
HETATM   27  O   UNL     1      -8.954  11.413  66.168  1.00  0.00    -0.198 OA 
BRANCH  26  28
HETATM   28  C   UNL     1     -11.059  11.789  67.228  1.00  0.00    -0.287 C  
BRANCH  28  29
HETATM   29  O   UNL     1     -10.955  12.624  68.496  1.00  0.00    -0.238 OA 
BRANCH  29  30
HETATM   30  C   UNL     1     -11.886  13.585  68.819  1.00  0.00    -0.355 C  
HETATM   31  O   UNL     1     -12.390  14.337  67.997  1.00  0.00    -0.215 OA 
BRANCH  30  32
HETATM   32  C   UNL     1     -12.232  13.637  70.333  1.00  0.00    -0.434 C  
BRANCH  32  33
HETATM   33  C   UNL     1     -12.995  14.908  70.766  1.00  0.00    -0.418 C  
HETATM   34  C   UNL     1     -13.497  15.004  72.201  1.00  0.00    -0.407 C  
HETATM   35  O   UNL     1     -14.372  14.069  72.610  1.00  0.00    -0.596 OA 
HETATM   36  O   UNL     1     -13.141  15.895  72.962  1.00  0.00    -0.474 OA 
ENDBRANCH  32  33
ENDBRANCH  30  32
ENDBRANCH  29  30
ENDBRANCH  28  29
ENDBRANCH  26  28
ENDBRANCH   4  26
TORSDOF 6
ENDMDL
MODEL       86
REMARK 921   NORMALIZED FREE ENERGY PREDICTED BY IDOCK:   -4.99 KCAL/MOL
REMARK 922        TOTAL FREE ENERGY PREDICTED BY IDOCK:   -7.09 KCAL/MOL
REMARK 923 INTER-LIGAND FREE ENERGY PREDICTED BY IDOCK:   -7.29 KCAL/MOL
REMARK 924 INTRA-LIGAND FREE ENERGY PREDICTED BY IDOCK:    0.20 KCAL/MOL
REMARK 927      BINDING AFFINITY PREDICTED BY RF-SCORE:    0.00 PKD
ROOT
HETATM    1  C   UNL     1     -10.014  12.077  65.199  1.00  0.00    -0.265 C  
HETATM    2  C   UNL     1     -10.678  10.883  64.824  1.00  0.00    -0.248 C  
HETATM    3  C   UNL     1     -10.917  11.376  66.221  1.00  0.00    -0.303 C  
HETATM    4  C   UNL     1     -10.429  13.346  66.679  1.00  0.00    -0.280 C  
HETATM    5  C   UNL     1      -6.185   8.719  68.310  1.00  0.00    -0.054 C  
HETATM    6  O   UNL     1      -9.852  14.209  65.618  1.00  0.00    -0.420 OA 
HETATM    7  C   UNL     1     -11.547  12.755  66.163  1.00  0.00    -0.431 C  
HETATM    8  C   UNL     1     -12.636  13.256  65.262  1.00  0.00    -0.528 C  
HETATM    9  H   UNL     1      -9.629  15.108  65.826  1.00  0.00     0.000 HD 
HETATM   10  C   UNL     1      -6.479   8.532  69.736  1.00  0.00    -0.035 C  
HETATM   11  C   UNL     1      -6.774   9.816  67.798  1.00  0.00    -0.069 C  
HETATM   12  C   UNL     1     -11.720  12.209  67.987  1.00  0.00    -0.409 C  
HETATM   13  C   UNL     1      -5.661   9.373  65.558  1.00  0.00    -0.048 C  
HETATM   14  C   UNL     1     -10.174  11.910  68.696  1.00  0.00    -0.191 C  
HETATM   15  O   UNL     1      -9.663  13.204  69.067  1.00  0.00    -0.399 OA 
HETATM   16  C   UNL     1      -8.996  11.057  67.879  1.00  0.00    -0.144 C  
HETATM   17  C   UNL     1      -7.014  11.865  69.163  1.00  0.00    -0.079 C  
HETATM   18  C   UNL     1      -7.748  10.604  68.714  1.00  0.00    -0.117 C  
HETATM   19  C   UNL     1      -8.277   9.576  69.846  1.00  0.00    -0.169 C  
HETATM   20  H   UNL     1      -8.813  13.039  69.457  1.00  0.00     0.000 HD 
HETATM   21  C   UNL     1      -8.621  11.694  66.333  1.00  0.00    -0.143 C  
HETATM   22  C   UNL     1      -7.685  10.749  65.595  1.00  0.00    -0.057 C  
HETATM   23  O   UNL     1      -5.670   8.704  70.631  1.00  0.00    -0.027 OA 
HETATM   24  C   UNL     1      -6.459  10.357  66.411  1.00  0.00    -0.097 C  
HETATM   25  C   UNL     1      -7.954   8.278  69.987  1.00  0.00    -0.104 C  
ENDROOT
BRANCH   4  26
HETATM   26  C   UNL     1     -11.311  14.749  67.457  1.00  0.00    -0.344 C  
HETATM   27  O   UNL     1     -12.467  14.647  67.901  1.00  0.00    -0.031 OA 
BRANCH  26  28
HETATM   28  C   UNL     1     -10.756  16.269  67.530  1.00  0.00    -0.300 C  
BRANCH  28  29
HETATM   29  O   UNL     1      -9.437  16.289  68.289  1.00  0.00    -0.207 OA 
BRANCH  29  30
HETATM   30  C   UNL     1      -8.323  16.939  67.806  1.00  0.00    -0.194 C  
HETATM   31  O   UNL     1      -8.175  17.237  66.630  1.00  0.00    -0.222 OA 
BRANCH  30  32
HETATM   32  C   UNL     1      -7.260  17.250  68.896  1.00  0.00    -0.243 C  
BRANCH  32  33
HETATM   33  C   UNL     1      -6.234  18.331  68.490  1.00  0.00    -0.202 C  
HETATM   34  C   UNL     1      -6.626  19.796  68.629  1.00  0.00    -0.297 C  
HETATM   35  O   UNL     1      -7.688  20.219  67.921  1.00  0.00    -0.287 OA 
HETATM   36  O   UNL     1      -6.005  20.576  69.341  1.00  0.00    -0.343 OA 
ENDBRANCH  32  33
ENDBRANCH  30  32
ENDBRANCH  29  30
ENDBRANCH  28  29
ENDBRANCH  26  28
ENDBRANCH   4  26
TORSDOF 6
ENDMDL
MODEL       87
REMARK 921   NORMALIZED FREE ENERGY PREDICTED BY IDOCK:   -4.95 KCAL/MOL
REMARK 922        TOTAL FREE ENERGY PREDICTED BY IDOCK:   -7.03 KCAL/MOL
REMARK 923 INTER-LIGAND FREE ENERGY PREDICTED BY IDOCK:   -7.64 KCAL/MOL
REMARK 924 INTRA-LIGAND FREE ENERGY PREDICTED BY IDOCK:    0.61 KCAL/MOL
REMARK 927      BINDING AFFINITY PREDICTED BY RF-SCORE:    0.00 PKD
ROOT
HETATM    1  C   UNL     1     -11.058   9.735  68.524  1.00  0.00    -0.138 C  
HETATM    2  C   UNL     1     -10.571   9.218  69.749  1.00  0.00    -0.244 C  
HETATM    3  C   UNL     1      -9.740  10.278  69.088  1.00  0.00    -0.229 C  
HETATM    4  C   UNL     1     -10.613  11.447  67.605  1.00  0.00    -0.202 C  
HETATM    5  C   UNL     1      -6.937   6.439  65.737  1.00  0.00    -0.061 C  
HETATM    6  O   UNL     1     -12.029  11.199  67.236  1.00  0.00    -0.452 OA 
HETATM    7  C   UNL     1     -10.557  11.550  68.966  1.00  0.00    -0.207 C  
HETATM    8  C   UNL     1     -11.468  12.184  69.974  1.00  0.00    -0.156 C  
HETATM    9  H   UNL     1     -12.428  11.733  66.559  1.00  0.00     0.000 HD 
HETATM   10  C   UNL     1      -5.667   7.103  65.418  1.00  0.00    -0.036 C  
HETATM   11  C   UNL     1      -7.948   7.311  65.915  1.00  0.00    -0.115 C  
HETATM   12  C   UNL     1      -8.768  12.070  68.541  1.00  0.00    -0.095 C  
HETATM   13  C   UNL     1      -9.560   5.377  66.253  1.00  0.00    -0.175 C  
HETATM   14  C   UNL     1      -8.174  11.198  67.174  1.00  0.00    -0.137 C  
HETATM   15  O   UNL     1      -8.711  11.876  66.023  1.00  0.00    -0.383 OA 
HETATM   16  C   UNL     1      -8.420   9.555  67.020  1.00  0.00    -0.128 C  
HETATM   17  C   UNL     1      -8.081   9.372  64.554  1.00  0.00    -0.136 C  
HETATM   18  C   UNL     1      -7.605   8.823  65.897  1.00  0.00    -0.090 C  
HETATM   19  C   UNL     1      -6.038   8.963  66.274  1.00  0.00    -0.063 C  
HETATM   20  H   UNL     1      -8.384  11.396  65.271  1.00  0.00     0.000 HD 
HETATM   21  C   UNL     1     -10.063   9.083  67.124  1.00  0.00    -0.309 C  
HETATM   22  C   UNL     1     -10.167   7.567  67.165  1.00  0.00    -0.350 C  
HETATM   23  O   UNL     1      -5.141   7.081  64.319  1.00  0.00    -0.026 OA 
HETATM   24  C   UNL     1      -9.402   6.882  66.038  1.00  0.00    -0.026 C  
HETATM   25  C   UNL     1      -5.173   7.972  66.558  1.00  0.00    -0.025 C  
ENDROOT
BRANCH   4  26
HETATM   26  C   UNL     1     -10.759  13.245  67.296  1.00  0.00    -0.255 C  
HETATM   27  O   UNL     1      -9.801  13.936  66.909  1.00  0.00    -0.253 OA 
BRANCH  26  28
HETATM   28  C   UNL     1     -12.073  14.139  67.612  1.00  0.00    -0.302 C  
BRANCH  28  29
HETATM   29  O   UNL     1     -11.643  15.484  68.179  1.00  0.00    -0.353 OA 
BRANCH  29  30
HETATM   30  C   UNL     1     -11.100  15.609  69.439  1.00  0.00    -0.303 C  
HETATM   31  O   UNL     1      -9.904  15.755  69.645  1.00  0.00    -0.276 OA 
BRANCH  30  32
HETATM   32  C   UNL     1     -12.150  15.535  70.582  1.00  0.00    -0.430 C  
BRANCH  32  33
HETATM   33  C   UNL     1     -11.553  15.224  71.972  1.00  0.00    -0.529 C  
HETATM   34  C   UNL     1     -12.495  15.128  73.165  1.00  0.00    -0.448 C  
HETATM   35  O   UNL     1     -13.213  16.222  73.472  1.00  0.00    -0.598 OA 
HETATM   36  O   UNL     1     -12.599  14.110  73.838  1.00  0.00    -0.111 OA 
ENDBRANCH  32  33
ENDBRANCH  30  32
ENDBRANCH  29  30
ENDBRANCH  28  29
ENDBRANCH  26  28
ENDBRANCH   4  26
TORSDOF 6
ENDMDL
MODEL       88
REMARK 921   NORMALIZED FREE ENERGY PREDICTED BY IDOCK:   -4.93 KCAL/MOL
REMARK 922        TOTAL FREE ENERGY PREDICTED BY IDOCK:   -7.01 KCAL/MOL
REMARK 923 INTER-LIGAND FREE ENERGY PREDICTED BY IDOCK:   -6.31 KCAL/MOL
REMARK 924 INTRA-LIGAND FREE ENERGY PREDICTED BY IDOCK:   -0.70 KCAL/MOL
REMARK 927      BINDING AFFINITY PREDICTED BY RF-SCORE:    0.00 PKD
ROOT
HETATM    1  C   UNL     1      -7.511   8.941  69.626  1.00  0.00    -0.071 C  
HETATM    2  C   UNL     1      -7.225   9.469  70.908  1.00  0.00    -0.063 C  
HETATM    3  C   UNL     1      -8.665   9.168  70.610  1.00  0.00    -0.272 C  
HETATM    4  C   UNL     1      -9.109   7.926  69.001  1.00  0.00    -0.144 C  
HETATM    5  C   UNL     1      -9.560  14.335  68.096  1.00  0.00    -0.218 C  
HETATM    6  O   UNL     1      -7.996   7.379  68.187  1.00  0.00    -0.119 OA 
HETATM    7  C   UNL     1      -8.813   7.687  70.313  1.00  0.00    -0.145 C  
HETATM    8  C   UNL     1      -8.191   6.518  71.017  1.00  0.00    -0.121 C  
HETATM    9  H   UNL     1      -8.198   6.812  67.453  1.00  0.00     0.000 HD 
HETATM   10  C   UNL     1     -11.004  14.555  68.237  1.00  0.00    -0.247 C  
HETATM   11  C   UNL     1      -9.241  13.029  67.996  1.00  0.00    -0.212 C  
HETATM   12  C   UNL     1     -10.601   8.333  70.510  1.00  0.00    -0.233 C  
HETATM   13  C   UNL     1      -6.796  13.645  67.688  1.00  0.00    -0.185 C  
HETATM   14  C   UNL     1     -10.949   9.566  69.352  1.00  0.00    -0.170 C  
HETATM   15  O   UNL     1     -11.269   8.869  68.133  1.00  0.00    -0.428 OA 
HETATM   16  C   UNL     1      -9.857  10.785  69.029  1.00  0.00    -0.208 C  
HETATM   17  C   UNL     1     -10.730  11.464  66.791  1.00  0.00    -0.316 C  
HETATM   18  C   UNL     1     -10.383  11.995  68.180  1.00  0.00    -0.207 C  
HETATM   19  C   UNL     1     -11.547  12.715  69.042  1.00  0.00    -0.367 C  
HETATM   20  H   UNL     1     -11.460   9.548  67.496  1.00  0.00     0.000 HD 
HETATM   21  C   UNL     1      -8.302  10.226  68.577  1.00  0.00    -0.116 C  
HETATM   22  C   UNL     1      -7.334  11.395  68.490  1.00  0.00    -0.105 C  
HETATM   23  O   UNL     1     -11.714  15.021  67.363  1.00  0.00    -0.338 OA 
HETATM   24  C   UNL     1      -7.849  12.540  67.625  1.00  0.00    -0.162 C  
HETATM   25  C   UNL     1     -11.549  13.970  69.526  1.00  0.00    -0.350 C  
ENDROOT
BRANCH   4  26
HETATM   26  C   UNL     1     -10.128   6.423  68.771  1.00  0.00    -0.158 C  
HETATM   27  O   UNL     1     -11.205   6.249  69.367  1.00  0.00    -0.382 OA 
BRANCH  26  28
HETATM   28  C   UNL     1      -9.692   5.130  67.900  1.00  0.00    -0.145 C  
BRANCH  28  29
HETATM   29  O   UNL     1      -9.469   5.548  66.453  1.00  0.00    -0.146 OA 
BRANCH  29  30
HETATM   30  C   UNL     1      -8.331   5.205  65.758  1.00  0.00    -0.120 C  
HETATM   31  O   UNL     1      -7.434   4.522  66.230  1.00  0.00    -0.080 OA 
BRANCH  30  32
HETATM   32  C   UNL     1      -8.283   5.780  64.315  1.00  0.00    -0.106 C  
BRANCH  32  33
HETATM   33  C   UNL     1      -7.303   6.961  64.135  1.00  0.00    -0.086 C  
HETATM   34  C   UNL     1      -7.343   8.100  65.146  1.00  0.00    -0.078 C  
HETATM   35  O   UNL     1      -8.495   8.783  65.259  1.00  0.00    -0.155 OA 
HETATM   36  O   UNL     1      -6.372   8.407  65.827  1.00  0.00    -0.051 OA 
ENDBRANCH  32  33
ENDBRANCH  30  32
ENDBRANCH  29  30
ENDBRANCH  28  29
ENDBRANCH  26  28
ENDBRANCH   4  26
TORSDOF 6
ENDMDL
MODEL       89
REMARK 921   NORMALIZED FREE ENERGY PREDICTED BY IDOCK:   -4.90 KCAL/MOL
REMARK 922        TOTAL FREE ENERGY PREDICTED BY IDOCK:   -6.97 KCAL/MOL
REMARK 923 INTER-LIGAND FREE ENERGY PREDICTED BY IDOCK:   -7.57 KCAL/MOL
REMARK 924 INTRA-LIGAND FREE ENERGY PREDICTED BY IDOCK:    0.60 KCAL/MOL
REMARK 927      BINDING AFFINITY PREDICTED BY RF-SCORE:    0.00 PKD
ROOT
HETATM    1  C   UNL     1      -8.005  12.331  68.428  1.00  0.00    -0.152 C  
HETATM    2  C   UNL     1      -6.879  12.926  67.807  1.00  0.00    -0.138 C  
HETATM    3  C   UNL     1      -8.123  12.806  66.975  1.00  0.00    -0.072 C  
HETATM    4  C   UNL     1      -9.933  12.448  67.937  1.00  0.00    -0.204 C  
HETATM    5  C   UNL     1      -6.858   7.385  65.290  1.00  0.00    -0.048 C  
HETATM    6  O   UNL     1      -9.947  12.313  69.415  1.00  0.00    -0.211 OA 
HETATM    7  C   UNL     1      -9.243  13.587  67.636  1.00  0.00    -0.214 C  
HETATM    8  C   UNL     1      -9.196  14.943  68.274  1.00  0.00    -0.187 C  
HETATM    9  H   UNL     1     -10.773  12.150  69.854  1.00  0.00     0.000 HD 
HETATM   10  C   UNL     1      -7.579   7.228  64.021  1.00  0.00    -0.110 C  
HETATM   11  C   UNL     1      -7.479   8.227  66.139  1.00  0.00    -0.081 C  
HETATM   12  C   UNL     1      -9.903  13.155  65.895  1.00  0.00    -0.241 C  
HETATM   13  C   UNL     1      -5.704   7.768  67.898  1.00  0.00    -0.037 C  
HETATM   14  C   UNL     1      -9.961  11.445  65.658  1.00  0.00    -0.240 C  
HETATM   15  O   UNL     1     -11.176  11.009  66.296  1.00  0.00    -0.130 OA 
HETATM   16  C   UNL     1      -8.699  10.462  66.130  1.00  0.00    -0.163 C  
HETATM   17  C   UNL     1      -9.949   8.305  66.245  1.00  0.00    -0.179 C  
HETATM   18  C   UNL     1      -8.732   8.979  65.618  1.00  0.00    -0.205 C  
HETATM   19  C   UNL     1      -8.624   9.028  64.004  1.00  0.00    -0.161 C  
HETATM   20  H   UNL     1     -11.207  10.069  66.165  1.00  0.00     0.000 HD 
HETATM   21  C   UNL     1      -8.260  10.632  67.777  1.00  0.00    -0.111 C  
HETATM   22  C   UNL     1      -6.990   9.845  68.061  1.00  0.00    -0.077 C  
HETATM   23  O   UNL     1      -8.183   6.220  63.698  1.00  0.00    -0.085 OA 
HETATM   24  C   UNL     1      -7.064   8.397  67.593  1.00  0.00    -0.083 C  
HETATM   25  C   UNL     1      -7.643   8.523  63.234  1.00  0.00    -0.119 C  
ENDROOT
BRANCH   4  26
HETATM   26  C   UNL     1     -11.588  13.228  67.908  1.00  0.00    -0.334 C  
HETATM   27  O   UNL     1     -12.281  13.285  66.878  1.00  0.00    -0.350 OA 
BRANCH  26  28
HETATM   28  C   UNL     1     -12.260  14.028  69.146  1.00  0.00    -0.262 C  
BRANCH  28  29
HETATM   29  O   UNL     1     -11.929  13.313  70.448  1.00  0.00    -0.332 OA 
BRANCH  29  30
HETATM   30  C   UNL     1     -12.690  12.270  70.925  1.00  0.00    -0.187 C  
HETATM   31  O   UNL     1     -12.764  11.182  70.372  1.00  0.00    -0.250 OA 
BRANCH  30  32
HETATM   32  C   UNL     1     -13.461  12.605  72.232  1.00  0.00    -0.541 C  
BRANCH  32  33
HETATM   33  C   UNL     1     -14.021  14.044  72.286  1.00  0.00    -0.651 C  
HETATM   34  C   UNL     1     -13.114  15.161  72.789  1.00  0.00    -0.448 C  
HETATM   35  O   UNL     1     -12.648  15.056  74.045  1.00  0.00    -0.542 OA 
HETATM   36  O   UNL     1     -12.821  16.128  72.097  1.00  0.00    -0.424 OA 
ENDBRANCH  32  33
ENDBRANCH  30  32
ENDBRANCH  29  30
ENDBRANCH  28  29
ENDBRANCH  26  28
ENDBRANCH   4  26
TORSDOF 6
ENDMDL
MODEL       90
REMARK 921   NORMALIZED FREE ENERGY PREDICTED BY IDOCK:   -4.90 KCAL/MOL
REMARK 922        TOTAL FREE ENERGY PREDICTED BY IDOCK:   -6.97 KCAL/MOL
REMARK 923 INTER-LIGAND FREE ENERGY PREDICTED BY IDOCK:   -7.31 KCAL/MOL
REMARK 924 INTRA-LIGAND FREE ENERGY PREDICTED BY IDOCK:    0.34 KCAL/MOL
REMARK 927      BINDING AFFINITY PREDICTED BY RF-SCORE:    0.00 PKD
ROOT
HETATM    1  C   UNL     1     -10.980  10.219  70.542  1.00  0.00    -0.343 C  
HETATM    2  C   UNL     1     -12.369   9.945  70.586  1.00  0.00    -0.299 C  
HETATM    3  C   UNL     1     -11.617   9.425  69.395  1.00  0.00     0.304 C  
HETATM    4  C   UNL     1      -9.542   9.314  69.500  1.00  0.00    -0.173 C  
HETATM    5  C   UNL     1     -12.154  14.422  66.469  1.00  0.00    -0.395 C  
HETATM    6  O   UNL     1      -8.861   9.758  70.740  1.00  0.00    -0.347 OA 
HETATM    7  C   UNL     1     -10.544   8.461  69.866  1.00  0.00    -0.228 C  
HETATM    8  C   UNL     1     -10.633   7.389  70.910  1.00  0.00    -0.234 C  
HETATM    9  H   UNL     1      -7.913   9.708  70.789  1.00  0.00     0.000 HD 
HETATM   10  C   UNL     1     -12.036  14.026  65.061  1.00  0.00    -0.415 C  
HETATM   11  C   UNL     1     -11.447  13.624  67.293  1.00  0.00    -0.370 C  
HETATM   12  C   UNL     1     -10.618   8.232  67.969  1.00  0.00    -0.188 C  
HETATM   13  C   UNL     1     -12.123  15.065  69.273  1.00  0.00    -0.282 C  
HETATM   14  C   UNL     1     -10.262   9.709  67.149  1.00  0.00    -0.243 C  
HETATM   15  O   UNL     1      -8.826   9.811  67.144  1.00  0.00    -0.131 OA 
HETATM   16  C   UNL     1     -10.923  11.158  67.648  1.00  0.00    -0.323 C  
HETATM   17  C   UNL     1      -9.271  12.692  66.576  1.00  0.00    -0.200 C  
HETATM   18  C   UNL     1     -10.762  12.377  66.674  1.00  0.00    -0.263 C  
HETATM   19  C   UNL     1     -11.563  12.015  65.317  1.00  0.00    -0.337 C  
HETATM   20  H   UNL     1      -8.631  10.624  66.693  1.00  0.00     0.000 HD 
HETATM   21  C   UNL     1     -10.634  11.525  69.297  1.00  0.00    -0.120 C  
HETATM   22  C   UNL     1     -11.429  12.756  69.702  1.00  0.00    -0.255 C  
HETATM   23  O   UNL     1     -11.410  14.652  64.224  1.00  0.00    -0.248 OA 
HETATM   24  C   UNL     1     -11.222  13.940  68.764  1.00  0.00    -0.302 C  
HETATM   25  C   UNL     1     -12.629  12.654  64.800  1.00  0.00    -0.530 C  
ENDROOT
BRANCH   4  26
HETATM   26  C   UNL     1      -8.301   8.007  69.184  1.00  0.00    -0.132 C  
HETATM   27  O   UNL     1      -7.206   8.242  68.644  1.00  0.00    -0.083 OA 
BRANCH  26  28
HETATM   28  C   UNL     1      -8.532   6.425  69.439  1.00  0.00    -0.126 C  
BRANCH  28  29
HETATM   29  O   UNL     1      -8.584   5.701  68.101  1.00  0.00    -0.105 OA 
BRANCH  29  30
HETATM   30  C   UNL     1      -9.087   4.426  67.976  1.00  0.00    -0.127 C  
HETATM   31  O   UNL     1      -9.978   4.127  67.193  1.00  0.00    -0.184 OA 
BRANCH  30  32
HETATM   32  C   UNL     1      -8.427   3.396  68.934  1.00  0.00    -0.102 C  
BRANCH  32  33
HETATM   33  C   UNL     1      -9.399   2.767  69.957  1.00  0.00    -0.202 C  
HETATM   34  C   UNL     1      -9.348   3.248  71.401  1.00  0.00    -0.136 C  
HETATM   35  O   UNL     1      -8.191   3.084  72.064  1.00  0.00    -0.058 OA 
HETATM   36  O   UNL     1     -10.315   3.754  71.958  1.00  0.00    -0.131 OA 
ENDBRANCH  32  33
ENDBRANCH  30  32
ENDBRANCH  29  30
ENDBRANCH  28  29
ENDBRANCH  26  28
ENDBRANCH   4  26
TORSDOF 6
ENDMDL
MODEL       91
REMARK 921   NORMALIZED FREE ENERGY PREDICTED BY IDOCK:   -4.90 KCAL/MOL
REMARK 922        TOTAL FREE ENERGY PREDICTED BY IDOCK:   -6.96 KCAL/MOL
REMARK 923 INTER-LIGAND FREE ENERGY PREDICTED BY IDOCK:   -6.98 KCAL/MOL
REMARK 924 INTRA-LIGAND FREE ENERGY PREDICTED BY IDOCK:    0.02 KCAL/MOL
REMARK 927      BINDING AFFINITY PREDICTED BY RF-SCORE:    0.00 PKD
ROOT
HETATM    1  C   UNL     1     -10.754  12.468  67.437  1.00  0.00    -0.254 C  
HETATM    2  C   UNL     1     -10.869  12.612  66.033  1.00  0.00    -0.306 C  
HETATM    3  C   UNL     1      -9.492  12.358  66.574  1.00  0.00    -0.242 C  
HETATM    4  C   UNL     1      -9.304  11.620  68.510  1.00  0.00    -0.167 C  
HETATM    5  C   UNL     1      -8.512  17.996  67.609  1.00  0.00    -0.239 C  
HETATM    6  O   UNL     1     -10.530  11.372  69.307  1.00  0.00    -0.367 OA 
HETATM    7  C   UNL     1      -9.477  11.023  67.294  1.00  0.00    -0.179 C  
HETATM    8  C   UNL     1     -10.101   9.723  66.882  1.00  0.00    -0.287 C  
HETATM    9  H   UNL     1     -10.445  11.035  70.191  1.00  0.00     0.000 HD 
HETATM   10  C   UNL     1      -7.049  18.115  67.584  1.00  0.00    -0.200 C  
HETATM   11  C   UNL     1      -8.927  16.788  68.035  1.00  0.00    -0.217 C  
HETATM   12  C   UNL     1      -7.638  11.520  67.137  1.00  0.00    -0.149 C  
HETATM   13  C   UNL     1     -11.343  17.554  67.862  1.00  0.00     0.404 C  
HETATM   14  C   UNL     1      -7.329  13.022  67.931  1.00  0.00    -0.128 C  
HETATM   15  O   UNL     1      -7.186  12.697  69.326  1.00  0.00    -0.305 OA 
HETATM   16  C   UNL     1      -8.363  14.320  67.763  1.00  0.00    -0.174 C  
HETATM   17  C   UNL     1      -7.683  15.586  69.804  1.00  0.00    -0.049 C  
HETATM   18  C   UNL     1      -7.846  15.705  68.290  1.00  0.00    -0.128 C  
HETATM   19  C   UNL     1      -6.552  16.102  67.404  1.00  0.00    -0.219 C  
HETATM   20  H   UNL     1      -7.017  13.523  69.763  1.00  0.00     0.000 HD 
HETATM   21  C   UNL     1      -9.991  13.972  68.165  1.00  0.00    -0.242 C  
HETATM   22  C   UNL     1     -10.880  15.150  67.801  1.00  0.00    -0.292 C  
HETATM   23  O   UNL     1      -6.404  18.789  68.369  1.00  0.00    -0.209 OA 
HETATM   24  C   UNL     1     -10.380  16.477  68.361  1.00  0.00    -0.294 C  
HETATM   25  C   UNL     1      -6.413  17.163  66.589  1.00  0.00    -0.267 C  
ENDROOT
BRANCH   4  26
HETATM   26  C   UNL     1      -8.420  10.213  69.276  1.00  0.00    -0.163 C  
HETATM   27  O   UNL     1      -7.435   9.673  68.743  1.00  0.00    -0.073 OA 
BRANCH  26  28
HETATM   28  C   UNL     1      -8.885   9.447  70.625  1.00  0.00    -0.220 C  
BRANCH  28  29
HETATM   29  O   UNL     1      -8.840   7.943  70.392  1.00  0.00    -0.139 OA 
BRANCH  29  30
HETATM   30  C   UNL     1      -9.784   7.291  69.632  1.00  0.00    -0.159 C  
HETATM   31  O   UNL     1      -9.513   6.390  68.851  1.00  0.00    -0.129 OA 
BRANCH  30  32
HETATM   32  C   UNL     1     -11.231   7.814  69.847  1.00  0.00    -0.070 C  
BRANCH  32  33
HETATM   33  C   UNL     1     -11.951   7.201  71.069  1.00  0.00    -0.387 C  
HETATM   34  C   UNL     1     -13.172   7.918  71.632  1.00  0.00    -0.334 C  
HETATM   35  O   UNL     1     -12.995   9.172  72.083  1.00  0.00    -0.372 OA 
HETATM   36  O   UNL     1     -14.274   7.388  71.691  1.00  0.00    -0.425 OA 
ENDBRANCH  32  33
ENDBRANCH  30  32
ENDBRANCH  29  30
ENDBRANCH  28  29
ENDBRANCH  26  28
ENDBRANCH   4  26
TORSDOF 6
ENDMDL
MODEL       92
REMARK 921   NORMALIZED FREE ENERGY PREDICTED BY IDOCK:   -4.89 KCAL/MOL
REMARK 922        TOTAL FREE ENERGY PREDICTED BY IDOCK:   -6.95 KCAL/MOL
REMARK 923 INTER-LIGAND FREE ENERGY PREDICTED BY IDOCK:   -7.49 KCAL/MOL
REMARK 924 INTRA-LIGAND FREE ENERGY PREDICTED BY IDOCK:    0.53 KCAL/MOL
REMARK 927      BINDING AFFINITY PREDICTED BY RF-SCORE:    0.00 PKD
ROOT
HETATM    1  C   UNL     1      -9.046   9.353  64.675  1.00  0.00    -0.228 C  
HETATM    2  C   UNL     1      -8.251   9.817  63.598  1.00  0.00    -0.158 C  
HETATM    3  C   UNL     1      -7.801  10.197  64.979  1.00  0.00    -0.140 C  
HETATM    4  C   UNL     1      -8.573   9.147  66.601  1.00  0.00    -0.127 C  
HETATM    5  C   UNL     1     -11.241  14.882  65.158  1.00  0.00    -0.389 C  
HETATM    6  O   UNL     1      -9.551   8.059  66.353  1.00  0.00    -0.235 OA 
HETATM    7  C   UNL     1      -7.508   8.937  65.772  1.00  0.00    -0.089 C  
HETATM    8  C   UNL     1      -6.791   7.695  65.335  1.00  0.00    -0.045 C  
HETATM    9  H   UNL     1      -9.904   7.580  67.093  1.00  0.00     0.000 HD 
HETATM   10  C   UNL     1     -10.588  15.768  66.129  1.00  0.00    -0.313 C  
HETATM   11  C   UNL     1     -11.033  13.578  65.424  1.00  0.00    -0.300 C  
HETATM   12  C   UNL     1      -6.802  10.363  66.831  1.00  0.00    -0.088 C  
HETATM   13  C   UNL     1     -12.521  12.939  63.467  1.00  0.00    -0.430 C  
HETATM   14  C   UNL     1      -8.039  11.485  67.269  1.00  0.00    -0.153 C  
HETATM   15  O   UNL     1      -8.710  10.896  68.398  1.00  0.00    -0.133 OA 
HETATM   16  C   UNL     1      -9.168  12.008  66.158  1.00  0.00    -0.181 C  
HETATM   17  C   UNL     1     -10.919  12.777  67.762  1.00  0.00    -0.266 C  
HETATM   18  C   UNL     1     -10.062  13.226  66.581  1.00  0.00    -0.266 C  
HETATM   19  C   UNL     1      -9.077  14.494  66.782  1.00  0.00    -0.283 C  
HETATM   20  H   UNL     1      -9.391  11.514  68.639  1.00  0.00     0.000 HD 
HETATM   21  C   UNL     1     -10.021  10.740  65.382  1.00  0.00    -0.330 C  
HETATM   22  C   UNL     1     -10.882  11.302  64.261  1.00  0.00    -0.398 C  
HETATM   23  O   UNL     1     -11.183  16.418  66.971  1.00  0.00    -0.024 OA 
HETATM   24  C   UNL     1     -11.771  12.457  64.708  1.00  0.00    -0.425 C  
HETATM   25  C   UNL     1      -9.076  15.647  66.089  1.00  0.00    -0.378 C  
ENDROOT
BRANCH   4  26
HETATM   26  C   UNL     1      -7.851   8.283  68.043  1.00  0.00    -0.118 C  
HETATM   27  O   UNL     1      -6.866   7.531  67.947  1.00  0.00    -0.066 OA 
BRANCH  26  28
HETATM   28  C   UNL     1      -8.473   8.291  69.539  1.00  0.00    -0.125 C  
BRANCH  28  29
HETATM   29  O   UNL     1      -9.974   8.044  69.461  1.00  0.00    -0.179 OA 
BRANCH  29  30
HETATM   30  C   UNL     1     -10.686   7.523  70.518  1.00  0.00    -0.235 C  
HETATM   31  O   UNL     1     -10.975   8.165  71.517  1.00  0.00    -0.231 OA 
BRANCH  30  32
HETATM   32  C   UNL     1     -11.082   6.032  70.330  1.00  0.00    -0.399 C  
BRANCH  32  33
HETATM   33  C   UNL     1      -9.945   5.031  70.636  1.00  0.00    -0.300 C  
HETATM   34  C   UNL     1     -10.091   4.108  71.839  1.00  0.00    -0.154 C  
HETATM   35  O   UNL     1     -10.210   4.685  73.047  1.00  0.00    -0.155 OA 
HETATM   36  O   UNL     1     -10.088   2.887  71.732  1.00  0.00    -0.151 OA 
ENDBRANCH  32  33
ENDBRANCH  30  32
ENDBRANCH  29  30
ENDBRANCH  28  29
ENDBRANCH  26  28
ENDBRANCH   4  26
TORSDOF 6
ENDMDL
MODEL       93
REMARK 921   NORMALIZED FREE ENERGY PREDICTED BY IDOCK:   -4.88 KCAL/MOL
REMARK 922        TOTAL FREE ENERGY PREDICTED BY IDOCK:   -6.93 KCAL/MOL
REMARK 923 INTER-LIGAND FREE ENERGY PREDICTED BY IDOCK:   -6.60 KCAL/MOL
REMARK 924 INTRA-LIGAND FREE ENERGY PREDICTED BY IDOCK:   -0.34 KCAL/MOL
REMARK 927      BINDING AFFINITY PREDICTED BY RF-SCORE:    0.00 PKD
ROOT
HETATM    1  C   UNL     1      -8.028   8.404  66.837  1.00  0.00    -0.099 C  
HETATM    2  C   UNL     1      -6.743   8.859  66.450  1.00  0.00    -0.074 C  
HETATM    3  C   UNL     1      -7.369   9.536  67.635  1.00  0.00    -0.083 C  
HETATM    4  C   UNL     1      -8.971   8.605  68.582  1.00  0.00    -0.142 C  
HETATM    5  C   UNL     1     -10.291  13.326  64.331  1.00  0.00    -0.372 C  
HETATM    6  O   UNL     1      -9.458   7.305  68.058  1.00  0.00    -0.136 OA 
HETATM    7  C   UNL     1      -7.616   8.508  68.724  1.00  0.00    -0.097 C  
HETATM    8  C   UNL     1      -6.722   7.401  69.194  1.00  0.00    -0.052 C  
HETATM    9  H   UNL     1     -10.189   6.880  68.490  1.00  0.00     0.000 HD 
HETATM   10  C   UNL     1     -10.520  14.472  65.219  1.00  0.00    -0.390 C  
HETATM   11  C   UNL     1     -10.242  12.156  64.997  1.00  0.00    -0.312 C  
HETATM   12  C   UNL     1      -7.897  10.200  69.568  1.00  0.00    -0.165 C  
HETATM   13  C   UNL     1      -9.973  10.912  62.798  1.00  0.00    -0.182 C  
HETATM   14  C   UNL     1      -9.168  11.078  68.796  1.00  0.00    -0.162 C  
HETATM   15  O   UNL     1     -10.390  10.538  69.332  1.00  0.00    -0.221 OA 
HETATM   16  C   UNL     1      -9.276  11.163  67.133  1.00  0.00    -0.165 C  
HETATM   17  C   UNL     1     -11.692  11.769  66.963  1.00  0.00    -0.247 C  
HETATM   18  C   UNL     1     -10.290  12.207  66.546  1.00  0.00    -0.239 C  
HETATM   19  C   UNL     1      -9.778  13.675  66.993  1.00  0.00    -0.251 C  
HETATM   20  H   UNL     1     -11.089  11.020  68.907  1.00  0.00     0.000 HD 
HETATM   21  C   UNL     1      -9.303   9.636  66.357  1.00  0.00    -0.224 C  
HETATM   22  C   UNL     1      -9.211   9.817  64.850  1.00  0.00    -0.314 C  
HETATM   23  O   UNL     1     -11.565  15.098  65.274  1.00  0.00    -0.306 OA 
HETATM   24  C   UNL     1     -10.234  10.803  64.299  1.00  0.00    -0.422 C  
HETATM   25  C   UNL     1      -9.376  14.680  66.193  1.00  0.00    -0.265 C  
ENDROOT
BRANCH   4  26
HETATM   26  C   UNL     1      -9.365   8.153  70.310  1.00  0.00    -0.155 C  
HETATM   27  O   UNL     1      -8.946   8.804  71.283  1.00  0.00    -0.191 OA 
BRANCH  26  28
HETATM   28  C   UNL     1     -10.165   6.819  70.763  1.00  0.00    -0.195 C  
BRANCH  28  29
HETATM   29  O   UNL     1      -9.270   5.975  71.660  1.00  0.00    -0.146 OA 
BRANCH  29  30
HETATM   30  C   UNL     1      -9.096   4.624  71.459  1.00  0.00    -0.135 C  
HETATM   31  O   UNL     1      -8.616   3.875  72.297  1.00  0.00    -0.100 OA 
BRANCH  30  32
HETATM   32  C   UNL     1      -9.557   4.136  70.057  1.00  0.00    -0.274 C  
BRANCH  32  33
HETATM   33  C   UNL     1      -8.400   3.779  69.098  1.00  0.00    -0.087 C  
HETATM   34  C   UNL     1      -8.521   4.173  67.632  1.00  0.00    -0.098 C  
HETATM   35  O   UNL     1      -9.552   3.657  66.939  1.00  0.00    -0.205 OA 
HETATM   36  O   UNL     1      -7.717   4.917  67.084  1.00  0.00    -0.090 OA 
ENDBRANCH  32  33
ENDBRANCH  30  32
ENDBRANCH  29  30
ENDBRANCH  28  29
ENDBRANCH  26  28
ENDBRANCH   4  26
TORSDOF 6
ENDMDL
MODEL       94
REMARK 921   NORMALIZED FREE ENERGY PREDICTED BY IDOCK:   -4.85 KCAL/MOL
REMARK 922        TOTAL FREE ENERGY PREDICTED BY IDOCK:   -6.89 KCAL/MOL
REMARK 923 INTER-LIGAND FREE ENERGY PREDICTED BY IDOCK:   -7.36 KCAL/MOL
REMARK 924 INTRA-LIGAND FREE ENERGY PREDICTED BY IDOCK:    0.47 KCAL/MOL
REMARK 927      BINDING AFFINITY PREDICTED BY RF-SCORE:    0.00 PKD
ROOT
HETATM    1  C   UNL     1      -8.357   4.418  66.828  1.00  0.00    -0.105 C  
HETATM    2  C   UNL     1      -9.543   3.722  66.489  1.00  0.00    -0.189 C  
HETATM    3  C   UNL     1      -9.642   5.217  66.578  1.00  0.00    -0.166 C  
HETATM    4  C   UNL     1      -7.886   6.334  66.543  1.00  0.00    -0.104 C  
HETATM    5  C   UNL     1     -10.596   5.133  72.314  1.00  0.00    -0.278 C  
HETATM    6  O   UNL     1      -6.587   5.626  66.439  1.00  0.00    -0.052 OA 
HETATM    7  C   UNL     1      -8.701   5.840  65.564  1.00  0.00    -0.141 C  
HETATM    8  C   UNL     1      -8.450   5.439  64.141  1.00  0.00    -0.085 C  
HETATM    9  H   UNL     1      -5.785   6.135  66.422  1.00  0.00     0.000 HD 
HETATM   10  C   UNL     1     -11.309   6.388  72.576  1.00  0.00    -0.264 C  
HETATM   11  C   UNL     1      -9.743   5.228  71.276  1.00  0.00    -0.222 C  
HETATM   12  C   UNL     1      -9.793   7.284  66.178  1.00  0.00     0.095 C  
HETATM   13  C   UNL     1      -8.985   2.836  71.675  1.00  0.00    -0.140 C  
HETATM   14  C   UNL     1      -9.624   7.511  67.881  1.00  0.00    -0.143 C  
HETATM   15  O   UNL     1      -8.414   8.272  68.051  1.00  0.00    -0.130 OA 
HETATM   16  C   UNL     1      -9.621   6.215  68.932  1.00  0.00    -0.144 C  
HETATM   17  C   UNL     1      -8.496   7.324  70.864  1.00  0.00    -0.128 C  
HETATM   18  C   UNL     1      -9.747   6.547  70.460  1.00  0.00    -0.186 C  
HETATM   19  C   UNL     1     -11.190   7.243  70.682  1.00  0.00    -0.300 C  
HETATM   20  H   UNL     1      -8.321   8.396  68.988  1.00  0.00     0.000 HD 
HETATM   21  C   UNL     1      -8.452   5.019  68.561  1.00  0.00    -0.091 C  
HETATM   22  C   UNL     1      -8.653   3.802  69.450  1.00  0.00    -0.113 C  
HETATM   23  O   UNL     1     -11.097   7.109  73.536  1.00  0.00    -0.260 OA 
HETATM   24  C   UNL     1      -8.728   4.147  70.933  1.00  0.00    -0.119 C  
HETATM   25  C   UNL     1     -12.214   6.784  71.425  1.00  0.00    -0.413 C  
ENDROOT
BRANCH   4  26
HETATM   26  C   UNL     1      -7.283   7.761  65.570  1.00  0.00    -0.064 C  
HETATM   27  O   UNL     1      -6.368   8.503  65.969  1.00  0.00    -0.052 OA 
BRANCH  26  28
HETATM   28  C   UNL     1      -7.941   8.289  64.187  1.00  0.00    -0.148 C  
BRANCH  28  29
HETATM   29  O   UNL     1      -8.339   9.750  64.343  1.00  0.00    -0.144 OA 
BRANCH  29  30
HETATM   30  C   UNL     1      -9.303  10.335  63.554  1.00  0.00    -0.301 C  
HETATM   31  O   UNL     1      -9.499  10.024  62.389  1.00  0.00    -0.295 OA 
BRANCH  30  32
HETATM   32  C   UNL     1     -10.117  11.443  64.280  1.00  0.00    -0.347 C  
BRANCH  32  33
HETATM   33  C   UNL     1     -10.708  12.515  63.338  1.00  0.00    -0.321 C  
HETATM   34  C   UNL     1     -12.096  13.066  63.640  1.00  0.00    -0.531 C  
HETATM   35  O   UNL     1     -13.116  12.191  63.650  1.00  0.00    -0.787 OA 
HETATM   36  O   UNL     1     -12.296  14.255  63.855  1.00  0.00    -0.697 OA 
ENDBRANCH  32  33
ENDBRANCH  30  32
ENDBRANCH  29  30
ENDBRANCH  28  29
ENDBRANCH  26  28
ENDBRANCH   4  26
TORSDOF 6
ENDMDL
MODEL       95
REMARK 921   NORMALIZED FREE ENERGY PREDICTED BY IDOCK:   -4.82 KCAL/MOL
REMARK 922        TOTAL FREE ENERGY PREDICTED BY IDOCK:   -6.86 KCAL/MOL
REMARK 923 INTER-LIGAND FREE ENERGY PREDICTED BY IDOCK:   -7.14 KCAL/MOL
REMARK 924 INTRA-LIGAND FREE ENERGY PREDICTED BY IDOCK:    0.28 KCAL/MOL
REMARK 927      BINDING AFFINITY PREDICTED BY RF-SCORE:    0.00 PKD
ROOT
HETATM    1  C   UNL     1     -12.155   9.586  71.558  1.00  0.00    -0.468 C  
HETATM    2  C   UNL     1     -13.504   9.416  71.161  1.00  0.00    -0.253 C  
HETATM    3  C   UNL     1     -12.456   8.847  70.249  1.00  0.00     0.627 C  
HETATM    4  C   UNL     1     -10.530   8.581  70.990  1.00  0.00    -0.212 C  
HETATM    5  C   UNL     1     -11.705  13.884  67.442  1.00  0.00    -0.422 C  
HETATM    6  O   UNL     1     -10.240   8.967  72.393  1.00  0.00    -0.251 OA 
HETATM    7  C   UNL     1     -11.653   7.803  71.002  1.00  0.00    -0.301 C  
HETATM    8  C   UNL     1     -12.137   6.736  71.937  1.00  0.00    -0.375 C  
HETATM    9  H   UNL     1      -9.362   8.846  72.732  1.00  0.00     0.000 HD 
HETATM   10  C   UNL     1     -11.182  13.488  66.129  1.00  0.00    -0.295 C  
HETATM   11  C   UNL     1     -11.348  13.032  68.422  1.00  0.00    -0.326 C  
HETATM   12  C   UNL     1     -11.147   7.589  69.171  1.00  0.00     0.071 C  
HETATM   13  C   UNL     1     -12.506  14.509  70.134  1.00  0.00    -0.375 C  
HETATM   14  C   UNL     1     -10.452   9.041  68.544  1.00  0.00    -0.196 C  
HETATM   15  O   UNL     1      -9.082   9.034  68.988  1.00  0.00    -0.141 OA 
HETATM   16  C   UNL     1     -11.133  10.532  68.853  1.00  0.00    -0.312 C  
HETATM   17  C   UNL     1      -9.127  11.944  68.391  1.00  0.00    -0.167 C  
HETATM   18  C   UNL     1     -10.592  11.741  68.012  1.00  0.00    -0.235 C  
HETATM   19  C   UNL     1     -10.953  11.446  66.463  1.00  0.00    -0.328 C  
HETATM   20  H   UNL     1      -8.700   9.833  68.643  1.00  0.00     0.000 HD 
HETATM   21  C   UNL     1     -11.348  10.868  70.519  1.00  0.00    -0.212 C  
HETATM   22  C   UNL     1     -12.142  12.154  70.692  1.00  0.00    -0.344 C  
HETATM   23  O   UNL     1     -10.283  14.069  65.546  1.00  0.00    -0.317 OA 
HETATM   24  C   UNL     1     -11.571  13.323  69.898  1.00  0.00    -0.260 C  
HETATM   25  C   UNL     1     -11.757  12.165  65.659  1.00  0.00    -0.385 C  
ENDROOT
BRANCH   4  26
HETATM   26  C   UNL     1      -9.346   7.187  71.040  1.00  0.00    -0.158 C  
HETATM   27  O   UNL     1      -8.150   7.315  70.727  1.00  0.00    -0.108 OA 
BRANCH  26  28
HETATM   28  C   UNL     1      -9.737   5.647  71.354  1.00  0.00    -0.162 C  
BRANCH  28  29
HETATM   29  O   UNL     1      -8.484   4.785  71.286  1.00  0.00    -0.103 OA 
BRANCH  29  30
HETATM   30  C   UNL     1      -8.258   3.900  70.256  1.00  0.00    -0.057 C  
HETATM   31  O   UNL     1      -7.251   3.213  70.167  1.00  0.00    -0.040 OA 
BRANCH  30  32
HETATM   32  C   UNL     1      -9.401   3.862  69.203  1.00  0.00    -0.240 C  
BRANCH  32  33
HETATM   33  C   UNL     1      -9.157   4.760  67.970  1.00  0.00    -0.137 C  
HETATM   34  C   UNL     1      -9.758   4.344  66.634  1.00  0.00    -0.215 C  
HETATM   35  O   UNL     1      -9.371   3.160  66.127  1.00  0.00    -0.155 OA 
HETATM   36  O   UNL     1     -10.553   5.048  66.024  1.00  0.00    -0.285 OA 
ENDBRANCH  32  33
ENDBRANCH  30  32
ENDBRANCH  29  30
ENDBRANCH  28  29
ENDBRANCH  26  28
ENDBRANCH   4  26
TORSDOF 6
ENDMDL
MODEL       96
REMARK 921   NORMALIZED FREE ENERGY PREDICTED BY IDOCK:   -4.79 KCAL/MOL
REMARK 922        TOTAL FREE ENERGY PREDICTED BY IDOCK:   -6.82 KCAL/MOL
REMARK 923 INTER-LIGAND FREE ENERGY PREDICTED BY IDOCK:   -6.60 KCAL/MOL
REMARK 924 INTRA-LIGAND FREE ENERGY PREDICTED BY IDOCK:   -0.22 KCAL/MOL
REMARK 927      BINDING AFFINITY PREDICTED BY RF-SCORE:    0.00 PKD
ROOT
HETATM    1  C   UNL     1      -7.522   8.623  69.971  1.00  0.00    -0.056 C  
HETATM    2  C   UNL     1      -7.215   9.290  71.183  1.00  0.00    -0.055 C  
HETATM    3  C   UNL     1      -8.667   9.019  70.913  1.00  0.00    -0.280 C  
HETATM    4  C   UNL     1      -9.163   7.611  69.463  1.00  0.00    -0.150 C  
HETATM    5  C   UNL     1      -9.321  13.875  67.781  1.00  0.00    -0.204 C  
HETATM    6  O   UNL     1      -8.074   6.920  68.730  1.00  0.00    -0.118 OA 
HETATM    7  C   UNL     1      -8.881   7.521  70.796  1.00  0.00    -0.148 C  
HETATM    8  C   UNL     1      -8.315   6.420  71.642  1.00  0.00    -0.125 C  
HETATM    9  H   UNL     1      -8.301   6.277  68.069  1.00  0.00     0.000 HD 
HETATM   10  C   UNL     1     -10.754  14.176  67.883  1.00  0.00    -0.240 C  
HETATM   11  C   UNL     1      -9.062  12.555  67.844  1.00  0.00    -0.199 C  
HETATM   12  C   UNL     1     -10.639   8.266  70.900  1.00  0.00    -0.239 C  
HETATM   13  C   UNL     1      -6.591  13.018  67.481  1.00  0.00    -0.160 C  
HETATM   14  C   UNL     1     -10.928   9.363  69.598  1.00  0.00    -0.197 C  
HETATM   15  O   UNL     1     -11.276   8.538  68.470  1.00  0.00    -0.328 OA 
HETATM   16  C   UNL     1      -9.781  10.483  69.137  1.00  0.00    -0.226 C  
HETATM   17  C   UNL     1     -10.618  10.922  66.827  1.00  0.00    -0.313 C  
HETATM   18  C   UNL     1     -10.250  11.603  68.143  1.00  0.00    -0.206 C  
HETATM   19  C   UNL     1     -11.381  12.474  68.903  1.00  0.00    -0.346 C  
HETATM   20  H   UNL     1     -11.435   9.141  67.754  1.00  0.00     0.000 HD 
HETATM   21  C   UNL     1      -8.252   9.804  68.769  1.00  0.00    -0.108 C  
HETATM   22  C   UNL     1      -7.231  10.909  68.547  1.00  0.00    -0.090 C  
HETATM   23  O   UNL     1     -11.440  14.564  66.953  1.00  0.00    -0.340 OA 
HETATM   24  C   UNL     1      -7.693  11.962  67.546  1.00  0.00    -0.151 C  
HETATM   25  C   UNL     1     -11.328  13.778  69.230  1.00  0.00    -0.325 C  
ENDROOT
BRANCH   4  26
HETATM   26  C   UNL     1     -10.249   6.139  69.410  1.00  0.00    -0.197 C  
HETATM   27  O   UNL     1     -11.380   6.125  69.924  1.00  0.00    -0.405 OA 
BRANCH  26  28
HETATM   28  C   UNL     1      -9.821   4.690  68.827  1.00  0.00    -0.131 C  
BRANCH  28  29
HETATM   29  O   UNL     1      -9.863   4.725  67.306  1.00  0.00    -0.169 OA 
BRANCH  29  30
HETATM   30  C   UNL     1      -8.817   4.275  66.532  1.00  0.00    -0.116 C  
HETATM   31  O   UNL     1      -7.829   4.948  66.279  1.00  0.00    -0.094 OA 
BRANCH  30  32
HETATM   32  C   UNL     1      -9.013   2.829  65.997  1.00  0.00    -0.142 C  
BRANCH  32  33
HETATM   33  C   UNL     1      -9.040   2.722  64.456  1.00  0.00    -0.125 C  
HETATM   34  C   UNL     1      -9.913   3.694  63.673  1.00  0.00    -0.181 C  
HETATM   35  O   UNL     1     -11.234   3.670  63.921  1.00  0.00    -0.297 OA 
HETATM   36  O   UNL     1      -9.453   4.463  62.839  1.00  0.00    -0.145 OA 
ENDBRANCH  32  33
ENDBRANCH  30  32
ENDBRANCH  29  30
ENDBRANCH  28  29
ENDBRANCH  26  28
ENDBRANCH   4  26
TORSDOF 6
ENDMDL
MODEL       97
REMARK 921   NORMALIZED FREE ENERGY PREDICTED BY IDOCK:   -4.68 KCAL/MOL
REMARK 922        TOTAL FREE ENERGY PREDICTED BY IDOCK:   -6.67 KCAL/MOL
REMARK 923 INTER-LIGAND FREE ENERGY PREDICTED BY IDOCK:   -6.51 KCAL/MOL
REMARK 924 INTRA-LIGAND FREE ENERGY PREDICTED BY IDOCK:   -0.16 KCAL/MOL
REMARK 927      BINDING AFFINITY PREDICTED BY RF-SCORE:    0.00 PKD
ROOT
HETATM    1  C   UNL     1      -7.821   9.533  68.961  1.00  0.00    -0.077 C  
HETATM    2  C   UNL     1      -7.274   9.892  70.217  1.00  0.00    -0.160 C  
HETATM    3  C   UNL     1      -8.758   9.673  70.166  1.00  0.00    -0.263 C  
HETATM    4  C   UNL     1      -9.558   8.651  68.541  1.00  0.00    -0.154 C  
HETATM    5  C   UNL     1      -9.829  15.133  68.472  1.00  0.00    -0.220 C  
HETATM    6  O   UNL     1      -8.646   8.173  67.473  1.00  0.00    -0.128 OA 
HETATM    7  C   UNL     1      -9.038   8.245  69.736  1.00  0.00    -0.147 C  
HETATM    8  C   UNL     1      -8.359   6.981  70.171  1.00  0.00    -0.138 C  
HETATM    9  H   UNL     1      -9.010   7.706  66.731  1.00  0.00     0.000 HD 
HETATM   10  C   UNL     1     -11.208  15.379  68.910  1.00  0.00    -0.292 C  
HETATM   11  C   UNL     1      -9.604  13.840  68.166  1.00  0.00    -0.216 C  
HETATM   12  C   UNL     1     -10.721   8.917  70.343  1.00  0.00    -0.261 C  
HETATM   13  C   UNL     1      -7.229  14.414  67.470  1.00  0.00    -0.202 C  
HETATM   14  C   UNL     1     -11.212  10.292  69.419  1.00  0.00    -0.239 C  
HETATM   15  O   UNL     1     -11.788   9.759  68.212  1.00  0.00    -0.281 OA 
HETATM   16  C   UNL     1     -10.136  11.507  69.035  1.00  0.00    -0.075 C  
HETATM   17  C   UNL     1     -11.371  12.479  67.096  1.00  0.00    -0.381 C  
HETATM   18  C   UNL     1     -10.745  12.827  68.445  1.00  0.00    -0.269 C  
HETATM   19  C   UNL     1     -11.689  13.472  69.589  1.00  0.00    -0.378 C  
HETATM   20  H   UNL     1     -12.058  10.515  67.704  1.00  0.00     0.000 HD 
HETATM   21  C   UNL     1      -8.723  10.959  68.235  1.00  0.00    -0.140 C  
HETATM   22  C   UNL     1      -7.727  12.101  68.099  1.00  0.00    -0.129 C  
HETATM   23  O   UNL     1     -12.042  15.969  68.245  1.00  0.00    -0.030 OA 
HETATM   24  C   UNL     1      -8.333  13.357  67.484  1.00  0.00    -0.190 C  
HETATM   25  C   UNL     1     -11.536  14.659  70.204  1.00  0.00    -0.310 C  
ENDROOT
BRANCH   4  26
HETATM   26  C   UNL     1     -10.680   7.220  68.339  1.00  0.00    -0.121 C  
HETATM   27  O   UNL     1     -11.274   6.696  69.298  1.00  0.00    -0.289 OA 
BRANCH  26  28
HETATM   28  C   UNL     1     -10.915   6.410  66.956  1.00  0.00    -0.389 C  
BRANCH  28  29
HETATM   29  O   UNL     1      -9.608   5.760  66.524  1.00  0.00    -0.148 OA 
BRANCH  29  30
HETATM   30  C   UNL     1      -9.574   4.555  65.859  1.00  0.00    -0.189 C  
HETATM   31  O   UNL     1     -10.022   4.394  64.733  1.00  0.00    -0.161 OA 
BRANCH  30  32
HETATM   32  C   UNL     1      -8.921   3.407  66.679  1.00  0.00    -0.162 C  
BRANCH  32  33
HETATM   33  C   UNL     1      -8.129   3.884  67.917  1.00  0.00    -0.088 C  
HETATM   34  C   UNL     1      -8.582   3.421  69.295  1.00  0.00    -0.070 C  
HETATM   35  O   UNL     1      -9.823   3.761  69.681  1.00  0.00    -0.168 OA 
HETATM   36  O   UNL     1      -7.856   2.775  70.041  1.00  0.00    -0.043 OA 
ENDBRANCH  32  33
ENDBRANCH  30  32
ENDBRANCH  29  30
ENDBRANCH  28  29
ENDBRANCH  26  28
ENDBRANCH   4  26
TORSDOF 6
ENDMDL
MODEL       98
REMARK 921   NORMALIZED FREE ENERGY PREDICTED BY IDOCK:   -4.68 KCAL/MOL
REMARK 922        TOTAL FREE ENERGY PREDICTED BY IDOCK:   -6.67 KCAL/MOL
REMARK 923 INTER-LIGAND FREE ENERGY PREDICTED BY IDOCK:   -6.67 KCAL/MOL
REMARK 924 INTRA-LIGAND FREE ENERGY PREDICTED BY IDOCK:    0.00 KCAL/MOL
REMARK 927      BINDING AFFINITY PREDICTED BY RF-SCORE:    0.00 PKD
ROOT
HETATM    1  C   UNL     1      -7.743  11.344  67.599  1.00  0.00    -0.121 C  
HETATM    2  C   UNL     1      -8.235  10.967  68.873  1.00  0.00    -0.127 C  
HETATM    3  C   UNL     1      -9.255  11.377  67.851  1.00  0.00    -0.164 C  
HETATM    4  C   UNL     1      -8.694  11.430  65.849  1.00  0.00    -0.101 C  
HETATM    5  C   UNL     1      -8.736  17.027  69.130  1.00  0.00    -0.032 C  
HETATM    6  O   UNL     1      -7.302  11.070  65.483  1.00  0.00    -0.361 OA 
HETATM    7  C   UNL     1      -9.173  10.441  66.660  1.00  0.00    -0.178 C  
HETATM    8  C   UNL     1      -9.018   8.950  66.643  1.00  0.00    -0.165 C  
HETATM    9  H   UNL     1      -7.045  11.093  64.569  1.00  0.00     0.000 HD 
HETATM   10  C   UNL     1     -10.019  17.606  68.715  1.00  0.00    -0.358 C  
HETATM   11  C   UNL     1      -8.381  15.963  68.382  1.00  0.00    -0.174 C  
HETATM   12  C   UNL     1     -10.785  11.435  66.397  1.00  0.00    -0.325 C  
HETATM   13  C   UNL     1      -6.197  15.785  69.666  1.00  0.00    -0.169 C  
HETATM   14  C   UNL     1     -10.461  13.128  66.288  1.00  0.00    -0.285 C  
HETATM   15  O   UNL     1     -10.028  13.351  64.933  1.00  0.00    -0.545 OA 
HETATM   16  C   UNL     1      -9.407  13.878  67.342  1.00  0.00    -0.228 C  
HETATM   17  C   UNL     1      -8.903  15.898  65.965  1.00  0.00    -0.298 C  
HETATM   18  C   UNL     1      -9.403  15.447  67.335  1.00  0.00    -0.205 C  
HETATM   19  C   UNL     1     -10.869  15.931  67.818  1.00  0.00    -0.324 C  
HETATM   20  H   UNL     1      -9.850  14.282  64.874  1.00  0.00     0.000 HD 
HETATM   21  C   UNL     1      -7.850  13.166  67.395  1.00  0.00    -0.169 C  
HETATM   22  C   UNL     1      -7.030  13.793  68.512  1.00  0.00    -0.103 C  
HETATM   23  O   UNL     1     -10.134  18.675  68.140  1.00  0.00    -0.343 OA 
HETATM   24  C   UNL     1      -7.006  15.316  68.458  1.00  0.00    -0.113 C  
HETATM   25  C   UNL     1     -11.175  16.644  68.918  1.00  0.00    -0.200 C  
ENDROOT
BRANCH   4  26
HETATM   26  C   UNL     1      -9.371  10.732  64.298  1.00  0.00    -0.245 C  
HETATM   27  O   UNL     1     -10.592  10.644  64.082  1.00  0.00    -0.283 OA 
BRANCH  26  28
HETATM   28  C   UNL     1      -8.490  10.046  63.125  1.00  0.00    -0.181 C  
BRANCH  28  29
HETATM   29  O   UNL     1      -7.547   9.019  63.738  1.00  0.00    -0.108 OA 
BRANCH  29  30
HETATM   30  C   UNL     1      -7.575   7.691  63.377  1.00  0.00    -0.119 C  
HETATM   31  O   UNL     1      -8.239   7.260  62.445  1.00  0.00    -0.134 OA 
BRANCH  30  32
HETATM   32  C   UNL     1      -6.692   6.780  64.275  1.00  0.00    -0.045 C  
BRANCH  32  33
HETATM   33  C   UNL     1      -7.307   5.395  64.573  1.00  0.00    -0.063 C  
HETATM   34  C   UNL     1      -8.587   5.328  65.397  1.00  0.00    -0.149 C  
HETATM   35  O   UNL     1      -8.541   5.825  66.645  1.00  0.00    -0.116 OA 
HETATM   36  O   UNL     1      -9.621   4.835  64.964  1.00  0.00    -0.139 OA 
ENDBRANCH  32  33
ENDBRANCH  30  32
ENDBRANCH  29  30
ENDBRANCH  28  29
ENDBRANCH  26  28
ENDBRANCH   4  26
TORSDOF 6
ENDMDL
MODEL       99
REMARK 921   NORMALIZED FREE ENERGY PREDICTED BY IDOCK:   -4.65 KCAL/MOL
REMARK 922        TOTAL FREE ENERGY PREDICTED BY IDOCK:   -6.63 KCAL/MOL
REMARK 923 INTER-LIGAND FREE ENERGY PREDICTED BY IDOCK:   -5.96 KCAL/MOL
REMARK 924 INTRA-LIGAND FREE ENERGY PREDICTED BY IDOCK:   -0.68 KCAL/MOL
REMARK 927      BINDING AFFINITY PREDICTED BY RF-SCORE:    0.00 PKD
ROOT
HETATM    1  C   UNL     1     -11.193  11.131  68.300  1.00  0.00    -0.343 C  
HETATM    2  C   UNL     1     -11.144  12.269  69.141  1.00  0.00    -0.261 C  
HETATM    3  C   UNL     1      -9.857  11.521  68.944  1.00  0.00    -0.091 C  
HETATM    4  C   UNL     1      -9.712  10.193  67.350  1.00  0.00    -0.161 C  
HETATM    5  C   UNL     1     -11.022   7.751  73.216  1.00  0.00    -0.261 C  
HETATM    6  O   UNL     1     -10.883  10.013  66.456  1.00  0.00    -0.087 OA 
HETATM    7  C   UNL     1      -9.492  11.535  67.472  1.00  0.00    -0.173 C  
HETATM    8  C   UNL     1      -9.568  12.669  66.493  1.00  0.00    -0.248 C  
HETATM    9  H   UNL     1     -10.817   9.407  65.728  1.00  0.00     0.000 HD 
HETATM   10  C   UNL     1      -9.701   7.276  73.644  1.00  0.00    -0.289 C  
HETATM   11  C   UNL     1     -11.058   8.080  71.910  1.00  0.00    -0.333 C  
HETATM   12  C   UNL     1      -7.931  10.883  68.361  1.00  0.00    -0.127 C  
HETATM   13  C   UNL     1     -13.537   8.597  72.104  1.00  0.00    -0.447 C  
HETATM   14  C   UNL     1      -8.273   9.431  69.233  1.00  0.00    -0.111 C  
HETATM   15  O   UNL     1      -8.233   8.376  68.255  1.00  0.00    -0.121 OA 
HETATM   16  C   UNL     1      -9.651   9.281  70.160  1.00  0.00    -0.254 C  
HETATM   17  C   UNL     1      -9.749   6.789  70.255  1.00  0.00    -0.179 C  
HETATM   18  C   UNL     1      -9.721   8.045  71.123  1.00  0.00    -0.190 C  
HETATM   19  C   UNL     1      -8.527   8.209  72.201  1.00  0.00    -0.216 C  
HETATM   20  H   UNL     1      -8.421   7.578  68.734  1.00  0.00     0.000 HD 
HETATM   21  C   UNL     1     -11.103   9.598  69.307  1.00  0.00    -0.149 C  
HETATM   22  C   UNL     1     -12.278   9.623  70.272  1.00  0.00     0.027 C  
HETATM   23  O   UNL     1      -9.446   6.116  73.917  1.00  0.00    -0.135 OA 
HETATM   24  C   UNL     1     -12.348   8.391  71.167  1.00  0.00    -0.219 C  
HETATM   25  C   UNL     1      -8.641   8.356  73.534  1.00  0.00    -0.174 C  
ENDROOT
BRANCH   4  26
HETATM   26  C   UNL     1      -8.523   9.940  65.983  1.00  0.00    -0.129 C  
HETATM   27  O   UNL     1      -7.331  10.285  66.061  1.00  0.00    -0.115 OA 
BRANCH  26  28
HETATM   28  C   UNL     1      -8.904   9.381  64.511  1.00  0.00    -0.198 C  
BRANCH  28  29
HETATM   29  O   UNL     1      -7.717   8.619  63.937  1.00  0.00    -0.120 OA 
BRANCH  29  30
HETATM   30  C   UNL     1      -7.250   7.455  64.505  1.00  0.00    -0.073 C  
HETATM   31  O   UNL     1      -6.106   7.317  64.913  1.00  0.00    -0.037 OA 
BRANCH  30  32
HETATM   32  C   UNL     1      -8.311   6.321  64.568  1.00  0.00    -0.004 C  
BRANCH  32  33
HETATM   33  C   UNL     1      -8.515   5.722  65.977  1.00  0.00    -0.135 C  
HETATM   34  C   UNL     1      -9.898   5.805  66.612  1.00  0.00    -0.165 C  
HETATM   35  O   UNL     1     -10.409   7.031  66.815  1.00  0.00    -0.245 OA 
HETATM   36  O   UNL     1     -10.528   4.808  66.942  1.00  0.00    -0.194 OA 
ENDBRANCH  32  33
ENDBRANCH  30  32
ENDBRANCH  29  30
ENDBRANCH  28  29
ENDBRANCH  26  28
ENDBRANCH   4  26
TORSDOF 6
ENDMDL
MODEL      100
REMARK 921   NORMALIZED FREE ENERGY PREDICTED BY IDOCK:   -4.65 KCAL/MOL
REMARK 922        TOTAL FREE ENERGY PREDICTED BY IDOCK:   -6.62 KCAL/MOL
REMARK 923 INTER-LIGAND FREE ENERGY PREDICTED BY IDOCK:   -6.79 KCAL/MOL
REMARK 924 INTRA-LIGAND FREE ENERGY PREDICTED BY IDOCK:    0.17 KCAL/MOL
REMARK 927      BINDING AFFINITY PREDICTED BY RF-SCORE:    0.00 PKD
ROOT
HETATM    1  C   UNL     1      -9.164  11.163  65.496  1.00  0.00    -0.236 C  
HETATM    2  C   UNL     1     -10.060  11.095  64.401  1.00  0.00    -0.377 C  
HETATM    3  C   UNL     1     -10.234  10.065  65.479  1.00  0.00    -0.248 C  
HETATM    4  C   UNL     1      -9.343  10.399  67.329  1.00  0.00    -0.146 C  
HETATM    5  C   UNL     1      -6.275   6.497  63.151  1.00  0.00    -0.037 C  
HETATM    6  O   UNL     1      -8.554  11.639  67.533  1.00  0.00    -0.140 OA 
HETATM    7  C   UNL     1     -10.545  10.762  66.790  1.00  0.00    -0.307 C  
HETATM    8  C   UNL     1     -11.465  11.917  67.048  1.00  0.00    -0.384 C  
HETATM    9  H   UNL     1      -8.147  11.793  68.377  1.00  0.00     0.000 HD 
HETATM   10  C   UNL     1      -6.654   5.169  63.649  1.00  0.00    -0.030 C  
HETATM   11  C   UNL     1      -6.592   7.484  64.011  1.00  0.00    -0.052 C  
HETATM   12  C   UNL     1     -10.897   8.912  67.118  1.00  0.00    -0.069 C  
HETATM   13  C   UNL     1      -5.525   9.187  62.457  1.00  0.00    -0.085 C  
HETATM   14  C   UNL     1      -9.480   7.956  66.873  1.00  0.00    -0.191 C  
HETATM   15  O   UNL     1      -8.711   8.088  68.083  1.00  0.00    -0.126 OA 
HETATM   16  C   UNL     1      -8.489   8.197  65.552  1.00  0.00    -0.174 C  
HETATM   17  C   UNL     1      -6.424   7.121  66.452  1.00  0.00    -0.051 C  
HETATM   18  C   UNL     1      -7.401   7.101  65.279  1.00  0.00    -0.080 C  
HETATM   19  C   UNL     1      -8.181   5.723  64.950  1.00  0.00    -0.137 C  
HETATM   20  H   UNL     1      -7.932   7.562  67.947  1.00  0.00     0.000 HD 
HETATM   21  C   UNL     1      -7.930   9.808  65.386  1.00  0.00    -0.125 C  
HETATM   22  C   UNL     1      -7.199   9.971  64.063  1.00  0.00    -0.129 C  
HETATM   23  O   UNL     1      -5.858   4.331  64.035  1.00  0.00    -0.014 OA 
HETATM   24  C   UNL     1      -6.117   8.920  63.840  1.00  0.00    -0.072 C  
HETATM   25  C   UNL     1      -8.156   5.022  63.802  1.00  0.00    -0.112 C  
ENDROOT
BRANCH   4  26
HETATM   26  C   UNL     1      -9.923  10.382  69.064  1.00  0.00    -0.214 C  
HETATM   27  O   UNL     1      -9.190  10.045  70.010  1.00  0.00    -0.208 OA 
BRANCH  26  28
HETATM   28  C   UNL     1     -11.446  10.662  69.538  1.00  0.00    -0.291 C  
BRANCH  28  29
HETATM   29  O   UNL     1     -11.546  10.483  71.046  1.00  0.00    -0.330 OA 
BRANCH  29  30
HETATM   30  C   UNL     1     -12.185   9.405  71.616  1.00  0.00    -0.390 C  
HETATM   31  O   UNL     1     -13.400   9.268  71.620  1.00  0.00    -0.357 OA 
BRANCH  30  32
HETATM   32  C   UNL     1     -11.218   8.379  72.270  1.00  0.00    -0.446 C  
BRANCH  32  33
HETATM   33  C   UNL     1     -11.651   6.905  72.103  1.00  0.00    -0.322 C  
HETATM   34  C   UNL     1     -11.119   6.120  70.911  1.00  0.00    -0.307 C  
HETATM   35  O   UNL     1     -11.423   6.581  69.686  1.00  0.00    -0.382 OA 
HETATM   36  O   UNL     1     -10.452   5.101  71.043  1.00  0.00    -0.221 OA 
ENDBRANCH  32  33
ENDBRANCH  30  32
ENDBRANCH  29  30
ENDBRANCH  28  29
ENDBRANCH  26  28
ENDBRANCH   4  26
TORSDOF 6
ENDMDL
MODEL      101
REMARK 921   NORMALIZED FREE ENERGY PREDICTED BY IDOCK:   -4.60 KCAL/MOL
REMARK 922        TOTAL FREE ENERGY PREDICTED BY IDOCK:   -6.56 KCAL/MOL
REMARK 923 INTER-LIGAND FREE ENERGY PREDICTED BY IDOCK:   -6.95 KCAL/MOL
REMARK 924 INTRA-LIGAND FREE ENERGY PREDICTED BY IDOCK:    0.39 KCAL/MOL
REMARK 927      BINDING AFFINITY PREDICTED BY RF-SCORE:    0.00 PKD
ROOT
HETATM    1  C   UNL     1      -7.275  12.392  67.747  1.00  0.00    -0.119 C  
HETATM    2  C   UNL     1      -6.607  12.394  68.997  1.00  0.00    -0.100 C  
HETATM    3  C   UNL     1      -7.845  11.551  68.896  1.00  0.00    -0.071 C  
HETATM    4  C   UNL     1      -8.572  11.073  67.006  1.00  0.00    -0.140 C  
HETATM    5  C   UNL     1     -11.367  16.000  70.168  1.00  0.00    -0.369 C  
HETATM    6  O   UNL     1      -7.855  11.582  65.810  1.00  0.00    -0.359 OA 
HETATM    7  C   UNL     1      -7.643  10.495  67.825  1.00  0.00    -0.088 C  
HETATM    8  C   UNL     1      -6.436   9.649  67.552  1.00  0.00    -0.069 C  
HETATM    9  H   UNL     1      -8.187  11.364  64.947  1.00  0.00     0.000 HD 
HETATM   10  C   UNL     1     -12.568  15.360  70.717  1.00  0.00    -0.442 C  
HETATM   11  C   UNL     1     -10.742  15.233  69.254  1.00  0.00    -0.252 C  
HETATM   12  C   UNL     1      -9.236   9.971  68.742  1.00  0.00    -0.159 C  
HETATM   13  C   UNL     1      -9.050  17.085  68.851  1.00  0.00    -0.208 C  
HETATM   14  C   UNL     1     -10.447  11.198  68.639  1.00  0.00    -0.197 C  
HETATM   15  O   UNL     1     -11.060  11.026  67.347  1.00  0.00    -0.278 OA 
HETATM   16  C   UNL     1     -10.072  12.807  68.870  1.00  0.00     0.051 C  
HETATM   17  C   UNL     1     -12.046  13.804  67.713  1.00  0.00    -0.325 C  
HETATM   18  C   UNL     1     -11.280  13.795  69.033  1.00  0.00    -0.313 C  
HETATM   19  C   UNL     1     -12.069  13.368  70.379  1.00  0.00    -0.405 C  
HETATM   20  H   UNL     1     -11.725  11.701  67.291  1.00  0.00     0.000 HD 
HETATM   21  C   UNL     1      -8.817  13.383  67.855  1.00  0.00    -0.194 C  
HETATM   22  C   UNL     1      -8.421  14.792  68.268  1.00  0.00    -0.151 C  
HETATM   23  O   UNL     1     -13.707  15.708  70.462  1.00  0.00    -0.299 OA 
HETATM   24  C   UNL     1      -9.607  15.743  68.378  1.00  0.00    -0.200 C  
HETATM   25  C   UNL     1     -12.240  14.099  71.495  1.00  0.00    -0.340 C  
ENDROOT
BRANCH   4  26
HETATM   26  C   UNL     1      -9.054   9.523  66.161  1.00  0.00    -0.166 C  
HETATM   27  O   UNL     1      -9.964   9.478  65.316  1.00  0.00    -0.247 OA 
BRANCH  26  28
HETATM   28  C   UNL     1      -8.462   8.054  66.505  1.00  0.00    -0.136 C  
BRANCH  28  29
HETATM   29  O   UNL     1      -9.432   6.991  66.009  1.00  0.00    -0.062 OA 
BRANCH  29  30
HETATM   30  C   UNL     1     -10.063   6.117  66.866  1.00  0.00    -0.183 C  
HETATM   31  O   UNL     1     -10.271   6.363  68.045  1.00  0.00    -0.138 OA 
BRANCH  30  32
HETATM   32  C   UNL     1     -10.477   4.777  66.198  1.00  0.00    -0.332 C  
BRANCH  32  33
HETATM   33  C   UNL     1      -9.397   4.167  65.276  1.00  0.00    -0.164 C  
HETATM   34  C   UNL     1      -9.623   4.197  63.770  1.00  0.00    -0.137 C  
HETATM   35  O   UNL     1     -10.706   3.556  63.298  1.00  0.00    -0.229 OA 
HETATM   36  O   UNL     1      -8.855   4.765  63.003  1.00  0.00    -0.132 OA 
ENDBRANCH  32  33
ENDBRANCH  30  32
ENDBRANCH  29  30
ENDBRANCH  28  29
ENDBRANCH  26  28
ENDBRANCH   4  26
TORSDOF 6
ENDMDL
MODEL      102
REMARK 921   NORMALIZED FREE ENERGY PREDICTED BY IDOCK:   -4.60 KCAL/MOL
REMARK 922        TOTAL FREE ENERGY PREDICTED BY IDOCK:   -6.56 KCAL/MOL
REMARK 923 INTER-LIGAND FREE ENERGY PREDICTED BY IDOCK:   -6.67 KCAL/MOL
REMARK 924 INTRA-LIGAND FREE ENERGY PREDICTED BY IDOCK:    0.12 KCAL/MOL
REMARK 927      BINDING AFFINITY PREDICTED BY RF-SCORE:    0.00 PKD
ROOT
HETATM    1  C   UNL     1      -5.862  10.975  69.447  1.00  0.00    -0.046 C  
HETATM    2  C   UNL     1      -5.136  10.126  68.576  1.00  0.00    -0.035 C  
HETATM    3  C   UNL     1      -6.405  10.719  68.036  1.00  0.00    -0.058 C  
HETATM    4  C   UNL     1      -7.237  12.354  69.018  1.00  0.00    -0.008 C  
HETATM    5  C   UNL     1      -9.711   6.488  70.271  1.00  0.00    -0.181 C  
HETATM    6  O   UNL     1      -6.562  12.885  70.227  1.00  0.00    -0.359 OA 
HETATM    7  C   UNL     1      -6.291  12.232  68.041  1.00  0.00    -0.073 C  
HETATM    8  C   UNL     1      -5.127  13.090  67.642  1.00  0.00    -0.059 C  
HETATM    9  H   UNL     1      -6.941  13.631  70.676  1.00  0.00     0.000 HD 
HETATM   10  C   UNL     1     -10.905   6.479  69.417  1.00  0.00    -0.308 C  
HETATM   11  C   UNL     1      -9.156   7.712  70.374  1.00  0.00    -0.152 C  
HETATM   12  C   UNL     1      -7.855  11.858  67.007  1.00  0.00    -0.152 C  
HETATM   13  C   UNL     1      -7.424   6.794  71.990  1.00  0.00    -0.093 C  
HETATM   14  C   UNL     1      -9.027  10.999  67.941  1.00  0.00    -0.144 C  
HETATM   15  O   UNL     1      -9.706  12.001  68.721  1.00  0.00    -0.374 OA 
HETATM   16  C   UNL     1      -8.587   9.727  68.925  1.00  0.00    -0.134 C  
HETATM   17  C   UNL     1     -10.580   9.734  70.429  1.00  0.00    -0.365 C  
HETATM   18  C   UNL     1      -9.752   8.847  69.502  1.00  0.00    -0.173 C  
HETATM   19  C   UNL     1     -10.491   8.148  68.244  1.00  0.00    -0.210 C  
HETATM   20  H   UNL     1     -10.351  11.528  69.234  1.00  0.00     0.000 HD 
HETATM   21  C   UNL     1      -7.364  10.114  70.061  1.00  0.00    -0.172 C  
HETATM   22  C   UNL     1      -6.901   8.854  70.775  1.00  0.00    -0.067 C  
HETATM   23  O   UNL     1     -12.043   6.349  69.834  1.00  0.00    -0.176 OA 
HETATM   24  C   UNL     1      -8.047   8.040  71.363  1.00  0.00    -0.118 C  
HETATM   25  C   UNL     1     -10.583   6.832  67.978  1.00  0.00    -0.283 C  
ENDROOT
BRANCH   4  26
HETATM   26  C   UNL     1      -7.811  14.014  68.506  1.00  0.00    -0.140 C  
HETATM   27  O   UNL     1      -7.552  14.495  67.389  1.00  0.00    -0.183 OA 
BRANCH  26  28
HETATM   28  C   UNL     1      -8.579  15.069  69.465  1.00  0.00    -0.068 C  
BRANCH  28  29
HETATM   29  O   UNL     1     -10.082  14.928  69.268  1.00  0.00    -0.224 OA 
BRANCH  29  30
HETATM   30  C   UNL     1     -10.957  15.954  69.546  1.00  0.00    -0.311 C  
HETATM   31  O   UNL     1     -11.355  16.212  70.672  1.00  0.00    -0.375 OA 
BRANCH  30  32
HETATM   32  C   UNL     1     -11.405  16.751  68.289  1.00  0.00    -0.051 C  
BRANCH  32  33
HETATM   33  C   UNL     1     -10.382  16.736  67.132  1.00  0.00    -0.297 C  
HETATM   34  C   UNL     1     -10.628  15.804  65.952  1.00  0.00    -0.339 C  
HETATM   35  O   UNL     1     -10.689  14.486  66.212  1.00  0.00    -0.298 OA 
HETATM   36  O   UNL     1     -10.755  16.216  64.806  1.00  0.00    -0.648 OA 
ENDBRANCH  32  33
ENDBRANCH  30  32
ENDBRANCH  29  30
ENDBRANCH  28  29
ENDBRANCH  26  28
ENDBRANCH   4  26
TORSDOF 6
ENDMDL
MODEL      103
REMARK 921   NORMALIZED FREE ENERGY PREDICTED BY IDOCK:   -4.56 KCAL/MOL
REMARK 922        TOTAL FREE ENERGY PREDICTED BY IDOCK:   -6.51 KCAL/MOL
REMARK 923 INTER-LIGAND FREE ENERGY PREDICTED BY IDOCK:   -7.05 KCAL/MOL
REMARK 924 INTRA-LIGAND FREE ENERGY PREDICTED BY IDOCK:    0.55 KCAL/MOL
REMARK 927      BINDING AFFINITY PREDICTED BY RF-SCORE:    0.00 PKD
ROOT
HETATM    1  C   UNL     1      -8.612  10.490  64.875  1.00  0.00    -0.179 C  
HETATM    2  C   UNL     1      -9.486   9.961  63.893  1.00  0.00    -0.207 C  
HETATM    3  C   UNL     1     -10.003  10.007  65.302  1.00  0.00    -0.368 C  
HETATM    4  C   UNL     1      -9.029  11.224  66.680  1.00  0.00    -0.176 C  
HETATM    5  C   UNL     1      -7.603   4.894  66.690  1.00  0.00    -0.088 C  
HETATM    6  O   UNL     1      -7.848  12.006  66.240  1.00  0.00    -0.371 OA 
HETATM    7  C   UNL     1     -10.029  11.447  65.777  1.00  0.00    -0.271 C  
HETATM    8  C   UNL     1     -10.475  12.674  65.039  1.00  0.00    -0.331 C  
HETATM    9  H   UNL     1      -7.404  12.562  66.869  1.00  0.00     0.000 HD 
HETATM   10  C   UNL     1      -8.424   4.405  67.804  1.00  0.00    -0.098 C  
HETATM   11  C   UNL     1      -7.537   6.239  66.646  1.00  0.00    -0.095 C  
HETATM   12  C   UNL     1     -11.014  10.474  67.095  1.00  0.00    -0.294 C  
HETATM   13  C   UNL     1      -5.952   6.100  64.666  1.00  0.00    -0.026 C  
HETATM   14  C   UNL     1     -10.034   9.258  67.831  1.00  0.00    -0.187 C  
HETATM   15  O   UNL     1      -9.254   9.943  68.829  1.00  0.00    -0.138 OA 
HETATM   16  C   UNL     1      -9.038   8.278  66.920  1.00  0.00    -0.181 C  
HETATM   17  C   UNL     1      -7.482   7.562  68.736  1.00  0.00    -0.097 C  
HETATM   18  C   UNL     1      -8.415   7.036  67.648  1.00  0.00    -0.123 C  
HETATM   19  C   UNL     1      -9.639   6.072  68.083  1.00  0.00    -0.122 C  
HETATM   20  H   UNL     1      -8.715   9.274  69.234  1.00  0.00     0.000 HD 
HETATM   21  C   UNL     1      -7.943   9.136  65.919  1.00  0.00    -0.106 C  
HETATM   22  C   UNL     1      -7.217   8.170  64.996  1.00  0.00    -0.076 C  
HETATM   23  O   UNL     1      -7.976   3.860  68.798  1.00  0.00    -0.066 OA 
HETATM   24  C   UNL     1      -6.584   6.994  65.732  1.00  0.00    -0.052 C  
HETATM   25  C   UNL     1      -9.878   4.815  67.667  1.00  0.00    -0.201 C  
ENDROOT
BRANCH   4  26
HETATM   26  C   UNL     1      -9.557  12.523  67.856  1.00  0.00    -0.206 C  
HETATM   27  O   UNL     1     -10.321  12.291  68.809  1.00  0.00    -0.211 OA 
BRANCH  26  28
HETATM   28  C   UNL     1      -9.212  14.099  67.716  1.00  0.00    -0.193 C  
BRANCH  28  29
HETATM   29  O   UNL     1     -10.508  14.895  67.647  1.00  0.00    -0.245 OA 
BRANCH  29  30
HETATM   30  C   UNL     1     -10.535  16.265  67.781  1.00  0.00    -0.295 C  
HETATM   31  O   UNL     1     -10.296  17.036  66.864  1.00  0.00    -0.308 OA 
BRANCH  30  32
HETATM   32  C   UNL     1     -10.887  16.745  69.217  1.00  0.00    -0.275 C  
BRANCH  32  33
HETATM   33  C   UNL     1     -10.697  15.669  70.309  1.00  0.00    -0.354 C  
HETATM   34  C   UNL     1     -11.933  15.091  70.986  1.00  0.00    -0.322 C  
HETATM   35  O   UNL     1     -12.727  15.947  71.653  1.00  0.00    -0.451 OA 
HETATM   36  O   UNL     1     -12.204  13.897  70.948  1.00  0.00    -0.342 OA 
ENDBRANCH  32  33
ENDBRANCH  30  32
ENDBRANCH  29  30
ENDBRANCH  28  29
ENDBRANCH  26  28
ENDBRANCH   4  26
TORSDOF 6
ENDMDL
MODEL      104
REMARK 921   NORMALIZED FREE ENERGY PREDICTED BY IDOCK:   -4.55 KCAL/MOL
REMARK 922        TOTAL FREE ENERGY PREDICTED BY IDOCK:   -6.49 KCAL/MOL
REMARK 923 INTER-LIGAND FREE ENERGY PREDICTED BY IDOCK:   -7.19 KCAL/MOL
REMARK 924 INTRA-LIGAND FREE ENERGY PREDICTED BY IDOCK:    0.70 KCAL/MOL
REMARK 927      BINDING AFFINITY PREDICTED BY RF-SCORE:    0.00 PKD
ROOT
HETATM    1  C   UNL     1     -12.050  12.160  68.946  1.00  0.00    -0.187 C  
HETATM    2  C   UNL     1     -11.833  13.115  69.969  1.00  0.00    -0.360 C  
HETATM    3  C   UNL     1     -10.615  12.436  69.412  1.00  0.00     0.200 C  
HETATM    4  C   UNL     1     -10.775  11.441  67.592  1.00  0.00    -0.216 C  
HETATM    5  C   UNL     1     -11.106   7.899  73.018  1.00  0.00    -0.379 C  
HETATM    6  O   UNL     1     -12.086  11.422  66.897  1.00  0.00    -0.243 OA 
HETATM    7  C   UNL     1     -10.510  12.738  67.929  1.00  0.00    -0.226 C  
HETATM    8  C   UNL     1     -10.729  14.038  67.215  1.00  0.00    -0.278 C  
HETATM    9  H   UNL     1     -12.159  10.968  66.066  1.00  0.00     0.000 HD 
HETATM   10  C   UNL     1      -9.741   7.367  73.111  1.00  0.00    -0.231 C  
HETATM   11  C   UNL     1     -11.359   8.473  71.825  1.00  0.00    -0.377 C  
HETATM   12  C   UNL     1      -8.833  11.946  68.393  1.00  0.00    -0.159 C  
HETATM   13  C   UNL     1     -13.756   8.911  72.541  1.00  0.00    -0.474 C  
HETATM   14  C   UNL     1      -9.049  10.350  69.016  1.00  0.00    -0.187 C  
HETATM   15  O   UNL     1      -9.200   9.503  67.862  1.00  0.00    -0.126 OA 
HETATM   16  C   UNL     1     -10.250  10.006  70.122  1.00  0.00    -0.297 C  
HETATM   17  C   UNL     1     -10.382   7.541  69.752  1.00  0.00    -0.221 C  
HETATM   18  C   UNL     1     -10.179   8.607  70.827  1.00  0.00    -0.250 C  
HETATM   19  C   UNL     1      -8.813   8.576  71.693  1.00  0.00    -0.272 C  
HETATM   20  H   UNL     1      -9.319   8.626  68.204  1.00  0.00     0.000 HD 
HETATM   21  C   UNL     1     -11.820  10.462  69.610  1.00  0.00    -0.252 C  
HETATM   22  C   UNL     1     -12.811  10.286  70.750  1.00  0.00    -0.427 C  
HETATM   23  O   UNL     1      -9.467   6.180  73.107  1.00  0.00    -0.139 OA 
HETATM   24  C   UNL     1     -12.751   8.904  71.390  1.00  0.00    -0.350 C  
HETATM   25  C   UNL     1      -8.693   8.461  73.028  1.00  0.00    -0.229 C  
ENDROOT
BRANCH   4  26
HETATM   26  C   UNL     1      -9.845  11.472  66.017  1.00  0.00    -0.225 C  
HETATM   27  O   UNL     1      -9.437  12.527  65.502  1.00  0.00    -0.106 OA 
BRANCH  26  28
HETATM   28  C   UNL     1      -9.573  10.184  65.073  1.00  0.00    -0.299 C  
BRANCH  28  29
HETATM   29  O   UNL     1      -8.073   9.986  64.909  1.00  0.00    -0.141 OA 
BRANCH  29  30
HETATM   30  C   UNL     1      -7.529   8.774  64.546  1.00  0.00    -0.106 C  
HETATM   31  O   UNL     1      -8.200   7.789  64.274  1.00  0.00    -0.121 OA 
BRANCH  30  32
HETATM   32  C   UNL     1      -5.975   8.768  64.524  1.00  0.00    -0.065 C  
BRANCH  32  33
HETATM   33  C   UNL     1      -5.321   9.113  65.881  1.00  0.00    -0.040 C  
HETATM   34  C   UNL     1      -5.569  10.492  66.480  1.00  0.00    -0.063 C  
HETATM   35  O   UNL     1      -5.168  11.556  65.763  1.00  0.00    -0.292 OA 
HETATM   36  O   UNL     1      -6.099  10.646  67.574  1.00  0.00    -0.051 OA 
ENDBRANCH  32  33
ENDBRANCH  30  32
ENDBRANCH  29  30
ENDBRANCH  28  29
ENDBRANCH  26  28
ENDBRANCH   4  26
TORSDOF 6
ENDMDL
MODEL      105
REMARK 921   NORMALIZED FREE ENERGY PREDICTED BY IDOCK:   -4.54 KCAL/MOL
REMARK 922        TOTAL FREE ENERGY PREDICTED BY IDOCK:   -6.47 KCAL/MOL
REMARK 923 INTER-LIGAND FREE ENERGY PREDICTED BY IDOCK:   -5.99 KCAL/MOL
REMARK 924 INTRA-LIGAND FREE ENERGY PREDICTED BY IDOCK:   -0.48 KCAL/MOL
REMARK 927      BINDING AFFINITY PREDICTED BY RF-SCORE:    0.00 PKD
ROOT
HETATM    1  C   UNL     1      -9.386   9.978  67.568  1.00  0.00    -0.162 C  
HETATM    2  C   UNL     1      -8.699  11.024  68.233  1.00  0.00    -0.144 C  
HETATM    3  C   UNL     1      -8.047   9.672  68.249  1.00  0.00    -0.105 C  
HETATM    4  C   UNL     1      -8.692   8.239  66.885  1.00  0.00    -0.134 C  
HETATM    5  C   UNL     1     -11.029   7.933  72.929  1.00  0.00    -0.452 C  
HETATM    6  O   UNL     1      -9.781   8.587  65.940  1.00  0.00    -0.440 OA 
HETATM    7  C   UNL     1      -7.762   9.239  66.823  1.00  0.00    -0.094 C  
HETATM    8  C   UNL     1      -7.214  10.046  65.685  1.00  0.00    -0.120 C  
HETATM    9  H   UNL     1     -10.076   7.933  65.317  1.00  0.00     0.000 HD 
HETATM   10  C   UNL     1     -10.186   6.889  73.523  1.00  0.00    -0.315 C  
HETATM   11  C   UNL     1     -10.900   8.006  71.590  1.00  0.00    -0.288 C  
HETATM   12  C   UNL     1      -6.809   7.994  67.918  1.00  0.00    -0.073 C  
HETATM   13  C   UNL     1     -12.673   9.823  71.513  1.00  0.00    -0.504 C  
HETATM   14  C   UNL     1      -7.882   7.138  68.966  1.00  0.00    -0.114 C  
HETATM   15  O   UNL     1      -8.451   6.089  68.160  1.00  0.00    -0.115 OA 
HETATM   16  C   UNL     1      -9.095   7.926  69.796  1.00  0.00    -0.146 C  
HETATM   17  C   UNL     1     -10.557   5.954  70.251  1.00  0.00    -0.354 C  
HETATM   18  C   UNL     1      -9.822   7.112  70.923  1.00  0.00    -0.182 C  
HETATM   19  C   UNL     1      -8.717   6.769  72.054  1.00  0.00    -0.126 C  
HETATM   20  H   UNL     1      -9.041   5.618  68.737  1.00  0.00     0.000 HD 
HETATM   21  C   UNL     1     -10.144   8.841  68.795  1.00  0.00    -0.213 C  
HETATM   22  C   UNL     1     -11.090   9.667  69.652  1.00  0.00    -0.223 C  
HETATM   23  O   UNL     1     -10.611   5.844  73.984  1.00  0.00    -0.270 OA 
HETATM   24  C   UNL     1     -11.815   8.845  70.711  1.00  0.00    -0.230 C  
HETATM   25  C   UNL     1      -8.707   7.173  73.337  1.00  0.00    -0.168 C  
ENDROOT
BRANCH   4  26
HETATM   26  C   UNL     1      -7.866   7.152  65.666  1.00  0.00    -0.112 C  
HETATM   27  O   UNL     1      -6.636   7.158  65.492  1.00  0.00    -0.046 OA 
BRANCH  26  28
HETATM   28  C   UNL     1      -8.631   6.188  64.613  1.00  0.00     0.115 C  
BRANCH  28  29
HETATM   29  O   UNL     1      -9.587   5.275  65.367  1.00  0.00    -0.076 OA 
BRANCH  29  30
HETATM   30  C   UNL     1     -10.007   4.068  64.854  1.00  0.00    -0.205 C  
HETATM   31  O   UNL     1     -11.047   3.928  64.228  1.00  0.00    -0.341 OA 
BRANCH  30  32
HETATM   32  C   UNL     1      -9.038   2.890  65.156  1.00  0.00    -0.148 C  
BRANCH  32  33
HETATM   33  C   UNL     1      -8.381   2.952  66.552  1.00  0.00    -0.095 C  
HETATM   34  C   UNL     1      -6.898   3.291  66.645  1.00  0.00    -0.053 C  
HETATM   35  O   UNL     1      -6.038   2.461  66.030  1.00  0.00    -0.022 OA 
HETATM   36  O   UNL     1      -6.486   4.267  67.260  1.00  0.00    -0.040 OA 
ENDBRANCH  32  33
ENDBRANCH  30  32
ENDBRANCH  29  30
ENDBRANCH  28  29
ENDBRANCH  26  28
ENDBRANCH   4  26
TORSDOF 6
ENDMDL
MODEL      106
REMARK 921   NORMALIZED FREE ENERGY PREDICTED BY IDOCK:   -4.54 KCAL/MOL
REMARK 922        TOTAL FREE ENERGY PREDICTED BY IDOCK:   -6.47 KCAL/MOL
REMARK 923 INTER-LIGAND FREE ENERGY PREDICTED BY IDOCK:   -7.12 KCAL/MOL
REMARK 924 INTRA-LIGAND FREE ENERGY PREDICTED BY IDOCK:    0.65 KCAL/MOL
REMARK 927      BINDING AFFINITY PREDICTED BY RF-SCORE:    0.00 PKD
ROOT
HETATM    1  C   UNL     1      -9.145  10.002  69.686  1.00  0.00    -0.230 C  
HETATM    2  C   UNL     1      -7.832   9.866  70.200  1.00  0.00    -0.186 C  
HETATM    3  C   UNL     1      -7.980   9.808  68.708  1.00  0.00    -0.087 C  
HETATM    4  C   UNL     1      -9.742  10.513  67.854  1.00  0.00    -0.153 C  
HETATM    5  C   UNL     1      -9.149   4.111  68.725  1.00  0.00    -0.188 C  
HETATM    6  O   UNL     1     -10.806  11.046  68.739  1.00  0.00    -0.182 OA 
HETATM    7  C   UNL     1      -8.570  11.116  68.213  1.00  0.00    -0.146 C  
HETATM    8  C   UNL     1      -8.235  12.517  68.629  1.00  0.00     0.001 C  
HETATM    9  H   UNL     1     -11.610  11.368  68.350  1.00  0.00     0.000 HD 
HETATM   10  C   UNL     1      -8.759   3.662  67.384  1.00  0.00    -0.115 C  
HETATM   11  C   UNL     1      -9.576   5.389  68.741  1.00  0.00    -0.182 C  
HETATM   12  C   UNL     1      -7.982  10.210  66.635  1.00  0.00    -0.116 C  
HETATM   13  C   UNL     1     -10.089   5.191  71.221  1.00  0.00    -0.278 C  
HETATM   14  C   UNL     1      -8.781   8.690  66.456  1.00  0.00    -0.126 C  
HETATM   15  O   UNL     1     -10.065   8.995  65.879  1.00  0.00    -0.418 OA 
HETATM   16  C   UNL     1      -8.983   7.659  67.752  1.00  0.00    -0.131 C  
HETATM   17  C   UNL     1     -10.869   6.302  66.840  1.00  0.00    -0.428 C  
HETATM   18  C   UNL     1      -9.462   6.201  67.424  1.00  0.00    -0.118 C  
HETATM   19  C   UNL     1      -8.306   5.506  66.532  1.00  0.00    -0.109 C  
HETATM   20  H   UNL     1     -10.504   8.159  65.781  1.00  0.00     0.000 HD 
HETATM   21  C   UNL     1      -9.763   8.375  69.099  1.00  0.00    -0.171 C  
HETATM   22  C   UNL     1      -9.729   7.425  70.285  1.00  0.00    -0.172 C  
HETATM   23  O   UNL     1      -9.399   2.871  66.713  1.00  0.00    -0.148 OA 
HETATM   24  C   UNL     1     -10.240   6.028  69.951  1.00  0.00    -0.265 C  
HETATM   25  C   UNL     1      -7.565   4.429  66.848  1.00  0.00    -0.085 C  
ENDROOT
BRANCH   4  26
HETATM   26  C   UNL     1     -10.147  11.693  66.516  1.00  0.00    -0.207 C  
HETATM   27  O   UNL     1     -11.062  11.490  65.700  1.00  0.00    -0.277 OA 
BRANCH  26  28
HETATM   28  C   UNL     1      -9.299  13.029  66.166  1.00  0.00    -0.080 C  
BRANCH  28  29
HETATM   29  O   UNL     1     -10.064  14.253  66.648  1.00  0.00    -0.261 OA 
BRANCH  29  30
HETATM   30  C   UNL     1      -9.445  15.460  66.879  1.00  0.00    -0.230 C  
HETATM   31  O   UNL     1      -8.489  15.862  66.232  1.00  0.00    -0.311 OA 
BRANCH  30  32
HETATM   32  C   UNL     1     -10.066  16.266  68.054  1.00  0.00    -0.245 C  
BRANCH  32  33
HETATM   33  C   UNL     1     -10.849  17.524  67.615  1.00  0.00    -0.229 C  
HETATM   34  C   UNL     1     -10.144  18.553  66.740  1.00  0.00    -0.380 C  
HETATM   35  O   UNL     1      -9.045  19.139  67.243  1.00  0.00    -0.289 OA 
HETATM   36  O   UNL     1     -10.554  18.856  65.626  1.00  0.00    -0.575 OA 
ENDBRANCH  32  33
ENDBRANCH  30  32
ENDBRANCH  29  30
ENDBRANCH  28  29
ENDBRANCH  26  28
ENDBRANCH   4  26
TORSDOF 6
ENDMDL
MODEL      107
REMARK 921   NORMALIZED FREE ENERGY PREDICTED BY IDOCK:   -4.48 KCAL/MOL
REMARK 922        TOTAL FREE ENERGY PREDICTED BY IDOCK:   -6.39 KCAL/MOL
REMARK 923 INTER-LIGAND FREE ENERGY PREDICTED BY IDOCK:   -6.17 KCAL/MOL
REMARK 924 INTRA-LIGAND FREE ENERGY PREDICTED BY IDOCK:   -0.22 KCAL/MOL
REMARK 927      BINDING AFFINITY PREDICTED BY RF-SCORE:    0.00 PKD
ROOT
HETATM    1  C   UNL     1      -7.918  14.704  68.291  1.00  0.00    -0.133 C  
HETATM    2  C   UNL     1      -7.080  15.300  67.318  1.00  0.00    -0.187 C  
HETATM    3  C   UNL     1      -8.491  15.005  66.901  1.00  0.00    -0.269 C  
HETATM    4  C   UNL     1      -9.908  14.635  68.379  1.00  0.00    -0.220 C  
HETATM    5  C   UNL     1      -7.242   9.528  65.396  1.00  0.00    -0.095 C  
HETATM    6  O   UNL     1      -9.488  14.665  69.801  1.00  0.00    -0.396 OA 
HETATM    7  C   UNL     1      -9.446  15.778  67.791  1.00  0.00    -0.212 C  
HETATM    8  C   UNL     1      -9.350  17.197  68.266  1.00  0.00    -0.265 C  
HETATM    9  H   UNL     1     -10.134  14.497  70.476  1.00  0.00     0.000 HD 
HETATM   10  C   UNL     1      -8.275   9.183  64.413  1.00  0.00    -0.158 C  
HETATM   11  C   UNL     1      -7.673  10.415  66.313  1.00  0.00    -0.129 C  
HETATM   12  C   UNL     1     -10.530  15.112  66.364  1.00  0.00    -0.300 C  
HETATM   13  C   UNL     1      -5.435  10.275  67.507  1.00  0.00    -0.041 C  
HETATM   14  C   UNL     1     -10.487  13.386  66.304  1.00  0.00    -0.289 C  
HETATM   15  O   UNL     1     -11.423  12.943  67.305  1.00  0.00    -0.298 OA 
HETATM   16  C   UNL     1      -9.055  12.548  66.468  1.00  0.00    -0.177 C  
HETATM   17  C   UNL     1     -10.006  10.338  67.132  1.00  0.00    -0.243 C  
HETATM   18  C   UNL     1      -9.089  11.019  66.119  1.00  0.00    -0.208 C  
HETATM   19  C   UNL     1      -9.450  10.895  64.547  1.00  0.00    -0.284 C  
HETATM   20  H   UNL     1     -11.399  11.994  67.272  1.00  0.00     0.000 HD 
HETATM   21  C   UNL     1      -8.183  12.930  67.893  1.00  0.00    -0.165 C  
HETATM   22  C   UNL     1      -6.815  12.266  67.860  1.00  0.00    -0.093 C  
HETATM   23  O   UNL     1      -8.847   8.107  64.370  1.00  0.00     0.151 OA 
HETATM   24  C   UNL     1      -6.879  10.773  67.561  1.00  0.00    -0.079 C  
HETATM   25  C   UNL     1      -8.686  10.375  63.570  1.00  0.00    -0.201 C  
ENDROOT
BRANCH   4  26
HETATM   26  C   UNL     1     -11.570  15.294  68.769  1.00  0.00    -0.362 C  
HETATM   27  O   UNL     1     -12.243  15.941  67.947  1.00  0.00     0.337 OA 
BRANCH  26  28
HETATM   28  C   UNL     1     -12.276  15.232  70.226  1.00  0.00    -0.363 C  
BRANCH  28  29
HETATM   29  O   UNL     1     -13.157  13.994  70.307  1.00  0.00    -0.123 OA 
BRANCH  29  30
HETATM   30  C   UNL     1     -12.653  12.757  70.642  1.00  0.00    -0.168 C  
HETATM   31  O   UNL     1     -11.784  12.187  69.998  1.00  0.00    -0.308 OA 
BRANCH  30  32
HETATM   32  C   UNL     1     -13.301  12.141  71.913  1.00  0.00    -0.421 C  
BRANCH  32  33
HETATM   33  C   UNL     1     -12.765  10.741  72.283  1.00  0.00     0.186 C  
HETATM   34  C   UNL     1     -13.080   9.572  71.358  1.00  0.00    -0.370 C  
HETATM   35  O   UNL     1     -14.375   9.271  71.167  1.00  0.00    -0.088 OA 
HETATM   36  O   UNL     1     -12.203   8.913  70.812  1.00  0.00    -0.198 OA 
ENDBRANCH  32  33
ENDBRANCH  30  32
ENDBRANCH  29  30
ENDBRANCH  28  29
ENDBRANCH  26  28
ENDBRANCH   4  26
TORSDOF 6
ENDMDL
MODEL      108
REMARK 921   NORMALIZED FREE ENERGY PREDICTED BY IDOCK:   -4.42 KCAL/MOL
REMARK 922        TOTAL FREE ENERGY PREDICTED BY IDOCK:   -6.32 KCAL/MOL
REMARK 923 INTER-LIGAND FREE ENERGY PREDICTED BY IDOCK:   -6.94 KCAL/MOL
REMARK 924 INTRA-LIGAND FREE ENERGY PREDICTED BY IDOCK:    0.62 KCAL/MOL
REMARK 927      BINDING AFFINITY PREDICTED BY RF-SCORE:    0.00 PKD
ROOT
HETATM    1  C   UNL     1     -10.294   7.900  71.307  1.00  0.00    -0.222 C  
HETATM    2  C   UNL     1      -9.559   8.660  72.249  1.00  0.00    -0.348 C  
HETATM    3  C   UNL     1      -8.819   8.211  71.022  1.00  0.00    -0.163 C  
HETATM    4  C   UNL     1      -9.919   7.569  69.377  1.00  0.00    -0.178 C  
HETATM    5  C   UNL     1      -7.470   3.048  73.334  1.00  0.00    -0.051 C  
HETATM    6  O   UNL     1     -11.400   7.564  69.461  1.00  0.00    -0.457 OA 
HETATM    7  C   UNL     1      -9.490   8.797  69.794  1.00  0.00    -0.168 C  
HETATM    8  C   UNL     1     -10.019  10.183  69.581  1.00  0.00    -0.262 C  
HETATM    9  H   UNL     1     -11.903   7.271  68.710  1.00  0.00     0.000 HD 
HETATM   10  C   UNL     1      -6.266   2.634  72.605  1.00  0.00    -0.009 C  
HETATM   11  C   UNL     1      -8.291   3.812  72.588  1.00  0.00    -0.090 C  
HETATM   12  C   UNL     1      -7.832   8.086  69.161  1.00  0.00    -0.108 C  
HETATM   13  C   UNL     1      -9.963   3.889  74.499  1.00  0.00    -0.205 C  
HETATM   14  C   UNL     1      -7.729   6.388  69.458  1.00  0.00    -0.100 C  
HETATM   15  O   UNL     1      -8.474   5.765  68.394  1.00  0.00    -0.109 OA 
HETATM   16  C   UNL     1      -8.192   5.734  70.921  1.00  0.00    -0.121 C  
HETATM   17  C   UNL     1      -8.548   3.382  70.166  1.00  0.00    -0.109 C  
HETATM   18  C   UNL     1      -7.796   4.239  71.181  1.00  0.00    -0.071 C  
HETATM   19  C   UNL     1      -6.180   4.168  71.201  1.00  0.00    -0.015 C  
HETATM   20  H   UNL     1      -8.417   4.831  68.558  1.00  0.00     0.000 HD 
HETATM   21  C   UNL     1      -9.790   6.136  71.389  1.00  0.00    -0.200 C  
HETATM   22  C   UNL     1     -10.051   5.658  72.809  1.00  0.00    -0.205 C  
HETATM   23  O   UNL     1      -6.058   1.498  72.215  1.00  0.00    -0.008 OA 
HETATM   24  C   UNL     1      -9.699   4.191  73.025  1.00  0.00    -0.167 C  
HETATM   25  C   UNL     1      -5.389   3.814  72.230  1.00  0.00     0.000 C  
ENDROOT
BRANCH   4  26
HETATM   26  C   UNL     1      -9.937   7.981  67.594  1.00  0.00    -0.180 C  
HETATM   27  O   UNL     1     -10.901   7.713  66.856  1.00  0.00    -0.328 OA 
BRANCH  26  28
HETATM   28  C   UNL     1      -8.687   8.598  66.771  1.00  0.00    -0.124 C  
BRANCH  28  29
HETATM   29  O   UNL     1      -9.163   9.785  65.945  1.00  0.00    -0.162 OA 
BRANCH  29  30
HETATM   30  C   UNL     1      -9.210   9.749  64.569  1.00  0.00    -0.253 C  
HETATM   31  O   UNL     1      -8.526   8.996  63.892  1.00  0.00    -0.182 OA 
BRANCH  30  32
HETATM   32  C   UNL     1     -10.210  10.766  63.951  1.00  0.00    -0.377 C  
BRANCH  32  33
HETATM   33  C   UNL     1     -10.483  12.003  64.835  1.00  0.00    -0.325 C  
HETATM   34  C   UNL     1     -11.916  12.501  64.970  1.00  0.00    -0.427 C  
HETATM   35  O   UNL     1     -12.541  12.889  63.845  1.00  0.00    -0.647 OA 
HETATM   36  O   UNL     1     -12.489  12.565  66.051  1.00  0.00    -0.565 OA 
ENDBRANCH  32  33
ENDBRANCH  30  32
ENDBRANCH  29  30
ENDBRANCH  28  29
ENDBRANCH  26  28
ENDBRANCH   4  26
TORSDOF 6
ENDMDL
MODEL      109
REMARK 921   NORMALIZED FREE ENERGY PREDICTED BY IDOCK:   -4.36 KCAL/MOL
REMARK 922        TOTAL FREE ENERGY PREDICTED BY IDOCK:   -6.23 KCAL/MOL
REMARK 923 INTER-LIGAND FREE ENERGY PREDICTED BY IDOCK:   -5.87 KCAL/MOL
REMARK 924 INTRA-LIGAND FREE ENERGY PREDICTED BY IDOCK:   -0.36 KCAL/MOL
REMARK 927      BINDING AFFINITY PREDICTED BY RF-SCORE:    0.00 PKD
ROOT
HETATM    1  C   UNL     1     -10.471  10.652  69.206  1.00  0.00    -0.252 C  
HETATM    2  C   UNL     1     -11.834  10.281  69.099  1.00  0.00    -0.039 C  
HETATM    3  C   UNL     1     -11.004  10.163  67.854  1.00  0.00    -0.335 C  
HETATM    4  C   UNL     1      -8.931  10.171  68.035  1.00  0.00    -0.125 C  
HETATM    5  C   UNL     1     -11.847  15.726  66.380  1.00  0.00     0.734 C  
HETATM    6  O   UNL     1      -8.329  10.300  69.384  1.00  0.00    -0.151 OA 
HETATM    7  C   UNL     1      -9.872   9.183  68.099  1.00  0.00    -0.188 C  
HETATM    8  C   UNL     1      -9.909   7.861  68.805  1.00  0.00    -0.171 C  
HETATM    9  H   UNL     1      -7.382  10.304  69.467  1.00  0.00     0.000 HD 
HETATM   10  C   UNL     1     -11.652  15.744  64.925  1.00  0.00    -0.104 C  
HETATM   11  C   UNL     1     -11.106  14.781  66.991  1.00  0.00    -0.333 C  
HETATM   12  C   UNL     1      -9.866   9.483  66.211  1.00  0.00    -0.334 C  
HETATM   13  C   UNL     1     -11.960  15.569  69.250  1.00  0.00    -0.338 C  
HETATM   14  C   UNL     1      -9.604  11.150  65.847  1.00  0.00    -0.218 C  
HETATM   15  O   UNL     1      -8.182  11.348  65.946  1.00  0.00    -0.352 OA 
HETATM   16  C   UNL     1     -10.395  12.355  66.686  1.00  0.00    -0.245 C  
HETATM   17  C   UNL     1      -8.839  14.236  66.164  1.00  0.00     0.268 C  
HETATM   18  C   UNL     1     -10.302  13.805  66.093  1.00  0.00    -0.301 C  
HETATM   19  C   UNL     1     -11.027  13.778  64.647  1.00  0.00    -0.406 C  
HETATM   20  H   UNL     1      -8.038  12.265  65.745  1.00  0.00     0.000 HD 
HETATM   21  C   UNL     1     -10.191  12.271  68.385  1.00  0.00    -0.220 C  
HETATM   22  C   UNL     1     -11.095  13.285  69.068  1.00  0.00    -0.291 C  
HETATM   23  O   UNL     1     -11.052  16.618  64.325  1.00  0.00    -1.029 OA 
HETATM   24  C   UNL     1     -10.955  14.693  68.502  1.00  0.00    -0.261 C  
HETATM   25  C   UNL     1     -12.124  14.460  64.268  1.00  0.00    -0.461 C  
ENDROOT
BRANCH   4  26
HETATM   26  C   UNL     1      -7.579   9.091  67.441  1.00  0.00    -0.088 C  
HETATM   27  O   UNL     1      -7.658   8.440  66.385  1.00  0.00    -0.082 OA 
BRANCH  26  28
HETATM   28  C   UNL     1      -6.223   8.762  68.265  1.00  0.00    -0.054 C  
BRANCH  28  29
HETATM   29  O   UNL     1      -6.385   7.436  68.994  1.00  0.00    -0.037 OA 
BRANCH  29  30
HETATM   30  C   UNL     1      -6.734   7.369  70.324  1.00  0.00    -0.047 C  
HETATM   31  O   UNL     1      -6.968   8.354  71.009  1.00  0.00    -0.047 OA 
BRANCH  30  32
HETATM   32  C   UNL     1      -6.791   5.920  70.883  1.00  0.00    -0.062 C  
BRANCH  32  33
HETATM   33  C   UNL     1      -8.155   5.220  70.692  1.00  0.00    -0.108 C  
HETATM   34  C   UNL     1      -8.285   4.164  69.602  1.00  0.00    -0.058 C  
HETATM   35  O   UNL     1      -8.055   4.554  68.336  1.00  0.00    -0.082 OA 
HETATM   36  O   UNL     1      -8.598   3.005  69.846  1.00  0.00    -0.054 OA 
ENDBRANCH  32  33
ENDBRANCH  30  32
ENDBRANCH  29  30
ENDBRANCH  28  29
ENDBRANCH  26  28
ENDBRANCH   4  26
TORSDOF 6
ENDMDL
MODEL      110
REMARK 921   NORMALIZED FREE ENERGY PREDICTED BY IDOCK:   -4.29 KCAL/MOL
REMARK 922        TOTAL FREE ENERGY PREDICTED BY IDOCK:   -6.14 KCAL/MOL
REMARK 923 INTER-LIGAND FREE ENERGY PREDICTED BY IDOCK:   -6.10 KCAL/MOL
REMARK 924 INTRA-LIGAND FREE ENERGY PREDICTED BY IDOCK:   -0.04 KCAL/MOL
REMARK 927      BINDING AFFINITY PREDICTED BY RF-SCORE:    0.00 PKD
ROOT
HETATM    1  C   UNL     1      -9.974  14.246  69.784  1.00  0.00     0.532 C  
HETATM    2  C   UNL     1     -10.785  15.020  70.650  1.00  0.00    -0.068 C  
HETATM    3  C   UNL     1     -11.263  14.868  69.235  1.00  0.00    -0.300 C  
HETATM    4  C   UNL     1     -10.446  13.354  68.065  1.00  0.00    -0.239 C  
HETATM    5  C   UNL     1      -8.080  19.351  67.341  1.00  0.00    -0.313 C  
HETATM    6  O   UNL     1      -9.410  12.471  68.654  1.00  0.00    -0.379 OA 
HETATM    7  C   UNL     1     -11.494  13.398  68.941  1.00  0.00    -0.347 C  
HETATM    8  C   UNL     1     -12.140  12.355  69.802  1.00  0.00    -0.292 C  
HETATM    9  H   UNL     1      -9.037  11.779  68.120  1.00  0.00     0.000 HD 
HETATM   10  C   UNL     1      -8.785  19.808  66.137  1.00  0.00    -0.332 C  
HETATM   11  C   UNL     1      -8.219  18.029  67.554  1.00  0.00    -0.235 C  
HETATM   12  C   UNL     1     -12.282  14.326  67.467  1.00  0.00    -0.237 C  
HETATM   13  C   UNL     1      -6.687  18.189  69.574  1.00  0.00    -0.103 C  
HETATM   14  C   UNL     1     -11.109  15.281  66.634  1.00  0.00    -0.276 C  
HETATM   15  O   UNL     1     -10.414  14.366  65.766  1.00  0.00    -0.291 OA 
HETATM   16  C   UNL     1     -10.002  16.213  67.463  1.00  0.00    -0.243 C  
HETATM   17  C   UNL     1      -8.305  16.453  65.648  1.00  0.00     0.779 C  
HETATM   18  C   UNL     1      -9.178  17.247  66.618  1.00  0.00    -0.275 C  
HETATM   19  C   UNL     1     -10.230  18.315  66.010  1.00  0.00    -0.334 C  
HETATM   20  H   UNL     1      -9.769  14.891  65.308  1.00  0.00     0.000 HD 
HETATM   21  C   UNL     1      -9.078  15.341  68.613  1.00  0.00    -0.193 C  
HETATM   22  C   UNL     1      -8.241  16.301  69.443  1.00  0.00    -0.035 C  
HETATM   23  O   UNL     1      -8.232  20.148  65.106  1.00  0.00     0.034 OA 
HETATM   24  C   UNL     1      -7.418  17.266  68.598  1.00  0.00    -0.251 C  
HETATM   25  C   UNL     1     -10.288  19.636  66.255  1.00  0.00    -0.619 C  
ENDROOT
BRANCH   4  26
HETATM   26  C   UNL     1     -11.131  12.006  67.035  1.00  0.00    -0.298 C  
HETATM   27  O   UNL     1     -12.268  12.058  66.536  1.00  0.00    -0.548 OA 
BRANCH  26  28
HETATM   28  C   UNL     1     -10.412  10.577  66.776  1.00  0.00    -0.242 C  
BRANCH  28  29
HETATM   29  O   UNL     1     -10.377   9.788  68.077  1.00  0.00    -0.183 OA 
BRANCH  29  30
HETATM   30  C   UNL     1     -10.039   8.454  68.117  1.00  0.00    -0.200 C  
HETATM   31  O   UNL     1     -10.744   7.567  67.657  1.00  0.00    -0.239 OA 
BRANCH  30  32
HETATM   32  C   UNL     1      -8.678   8.174  68.813  1.00  0.00    -0.138 C  
BRANCH  32  33
HETATM   33  C   UNL     1      -7.614   9.271  68.587  1.00  0.00    -0.081 C  
HETATM   34  C   UNL     1      -6.454   8.978  67.644  1.00  0.00    -0.060 C  
HETATM   35  O   UNL     1      -5.649   7.949  67.959  1.00  0.00    -0.031 OA 
HETATM   36  O   UNL     1      -6.238   9.649  66.642  1.00  0.00    -0.063 OA 
ENDBRANCH  32  33
ENDBRANCH  30  32
ENDBRANCH  29  30
ENDBRANCH  28  29
ENDBRANCH  26  28
ENDBRANCH   4  26
TORSDOF 6
ENDMDL
MODEL      111
REMARK 921   NORMALIZED FREE ENERGY PREDICTED BY IDOCK:   -4.25 KCAL/MOL
REMARK 922        TOTAL FREE ENERGY PREDICTED BY IDOCK:   -6.09 KCAL/MOL
REMARK 923 INTER-LIGAND FREE ENERGY PREDICTED BY IDOCK:   -6.01 KCAL/MOL
REMARK 924 INTRA-LIGAND FREE ENERGY PREDICTED BY IDOCK:   -0.08 KCAL/MOL
REMARK 927      BINDING AFFINITY PREDICTED BY RF-SCORE:    0.00 PKD
ROOT
HETATM    1  C   UNL     1     -11.554  13.483  66.748  1.00  0.00    -0.397 C  
HETATM    2  C   UNL     1     -11.702  14.254  65.569  1.00  0.00    -0.353 C  
HETATM    3  C   UNL     1     -10.432  13.465  65.702  1.00  0.00    -0.293 C  
HETATM    4  C   UNL     1     -10.358  11.928  67.103  1.00  0.00    -0.210 C  
HETATM    5  C   UNL     1      -7.773  17.648  68.742  1.00  0.00    -0.246 C  
HETATM    6  O   UNL     1     -11.555  11.658  67.937  1.00  0.00    -0.366 OA 
HETATM    7  C   UNL     1     -10.771  11.989  65.802  1.00  0.00    -0.319 C  
HETATM    8  C   UNL     1     -11.773  11.197  65.017  1.00  0.00     0.531 C  
HETATM    9  H   UNL     1     -11.522  10.957  68.576  1.00  0.00     0.000 HD 
HETATM   10  C   UNL     1      -6.344  17.410  68.505  1.00  0.00    -0.176 C  
HETATM   11  C   UNL     1      -8.501  16.516  68.709  1.00  0.00    -0.248 C  
HETATM   12  C   UNL     1      -8.879  12.045  65.531  1.00  0.00     0.353 C  
HETATM   13  C   UNL     1     -10.589  17.836  69.300  1.00  0.00     0.170 C  
HETATM   14  C   UNL     1      -8.095  12.920  66.797  1.00  0.00     0.154 C  
HETATM   15  O   UNL     1      -7.974  11.990  67.889  1.00  0.00    -0.128 OA 
HETATM   16  C   UNL     1      -8.707  14.366  67.360  1.00  0.00    -0.214 C  
HETATM   17  C   UNL     1      -7.566  14.397  69.580  1.00  0.00     0.083 C  
HETATM   18  C   UNL     1      -7.775  15.206  68.302  1.00  0.00    -0.117 C  
HETATM   19  C   UNL     1      -6.476  15.628  67.436  1.00  0.00    -0.172 C  
HETATM   20  H   UNL     1      -7.542  12.471  68.586  1.00  0.00     0.000 HD 
HETATM   21  C   UNL     1     -10.340  14.279  67.873  1.00  0.00    -0.233 C  
HETATM   22  C   UNL     1     -10.861  15.673  68.185  1.00  0.00    -0.301 C  
HETATM   23  O   UNL     1      -5.484  17.491  69.365  1.00  0.00    -0.180 OA 
HETATM   24  C   UNL     1      -9.960  16.453  69.136  1.00  0.00    -0.273 C  
HETATM   25  C   UNL     1      -6.077  16.872  67.112  1.00  0.00    -0.208 C  
ENDROOT
BRANCH   4  26
HETATM   26  C   UNL     1      -9.886  10.161  67.058  1.00  0.00    -0.191 C  
HETATM   27  O   UNL     1     -10.229   9.401  66.136  1.00  0.00    -0.279 OA 
BRANCH  26  28
HETATM   28  C   UNL     1      -9.109   9.376  68.244  1.00  0.00    -0.128 C  
BRANCH  28  29
HETATM   29  O   UNL     1      -9.543   9.939  69.590  1.00  0.00    -0.203 OA 
BRANCH  29  30
HETATM   30  C   UNL     1      -9.109   9.405  70.782  1.00  0.00    -0.204 C  
HETATM   31  O   UNL     1      -7.939   9.410  71.136  1.00  0.00    -0.322 OA 
BRANCH  30  32
HETATM   32  C   UNL     1     -10.247   8.779  71.637  1.00  0.00    -0.394 C  
BRANCH  32  33
HETATM   33  C   UNL     1     -11.636   8.807  70.961  1.00  0.00    -0.337 C  
HETATM   34  C   UNL     1     -12.546  10.002  71.215  1.00  0.00    -0.393 C  
HETATM   35  O   UNL     1     -12.912  10.238  72.487  1.00  0.00    -0.161 OA 
HETATM   36  O   UNL     1     -12.948  10.723  70.310  1.00  0.00    -0.257 OA 
ENDBRANCH  32  33
ENDBRANCH  30  32
ENDBRANCH  29  30
ENDBRANCH  28  29
ENDBRANCH  26  28
ENDBRANCH   4  26
TORSDOF 6
ENDMDL
MODEL      112
REMARK 921   NORMALIZED FREE ENERGY PREDICTED BY IDOCK:   -4.25 KCAL/MOL
REMARK 922        TOTAL FREE ENERGY PREDICTED BY IDOCK:   -6.09 KCAL/MOL
REMARK 923 INTER-LIGAND FREE ENERGY PREDICTED BY IDOCK:   -6.14 KCAL/MOL
REMARK 924 INTRA-LIGAND FREE ENERGY PREDICTED BY IDOCK:    0.06 KCAL/MOL
REMARK 927      BINDING AFFINITY PREDICTED BY RF-SCORE:    0.00 PKD
ROOT
HETATM    1  C   UNL     1      -9.690  10.917  67.538  1.00  0.00    -0.187 C  
HETATM    2  C   UNL     1     -10.793  10.958  66.650  1.00  0.00    -0.258 C  
HETATM    3  C   UNL     1     -10.641   9.715  67.478  1.00  0.00    -0.339 C  
HETATM    4  C   UNL     1      -9.403   9.778  69.149  1.00  0.00    -0.182 C  
HETATM    5  C   UNL     1      -6.990   7.244  63.686  1.00  0.00    -0.062 C  
HETATM    6  O   UNL     1      -8.698  11.042  69.473  1.00  0.00    -0.377 OA 
HETATM    7  C   UNL     1     -10.719  10.083  68.948  1.00  0.00    -0.243 C  
HETATM    8  C   UNL     1     -11.657  11.032  69.633  1.00  0.00    -0.390 C  
HETATM    9  H   UNL     1      -8.132  11.072  70.236  1.00  0.00     0.000 HD 
HETATM   10  C   UNL     1      -7.138   5.805  63.933  1.00  0.00    -0.052 C  
HETATM   11  C   UNL     1      -7.196   7.985  64.792  1.00  0.00    -0.078 C  
HETATM   12  C   UNL     1     -10.833   8.176  68.910  1.00  0.00     0.004 C  
HETATM   13  C   UNL     1      -6.639  10.093  63.489  1.00  0.00    -0.129 C  
HETATM   14  C   UNL     1      -9.427   7.482  68.186  1.00  0.00    -0.143 C  
HETATM   15  O   UNL     1      -8.429   7.464  69.224  1.00  0.00    -0.134 OA 
HETATM   16  C   UNL     1      -8.769   8.115  66.790  1.00  0.00    -0.145 C  
HETATM   17  C   UNL     1      -6.475   7.157  67.008  1.00  0.00    -0.058 C  
HETATM   18  C   UNL     1      -7.676   7.249  66.071  1.00  0.00    -0.095 C  
HETATM   19  C   UNL     1      -8.389   5.878  65.595  1.00  0.00    -0.143 C  
HETATM   20  H   UNL     1      -7.656   7.083  68.826  1.00  0.00     0.000 HD 
HETATM   21  C   UNL     1      -8.398   9.785  66.889  1.00  0.00    -0.120 C  
HETATM   22  C   UNL     1      -7.987  10.308  65.521  1.00  0.00    -0.151 C  
HETATM   23  O   UNL     1      -6.209   5.016  63.959  1.00  0.00    -0.021 OA 
HETATM   24  C   UNL     1      -6.894   9.474  64.862  1.00  0.00    -0.102 C  
HETATM   25  C   UNL     1      -8.553   5.435  64.335  1.00  0.00    -0.060 C  
ENDROOT
BRANCH   4  26
HETATM   26  C   UNL     1      -9.591   9.332  70.914  1.00  0.00    -0.269 C  
HETATM   27  O   UNL     1      -8.616   9.123  71.657  1.00  0.00    -0.342 OA 
BRANCH  26  28
HETATM   28  C   UNL     1     -11.001   9.032  71.652  1.00  0.00    -0.365 C  
BRANCH  28  29
HETATM   29  O   UNL     1     -10.755   8.162  72.877  1.00  0.00    -0.352 OA 
BRANCH  29  30
HETATM   30  C   UNL     1     -11.159   6.848  72.935  1.00  0.00    -0.261 C  
HETATM   31  O   UNL     1     -11.997   6.367  72.186  1.00  0.00    -0.325 OA 
BRANCH  30  32
HETATM   32  C   UNL     1     -10.458   6.028  74.054  1.00  0.00    -0.272 C  
BRANCH  32  33
HETATM   33  C   UNL     1      -9.790   4.725  73.561  1.00  0.00    -0.169 C  
HETATM   34  C   UNL     1      -8.563   4.829  72.664  1.00  0.00    -0.115 C  
HETATM   35  O   UNL     1      -8.714   5.461  71.487  1.00  0.00    -0.132 OA 
HETATM   36  O   UNL     1      -7.479   4.352  72.977  1.00  0.00    -0.076 OA 
ENDBRANCH  32  33
ENDBRANCH  30  32
ENDBRANCH  29  30
ENDBRANCH  28  29
ENDBRANCH  26  28
ENDBRANCH   4  26
TORSDOF 6
ENDMDL
MODEL      113
REMARK 921   NORMALIZED FREE ENERGY PREDICTED BY IDOCK:   -4.21 KCAL/MOL
REMARK 922        TOTAL FREE ENERGY PREDICTED BY IDOCK:   -6.04 KCAL/MOL
REMARK 923 INTER-LIGAND FREE ENERGY PREDICTED BY IDOCK:   -6.08 KCAL/MOL
REMARK 924 INTRA-LIGAND FREE ENERGY PREDICTED BY IDOCK:    0.04 KCAL/MOL
REMARK 927      BINDING AFFINITY PREDICTED BY RF-SCORE:    0.00 PKD
ROOT
HETATM    1  C   UNL     1     -10.810   6.560  68.548  1.00  0.00    -0.353 C  
HETATM    2  C   UNL     1     -10.670   5.445  69.410  1.00  0.00    -0.226 C  
HETATM    3  C   UNL     1      -9.498   6.378  69.320  1.00  0.00    -0.140 C  
HETATM    4  C   UNL     1      -9.795   8.275  68.520  1.00  0.00    -0.176 C  
HETATM    5  C   UNL     1      -7.324   3.705  64.634  1.00  0.00    -0.068 C  
HETATM    6  O   UNL     1     -11.152   8.653  68.054  1.00  0.00    -0.470 OA 
HETATM    7  C   UNL     1      -9.923   7.760  69.778  1.00  0.00    -0.189 C  
HETATM    8  C   UNL     1     -10.778   8.142  70.949  1.00  0.00    -0.246 C  
HETATM    9  H   UNL     1     -11.289   9.519  67.689  1.00  0.00     0.000 HD 
HETATM   10  C   UNL     1      -5.891   4.021  64.675  1.00  0.00    -0.014 C  
HETATM   11  C   UNL     1      -8.086   4.676  65.173  1.00  0.00    -0.104 C  
HETATM   12  C   UNL     1      -8.017   7.841  69.668  1.00  0.00    -0.116 C  
HETATM   13  C   UNL     1     -10.182   3.377  64.565  1.00  0.00    -0.090 C  
HETATM   14  C   UNL     1      -7.471   7.508  68.064  1.00  0.00    -0.105 C  
HETATM   15  O   UNL     1      -7.628   8.742  67.340  1.00  0.00    -0.088 OA 
HETATM   16  C   UNL     1      -8.114   6.252  67.173  1.00  0.00    -0.109 C  
HETATM   17  C   UNL     1      -7.462   7.055  64.901  1.00  0.00    -0.095 C  
HETATM   18  C   UNL     1      -7.358   5.866  65.854  1.00  0.00    -0.076 C  
HETATM   19  C   UNL     1      -5.886   5.346  66.279  1.00  0.00    -0.018 C  
HETATM   20  H   UNL     1      -7.328   8.559  66.457  1.00  0.00     0.000 HD 
HETATM   21  C   UNL     1      -9.820   6.306  67.023  1.00  0.00    -0.185 C  
HETATM   22  C   UNL     1     -10.324   5.031  66.364  1.00  0.00    -0.335 C  
HETATM   23  O   UNL     1      -5.227   4.315  63.696  1.00  0.00    -0.008 OA 
HETATM   24  C   UNL     1      -9.603   4.701  65.063  1.00  0.00    -0.113 C  
HETATM   25  C   UNL     1      -5.367   4.119  66.095  1.00  0.00    -0.013 C  
ENDROOT
BRANCH   4  26
HETATM   26  C   UNL     1      -9.414   9.980  69.062  1.00  0.00    -0.187 C  
HETATM   27  O   UNL     1      -8.614  10.226  69.982  1.00  0.00    -0.090 OA 
BRANCH  26  28
HETATM   28  C   UNL     1     -10.153  11.316  68.519  1.00  0.00    -0.204 C  
BRANCH  28  29
HETATM   29  O   UNL     1     -10.360  11.201  67.016  1.00  0.00    -0.206 OA 
BRANCH  29  30
HETATM   30  C   UNL     1     -10.285  12.293  66.180  1.00  0.00    -0.239 C  
HETATM   31  O   UNL     1     -10.450  12.228  64.971  1.00  0.00    -0.273 OA 
BRANCH  30  32
HETATM   32  C   UNL     1      -9.956  13.622  66.916  1.00  0.00    -0.260 C  
BRANCH  32  33
HETATM   33  C   UNL     1     -11.165  14.569  67.085  1.00  0.00    -0.341 C  
HETATM   34  C   UNL     1     -11.450  15.148  68.465  1.00  0.00    -0.320 C  
HETATM   35  O   UNL     1     -11.709  14.277  69.456  1.00  0.00    -0.276 OA 
HETATM   36  O   UNL     1     -11.460  16.353  68.680  1.00  0.00    -0.349 OA 
ENDBRANCH  32  33
ENDBRANCH  30  32
ENDBRANCH  29  30
ENDBRANCH  28  29
ENDBRANCH  26  28
ENDBRANCH   4  26
TORSDOF 6
ENDMDL
MODEL      114
REMARK 921   NORMALIZED FREE ENERGY PREDICTED BY IDOCK:   -4.20 KCAL/MOL
REMARK 922        TOTAL FREE ENERGY PREDICTED BY IDOCK:   -6.02 KCAL/MOL
REMARK 923 INTER-LIGAND FREE ENERGY PREDICTED BY IDOCK:   -6.94 KCAL/MOL
REMARK 924 INTRA-LIGAND FREE ENERGY PREDICTED BY IDOCK:    0.93 KCAL/MOL
REMARK 927      BINDING AFFINITY PREDICTED BY RF-SCORE:    0.00 PKD
ROOT
HETATM    1  C   UNL     1     -11.273  14.302  67.629  1.00  0.00    -0.321 C  
HETATM    2  C   UNL     1     -11.541  14.557  66.262  1.00  0.00    -0.364 C  
HETATM    3  C   UNL     1     -10.235  13.889  66.578  1.00  0.00    -0.280 C  
HETATM    4  C   UNL     1      -9.993  13.012  68.449  1.00  0.00    -0.216 C  
HETATM    5  C   UNL     1      -7.517  18.940  67.540  1.00  0.00    -0.244 C  
HETATM    6  O   UNL     1     -11.111  13.077  69.423  1.00  0.00    -0.419 OA 
HETATM    7  C   UNL     1     -10.506  12.564  67.265  1.00  0.00    -0.232 C  
HETATM    8  C   UNL     1     -11.533  11.524  66.934  1.00  0.00    -0.261 C  
HETATM    9  H   UNL     1     -11.002  12.677  70.277  1.00  0.00     0.000 HD 
HETATM   10  C   UNL     1      -6.102  18.638  67.291  1.00  0.00    -0.169 C  
HETATM   11  C   UNL     1      -8.200  17.877  68.006  1.00  0.00    -0.257 C  
HETATM   12  C   UNL     1      -8.644  12.524  66.833  1.00  0.00    -0.158 C  
HETATM   13  C   UNL     1     -10.287  19.309  68.223  1.00  0.00    -0.478 C  
HETATM   14  C   UNL     1      -7.801  13.825  67.594  1.00  0.00    -0.178 C  
HETATM   15  O   UNL     1      -7.560  13.389  68.945  1.00  0.00    -0.249 OA 
HETATM   16  C   UNL     1      -8.424  15.372  67.609  1.00  0.00    -0.173 C  
HETATM   17  C   UNL     1      -7.119  16.265  69.540  1.00  0.00    -0.141 C  
HETATM   18  C   UNL     1      -7.457  16.517  68.073  1.00  0.00    -0.162 C  
HETATM   19  C   UNL     1      -6.245  16.581  67.003  1.00  0.00    -0.193 C  
HETATM   20  H   UNL     1      -7.096  14.104  69.363  1.00  0.00     0.000 HD 
HETATM   21  C   UNL     1     -10.008  15.479  68.254  1.00  0.00    -0.213 C  
HETATM   22  C   UNL     1     -10.559  16.882  68.051  1.00  0.00    -0.367 C  
HETATM   23  O   UNL     1      -5.183  19.050  67.977  1.00  0.00    -0.171 OA 
HETATM   24  C   UNL     1      -9.619  17.974  68.548  1.00  0.00    -0.342 C  
HETATM   25  C   UNL     1      -5.922  17.606  66.194  1.00  0.00    -0.249 C  
ENDROOT
BRANCH   4  26
HETATM   26  C   UNL     1      -9.457  11.368  69.046  1.00  0.00     0.037 C  
HETATM   27  O   UNL     1     -10.261  10.500  69.426  1.00  0.00    -0.220 OA 
BRANCH  26  28
HETATM   28  C   UNL     1      -7.917  10.918  69.271  1.00  0.00    -0.070 C  
BRANCH  28  29
HETATM   29  O   UNL     1      -7.807   9.407  69.125  1.00  0.00    -0.076 OA 
BRANCH  29  30
HETATM   30  C   UNL     1      -6.927   8.817  68.245  1.00  0.00    -0.073 C  
HETATM   31  O   UNL     1      -5.715   8.969  68.302  1.00  0.00    -0.038 OA 
BRANCH  30  32
HETATM   32  C   UNL     1      -7.618   7.947  67.158  1.00  0.00    -0.100 C  
BRANCH  32  33
HETATM   33  C   UNL     1      -9.119   8.254  66.961  1.00  0.00    -0.172 C  
HETATM   34  C   UNL     1     -10.142   7.248  67.475  1.00  0.00    -0.193 C  
HETATM   35  O   UNL     1     -10.098   6.008  66.959  1.00  0.00    -0.146 OA 
HETATM   36  O   UNL     1     -10.985   7.541  68.314  1.00  0.00    -0.052 OA 
ENDBRANCH  32  33
ENDBRANCH  30  32
ENDBRANCH  29  30
ENDBRANCH  28  29
ENDBRANCH  26  28
ENDBRANCH   4  26
TORSDOF 6
ENDMDL
MODEL      115
REMARK 921   NORMALIZED FREE ENERGY PREDICTED BY IDOCK:   -4.16 KCAL/MOL
REMARK 922        TOTAL FREE ENERGY PREDICTED BY IDOCK:   -5.96 KCAL/MOL
REMARK 923 INTER-LIGAND FREE ENERGY PREDICTED BY IDOCK:   -6.04 KCAL/MOL
REMARK 924 INTRA-LIGAND FREE ENERGY PREDICTED BY IDOCK:    0.08 KCAL/MOL
REMARK 927      BINDING AFFINITY PREDICTED BY RF-SCORE:    0.00 PKD
ROOT
HETATM    1  C   UNL     1     -10.927  10.332  68.178  1.00  0.00    -0.328 C  
HETATM    2  C   UNL     1     -10.950  11.563  68.878  1.00  0.00    -0.279 C  
HETATM    3  C   UNL     1      -9.631  10.851  68.811  1.00  0.00    -0.195 C  
HETATM    4  C   UNL     1      -9.381   9.350  67.392  1.00  0.00    -0.126 C  
HETATM    5  C   UNL     1     -10.802   7.569  73.467  1.00  0.00    -0.213 C  
HETATM    6  O   UNL     1     -10.512   9.018  66.491  1.00  0.00    -0.234 OA 
HETATM    7  C   UNL     1      -9.216  10.706  67.359  1.00  0.00    -0.153 C  
HETATM    8  C   UNL     1      -9.299  11.711  66.250  1.00  0.00    -0.228 C  
HETATM    9  H   UNL     1     -10.399   8.332  65.843  1.00  0.00     0.000 HD 
HETATM   10  C   UNL     1      -9.480   7.203  73.988  1.00  0.00    -0.263 C  
HETATM   11  C   UNL     1     -10.805   7.740  72.130  1.00  0.00    -0.310 C  
HETATM   12  C   UNL     1      -7.663  10.228  68.367  1.00  0.00    -0.093 C  
HETATM   13  C   UNL     1     -13.307   8.173  72.186  1.00  0.00    -0.249 C  
HETATM   14  C   UNL     1      -7.981   8.877  69.395  1.00  0.00    -0.100 C  
HETATM   15  O   UNL     1      -7.867   7.716  68.552  1.00  0.00    -0.116 OA 
HETATM   16  C   UNL     1      -9.384   8.781  70.292  1.00  0.00    -0.193 C  
HETATM   17  C   UNL     1      -9.392   6.316  70.682  1.00  0.00    -0.171 C  
HETATM   18  C   UNL     1      -9.441   7.666  71.394  1.00  0.00    -0.166 C  
HETATM   19  C   UNL     1      -8.292   8.006  72.480  1.00  0.00    -0.211 C  
HETATM   20  H   UNL     1      -8.042   6.973  69.118  1.00  0.00     0.000 HD 
HETATM   21  C   UNL     1     -10.816   8.934  69.364  1.00  0.00    -0.133 C  
HETATM   22  C   UNL     1     -12.024   9.026  70.283  1.00  0.00     0.167 C  
HETATM   23  O   UNL     1      -9.191   6.095  74.405  1.00  0.00    -0.139 OA 
HETATM   24  C   UNL     1     -12.079   7.906  71.316  1.00  0.00    -0.317 C  
HETATM   25  C   UNL     1      -8.458   8.305  73.781  1.00  0.00    -0.259 C  
ENDROOT
BRANCH   4  26
HETATM   26  C   UNL     1      -8.136   8.986  66.101  1.00  0.00    -0.111 C  
HETATM   27  O   UNL     1      -7.178   9.742  65.865  1.00  0.00    -0.096 OA 
BRANCH  26  28
HETATM   28  C   UNL     1      -8.212   7.748  65.059  1.00  0.00    -0.120 C  
BRANCH  28  29
HETATM   29  O   UNL     1      -8.859   6.552  65.743  1.00  0.00    -0.148 OA 
BRANCH  29  30
HETATM   30  C   UNL     1      -8.656   5.262  65.309  1.00  0.00    -0.150 C  
HETATM   31  O   UNL     1      -7.626   4.888  64.767  1.00  0.00    -0.074 OA 
BRANCH  30  32
HETATM   32  C   UNL     1      -9.867   4.320  65.559  1.00  0.00    -0.221 C  
BRANCH  32  33
HETATM   33  C   UNL     1     -10.783   4.126  64.330  1.00  0.00    -0.152 C  
HETATM   34  C   UNL     1     -10.613   2.869  63.486  1.00  0.00    -0.224 C  
HETATM   35  O   UNL     1      -9.417   2.676  62.905  1.00  0.00    -0.094 OA 
HETATM   36  O   UNL     1     -11.520   2.062  63.321  1.00  0.00    -0.339 OA 
ENDBRANCH  32  33
ENDBRANCH  30  32
ENDBRANCH  29  30
ENDBRANCH  28  29
ENDBRANCH  26  28
ENDBRANCH   4  26
TORSDOF 6
ENDMDL
MODEL      116
REMARK 921   NORMALIZED FREE ENERGY PREDICTED BY IDOCK:   -4.07 KCAL/MOL
REMARK 922        TOTAL FREE ENERGY PREDICTED BY IDOCK:   -5.84 KCAL/MOL
REMARK 923 INTER-LIGAND FREE ENERGY PREDICTED BY IDOCK:   -5.89 KCAL/MOL
REMARK 924 INTRA-LIGAND FREE ENERGY PREDICTED BY IDOCK:    0.04 KCAL/MOL
REMARK 927      BINDING AFFINITY PREDICTED BY RF-SCORE:    0.00 PKD
ROOT
HETATM    1  C   UNL     1      -8.832  10.749  67.554  1.00  0.00    -0.128 C  
HETATM    2  C   UNL     1      -8.279  11.790  68.340  1.00  0.00    -0.154 C  
HETATM    3  C   UNL     1      -7.600  10.453  68.418  1.00  0.00    -0.093 C  
HETATM    4  C   UNL     1      -7.998   9.046  66.938  1.00  0.00    -0.105 C  
HETATM    5  C   UNL     1     -11.194   8.513  72.559  1.00  0.00    -0.336 C  
HETATM    6  O   UNL     1      -8.945   9.396  65.851  1.00  0.00    -0.156 OA 
HETATM    7  C   UNL     1      -7.096  10.067  67.040  1.00  0.00    -0.089 C  
HETATM    8  C   UNL     1      -6.408  10.919  66.017  1.00  0.00    -0.102 C  
HETATM    9  H   UNL     1      -9.127   8.754  65.175  1.00  0.00     0.000 HD 
HETATM   10  C   UNL     1     -10.420   7.472  73.245  1.00  0.00    -0.371 C  
HETATM   11  C   UNL     1     -10.870   8.627  71.256  1.00  0.00    -0.327 C  
HETATM   12  C   UNL     1      -6.283   8.814  68.232  1.00  0.00    -0.054 C  
HETATM   13  C   UNL     1     -12.660  10.405  70.963  1.00  0.00    -0.491 C  
HETATM   14  C   UNL     1      -7.475   7.904  69.088  1.00  0.00    -0.093 C  
HETATM   15  O   UNL     1      -7.891   6.866  68.181  1.00  0.00    -0.110 OA 
HETATM   16  C   UNL     1      -8.819   8.640  69.748  1.00  0.00    -0.137 C  
HETATM   17  C   UNL     1     -10.278   6.624  69.931  1.00  0.00    -0.214 C  
HETATM   18  C   UNL     1      -9.682   7.777  70.734  1.00  0.00    -0.175 C  
HETATM   19  C   UNL     1      -8.747   7.428  72.007  1.00  0.00    -0.125 C  
HETATM   20  H   UNL     1      -8.547   6.366  68.651  1.00  0.00     0.000 HD 
HETATM   21  C   UNL     1      -9.731   9.560  68.627  1.00  0.00    -0.163 C  
HETATM   22  C   UNL     1     -10.816  10.339  69.354  1.00  0.00    -0.282 C  
HETATM   23  O   UNL     1     -10.881   6.405  73.611  1.00  0.00    -0.247 OA 
HETATM   24  C   UNL     1     -11.667   9.471  70.273  1.00  0.00    -0.168 C  
HETATM   25  C   UNL     1      -8.938   7.794  73.288  1.00  0.00    -0.289 C  
ENDROOT
BRANCH   4  26
HETATM   26  C   UNL     1      -6.973   8.013  65.828  1.00  0.00    -0.060 C  
HETATM   27  O   UNL     1      -5.761   7.822  66.025  1.00  0.00    -0.035 OA 
BRANCH  26  28
HETATM   28  C   UNL     1      -7.479   7.363  64.434  1.00  0.00    -0.100 C  
BRANCH  28  29
HETATM   29  O   UNL     1      -8.502   6.274  64.726  1.00  0.00    -0.096 OA 
BRANCH  29  30
HETATM   30  C   UNL     1      -8.131   5.000  65.094  1.00  0.00    -0.112 C  
HETATM   31  O   UNL     1      -6.974   4.607  65.083  1.00  0.00    -0.059 OA 
BRANCH  30  32
HETATM   32  C   UNL     1      -9.325   4.099  65.514  1.00  0.00    -0.162 C  
BRANCH  32  33
HETATM   33  C   UNL     1     -10.516   4.126  64.532  1.00  0.00    -0.178 C  
HETATM   34  C   UNL     1     -10.550   3.107  63.399  1.00  0.00    -0.246 C  
HETATM   35  O   UNL     1      -9.534   3.132  62.519  1.00  0.00    -0.093 OA 
HETATM   36  O   UNL     1     -11.461   2.299  63.271  1.00  0.00    -0.338 OA 
ENDBRANCH  32  33
ENDBRANCH  30  32
ENDBRANCH  29  30
ENDBRANCH  28  29
ENDBRANCH  26  28
ENDBRANCH   4  26
TORSDOF 6
ENDMDL
MODEL      117
REMARK 921   NORMALIZED FREE ENERGY PREDICTED BY IDOCK:   -4.07 KCAL/MOL
REMARK 922        TOTAL FREE ENERGY PREDICTED BY IDOCK:   -5.84 KCAL/MOL
REMARK 923 INTER-LIGAND FREE ENERGY PREDICTED BY IDOCK:   -6.29 KCAL/MOL
REMARK 924 INTRA-LIGAND FREE ENERGY PREDICTED BY IDOCK:    0.45 KCAL/MOL
REMARK 927      BINDING AFFINITY PREDICTED BY RF-SCORE:    0.00 PKD
ROOT
HETATM    1  C   UNL     1      -9.579   8.242  66.639  1.00  0.00    -0.299 C  
HETATM    2  C   UNL     1     -10.875   7.828  67.031  1.00  0.00    -0.176 C  
HETATM    3  C   UNL     1     -10.093   8.628  68.031  1.00  0.00    -0.241 C  
HETATM    4  C   UNL     1      -8.441   9.707  67.369  1.00  0.00    -0.125 C  
HETATM    5  C   UNL     1      -7.378   3.937  70.138  1.00  0.00    -0.042 C  
HETATM    6  O   UNL     1      -8.076   9.652  65.932  1.00  0.00    -0.110 OA 
HETATM    7  C   UNL     1      -9.776   9.990  67.442  1.00  0.00    -0.196 C  
HETATM    8  C   UNL     1     -10.663  10.905  66.653  1.00  0.00    -0.289 C  
HETATM    9  H   UNL     1      -7.322  10.144  65.629  1.00  0.00     0.000 HD 
HETATM   10  C   UNL     1      -7.000   4.325  71.502  1.00  0.00    -0.038 C  
HETATM   11  C   UNL     1      -7.408   4.983  69.290  1.00  0.00    -0.057 C  
HETATM   12  C   UNL     1      -9.325  10.135  69.294  1.00  0.00    -0.227 C  
HETATM   13  C   UNL     1      -7.974   3.417  67.372  1.00  0.00    -0.081 C  
HETATM   14  C   UNL     1      -8.108   8.991  69.730  1.00  0.00    -0.109 C  
HETATM   15  O   UNL     1      -6.860   9.580  69.317  1.00  0.00    -0.048 OA 
HETATM   16  C   UNL     1      -8.178   7.409  69.208  1.00  0.00    -0.131 C  
HETATM   17  C   UNL     1      -5.771   6.824  69.511  1.00  0.00    -0.015 C  
HETATM   18  C   UNL     1      -7.188   6.398  69.886  1.00  0.00    -0.074 C  
HETATM   19  C   UNL     1      -7.580   6.324  71.454  1.00  0.00    -0.098 C  
HETATM   20  H   UNL     1      -6.191   8.951  69.557  1.00  0.00     0.000 HD 
HETATM   21  C   UNL     1      -8.308   7.240  67.508  1.00  0.00    -0.116 C  
HETATM   22  C   UNL     1      -8.557   5.784  67.147  1.00  0.00    -0.109 C  
HETATM   23  O   UNL     1      -5.928   4.060  72.018  1.00  0.00    -0.008 OA 
HETATM   24  C   UNL     1      -7.555   4.828  67.784  1.00  0.00    -0.082 C  
HETATM   25  C   UNL     1      -8.020   5.251  72.137  1.00  0.00    -0.110 C  
ENDROOT
BRANCH   4  26
HETATM   26  C   UNL     1      -7.881  11.441  67.532  1.00  0.00    -0.126 C  
HETATM   27  O   UNL     1      -6.683  11.766  67.461  1.00  0.00    -0.085 OA 
BRANCH  26  28
HETATM   28  C   UNL     1      -8.835  12.694  67.912  1.00  0.00    -0.182 C  
BRANCH  28  29
HETATM   29  O   UNL     1      -8.602  13.825  66.919  1.00  0.00    -0.196 OA 
BRANCH  29  30
HETATM   30  C   UNL     1      -9.015  15.114  67.167  1.00  0.00    -0.213 C  
HETATM   31  O   UNL     1      -8.885  15.667  68.250  1.00  0.00    -0.174 OA 
BRANCH  30  32
HETATM   32  C   UNL     1      -9.678  15.804  65.942  1.00  0.00    -0.389 C  
BRANCH  32  33
HETATM   33  C   UNL     1     -11.199  15.561  65.824  1.00  0.00    -0.133 C  
HETATM   34  C   UNL     1     -11.831  15.563  64.438  1.00  0.00    -0.219 C  
HETATM   35  O   UNL     1     -11.729  16.693  63.717  1.00  0.00    -1.015 OA 
HETATM   36  O   UNL     1     -12.424  14.591  63.986  1.00  0.00    -0.778 OA 
ENDBRANCH  32  33
ENDBRANCH  30  32
ENDBRANCH  29  30
ENDBRANCH  28  29
ENDBRANCH  26  28
ENDBRANCH   4  26
TORSDOF 6
ENDMDL
MODEL      118
REMARK 921   NORMALIZED FREE ENERGY PREDICTED BY IDOCK:   -3.98 KCAL/MOL
REMARK 922        TOTAL FREE ENERGY PREDICTED BY IDOCK:   -5.72 KCAL/MOL
REMARK 923 INTER-LIGAND FREE ENERGY PREDICTED BY IDOCK:   -5.98 KCAL/MOL
REMARK 924 INTRA-LIGAND FREE ENERGY PREDICTED BY IDOCK:    0.26 KCAL/MOL
REMARK 927      BINDING AFFINITY PREDICTED BY RF-SCORE:    0.00 PKD
ROOT
HETATM    1  C   UNL     1      -5.613  14.521  68.961  1.00  0.00    -0.084 C  
HETATM    2  C   UNL     1      -5.776  14.741  70.351  1.00  0.00    -0.148 C  
HETATM    3  C   UNL     1      -7.012  14.388  69.575  1.00  0.00    -0.119 C  
HETATM    4  C   UNL     1      -6.794  13.545  67.685  1.00  0.00    -0.170 C  
HETATM    5  C   UNL     1      -8.015  19.907  68.041  1.00  0.00    -0.314 C  
HETATM    6  O   UNL     1      -5.428  13.323  67.151  1.00  0.00    -0.328 OA 
HETATM    7  C   UNL     1      -6.832  13.019  68.945  1.00  0.00    -0.099 C  
HETATM    8  C   UNL     1      -6.244  11.777  69.545  1.00  0.00    -0.115 C  
HETATM    9  H   UNL     1      -5.328  12.938  66.289  1.00  0.00     0.000 HD 
HETATM   10  C   UNL     1      -9.458  19.950  67.781  1.00  0.00    -0.362 C  
HETATM   11  C   UNL     1      -7.474  18.703  67.773  1.00  0.00    -0.241 C  
HETATM   12  C   UNL     1      -8.686  13.426  68.723  1.00  0.00     0.126 C  
HETATM   13  C   UNL     1      -5.171  19.603  68.354  1.00  0.00    -0.203 C  
HETATM   14  C   UNL     1      -8.901  14.867  67.796  1.00  0.00    -0.173 C  
HETATM   15  O   UNL     1      -8.759  14.466  66.421  1.00  0.00    -0.461 OA 
HETATM   16  C   UNL     1      -7.975  16.225  68.080  1.00  0.00    -0.151 C  
HETATM   17  C   UNL     1      -8.304  17.350  65.876  1.00  0.00    -0.006 C  
HETATM   18  C   UNL     1      -8.439  17.552  67.383  1.00  0.00    -0.222 C  
HETATM   19  C   UNL     1      -9.894  17.924  67.983  1.00  0.00    -0.320 C  
HETATM   20  H   UNL     1      -8.877  15.259  65.912  1.00  0.00     0.000 HD 
HETATM   21  C   UNL     1      -6.286  15.944  68.014  1.00  0.00    -0.143 C  
HETATM   22  C   UNL     1      -5.534  17.185  68.469  1.00  0.00    -0.136 C  
HETATM   23  O   UNL     1      -9.969  20.547  66.850  1.00  0.00    -0.453 OA 
HETATM   24  C   UNL     1      -5.973  18.453  67.747  1.00  0.00    -0.174 C  
HETATM   25  C   UNL     1     -10.232  19.016  68.693  1.00  0.00    -0.379 C  
ENDROOT
BRANCH   4  26
HETATM   26  C   UNL     1      -7.454  12.057  66.851  1.00  0.00    -0.051 C  
HETATM   27  O   UNL     1      -8.661  11.919  66.586  1.00  0.00    -0.187 OA 
BRANCH  26  28
HETATM   28  C   UNL     1      -6.593  10.732  66.495  1.00  0.00    -0.119 C  
BRANCH  28  29
HETATM   29  O   UNL     1      -7.540   9.569  66.234  1.00  0.00    -0.096 OA 
BRANCH  29  30
HETATM   30  C   UNL     1      -7.145   8.257  66.371  1.00  0.00    -0.071 C  
HETATM   31  O   UNL     1      -6.131   7.802  65.862  1.00  0.00    -0.038 OA 
BRANCH  30  32
HETATM   32  C   UNL     1      -8.118   7.398  67.226  1.00  0.00    -0.112 C  
BRANCH  32  33
HETATM   33  C   UNL     1      -9.319   8.183  67.800  1.00  0.00    -0.149 C  
HETATM   34  C   UNL     1      -9.206   8.762  69.205  1.00  0.00    -0.149 C  
HETATM   35  O   UNL     1      -9.003   7.896  70.213  1.00  0.00    -0.148 OA 
HETATM   36  O   UNL     1      -9.306   9.962  69.429  1.00  0.00    -0.187 OA 
ENDBRANCH  32  33
ENDBRANCH  30  32
ENDBRANCH  29  30
ENDBRANCH  28  29
ENDBRANCH  26  28
ENDBRANCH   4  26
TORSDOF 6
ENDMDL
MODEL      119
REMARK 921   NORMALIZED FREE ENERGY PREDICTED BY IDOCK:   -3.96 KCAL/MOL
REMARK 922        TOTAL FREE ENERGY PREDICTED BY IDOCK:   -5.69 KCAL/MOL
REMARK 923 INTER-LIGAND FREE ENERGY PREDICTED BY IDOCK:   -6.70 KCAL/MOL
REMARK 924 INTRA-LIGAND FREE ENERGY PREDICTED BY IDOCK:    1.01 KCAL/MOL
REMARK 927      BINDING AFFINITY PREDICTED BY RF-SCORE:    0.00 PKD
ROOT
HETATM    1  C   UNL     1      -9.986   6.132  70.919  1.00  0.00    -0.223 C  
HETATM    2  C   UNL     1      -8.848   5.792  71.691  1.00  0.00    -0.138 C  
HETATM    3  C   UNL     1      -8.653   6.834  70.628  1.00  0.00    -0.142 C  
HETATM    4  C   UNL     1     -10.333   7.762  69.825  1.00  0.00    -0.221 C  
HETATM    5  C   UNL     1      -7.683   2.878  66.477  1.00  0.00    -0.076 C  
HETATM    6  O   UNL     1     -11.676   7.367  70.316  1.00  0.00    -0.476 OA 
HETATM    7  C   UNL     1      -9.556   8.018  70.919  1.00  0.00    -0.179 C  
HETATM    8  C   UNL     1      -9.839   8.687  72.230  1.00  0.00    -0.360 C  
HETATM    9  H   UNL     1     -12.444   7.790  69.950  1.00  0.00     0.000 HD 
HETATM   10  C   UNL     1      -6.889   3.599  65.475  1.00  0.00    -0.053 C  
HETATM   11  C   UNL     1      -8.532   3.683  67.144  1.00  0.00    -0.103 C  
HETATM   12  C   UNL     1      -8.371   8.625  69.547  1.00  0.00    -0.117 C  
HETATM   13  C   UNL     1      -9.440   1.680  68.414  1.00  0.00    -0.241 C  
HETATM   14  C   UNL     1      -8.518   7.656  68.125  1.00  0.00    -0.124 C  
HETATM   15  O   UNL     1      -9.676   8.160  67.434  1.00  0.00    -0.151 OA 
HETATM   16  C   UNL     1      -8.600   5.993  68.214  1.00  0.00    -0.115 C  
HETATM   17  C   UNL     1      -9.644   5.566  65.987  1.00  0.00    -0.128 C  
HETATM   18  C   UNL     1      -8.447   5.207  66.864  1.00  0.00    -0.106 C  
HETATM   19  C   UNL     1      -6.961   5.508  66.301  1.00  0.00    -0.060 C  
HETATM   20  H   UNL     1      -9.756   7.627  66.652  1.00  0.00     0.000 HD 
HETATM   21  C   UNL     1      -9.845   5.410  69.236  1.00  0.00    -0.249 C  
HETATM   22  C   UNL     1      -9.719   3.903  69.401  1.00  0.00    -0.172 C  
HETATM   23  O   UNL     1      -7.051   3.497  64.271  1.00  0.00    -0.051 OA 
HETATM   24  C   UNL     1      -9.616   3.160  68.075  1.00  0.00    -0.137 C  
HETATM   25  C   UNL     1      -5.965   4.624  66.105  1.00  0.00    -0.023 C  
ENDROOT
BRANCH   4  26
HETATM   26  C   UNL     1     -10.848   9.498  69.561  1.00  0.00    -0.222 C  
HETATM   27  O   UNL     1     -11.891   9.967  70.049  1.00  0.00    -0.216 OA 
BRANCH  26  28
HETATM   28  C   UNL     1     -10.101  10.551  68.582  1.00  0.00    -0.180 C  
BRANCH  28  29
HETATM   29  O   UNL     1     -10.951  10.774  67.339  1.00  0.00    -0.274 OA 
BRANCH  29  30
HETATM   30  C   UNL     1     -11.191  12.031  66.832  1.00  0.00    -0.320 C  
HETATM   31  O   UNL     1     -12.227  12.340  66.262  1.00  0.00    -0.628 OA 
BRANCH  30  32
HETATM   32  C   UNL     1     -10.013  13.024  67.039  1.00  0.00    -0.242 C  
BRANCH  32  33
HETATM   33  C   UNL     1     -10.301  14.144  68.063  1.00  0.00    -0.231 C  
HETATM   34  C   UNL     1     -10.110  15.593  67.632  1.00  0.00    -0.248 C  
HETATM   35  O   UNL     1      -8.878  15.960  67.241  1.00  0.00    -0.185 OA 
HETATM   36  O   UNL     1     -11.025  16.407  67.647  1.00  0.00    -0.308 OA 
ENDBRANCH  32  33
ENDBRANCH  30  32
ENDBRANCH  29  30
ENDBRANCH  28  29
ENDBRANCH  26  28
ENDBRANCH   4  26
TORSDOF 6
ENDMDL
MODEL      120
REMARK 921   NORMALIZED FREE ENERGY PREDICTED BY IDOCK:   -3.86 KCAL/MOL
REMARK 922        TOTAL FREE ENERGY PREDICTED BY IDOCK:   -5.56 KCAL/MOL
REMARK 923 INTER-LIGAND FREE ENERGY PREDICTED BY IDOCK:   -6.23 KCAL/MOL
REMARK 924 INTRA-LIGAND FREE ENERGY PREDICTED BY IDOCK:    0.67 KCAL/MOL
REMARK 927      BINDING AFFINITY PREDICTED BY RF-SCORE:    0.00 PKD
ROOT
HETATM    1  C   UNL     1     -10.972  11.412  68.042  1.00  0.00    -0.290 C  
HETATM    2  C   UNL     1     -11.672  11.729  66.852  1.00  0.00    -0.221 C  
HETATM    3  C   UNL     1     -10.176  11.651  66.754  1.00  0.00    -0.248 C  
HETATM    4  C   UNL     1      -9.127  10.693  68.274  1.00  0.00    -0.153 C  
HETATM    5  C   UNL     1      -9.457  17.171  68.437  1.00  0.00    -0.276 C  
HETATM    6  O   UNL     1      -9.881  10.121  69.417  1.00  0.00    -0.206 OA 
HETATM    7  C   UNL     1      -9.724  10.252  67.127  1.00  0.00    -0.210 C  
HETATM    8  C   UNL     1     -10.321   8.933  66.737  1.00  0.00    -0.317 C  
HETATM    9  H   UNL     1      -9.403   9.684  70.111  1.00  0.00     0.000 HD 
HETATM   10  C   UNL     1      -8.157  17.551  67.872  1.00  0.00    -0.230 C  
HETATM   11  C   UNL     1      -9.529  15.860  68.740  1.00  0.00    -0.221 C  
HETATM   12  C   UNL     1      -8.178  11.086  66.373  1.00  0.00    -0.166 C  
HETATM   13  C   UNL     1     -11.866  16.200  69.674  1.00  0.00    -0.134 C  
HETATM   14  C   UNL     1      -7.729  12.492  67.269  1.00  0.00    -0.146 C  
HETATM   15  O   UNL     1      -6.989  12.004  68.404  1.00  0.00    -0.068 OA 
HETATM   16  C   UNL     1      -8.870  13.596  67.779  1.00  0.00    -0.190 C  
HETATM   17  C   UNL     1      -7.545  14.662  69.606  1.00  0.00     0.015 C  
HETATM   18  C   UNL     1      -8.331  14.962  68.332  1.00  0.00    -0.153 C  
HETATM   19  C   UNL     1      -7.569  15.704  67.113  1.00  0.00    -0.258 C  
HETATM   20  H   UNL     1      -6.742  12.778  68.897  1.00  0.00     0.000 HD 
HETATM   21  C   UNL     1     -10.140  12.909  68.703  1.00  0.00    -0.136 C  
HETATM   22  C   UNL     1     -11.219  13.950  68.957  1.00  0.00    -0.312 C  
HETATM   23  O   UNL     1      -7.320  18.211  68.463  1.00  0.00    -0.259 OA 
HETATM   24  C   UNL     1     -10.676  15.252  69.533  1.00  0.00    -0.270 C  
HETATM   25  C   UNL     1      -7.893  16.877  66.539  1.00  0.00    -0.330 C  
ENDROOT
BRANCH   4  26
HETATM   26  C   UNL     1      -7.862   9.373  68.338  1.00  0.00    -0.090 C  
HETATM   27  O   UNL     1      -6.646   9.616  68.418  1.00  0.00    -0.052 OA 
BRANCH  26  28
HETATM   28  C   UNL     1      -8.162   7.790  68.165  1.00  0.00    -0.124 C  
BRANCH  28  29
HETATM   29  O   UNL     1      -7.695   7.049  69.410  1.00  0.00    -0.103 OA 
BRANCH  29  30
HETATM   30  C   UNL     1      -8.579   6.473  70.294  1.00  0.00    -0.136 C  
HETATM   31  O   UNL     1      -8.795   5.270  70.343  1.00  0.00    -0.122 OA 
BRANCH  30  32
HETATM   32  C   UNL     1      -9.292   7.495  71.222  1.00  0.00    -0.157 C  
BRANCH  32  33
HETATM   33  C   UNL     1      -8.334   8.320  72.111  1.00  0.00    -0.232 C  
HETATM   34  C   UNL     1      -7.878   7.725  73.437  1.00  0.00    -0.142 C  
HETATM   35  O   UNL     1      -8.829   7.438  74.342  1.00  0.00    -0.215 OA 
HETATM   36  O   UNL     1      -6.697   7.522  73.693  1.00  0.00    -0.071 OA 
ENDBRANCH  32  33
ENDBRANCH  30  32
ENDBRANCH  29  30
ENDBRANCH  28  29
ENDBRANCH  26  28
ENDBRANCH   4  26
TORSDOF 6
ENDMDL
MODEL      121
REMARK 921   NORMALIZED FREE ENERGY PREDICTED BY IDOCK:   -3.84 KCAL/MOL
REMARK 922        TOTAL FREE ENERGY PREDICTED BY IDOCK:   -5.53 KCAL/MOL
REMARK 923 INTER-LIGAND FREE ENERGY PREDICTED BY IDOCK:   -6.16 KCAL/MOL
REMARK 924 INTRA-LIGAND FREE ENERGY PREDICTED BY IDOCK:    0.62 KCAL/MOL
REMARK 927      BINDING AFFINITY PREDICTED BY RF-SCORE:    0.00 PKD
ROOT
HETATM    1  C   UNL     1     -10.519   8.969  70.906  1.00  0.00    -0.321 C  
HETATM    2  C   UNL     1      -9.452   9.215  71.804  1.00  0.00    -0.097 C  
HETATM    3  C   UNL     1      -9.084   8.986  70.367  1.00  0.00    -0.242 C  
HETATM    4  C   UNL     1     -10.572   9.145  68.921  1.00  0.00    -0.191 C  
HETATM    5  C   UNL     1      -8.974   3.204  70.982  1.00  0.00    -0.164 C  
HETATM    6  O   UNL     1     -11.955   9.471  69.347  1.00  0.00    -0.207 OA 
HETATM    7  C   UNL     1      -9.737  10.053  69.509  1.00  0.00    -0.253 C  
HETATM    8  C   UNL     1      -9.859  11.525  69.767  1.00  0.00     1.055 C  
HETATM    9  H   UNL     1     -12.634   9.544  68.687  1.00  0.00     0.000 HD 
HETATM   10  C   UNL     1      -8.078   2.748  69.913  1.00  0.00    -0.041 C  
HETATM   11  C   UNL     1      -9.640   4.329  70.657  1.00  0.00    -0.260 C  
HETATM   12  C   UNL     1      -8.487   9.185  68.352  1.00  0.00    -0.128 C  
HETATM   13  C   UNL     1     -10.888   4.235  72.867  1.00  0.00    -0.230 C  
HETATM   14  C   UNL     1      -8.845   7.503  68.198  1.00  0.00    -0.127 C  
HETATM   15  O   UNL     1      -9.900   7.422  67.222  1.00  0.00    -0.150 OA 
HETATM   16  C   UNL     1      -9.242   6.576  69.527  1.00  0.00    -0.142 C  
HETATM   17  C   UNL     1     -10.395   4.712  68.332  1.00  0.00     0.115 C  
HETATM   18  C   UNL     1      -9.271   5.021  69.318  1.00  0.00    -0.155 C  
HETATM   19  C   UNL     1      -7.767   4.561  68.941  1.00  0.00    -0.070 C  
HETATM   20  H   UNL     1     -10.097   6.497  67.137  1.00  0.00     0.000 HD 
HETATM   21  C   UNL     1     -10.554   7.192  70.440  1.00  0.00    -0.242 C  
HETATM   22  C   UNL     1     -10.716   6.393  71.724  1.00  0.00    -0.273 C  
HETATM   23  O   UNL     1      -8.281   1.764  69.223  1.00  0.00    -0.045 OA 
HETATM   24  C   UNL     1     -10.784   4.888  71.490  1.00  0.00    -0.047 C  
HETATM   25  C   UNL     1      -6.963   3.738  69.639  1.00  0.00    -0.042 C  
ENDROOT
BRANCH   4  26
HETATM   26  C   UNL     1     -10.750  10.059  67.346  1.00  0.00    -0.274 C  
HETATM   27  O   UNL     1     -10.219   9.678  66.289  1.00  0.00    -0.260 OA 
BRANCH  26  28
HETATM   28  C   UNL     1     -11.482  11.495  67.183  1.00  0.00    -0.237 C  
BRANCH  28  29
HETATM   29  O   UNL     1     -11.341  11.972  65.744  1.00  0.00    -0.330 OA 
BRANCH  29  30
HETATM   30  C   UNL     1     -12.330  12.689  65.110  1.00  0.00    -0.484 C  
HETATM   31  O   UNL     1     -13.069  12.212  64.261  1.00  0.00    -0.723 OA 
BRANCH  30  32
HETATM   32  C   UNL     1     -12.414  14.174  65.563  1.00  0.00    -0.495 C  
BRANCH  32  33
HETATM   33  C   UNL     1     -11.042  14.847  65.785  1.00  0.00    -0.342 C  
HETATM   34  C   UNL     1     -10.639  15.231  67.203  1.00  0.00    -0.302 C  
HETATM   35  O   UNL     1     -11.424  16.109  67.850  1.00  0.00    -0.248 OA 
HETATM   36  O   UNL     1      -9.637  14.780  67.744  1.00  0.00    -0.205 OA 
ENDBRANCH  32  33
ENDBRANCH  30  32
ENDBRANCH  29  30
ENDBRANCH  28  29
ENDBRANCH  26  28
ENDBRANCH   4  26
TORSDOF 6
ENDMDL
MODEL      122
REMARK 921   NORMALIZED FREE ENERGY PREDICTED BY IDOCK:   -3.84 KCAL/MOL
REMARK 922        TOTAL FREE ENERGY PREDICTED BY IDOCK:   -5.53 KCAL/MOL
REMARK 923 INTER-LIGAND FREE ENERGY PREDICTED BY IDOCK:   -6.10 KCAL/MOL
REMARK 924 INTRA-LIGAND FREE ENERGY PREDICTED BY IDOCK:    0.57 KCAL/MOL
REMARK 927      BINDING AFFINITY PREDICTED BY RF-SCORE:    0.00 PKD
ROOT
HETATM    1  C   UNL     1     -10.784  10.842  68.521  1.00  0.00    -0.245 C  
HETATM    2  C   UNL     1     -10.374  12.024  69.184  1.00  0.00     0.055 C  
HETATM    3  C   UNL     1      -9.295  11.043  68.830  1.00  0.00    -0.155 C  
HETATM    4  C   UNL     1      -9.713   9.571  67.420  1.00  0.00    -0.157 C  
HETATM    5  C   UNL     1     -10.072   7.946  73.691  1.00  0.00     0.039 C  
HETATM    6  O   UNL     1     -11.064   9.524  66.809  1.00  0.00    -0.001 OA 
HETATM    7  C   UNL     1      -9.264  10.857  67.325  1.00  0.00    -0.160 C  
HETATM    8  C   UNL     1      -9.373  11.893  66.246  1.00  0.00    -0.234 C  
HETATM    9  H   UNL     1     -11.255   8.852  66.165  1.00  0.00     0.000 HD 
HETATM   10  C   UNL     1      -8.780   7.283  73.903  1.00  0.00    -0.191 C  
HETATM   11  C   UNL     1     -10.341   8.157  72.388  1.00  0.00    -0.382 C  
HETATM   12  C   UNL     1      -7.668  10.018  67.959  1.00  0.00    -0.089 C  
HETATM   13  C   UNL     1     -12.606   9.126  73.007  1.00  0.00     0.656 C  
HETATM   14  C   UNL     1      -8.033   8.737  69.058  1.00  0.00    -0.111 C  
HETATM   15  O   UNL     1      -8.373   7.607  68.233  1.00  0.00    -0.123 OA 
HETATM   16  C   UNL     1      -9.181   8.922  70.254  1.00  0.00    -0.207 C  
HETATM   17  C   UNL     1      -9.644   6.507  70.682  1.00  0.00    -0.183 C  
HETATM   18  C   UNL     1      -9.231   7.811  71.360  1.00  0.00    -0.156 C  
HETATM   19  C   UNL     1      -7.819   7.855  72.148  1.00  0.00    -0.129 C  
HETATM   20  H   UNL     1      -8.574   6.903  68.838  1.00  0.00     0.000 HD 
HETATM   21  C   UNL     1     -10.717   9.415  69.676  1.00  0.00    -0.251 C  
HETATM   22  C   UNL     1     -11.634   9.739  70.845  1.00  0.00    -0.441 C  
HETATM   23  O   UNL     1      -8.656   6.125  74.263  1.00  0.00    -0.115 OA 
HETATM   24  C   UNL     1     -11.698   8.626  71.885  1.00  0.00    -0.422 C  
HETATM   25  C   UNL     1      -7.615   8.140  73.447  1.00  0.00    -0.200 C  
ENDROOT
BRANCH   4  26
HETATM   26  C   UNL     1      -8.905   8.985  65.886  1.00  0.00    -0.175 C  
HETATM   27  O   UNL     1      -8.881   7.786  65.560  1.00  0.00    -0.118 OA 
BRANCH  26  28
HETATM   28  C   UNL     1      -8.040   9.913  64.879  1.00  0.00    -0.145 C  
BRANCH  28  29
HETATM   29  O   UNL     1      -8.707   9.932  63.511  1.00  0.00    -0.176 OA 
BRANCH  29  30
HETATM   30  C   UNL     1      -9.458  11.002  63.077  1.00  0.00    -0.363 C  
HETATM   31  O   UNL     1      -9.014  11.891  62.365  1.00  0.00    -0.013 OA 
BRANCH  30  32
HETATM   32  C   UNL     1     -10.926  10.982  63.585  1.00  0.00    -0.065 C  
BRANCH  32  33
HETATM   33  C   UNL     1     -11.772  12.191  63.126  1.00  0.00    -0.295 C  
HETATM   34  C   UNL     1     -12.210  13.212  64.168  1.00  0.00    -0.398 C  
HETATM   35  O   UNL     1     -12.981  12.771  65.176  1.00  0.00    -0.768 OA 
HETATM   36  O   UNL     1     -11.893  14.394  64.101  1.00  0.00    -0.380 OA 
ENDBRANCH  32  33
ENDBRANCH  30  32
ENDBRANCH  29  30
ENDBRANCH  28  29
ENDBRANCH  26  28
ENDBRANCH   4  26
TORSDOF 6
ENDMDL
MODEL      123
REMARK 921   NORMALIZED FREE ENERGY PREDICTED BY IDOCK:   -3.84 KCAL/MOL
REMARK 922        TOTAL FREE ENERGY PREDICTED BY IDOCK:   -5.53 KCAL/MOL
REMARK 923 INTER-LIGAND FREE ENERGY PREDICTED BY IDOCK:   -6.14 KCAL/MOL
REMARK 924 INTRA-LIGAND FREE ENERGY PREDICTED BY IDOCK:    0.61 KCAL/MOL
REMARK 927      BINDING AFFINITY PREDICTED BY RF-SCORE:    0.00 PKD
ROOT
HETATM    1  C   UNL     1      -9.504   8.327  66.756  1.00  0.00    -0.256 C  
HETATM    2  C   UNL     1     -10.761   7.707  66.957  1.00  0.00    -0.340 C  
HETATM    3  C   UNL     1     -10.314   8.679  68.009  1.00  0.00    -0.277 C  
HETATM    4  C   UNL     1      -8.777  10.005  67.550  1.00  0.00    -0.125 C  
HETATM    5  C   UNL     1      -7.262   4.653  70.890  1.00  0.00    -0.048 C  
HETATM    6  O   UNL     1      -8.160   9.950  66.202  1.00  0.00    -0.115 OA 
HETATM    7  C   UNL     1     -10.132  10.047  67.379  1.00  0.00    -0.256 C  
HETATM    8  C   UNL     1     -11.007  10.751  66.386  1.00  0.00    -0.108 C  
HETATM    9  H   UNL     1      -7.458  10.555  65.992  1.00  0.00     0.000 HD 
HETATM   10  C   UNL     1      -7.202   5.165  72.264  1.00  0.00    -0.090 C  
HETATM   11  C   UNL     1      -7.319   5.637  69.972  1.00  0.00    -0.069 C  
HETATM   12  C   UNL     1     -10.047  10.356  69.263  1.00  0.00    -0.248 C  
HETATM   13  C   UNL     1      -7.264   3.907  68.112  1.00  0.00    -0.059 C  
HETATM   14  C   UNL     1      -8.750   9.470  69.982  1.00  0.00    -0.221 C  
HETATM   15  O   UNL     1      -7.567  10.254  69.737  1.00  0.00    -0.151 OA 
HETATM   16  C   UNL     1      -8.460   7.878  69.578  1.00  0.00    -0.133 C  
HETATM   17  C   UNL     1      -6.080   7.749  70.319  1.00  0.00    -0.030 C  
HETATM   18  C   UNL     1      -7.449   7.094  70.486  1.00  0.00    -0.087 C  
HETATM   19  C   UNL     1      -8.093   7.023  71.968  1.00  0.00    -0.097 C  
HETATM   20  H   UNL     1      -6.854   9.766  70.132  1.00  0.00     0.000 HD 
HETATM   21  C   UNL     1      -8.257   7.611  67.898  1.00  0.00    -0.123 C  
HETATM   22  C   UNL     1      -8.188   6.119  67.613  1.00  0.00    -0.113 C  
HETATM   23  O   UNL     1      -6.209   5.120  72.969  1.00  0.00    -0.039 OA 
HETATM   24  C   UNL     1      -7.169   5.388  68.478  1.00  0.00    -0.074 C  
HETATM   25  C   UNL     1      -8.459   5.922  72.649  1.00  0.00    -0.119 C  
ENDROOT
BRANCH   4  26
HETATM   26  C   UNL     1      -8.555  11.817  67.670  1.00  0.00    -0.153 C  
HETATM   27  O   UNL     1      -7.443  12.344  67.845  1.00  0.00    -0.099 OA 
BRANCH  26  28
HETATM   28  C   UNL     1      -9.759  12.901  67.700  1.00  0.00    -0.212 C  
BRANCH  28  29
HETATM   29  O   UNL     1      -9.657  13.801  66.477  1.00  0.00    -0.274 OA 
BRANCH  29  30
HETATM   30  C   UNL     1     -10.325  15.002  66.393  1.00  0.00    -0.287 C  
HETATM   31  O   UNL     1     -11.215  15.222  65.584  1.00  0.00    -0.323 OA 
BRANCH  30  32
HETATM   32  C   UNL     1      -9.835  16.063  67.417  1.00  0.00    -0.236 C  
BRANCH  32  33
HETATM   33  C   UNL     1     -10.815  17.239  67.629  1.00  0.00    -0.238 C  
HETATM   34  C   UNL     1     -10.243  18.633  67.852  1.00  0.00    -0.392 C  
HETATM   35  O   UNL     1      -9.449  18.808  68.922  1.00  0.00    -0.336 OA 
HETATM   36  O   UNL     1     -10.493  19.571  67.105  1.00  0.00    -0.413 OA 
ENDBRANCH  32  33
ENDBRANCH  30  32
ENDBRANCH  29  30
ENDBRANCH  28  29
ENDBRANCH  26  28
ENDBRANCH   4  26
TORSDOF 6
ENDMDL
MODEL      124
REMARK 921   NORMALIZED FREE ENERGY PREDICTED BY IDOCK:   -3.82 KCAL/MOL
REMARK 922        TOTAL FREE ENERGY PREDICTED BY IDOCK:   -5.50 KCAL/MOL
REMARK 923 INTER-LIGAND FREE ENERGY PREDICTED BY IDOCK:   -5.55 KCAL/MOL
REMARK 924 INTRA-LIGAND FREE ENERGY PREDICTED BY IDOCK:    0.05 KCAL/MOL
REMARK 927      BINDING AFFINITY PREDICTED BY RF-SCORE:    0.00 PKD
ROOT
HETATM    1  C   UNL     1      -6.546  11.768  69.276  1.00  0.00    -0.112 C  
HETATM    2  C   UNL     1      -5.497  11.080  68.618  1.00  0.00    -0.039 C  
HETATM    3  C   UNL     1      -6.818  11.131  67.908  1.00  0.00    -0.068 C  
HETATM    4  C   UNL     1      -8.226  12.534  68.524  1.00  0.00    -0.079 C  
HETATM    5  C   UNL     1      -8.860   6.452  70.693  1.00  0.00    -0.144 C  
HETATM    6  O   UNL     1      -7.893  13.439  69.651  1.00  0.00     0.046 OA 
HETATM    7  C   UNL     1      -7.185  12.579  67.640  1.00  0.00    -0.136 C  
HETATM    8  C   UNL     1      -6.313  13.698  67.157  1.00  0.00     0.580 C  
HETATM    9  H   UNL     1      -8.535  14.079  69.933  1.00  0.00     0.000 HD 
HETATM   10  C   UNL     1      -9.887   5.918  69.790  1.00  0.00    -0.169 C  
HETATM   11  C   UNL     1      -8.732   7.790  70.600  1.00  0.00    -0.139 C  
HETATM   12  C   UNL     1      -8.426  11.556  66.607  1.00  0.00    -0.172 C  
HETATM   13  C   UNL     1      -6.994   7.755  72.452  1.00  0.00    -0.071 C  
HETATM   14  C   UNL     1      -9.367  10.516  67.615  1.00  0.00    -0.149 C  
HETATM   15  O   UNL     1     -10.410  11.347  68.158  1.00  0.00    -0.177 OA 
HETATM   16  C   UNL     1      -8.665   9.628  68.840  1.00  0.00    -0.132 C  
HETATM   17  C   UNL     1     -10.715   9.215  70.203  1.00  0.00    -0.263 C  
HETATM   18  C   UNL     1      -9.552   8.516  69.502  1.00  0.00    -0.170 C  
HETATM   19  C   UNL     1      -9.887   7.426  68.355  1.00  0.00    -0.165 C  
HETATM   20  H   UNL     1     -10.927  10.776  68.713  1.00  0.00     0.000 HD 
HETATM   21  C   UNL     1      -7.761  10.568  69.952  1.00  0.00    -0.017 C  
HETATM   22  C   UNL     1      -7.010   9.658  70.911  1.00  0.00    -0.042 C  
HETATM   23  O   UNL     1     -10.966   5.488  70.158  1.00  0.00    -0.286 OA 
HETATM   24  C   UNL     1      -7.902   8.614  71.573  1.00  0.00    -0.163 C  
HETATM   25  C   UNL     1      -9.531   6.129  68.330  1.00  0.00    -0.119 C  
ENDROOT
BRANCH   4  26
HETATM   26  C   UNL     1      -9.230  13.812  67.684  1.00  0.00    -0.207 C  
HETATM   27  O   UNL     1      -9.206  13.978  66.452  1.00  0.00    -0.246 OA 
BRANCH  26  28
HETATM   28  C   UNL     1     -10.131  14.929  68.435  1.00  0.00    -0.225 C  
BRANCH  28  29
HETATM   29  O   UNL     1     -10.806  14.301  69.646  1.00  0.00    -0.184 OA 
BRANCH  29  30
HETATM   30  C   UNL     1     -11.538  15.043  70.545  1.00  0.00    -0.298 C  
HETATM   31  O   UNL     1     -11.045  15.608  71.510  1.00  0.00    -0.332 OA 
BRANCH  30  32
HETATM   32  C   UNL     1     -13.059  15.089  70.227  1.00  0.00    -0.124 C  
BRANCH  32  33
HETATM   33  C   UNL     1     -13.970  14.883  71.457  1.00  0.00    -0.571 C  
HETATM   34  C   UNL     1     -13.579  13.830  72.486  1.00  0.00    -0.575 C  
HETATM   35  O   UNL     1     -13.489  12.558  72.060  1.00  0.00    -0.493 OA 
HETATM   36  O   UNL     1     -13.364  14.108  73.659  1.00  0.00    -0.112 OA 
ENDBRANCH  32  33
ENDBRANCH  30  32
ENDBRANCH  29  30
ENDBRANCH  28  29
ENDBRANCH  26  28
ENDBRANCH   4  26
TORSDOF 6
ENDMDL
MODEL      125
REMARK 921   NORMALIZED FREE ENERGY PREDICTED BY IDOCK:   -3.75 KCAL/MOL
REMARK 922        TOTAL FREE ENERGY PREDICTED BY IDOCK:   -5.41 KCAL/MOL
REMARK 923 INTER-LIGAND FREE ENERGY PREDICTED BY IDOCK:   -5.80 KCAL/MOL
REMARK 924 INTRA-LIGAND FREE ENERGY PREDICTED BY IDOCK:    0.39 KCAL/MOL
REMARK 927      BINDING AFFINITY PREDICTED BY RF-SCORE:    0.00 PKD
ROOT
HETATM    1  C   UNL     1     -10.919  11.329  67.834  1.00  0.00    -0.302 C  
HETATM    2  C   UNL     1     -11.622  11.727  66.671  1.00  0.00    -0.273 C  
HETATM    3  C   UNL     1     -10.129  11.619  66.552  1.00  0.00    -0.239 C  
HETATM    4  C   UNL     1      -9.090  10.556  68.007  1.00  0.00    -0.138 C  
HETATM    5  C   UNL     1      -9.261  17.022  68.521  1.00  0.00    -0.266 C  
HETATM    6  O   UNL     1      -9.846   9.941  69.126  1.00  0.00    -0.178 OA 
HETATM    7  C   UNL     1      -9.708  10.191  66.845  1.00  0.00    -0.233 C  
HETATM    8  C   UNL     1     -10.340   8.910  66.391  1.00  0.00    -0.189 C  
HETATM    9  H   UNL     1      -9.372   9.456  69.790  1.00  0.00     0.000 HD 
HETATM   10  C   UNL     1      -7.957  17.400  67.963  1.00  0.00    -0.224 C  
HETATM   11  C   UNL     1      -9.361  15.698  68.753  1.00  0.00    -0.213 C  
HETATM   12  C   UNL     1      -8.150  11.028  66.119  1.00  0.00    -0.141 C  
HETATM   13  C   UNL     1     -11.680  16.043  69.731  1.00  0.00    -0.267 C  
HETATM   14  C   UNL     1      -7.658  12.372  67.085  1.00  0.00    -0.104 C  
HETATM   15  O   UNL     1      -6.919  11.807  68.184  1.00  0.00    -0.068 OA 
HETATM   16  C   UNL     1      -8.767  13.474  67.666  1.00  0.00    -0.194 C  
HETATM   17  C   UNL     1      -7.399  14.409  69.533  1.00  0.00    -0.011 C  
HETATM   18  C   UNL     1      -8.190  14.795  68.285  1.00  0.00    -0.142 C  
HETATM   19  C   UNL     1      -7.422  15.583  67.100  1.00  0.00    -0.244 C  
HETATM   20  H   UNL     1      -6.648  12.547  68.715  1.00  0.00     0.000 HD 
HETATM   21  C   UNL     1     -10.044  12.769  68.565  1.00  0.00    -0.189 C  
HETATM   22  C   UNL     1     -11.095  13.820  68.886  1.00  0.00    -0.300 C  
HETATM   23  O   UNL     1      -7.099  18.008  68.579  1.00  0.00    -0.237 OA 
HETATM   24  C   UNL     1     -10.515  15.076  69.526  1.00  0.00    -0.245 C  
HETATM   25  C   UNL     1      -7.723  16.793  66.593  1.00  0.00    -0.308 C  
ENDROOT
BRANCH   4  26
HETATM   26  C   UNL     1      -7.857   9.204  67.987  1.00  0.00    -0.100 C  
HETATM   27  O   UNL     1      -6.943   9.120  68.826  1.00  0.00    -0.060 OA 
BRANCH  26  28
HETATM   28  C   UNL     1      -7.734   8.077  66.830  1.00  0.00    -0.099 C  
BRANCH  28  29
HETATM   29  O   UNL     1      -7.890   6.696  67.453  1.00  0.00    -0.109 OA 
BRANCH  29  30
HETATM   30  C   UNL     1      -7.935   5.550  66.693  1.00  0.00    -0.101 C  
HETATM   31  O   UNL     1      -8.457   4.511  67.071  1.00  0.00    -0.105 OA 
BRANCH  30  32
HETATM   32  C   UNL     1      -7.249   5.692  65.306  1.00  0.00    -0.067 C  
BRANCH  32  33
HETATM   33  C   UNL     1      -8.230   5.715  64.112  1.00  0.00    -0.111 C  
HETATM   34  C   UNL     1      -8.749   4.389  63.570  1.00  0.00    -0.129 C  
HETATM   35  O   UNL     1      -7.839   3.521  63.095  1.00  0.00    -0.066 OA 
HETATM   36  O   UNL     1      -9.942   4.112  63.548  1.00  0.00    -0.149 OA 
ENDBRANCH  32  33
ENDBRANCH  30  32
ENDBRANCH  29  30
ENDBRANCH  28  29
ENDBRANCH  26  28
ENDBRANCH   4  26
TORSDOF 6
ENDMDL
MODEL      126
REMARK 921   NORMALIZED FREE ENERGY PREDICTED BY IDOCK:   -3.71 KCAL/MOL
REMARK 922        TOTAL FREE ENERGY PREDICTED BY IDOCK:   -5.35 KCAL/MOL
REMARK 923 INTER-LIGAND FREE ENERGY PREDICTED BY IDOCK:   -5.76 KCAL/MOL
REMARK 924 INTRA-LIGAND FREE ENERGY PREDICTED BY IDOCK:    0.41 KCAL/MOL
REMARK 927      BINDING AFFINITY PREDICTED BY RF-SCORE:    0.00 PKD
ROOT
HETATM    1  C   UNL     1     -11.041  14.298  69.635  1.00  0.00    -0.218 C  
HETATM    2  C   UNL     1     -12.409  14.644  69.761  1.00  0.00    -0.306 C  
HETATM    3  C   UNL     1     -11.920  14.325  68.378  1.00  0.00    -0.344 C  
HETATM    4  C   UNL     1     -10.113  13.315  68.170  1.00  0.00    -0.241 C  
HETATM    5  C   UNL     1     -10.084  19.760  67.427  1.00  0.00    -0.555 C  
HETATM    6  O   UNL     1      -9.352  12.945  69.388  1.00  0.00     0.175 OA 
HETATM    7  C   UNL     1     -11.402  12.899  68.349  1.00  0.00    -0.329 C  
HETATM    8  C   UNL     1     -11.994  11.669  68.967  1.00  0.00    -0.368 C  
HETATM    9  H   UNL     1      -8.527  12.484  69.294  1.00  0.00     0.000 HD 
HETATM   10  C   UNL     1     -10.101  19.893  65.965  1.00  0.00    -0.487 C  
HETATM   11  C   UNL     1      -9.835  18.500  67.831  1.00  0.00    -0.352 C  
HETATM   12  C   UNL     1     -11.498  13.428  66.515  1.00  0.00    -0.372 C  
HETATM   13  C   UNL     1      -9.878  19.264  70.253  1.00  0.00     0.976 C  
HETATM   14  C   UNL     1     -10.496  14.801  66.209  1.00  0.00    -0.296 C  
HETATM   15  O   UNL     1      -9.164  14.278  66.053  1.00  0.00    -0.504 OA 
HETATM   16  C   UNL     1     -10.467  16.102  67.252  1.00  0.00    -0.309 C  
HETATM   17  C   UNL     1      -8.269  17.064  66.564  1.00  0.00    -0.314 C  
HETATM   18  C   UNL     1      -9.748  17.399  66.741  1.00  0.00    -0.293 C  
HETATM   19  C   UNL     1     -10.575  17.931  65.457  1.00  0.00    -0.016 C  
HETATM   20  H   UNL     1      -8.613  15.033  65.885  1.00  0.00     0.000 HD 
HETATM   21  C   UNL     1     -10.108  15.686  68.875  1.00  0.00    -0.217 C  
HETATM   22  C   UNL     1     -10.291  16.898  69.775  1.00  0.00    -0.021 C  
HETATM   23  O   UNL     1      -9.232  20.450  65.318  1.00  0.00     0.234 OA 
HETATM   24  C   UNL     1      -9.548  18.133  69.279  1.00  0.00     0.059 C  
HETATM   25  C   UNL     1     -11.229  19.100  65.331  1.00  0.00     0.738 C  
ENDROOT
BRANCH   4  26
HETATM   26  C   UNL     1      -9.566  11.819  67.270  1.00  0.00    -0.176 C  
HETATM   27  O   UNL     1      -8.383  11.436  67.268  1.00  0.00    -0.138 OA 
BRANCH  26  28
HETATM   28  C   UNL     1     -10.501  10.927  66.294  1.00  0.00    -0.245 C  
BRANCH  28  29
HETATM   29  O   UNL     1     -10.606   9.513  66.849  1.00  0.00    -0.231 OA 
BRANCH  29  30
HETATM   30  C   UNL     1      -9.811   8.486  66.394  1.00  0.00    -0.257 C  
HETATM   31  O   UNL     1      -8.848   8.655  65.660  1.00  0.00    -0.175 OA 
BRANCH  30  32
HETATM   32  C   UNL     1     -10.257   7.083  66.891  1.00  0.00    -0.318 C  
BRANCH  32  33
HETATM   33  C   UNL     1      -9.671   6.680  68.262  1.00  0.00    -0.132 C  
HETATM   34  C   UNL     1     -10.572   6.749  69.489  1.00  0.00    -0.232 C  
HETATM   35  O   UNL     1     -11.083   7.950  69.809  1.00  0.00    -0.196 OA 
HETATM   36  O   UNL     1     -10.821   5.766  70.175  1.00  0.00    -0.303 OA 
ENDBRANCH  32  33
ENDBRANCH  30  32
ENDBRANCH  29  30
ENDBRANCH  28  29
ENDBRANCH  26  28
ENDBRANCH   4  26
TORSDOF 6
ENDMDL
MODEL      127
REMARK 921   NORMALIZED FREE ENERGY PREDICTED BY IDOCK:   -3.70 KCAL/MOL
REMARK 922        TOTAL FREE ENERGY PREDICTED BY IDOCK:   -5.34 KCAL/MOL
REMARK 923 INTER-LIGAND FREE ENERGY PREDICTED BY IDOCK:   -5.87 KCAL/MOL
REMARK 924 INTRA-LIGAND FREE ENERGY PREDICTED BY IDOCK:    0.53 KCAL/MOL
REMARK 927      BINDING AFFINITY PREDICTED BY RF-SCORE:    0.00 PKD
ROOT
HETATM    1  C   UNL     1     -10.725  10.780  69.952  1.00  0.00    -0.202 C  
HETATM    2  C   UNL     1     -12.126  10.573  69.963  1.00  0.00    -0.351 C  
HETATM    3  C   UNL     1     -11.391  10.138  68.729  1.00  0.00    -0.172 C  
HETATM    4  C   UNL     1      -9.325   9.912  68.830  1.00  0.00    -0.157 C  
HETATM    5  C   UNL     1     -11.648  15.425  66.321  1.00  0.00     0.107 C  
HETATM    6  O   UNL     1      -8.633  10.193  70.112  1.00  0.00    -0.353 OA 
HETATM    7  C   UNL     1     -10.372   9.078  69.104  1.00  0.00    -0.229 C  
HETATM    8  C   UNL     1     -10.524   7.912  70.034  1.00  0.00    -0.231 C  
HETATM    9  H   UNL     1      -7.690  10.090  70.158  1.00  0.00     0.000 HD 
HETATM   10  C   UNL     1     -11.538  15.168  64.880  1.00  0.00    -0.336 C  
HETATM   11  C   UNL     1     -10.991  14.513  67.063  1.00  0.00    -0.312 C  
HETATM   12  C   UNL     1     -10.440   9.045  67.194  1.00  0.00    -0.333 C  
HETATM   13  C   UNL     1     -11.611  15.780  69.176  1.00  0.00    -0.399 C  
HETATM   14  C   UNL     1     -10.003  10.578  66.529  1.00  0.00    -0.214 C  
HETATM   15  O   UNL     1      -8.564  10.606  66.539  1.00  0.00    -0.135 OA 
HETATM   16  C   UNL     1     -10.594  12.000  67.168  1.00  0.00    -0.255 C  
HETATM   17  C   UNL     1      -8.858  13.548  66.264  1.00  0.00     0.227 C  
HETATM   18  C   UNL     1     -10.363  13.302  66.324  1.00  0.00    -0.290 C  
HETATM   19  C   UNL     1     -11.170  13.120  64.934  1.00  0.00    -0.333 C  
HETATM   20  H   UNL     1      -8.324  11.449  66.173  1.00  0.00     0.000 HD 
HETATM   21  C   UNL     1     -10.303  12.184  68.847  1.00  0.00    -0.098 C  
HETATM   22  C   UNL     1     -11.037  13.408  69.371  1.00  0.00    -0.160 C  
HETATM   23  O   UNL     1     -10.873  15.842  64.113  1.00  0.00    -0.151 OA 
HETATM   24  C   UNL     1     -10.763  14.668  68.559  1.00  0.00    -0.248 C  
HETATM   25  C   UNL     1     -12.197  13.861  64.480  1.00  0.00    -0.451 C  
ENDROOT
BRANCH   4  26
HETATM   26  C   UNL     1      -8.148   8.582  68.389  1.00  0.00    -0.122 C  
HETATM   27  O   UNL     1      -8.392   7.380  68.592  1.00  0.00    -0.127 OA 
BRANCH  26  28
HETATM   28  C   UNL     1      -6.647   8.817  67.829  1.00  0.00    -0.061 C  
BRANCH  28  29
HETATM   29  O   UNL     1      -6.672   8.827  66.307  1.00  0.00    -0.071 OA 
BRANCH  29  30
HETATM   30  C   UNL     1      -7.259   7.818  65.577  1.00  0.00    -0.064 C  
HETATM   31  O   UNL     1      -8.282   7.967  64.924  1.00  0.00    -0.147 OA 
BRANCH  30  32
HETATM   32  C   UNL     1      -6.507   6.461  65.669  1.00  0.00    -0.039 C  
BRANCH  32  33
HETATM   33  C   UNL     1      -7.180   5.310  64.889  1.00  0.00    -0.066 C  
HETATM   34  C   UNL     1      -6.443   3.981  64.771  1.00  0.00    -0.042 C  
HETATM   35  O   UNL     1      -5.245   3.993  64.162  1.00  0.00    -0.008 OA 
HETATM   36  O   UNL     1      -6.912   2.932  65.196  1.00  0.00    -0.050 OA 
ENDBRANCH  32  33
ENDBRANCH  30  32
ENDBRANCH  29  30
ENDBRANCH  28  29
ENDBRANCH  26  28
ENDBRANCH   4  26
TORSDOF 6
ENDMDL
MODEL      128
REMARK 921   NORMALIZED FREE ENERGY PREDICTED BY IDOCK:   -3.57 KCAL/MOL
REMARK 922        TOTAL FREE ENERGY PREDICTED BY IDOCK:   -5.17 KCAL/MOL
REMARK 923 INTER-LIGAND FREE ENERGY PREDICTED BY IDOCK:   -5.61 KCAL/MOL
REMARK 924 INTRA-LIGAND FREE ENERGY PREDICTED BY IDOCK:    0.44 KCAL/MOL
REMARK 927      BINDING AFFINITY PREDICTED BY RF-SCORE:    0.00 PKD
ROOT
HETATM    1  C   UNL     1     -10.620   8.936  68.016  1.00  0.00    -0.226 C  
HETATM    2  C   UNL     1     -10.179   8.469  69.279  1.00  0.00    -0.211 C  
HETATM    3  C   UNL     1      -9.191   9.258  68.470  1.00  0.00    -0.135 C  
HETATM    4  C   UNL     1      -9.894  10.410  66.887  1.00  0.00    -0.191 C  
HETATM    5  C   UNL     1      -7.394   4.582  65.514  1.00  0.00    -0.080 C  
HETATM    6  O   UNL     1     -11.348  10.416  66.593  1.00  0.00    -0.024 OA 
HETATM    7  C   UNL     1      -9.744  10.648  68.223  1.00  0.00    -0.169 C  
HETATM    8  C   UNL     1     -10.454  11.562  69.176  1.00  0.00    -0.135 C  
HETATM    9  H   UNL     1     -11.670  10.942  65.871  1.00  0.00     0.000 HD 
HETATM   10  C   UNL     1      -6.037   4.934  65.079  1.00  0.00    -0.030 C  
HETATM   11  C   UNL     1      -8.200   5.656  65.619  1.00  0.00    -0.126 C  
HETATM   12  C   UNL     1      -7.913  10.743  67.684  1.00  0.00    -0.110 C  
HETATM   13  C   UNL     1     -10.144   4.141  66.235  1.00  0.00    -0.126 C  
HETATM   14  C   UNL     1      -7.580   9.623  66.412  1.00  0.00    -0.101 C  
HETATM   15  O   UNL     1      -8.033  10.264  65.206  1.00  0.00    -0.142 OA 
HETATM   16  C   UNL     1      -8.155   8.058  66.463  1.00  0.00    -0.103 C  
HETATM   17  C   UNL     1      -7.995   7.539  64.027  1.00  0.00    -0.091 C  
HETATM   18  C   UNL     1      -7.565   7.056  65.410  1.00  0.00    -0.097 C  
HETATM   19  C   UNL     1      -5.983   6.914  65.719  1.00  0.00    -0.035 C  
HETATM   20  H   UNL     1      -7.850   9.648  64.507  1.00  0.00     0.000 HD 
HETATM   21  C   UNL     1      -9.852   7.945  66.674  1.00  0.00    -0.311 C  
HETATM   22  C   UNL     1     -10.253   6.496  66.897  1.00  0.00    -0.279 C  
HETATM   23  O   UNL     1      -5.586   4.685  63.975  1.00  0.00    -0.013 OA 
HETATM   24  C   UNL     1      -9.702   5.549  65.837  1.00  0.00    -0.058 C  
HETATM   25  C   UNL     1      -5.318   5.806  66.092  1.00  0.00    -0.009 C  
ENDROOT
BRANCH   4  26
HETATM   26  C   UNL     1      -9.696  12.154  66.370  1.00  0.00    -0.231 C  
HETATM   27  O   UNL     1     -10.240  12.615  65.352  1.00  0.00    -0.281 OA 
BRANCH  26  28
HETATM   28  C   UNL     1      -8.712  13.227  67.080  1.00  0.00    -0.186 C  
BRANCH  28  29
HETATM   29  O   UNL     1      -9.493  14.495  67.398  1.00  0.00    -0.195 OA 
BRANCH  29  30
HETATM   30  C   UNL     1      -8.953  15.522  68.139  1.00  0.00    -0.179 C  
HETATM   31  O   UNL     1      -7.758  15.778  68.164  1.00  0.00    -0.124 OA 
BRANCH  30  32
HETATM   32  C   UNL     1     -10.005  16.324  68.954  1.00  0.00    -0.248 C  
BRANCH  32  33
HETATM   33  C   UNL     1     -10.769  17.386  68.132  1.00  0.00    -0.343 C  
HETATM   34  C   UNL     1      -9.980  18.529  67.506  1.00  0.00    -0.332 C  
HETATM   35  O   UNL     1      -9.302  19.337  68.339  1.00  0.00    -0.332 OA 
HETATM   36  O   UNL     1      -9.961  18.728  66.297  1.00  0.00    -0.362 OA 
ENDBRANCH  32  33
ENDBRANCH  30  32
ENDBRANCH  29  30
ENDBRANCH  28  29
ENDBRANCH  26  28
ENDBRANCH   4  26
TORSDOF 6
ENDMDL
MODEL      129
REMARK 921   NORMALIZED FREE ENERGY PREDICTED BY IDOCK:   -3.50 KCAL/MOL
REMARK 922        TOTAL FREE ENERGY PREDICTED BY IDOCK:   -5.07 KCAL/MOL
REMARK 923 INTER-LIGAND FREE ENERGY PREDICTED BY IDOCK:   -5.87 KCAL/MOL
REMARK 924 INTRA-LIGAND FREE ENERGY PREDICTED BY IDOCK:    0.80 KCAL/MOL
REMARK 927      BINDING AFFINITY PREDICTED BY RF-SCORE:    0.00 PKD
ROOT
HETATM    1  C   UNL     1      -9.660   9.289  70.661  1.00  0.00    -0.334 C  
HETATM    2  C   UNL     1      -8.528   9.240  71.511  1.00  0.00     0.217 C  
HETATM    3  C   UNL     1      -8.287   8.975  70.053  1.00  0.00    -0.144 C  
HETATM    4  C   UNL     1      -9.751   9.536  68.685  1.00  0.00    -0.155 C  
HETATM    5  C   UNL     1      -9.564   3.322  70.541  1.00  0.00    -0.218 C  
HETATM    6  O   UNL     1     -10.994  10.174  69.184  1.00  0.00    -0.218 OA 
HETATM    7  C   UNL     1      -8.697  10.195  69.250  1.00  0.00    -0.186 C  
HETATM    8  C   UNL     1      -8.445  11.644  69.544  1.00  0.00     0.907 C  
HETATM    9  H   UNL     1     -11.662  10.431  68.559  1.00  0.00     0.000 HD 
HETATM   10  C   UNL     1      -8.852   2.697  69.420  1.00  0.00    -0.094 C  
HETATM   11  C   UNL     1      -9.949   4.585  70.272  1.00  0.00    -0.288 C  
HETATM   12  C   UNL     1      -7.745   9.088  68.016  1.00  0.00    -0.097 C  
HETATM   13  C   UNL     1     -11.088   4.725  72.538  1.00  0.00    -0.124 C  
HETATM   14  C   UNL     1      -8.509   7.549  67.845  1.00  0.00    -0.122 C  
HETATM   15  O   UNL     1      -9.592   7.757  66.919  1.00  0.00    -0.170 OA 
HETATM   16  C   UNL     1      -9.063   6.703  69.171  1.00  0.00    -0.137 C  
HETATM   17  C   UNL     1     -10.684   5.214  67.995  1.00  0.00     0.114 C  
HETATM   18  C   UNL     1      -9.479   5.210  68.932  1.00  0.00    -0.184 C  
HETATM   19  C   UNL     1      -8.149   4.411  68.472  1.00  0.00    -0.081 C  
HETATM   20  H   UNL     1     -10.012   6.910  66.825  1.00  0.00     0.000 HD 
HETATM   21  C   UNL     1     -10.146   7.590  70.160  1.00  0.00    -0.195 C  
HETATM   22  C   UNL     1     -10.444   6.812  71.432  1.00  0.00    -0.238 C  
HETATM   23  O   UNL     1      -9.318   1.814  68.720  1.00  0.00    -0.141 OA 
HETATM   24  C   UNL     1     -10.886   5.377  71.171  1.00  0.00    -0.188 C  
HETATM   25  C   UNL     1      -7.542   3.396  69.113  1.00  0.00    -0.051 C  
ENDROOT
BRANCH   4  26
HETATM   26  C   UNL     1      -9.767  10.516  67.140  1.00  0.00    -0.171 C  
HETATM   27  O   UNL     1     -10.404  10.164  66.132  1.00  0.00    -0.227 OA 
BRANCH  26  28
HETATM   28  C   UNL     1      -8.874  11.840  66.870  1.00  0.00    -0.191 C  
BRANCH  28  29
HETATM   29  O   UNL     1      -9.774  13.068  66.887  1.00  0.00    -0.225 OA 
BRANCH  29  30
HETATM   30  C   UNL     1     -11.074  13.018  67.337  1.00  0.00    -0.272 C  
HETATM   31  O   UNL     1     -11.380  12.713  68.480  1.00  0.00    -0.252 OA 
BRANCH  30  32
HETATM   32  C   UNL     1     -12.125  13.372  66.248  1.00  0.00    -0.475 C  
BRANCH  32  33
HETATM   33  C   UNL     1     -12.226  12.340  65.104  1.00  0.00    -0.345 C  
HETATM   34  C   UNL     1     -11.730  12.736  63.719  1.00  0.00    -0.493 C  
HETATM   35  O   UNL     1     -12.331  13.784  63.127  1.00  0.00    -0.726 OA 
HETATM   36  O   UNL     1     -10.833  12.131  63.146  1.00  0.00    -0.366 OA 
ENDBRANCH  32  33
ENDBRANCH  30  32
ENDBRANCH  29  30
ENDBRANCH  28  29
ENDBRANCH  26  28
ENDBRANCH   4  26
TORSDOF 6
ENDMDL
MODEL      130
REMARK 921   NORMALIZED FREE ENERGY PREDICTED BY IDOCK:   -3.44 KCAL/MOL
REMARK 922        TOTAL FREE ENERGY PREDICTED BY IDOCK:   -4.99 KCAL/MOL
REMARK 923 INTER-LIGAND FREE ENERGY PREDICTED BY IDOCK:   -5.73 KCAL/MOL
REMARK 924 INTRA-LIGAND FREE ENERGY PREDICTED BY IDOCK:    0.75 KCAL/MOL
REMARK 927      BINDING AFFINITY PREDICTED BY RF-SCORE:    0.00 PKD
ROOT
HETATM    1  C   UNL     1      -9.043   4.600  68.917  1.00  0.00    -0.163 C  
HETATM    2  C   UNL     1      -7.836   3.862  68.847  1.00  0.00    -0.056 C  
HETATM    3  C   UNL     1      -7.807   5.125  69.659  1.00  0.00    -0.072 C  
HETATM    4  C   UNL     1      -9.615   5.970  70.248  1.00  0.00    -0.163 C  
HETATM    5  C   UNL     1      -6.666   8.456  65.031  1.00  0.00    -0.063 C  
HETATM    6  O   UNL     1     -10.881   5.311  69.845  1.00  0.00    -0.241 OA 
HETATM    7  C   UNL     1      -8.809   5.011  70.793  1.00  0.00    -0.156 C  
HETATM    8  C   UNL     1      -9.086   3.843  71.691  1.00  0.00    -0.170 C  
HETATM    9  H   UNL     1     -11.707   5.696  70.114  1.00  0.00     0.000 HD 
HETATM   10  C   UNL     1      -6.007   9.639  65.596  1.00  0.00    -0.061 C  
HETATM   11  C   UNL     1      -7.556   7.904  65.878  1.00  0.00    -0.083 C  
HETATM   12  C   UNL     1      -7.769   6.561  71.205  1.00  0.00    -0.098 C  
HETATM   13  C   UNL     1      -8.184   6.192  64.109  1.00  0.00    -0.031 C  
HETATM   14  C   UNL     1      -7.894   7.745  69.953  1.00  0.00    -0.105 C  
HETATM   15  O   UNL     1      -9.134   8.435  70.198  1.00  0.00    -0.146 OA 
HETATM   16  C   UNL     1      -7.800   7.318  68.344  1.00  0.00    -0.122 C  
HETATM   17  C   UNL     1      -8.916   9.329  67.374  1.00  0.00    -0.135 C  
HETATM   18  C   UNL     1      -7.642   8.489  67.312  1.00  0.00    -0.097 C  
HETATM   19  C   UNL     1      -6.228   9.211  67.620  1.00  0.00    -0.058 C  
HETATM   20  H   UNL     1      -9.202   9.086  69.510  1.00  0.00     0.000 HD 
HETATM   21  C   UNL     1      -8.921   6.109  67.877  1.00  0.00    -0.112 C  
HETATM   22  C   UNL     1      -8.634   5.654  66.455  1.00  0.00    -0.123 C  
HETATM   23  O   UNL     1      -6.223  10.783  65.233  1.00  0.00    -0.085 OA 
HETATM   24  C   UNL     1      -8.527   6.808  65.465  1.00  0.00    -0.124 C  
HETATM   25  C   UNL     1      -5.160   9.299  66.807  1.00  0.00    -0.034 C  
ENDROOT
BRANCH   4  26
HETATM   26  C   UNL     1     -10.318   6.538  71.839  1.00  0.00    -0.200 C  
HETATM   27  O   UNL     1     -10.553   5.761  72.781  1.00  0.00    -0.202 OA 
BRANCH  26  28
HETATM   28  C   UNL     1     -10.826   8.045  72.145  1.00  0.00    -0.279 C  
BRANCH  28  29
HETATM   29  O   UNL     1     -12.236   8.222  71.601  1.00  0.00    -0.288 OA 
BRANCH  29  30
HETATM   30  C   UNL     1     -12.706   9.441  71.166  1.00  0.00    -0.269 C  
HETATM   31  O   UNL     1     -13.892   9.680  70.988  1.00  0.00    -0.219 OA 
BRANCH  30  32
HETATM   32  C   UNL     1     -11.586  10.487  70.906  1.00  0.00    -0.385 C  
BRANCH  32  33
HETATM   33  C   UNL     1     -12.056  11.739  70.134  1.00  0.00    -0.398 C  
HETATM   34  C   UNL     1     -11.514  11.975  68.729  1.00  0.00    -0.300 C  
HETATM   35  O   UNL     1     -10.184  12.119  68.600  1.00  0.00    -0.220 OA 
HETATM   36  O   UNL     1     -12.244  12.047  67.748  1.00  0.00    -0.474 OA 
ENDBRANCH  32  33
ENDBRANCH  30  32
ENDBRANCH  29  30
ENDBRANCH  28  29
ENDBRANCH  26  28
ENDBRANCH   4  26
TORSDOF 6
ENDMDL
MODEL      131
REMARK 921   NORMALIZED FREE ENERGY PREDICTED BY IDOCK:   -3.41 KCAL/MOL
REMARK 922        TOTAL FREE ENERGY PREDICTED BY IDOCK:   -4.95 KCAL/MOL
REMARK 923 INTER-LIGAND FREE ENERGY PREDICTED BY IDOCK:   -4.99 KCAL/MOL
REMARK 924 INTRA-LIGAND FREE ENERGY PREDICTED BY IDOCK:    0.04 KCAL/MOL
REMARK 927      BINDING AFFINITY PREDICTED BY RF-SCORE:    0.00 PKD
ROOT
HETATM    1  C   UNL     1      -9.649   9.975  68.933  1.00  0.00    -0.181 C  
HETATM    2  C   UNL     1     -10.991   9.810  68.512  1.00  0.00    -0.195 C  
HETATM    3  C   UNL     1     -10.289   8.585  69.020  1.00  0.00    -0.229 C  
HETATM    4  C   UNL     1      -8.546   8.825  70.130  1.00  0.00    -0.146 C  
HETATM    5  C   UNL     1      -7.952   7.381  63.833  1.00  0.00    -0.082 C  
HETATM    6  O   UNL     1      -8.038  10.196  70.383  1.00  0.00    -0.403 OA 
HETATM    7  C   UNL     1      -9.871   8.811  70.461  1.00  0.00    -0.224 C  
HETATM    8  C   UNL     1     -10.645   9.444  71.578  1.00  0.00    -0.331 C  
HETATM    9  H   UNL     1      -7.243  10.306  70.890  1.00  0.00     0.000 HD 
HETATM   10  C   UNL     1      -7.702   5.935  63.880  1.00  0.00    -0.096 C  
HETATM   11  C   UNL     1      -7.863   7.963  65.045  1.00  0.00    -0.120 C  
HETATM   12  C   UNL     1      -9.607   6.942  70.157  1.00  0.00    -0.162 C  
HETATM   13  C   UNL     1      -8.281  10.235  63.988  1.00  0.00    -0.151 C  
HETATM   14  C   UNL     1      -8.476   6.673  68.880  1.00  0.00    -0.123 C  
HETATM   15  O   UNL     1      -7.176   6.823  69.479  1.00  0.00    -0.076 OA 
HETATM   16  C   UNL     1      -8.544   7.551  67.463  1.00  0.00    -0.122 C  
HETATM   17  C   UNL     1      -6.199   7.173  66.696  1.00  0.00    -0.039 C  
HETATM   18  C   UNL     1      -7.660   7.037  66.273  1.00  0.00    -0.092 C  
HETATM   19  C   UNL     1      -8.211   5.572  65.865  1.00  0.00    -0.121 C  
HETATM   20  H   UNL     1      -6.554   6.675  68.776  1.00  0.00     0.000 HD 
HETATM   21  C   UNL     1      -8.505   9.249  67.693  1.00  0.00    -0.116 C  
HETATM   22  C   UNL     1      -8.762   9.958  66.373  1.00  0.00    -0.144 C  
HETATM   23  O   UNL     1      -6.697   5.399  63.447  1.00  0.00    -0.032 OA 
HETATM   24  C   UNL     1      -7.861   9.471  65.243  1.00  0.00    -0.111 C  
HETATM   25  C   UNL     1      -8.752   5.199  64.691  1.00  0.00    -0.120 C  
ENDROOT
BRANCH   4  26
HETATM   26  C   UNL     1      -7.951   8.214  71.749  1.00  0.00    -0.121 C  
HETATM   27  O   UNL     1      -7.052   8.787  72.390  1.00  0.00    -0.284 OA 
BRANCH  26  28
HETATM   28  C   UNL     1      -8.414   6.828  72.447  1.00  0.00    -0.119 C  
BRANCH  28  29
HETATM   29  O   UNL     1      -7.320   5.784  72.270  1.00  0.00    -0.087 OA 
BRANCH  29  30
HETATM   30  C   UNL     1      -7.591   4.503  71.843  1.00  0.00    -0.083 C  
HETATM   31  O   UNL     1      -7.106   4.014  70.834  1.00  0.00    -0.032 OA 
BRANCH  30  32
HETATM   32  C   UNL     1      -8.585   3.737  72.759  1.00  0.00    -0.097 C  
BRANCH  32  33
HETATM   33  C   UNL     1     -10.061   3.831  72.312  1.00  0.00    -0.228 C  
HETATM   34  C   UNL     1     -11.070   4.468  73.259  1.00  0.00    -0.304 C  
HETATM   35  O   UNL     1     -11.238   3.887  74.459  1.00  0.00     0.078 OA 
HETATM   36  O   UNL     1     -11.721   5.460  72.953  1.00  0.00    -0.297 OA 
ENDBRANCH  32  33
ENDBRANCH  30  32
ENDBRANCH  29  30
ENDBRANCH  28  29
ENDBRANCH  26  28
ENDBRANCH   4  26
TORSDOF 6
ENDMDL
MODEL      132
REMARK 921   NORMALIZED FREE ENERGY PREDICTED BY IDOCK:   -3.34 KCAL/MOL
REMARK 922        TOTAL FREE ENERGY PREDICTED BY IDOCK:   -4.86 KCAL/MOL
REMARK 923 INTER-LIGAND FREE ENERGY PREDICTED BY IDOCK:   -5.47 KCAL/MOL
REMARK 924 INTRA-LIGAND FREE ENERGY PREDICTED BY IDOCK:    0.60 KCAL/MOL
REMARK 927      BINDING AFFINITY PREDICTED BY RF-SCORE:    0.00 PKD
ROOT
HETATM    1  C   UNL     1      -8.050  15.167  69.468  1.00  0.00    -0.167 C  
HETATM    2  C   UNL     1      -7.235  14.009  69.489  1.00  0.00     0.095 C  
HETATM    3  C   UNL     1      -7.228  14.814  68.222  1.00  0.00    -0.115 C  
HETATM    4  C   UNL     1      -7.951  16.764  68.279  1.00  0.00    -0.200 C  
HETATM    5  C   UNL     1     -11.928  12.122  66.105  1.00  0.00    -0.225 C  
HETATM    6  O   UNL     1      -8.461  17.304  69.564  1.00  0.00     0.247 OA 
HETATM    7  C   UNL     1      -6.725  16.214  68.524  1.00  0.00    -0.126 C  
HETATM    8  C   UNL     1      -5.578  16.635  69.392  1.00  0.00    -0.151 C  
HETATM    9  H   UNL     1      -8.791  18.194  69.591  1.00  0.00     0.000 HD 
HETATM   10  C   UNL     1     -11.807  12.282  64.651  1.00  0.00    -0.367 C  
HETATM   11  C   UNL     1     -11.380  13.146  66.788  1.00  0.00    -0.353 C  
HETATM   12  C   UNL     1      -6.744  16.096  66.616  1.00  0.00     0.189 C  
HETATM   13  C   UNL     1     -12.144  12.104  68.974  1.00  0.00    -0.208 C  
HETATM   14  C   UNL     1      -8.335  15.773  66.028  1.00  0.00     0.278 C  
HETATM   15  O   UNL     1      -9.007  17.047  66.018  1.00  0.00    -0.470 OA 
HETATM   16  C   UNL     1      -9.312  14.632  66.752  1.00  0.00    -0.275 C  
HETATM   17  C   UNL     1     -11.512  15.454  65.906  1.00  0.00    -0.014 C  
HETATM   18  C   UNL     1     -10.612  14.222  65.975  1.00  0.00    -0.302 C  
HETATM   19  C   UNL     1     -10.144  13.531  64.589  1.00  0.00    -0.246 C  
HETATM   20  H   UNL     1      -9.883  16.869  65.695  1.00  0.00     0.000 HD 
HETATM   21  C   UNL     1      -9.538  14.873  68.433  1.00  0.00    -0.209 C  
HETATM   22  C   UNL     1     -10.278  13.687  69.034  1.00  0.00    -0.006 C  
HETATM   23  O   UNL     1     -12.739  12.544  63.911  1.00  0.00    -0.679 OA 
HETATM   24  C   UNL     1     -11.559  13.337  68.286  1.00  0.00    -0.369 C  
HETATM   25  C   UNL     1     -10.362  12.265  64.192  1.00  0.00    -0.396 C  
ENDROOT
BRANCH   4  26
HETATM   26  C   UNL     1      -7.312  18.395  67.750  1.00  0.00    -0.224 C  
HETATM   27  O   UNL     1      -6.742  18.567  66.659  1.00  0.00    -0.183 OA 
BRANCH  26  28
HETATM   28  C   UNL     1      -7.293  19.729  68.670  1.00  0.00    -0.307 C  
BRANCH  28  29
HETATM   29  O   UNL     1      -8.534  19.751  69.552  1.00  0.00     0.030 OA 
BRANCH  29  30
HETATM   30  C   UNL     1      -9.734  20.265  69.117  1.00  0.00     0.214 C  
HETATM   31  O   UNL     1     -10.629  20.616  69.872  1.00  0.00     0.250 OA 
BRANCH  30  32
HETATM   32  C   UNL     1      -9.854  20.349  67.570  1.00  0.00    -0.564 C  
BRANCH  32  33
HETATM   33  C   UNL     1     -11.022  19.527  66.980  1.00  0.00    -0.443 C  
HETATM   34  C   UNL     1     -11.108  19.365  65.468  1.00  0.00     0.214 C  
HETATM   35  O   UNL     1     -11.231  20.485  64.735  1.00  0.00     0.227 OA 
HETATM   36  O   UNL     1     -11.080  18.268  64.924  1.00  0.00    -0.615 OA 
ENDBRANCH  32  33
ENDBRANCH  30  32
ENDBRANCH  29  30
ENDBRANCH  28  29
ENDBRANCH  26  28
ENDBRANCH   4  26
TORSDOF 6
ENDMDL
MODEL      133
REMARK 921   NORMALIZED FREE ENERGY PREDICTED BY IDOCK:   -3.34 KCAL/MOL
REMARK 922        TOTAL FREE ENERGY PREDICTED BY IDOCK:   -4.86 KCAL/MOL
REMARK 923 INTER-LIGAND FREE ENERGY PREDICTED BY IDOCK:   -4.89 KCAL/MOL
REMARK 924 INTRA-LIGAND FREE ENERGY PREDICTED BY IDOCK:    0.03 KCAL/MOL
REMARK 927      BINDING AFFINITY PREDICTED BY RF-SCORE:    0.00 PKD
ROOT
HETATM    1  C   UNL     1     -11.423  10.647  68.267  1.00  0.00    -0.318 C  
HETATM    2  C   UNL     1     -10.988  10.236  69.550  1.00  0.00    -0.300 C  
HETATM    3  C   UNL     1     -10.142  11.258  68.849  1.00  0.00    -0.185 C  
HETATM    4  C   UNL     1     -10.961  12.292  67.239  1.00  0.00    -0.256 C  
HETATM    5  C   UNL     1      -7.116   7.229  65.945  1.00  0.00    -0.066 C  
HETATM    6  O   UNL     1     -12.352  11.988  66.823  1.00  0.00    -0.340 OA 
HETATM    7  C   UNL     1     -10.974  12.501  68.589  1.00  0.00    -0.291 C  
HETATM    8  C   UNL     1     -11.943  13.192  69.500  1.00  0.00    -0.354 C  
HETATM    9  H   UNL     1     -12.727  12.460  66.089  1.00  0.00     0.000 HD 
HETATM   10  C   UNL     1      -5.843   7.892  65.636  1.00  0.00    -0.038 C  
HETATM   11  C   UNL     1      -8.149   8.092  66.006  1.00  0.00    -0.110 C  
HETATM   12  C   UNL     1      -9.174  13.022  68.211  1.00  0.00    -0.191 C  
HETATM   13  C   UNL     1      -9.744   6.158  66.417  1.00  0.00    -0.152 C  
HETATM   14  C   UNL     1      -8.500  12.059  66.946  1.00  0.00    -0.172 C  
HETATM   15  O   UNL     1      -8.990  12.635  65.721  1.00  0.00    -0.410 OA 
HETATM   16  C   UNL     1      -8.711  10.405  66.909  1.00  0.00    -0.130 C  
HETATM   17  C   UNL     1      -8.248  10.039  64.484  1.00  0.00    -0.164 C  
HETATM   18  C   UNL     1      -7.830   9.605  65.887  1.00  0.00    -0.102 C  
HETATM   19  C   UNL     1      -6.286   9.805  66.326  1.00  0.00    -0.069 C  
HETATM   20  H   UNL     1      -8.619  12.106  65.025  1.00  0.00     0.000 HD 
HETATM   21  C   UNL     1     -10.350   9.910  66.971  1.00  0.00    -0.303 C  
HETATM   22  C   UNL     1     -10.431   8.399  67.125  1.00  0.00    -0.380 C  
HETATM   23  O   UNL     1      -5.263   7.796  64.569  1.00  0.00    -0.029 OA 
HETATM   24  C   UNL     1      -9.600   7.645  66.093  1.00  0.00    -0.077 C  
HETATM   25  C   UNL     1      -5.420   8.857  66.728  1.00  0.00    -0.040 C  
ENDROOT
BRANCH   4  26
HETATM   26  C   UNL     1     -11.121  14.057  66.784  1.00  0.00    -0.306 C  
HETATM   27  O   UNL     1     -11.734  14.433  65.771  1.00  0.00    -0.353 OA 
BRANCH  26  28
HETATM   28  C   UNL     1     -10.389  15.284  67.549  1.00  0.00    -0.244 C  
BRANCH  28  29
HETATM   29  O   UNL     1      -9.472  16.010  66.575  1.00  0.00    -0.235 OA 
BRANCH  29  30
HETATM   30  C   UNL     1      -8.102  15.999  66.712  1.00  0.00    -0.267 C  
HETATM   31  O   UNL     1      -7.367  15.258  66.076  1.00  0.00     1.387 OA 
BRANCH  30  32
HETATM   32  C   UNL     1      -7.572  17.013  67.764  1.00  0.00    -0.180 C  
BRANCH  32  33
HETATM   33  C   UNL     1      -6.111  16.765  68.202  1.00  0.00    -0.132 C  
HETATM   34  C   UNL     1      -5.831  16.465  69.670  1.00  0.00    -0.180 C  
HETATM   35  O   UNL     1      -6.177  17.405  70.566  1.00  0.00     0.206 OA 
HETATM   36  O   UNL     1      -5.303  15.423  70.037  1.00  0.00    -0.108 OA 
ENDBRANCH  32  33
ENDBRANCH  30  32
ENDBRANCH  29  30
ENDBRANCH  28  29
ENDBRANCH  26  28
ENDBRANCH   4  26
TORSDOF 6
ENDMDL
MODEL      134
REMARK 921   NORMALIZED FREE ENERGY PREDICTED BY IDOCK:   -3.31 KCAL/MOL
REMARK 922        TOTAL FREE ENERGY PREDICTED BY IDOCK:   -4.82 KCAL/MOL
REMARK 923 INTER-LIGAND FREE ENERGY PREDICTED BY IDOCK:   -5.61 KCAL/MOL
REMARK 924 INTRA-LIGAND FREE ENERGY PREDICTED BY IDOCK:    0.79 KCAL/MOL
REMARK 927      BINDING AFFINITY PREDICTED BY RF-SCORE:    0.00 PKD
ROOT
HETATM    1  C   UNL     1      -7.690  12.328  67.596  1.00  0.00    -0.144 C  
HETATM    2  C   UNL     1      -6.948  12.232  68.799  1.00  0.00    -0.098 C  
HETATM    3  C   UNL     1      -8.167  11.363  68.689  1.00  0.00    -0.142 C  
HETATM    4  C   UNL     1      -8.994  11.044  66.806  1.00  0.00    -0.157 C  
HETATM    5  C   UNL     1     -11.721  15.557  70.587  1.00  0.00    -0.389 C  
HETATM    6  O   UNL     1      -8.365  11.688  65.627  1.00  0.00    -0.370 OA 
HETATM    7  C   UNL     1      -8.003  10.422  67.510  1.00  0.00    -0.106 C  
HETATM    8  C   UNL     1      -6.793   9.644  67.088  1.00  0.00    -0.084 C  
HETATM    9  H   UNL     1      -8.742  11.543  64.767  1.00  0.00     0.000 HD 
HETATM   10  C   UNL     1     -12.869  14.829  71.141  1.00  0.00    -0.341 C  
HETATM   11  C   UNL     1     -11.132  14.900  69.569  1.00  0.00    -0.301 C  
HETATM   12  C   UNL     1      -9.523   9.761  68.463  1.00  0.00    -0.148 C  
HETATM   13  C   UNL     1      -9.517  16.835  69.251  1.00  0.00    -0.091 C  
HETATM   14  C   UNL     1     -10.770  10.954  68.549  1.00  0.00    -0.204 C  
HETATM   15  O   UNL     1     -11.455  10.886  67.285  1.00  0.00    -0.458 OA 
HETATM   16  C   UNL     1     -10.424  12.544  68.913  1.00  0.00    -0.109 C  
HETATM   17  C   UNL     1     -12.490  13.584  67.974  1.00  0.00     0.313 C  
HETATM   18  C   UNL     1     -11.645  13.473  69.241  1.00  0.00    -0.369 C  
HETATM   19  C   UNL     1     -12.340  12.895  70.582  1.00  0.00    -0.385 C  
HETATM   20  H   UNL     1     -12.140  11.542  67.332  1.00  0.00     0.000 HD 
HETATM   21  C   UNL     1      -9.248  13.254  67.889  1.00  0.00    -0.213 C  
HETATM   22  C   UNL     1      -8.864  14.629  68.413  1.00  0.00    -0.181 C  
HETATM   23  O   UNL     1     -14.031  15.164  70.987  1.00  0.00    -0.402 OA 
HETATM   24  C   UNL     1     -10.066  15.527  68.682  1.00  0.00    -0.210 C  
HETATM   25  C   UNL     1     -12.462  13.511  71.772  1.00  0.00    -0.163 C  
ENDROOT
BRANCH   4  26
HETATM   26  C   UNL     1      -9.486   9.567  65.844  1.00  0.00    -0.244 C  
HETATM   27  O   UNL     1     -10.149   9.643  64.796  1.00  0.00    -0.007 OA 
BRANCH  26  28
HETATM   28  C   UNL     1      -9.239   8.034  66.305  1.00  0.00    -0.184 C  
BRANCH  28  29
HETATM   29  O   UNL     1      -8.844   7.201  65.094  1.00  0.00     0.065 OA 
BRANCH  29  30
HETATM   30  C   UNL     1      -8.203   5.989  65.215  1.00  0.00    -0.138 C  
HETATM   31  O   UNL     1      -8.537   4.986  64.601  1.00  0.00    -0.144 OA 
BRANCH  30  32
HETATM   32  C   UNL     1      -7.017   6.007  66.220  1.00  0.00    -0.063 C  
BRANCH  32  33
HETATM   33  C   UNL     1      -5.680   6.486  65.613  1.00  0.00    -0.025 C  
HETATM   34  C   UNL     1      -5.718   7.405  64.398  1.00  0.00    -0.037 C  
HETATM   35  O   UNL     1      -6.311   6.933  63.288  1.00  0.00    -0.042 OA 
HETATM   36  O   UNL     1      -5.225   8.527  64.408  1.00  0.00    -0.042 OA 
ENDBRANCH  32  33
ENDBRANCH  30  32
ENDBRANCH  29  30
ENDBRANCH  28  29
ENDBRANCH  26  28
ENDBRANCH   4  26
TORSDOF 6
ENDMDL
MODEL      135
REMARK 921   NORMALIZED FREE ENERGY PREDICTED BY IDOCK:   -3.30 KCAL/MOL
REMARK 922        TOTAL FREE ENERGY PREDICTED BY IDOCK:   -4.80 KCAL/MOL
REMARK 923 INTER-LIGAND FREE ENERGY PREDICTED BY IDOCK:   -4.94 KCAL/MOL
REMARK 924 INTRA-LIGAND FREE ENERGY PREDICTED BY IDOCK:    0.14 KCAL/MOL
REMARK 927      BINDING AFFINITY PREDICTED BY RF-SCORE:    0.00 PKD
ROOT
HETATM    1  C   UNL     1     -11.107   7.743  70.372  1.00  0.00    -0.259 C  
HETATM    2  C   UNL     1     -11.487   6.819  69.368  1.00  0.00    -0.208 C  
HETATM    3  C   UNL     1     -10.067   6.745  69.848  1.00  0.00    -0.195 C  
HETATM    4  C   UNL     1      -9.575   7.671  71.645  1.00  0.00    -0.153 C  
HETATM    5  C   UNL     1      -8.259  10.845  66.142  1.00  0.00    -0.168 C  
HETATM    6  O   UNL     1     -10.634   8.385  72.399  1.00  0.00    -0.316 OA 
HETATM    7  C   UNL     1     -10.059   6.432  71.333  1.00  0.00    -0.214 C  
HETATM    8  C   UNL     1     -10.898   5.449  72.093  1.00  0.00    -0.275 C  
HETATM    9  H   UNL     1     -10.409   8.808  73.219  1.00  0.00     0.000 HD 
HETATM   10  C   UNL     1      -6.828  10.567  65.971  1.00  0.00    -0.134 C  
HETATM   11  C   UNL     1      -8.714  10.494  67.360  1.00  0.00    -0.125 C  
HETATM   12  C   UNL     1      -8.246   6.208  70.770  1.00  0.00    -0.125 C  
HETATM   13  C   UNL     1     -11.011  11.403  66.768  1.00  0.00    -0.347 C  
HETATM   14  C   UNL     1      -7.612   7.673  70.113  1.00  0.00    -0.086 C  
HETATM   15  O   UNL     1      -7.226   8.470  71.249  1.00  0.00    -0.065 OA 
HETATM   16  C   UNL     1      -8.503   8.605  69.054  1.00  0.00    -0.124 C  
HETATM   17  C   UNL     1      -7.282  10.760  69.359  1.00  0.00    -0.132 C  
HETATM   18  C   UNL     1      -7.735   9.751  68.307  1.00  0.00    -0.085 C  
HETATM   19  C   UNL     1      -6.612   9.049  67.379  1.00  0.00    -0.065 C  
HETATM   20  H   UNL     1      -6.878   9.276  70.887  1.00  0.00     0.000 HD 
HETATM   21  C   UNL     1     -10.045   9.057  69.651  1.00  0.00    -0.202 C  
HETATM   22  C   UNL     1     -10.849   9.734  68.552  1.00  0.00    -0.227 C  
HETATM   23  O   UNL     1      -5.964  11.425  65.928  1.00  0.00    -0.086 OA 
HETATM   24  C   UNL     1     -10.097  10.872  67.871  1.00  0.00    -0.199 C  
HETATM   25  C   UNL     1      -6.522   9.083  66.037  1.00  0.00    -0.064 C  
ENDROOT
BRANCH   4  26
HETATM   26  C   UNL     1      -8.720   7.148  73.176  1.00  0.00    -0.128 C  
HETATM   27  O   UNL     1      -8.845   7.757  74.253  1.00  0.00    -0.237 OA 
BRANCH  26  28
HETATM   28  C   UNL     1      -7.631   5.952  73.271  1.00  0.00    -0.098 C  
BRANCH  28  29
HETATM   29  O   UNL     1      -8.252   4.759  73.983  1.00  0.00    -0.103 OA 
BRANCH  29  30
HETATM   30  C   UNL     1      -7.885   3.463  73.698  1.00  0.00    -0.066 C  
HETATM   31  O   UNL     1      -6.751   3.034  73.856  1.00  0.00    -0.031 OA 
BRANCH  30  32
HETATM   32  C   UNL     1      -9.047   2.593  73.142  1.00  0.00    -0.094 C  
BRANCH  32  33
HETATM   33  C   UNL     1      -8.661   1.723  71.926  1.00  0.00    -0.078 C  
HETATM   34  C   UNL     1      -8.506   2.396  70.568  1.00  0.00    -0.050 C  
HETATM   35  O   UNL     1      -9.586   3.017  70.063  1.00  0.00    -0.157 OA 
HETATM   36  O   UNL     1      -7.455   2.372  69.940  1.00  0.00    -0.043 OA 
ENDBRANCH  32  33
ENDBRANCH  30  32
ENDBRANCH  29  30
ENDBRANCH  28  29
ENDBRANCH  26  28
ENDBRANCH   4  26
TORSDOF 6
ENDMDL
MODEL      136
REMARK 921   NORMALIZED FREE ENERGY PREDICTED BY IDOCK:   -3.23 KCAL/MOL
REMARK 922        TOTAL FREE ENERGY PREDICTED BY IDOCK:   -4.71 KCAL/MOL
REMARK 923 INTER-LIGAND FREE ENERGY PREDICTED BY IDOCK:   -5.32 KCAL/MOL
REMARK 924 INTRA-LIGAND FREE ENERGY PREDICTED BY IDOCK:    0.61 KCAL/MOL
REMARK 927      BINDING AFFINITY PREDICTED BY RF-SCORE:    0.00 PKD
ROOT
HETATM    1  C   UNL     1     -11.107  14.115  69.315  1.00  0.00    -0.286 C  
HETATM    2  C   UNL     1     -12.479  14.453  69.416  1.00  0.00    -0.113 C  
HETATM    3  C   UNL     1     -11.937  14.244  68.032  1.00  0.00    -0.353 C  
HETATM    4  C   UNL     1     -10.123  13.248  67.814  1.00  0.00    -0.229 C  
HETATM    5  C   UNL     1     -10.064  19.732  67.587  1.00  0.00    -0.550 C  
HETATM    6  O   UNL     1      -9.410  12.779  69.028  1.00  0.00    -0.362 OA 
HETATM    7  C   UNL     1     -11.418  12.823  67.910  1.00  0.00    -0.365 C  
HETATM    8  C   UNL     1     -12.034  11.549  68.405  1.00  0.00    -0.268 C  
HETATM    9  H   UNL     1      -8.582  12.325  68.929  1.00  0.00     0.000 HD 
HETATM   10  C   UNL     1     -10.025  19.980  66.141  1.00  0.00    -0.468 C  
HETATM   11  C   UNL     1      -9.831  18.442  67.899  1.00  0.00    -0.348 C  
HETATM   12  C   UNL     1     -11.443  13.496  66.121  1.00  0.00    -0.348 C  
HETATM   13  C   UNL     1      -9.967  19.012  70.371  1.00  0.00     1.392 C  
HETATM   14  C   UNL     1     -10.429  14.886  65.964  1.00  0.00    -0.316 C  
HETATM   15  O   UNL     1      -9.092  14.373  65.819  1.00  0.00    -0.481 OA 
HETATM   16  C   UNL     1     -10.440  16.100  67.108  1.00  0.00    -0.305 C  
HETATM   17  C   UNL     1      -8.217  17.106  66.584  1.00  0.00    -0.291 C  
HETATM   18  C   UNL     1      -9.702  17.431  66.729  1.00  0.00    -0.293 C  
HETATM   19  C   UNL     1     -10.479  18.066  65.460  1.00  0.00     0.031 C  
HETATM   20  H   UNL     1      -8.535  15.137  65.733  1.00  0.00     0.000 HD 
HETATM   21  C   UNL     1     -10.145  15.555  68.705  1.00  0.00    -0.211 C  
HETATM   22  C   UNL     1     -10.362  16.693  69.691  1.00  0.00    -0.193 C  
HETATM   23  O   UNL     1      -9.131  20.583  65.574  1.00  0.00     0.203 OA 
HETATM   24  C   UNL     1      -9.600  17.961  69.324  1.00  0.00     0.065 C  
HETATM   25  C   UNL     1     -11.127  19.243  65.403  1.00  0.00     0.350 C  
ENDROOT
BRANCH   4  26
HETATM   26  C   UNL     1      -9.541  11.826  66.820  1.00  0.00    -0.200 C  
HETATM   27  O   UNL     1      -8.384  11.753  66.372  1.00  0.00    -0.142 OA 
BRANCH  26  28
HETATM   28  C   UNL     1     -10.475  10.604  66.312  1.00  0.00    -0.203 C  
BRANCH  28  29
HETATM   29  O   UNL     1     -10.041   9.317  67.000  1.00  0.00    -0.209 OA 
BRANCH  29  30
HETATM   30  C   UNL     1      -9.433   8.289  66.316  1.00  0.00    -0.203 C  
HETATM   31  O   UNL     1      -9.570   7.110  66.611  1.00  0.00    -0.170 OA 
BRANCH  30  32
HETATM   32  C   UNL     1      -8.541   8.765  65.136  1.00  0.00    -0.209 C  
BRANCH  32  33
HETATM   33  C   UNL     1      -7.872   7.619  64.345  1.00  0.00    -0.137 C  
HETATM   34  C   UNL     1      -6.533   7.080  64.834  1.00  0.00    -0.043 C  
HETATM   35  O   UNL     1      -5.505   7.944  64.887  1.00  0.00    -0.032 OA 
HETATM   36  O   UNL     1      -6.377   5.909  65.158  1.00  0.00    -0.035 OA 
ENDBRANCH  32  33
ENDBRANCH  30  32
ENDBRANCH  29  30
ENDBRANCH  28  29
ENDBRANCH  26  28
ENDBRANCH   4  26
TORSDOF 6
ENDMDL
MODEL      137
REMARK 921   NORMALIZED FREE ENERGY PREDICTED BY IDOCK:   -3.21 KCAL/MOL
REMARK 922        TOTAL FREE ENERGY PREDICTED BY IDOCK:   -4.68 KCAL/MOL
REMARK 923 INTER-LIGAND FREE ENERGY PREDICTED BY IDOCK:   -4.99 KCAL/MOL
REMARK 924 INTRA-LIGAND FREE ENERGY PREDICTED BY IDOCK:    0.31 KCAL/MOL
REMARK 927      BINDING AFFINITY PREDICTED BY RF-SCORE:    0.00 PKD
ROOT
HETATM    1  C   UNL     1     -10.816  14.501  69.460  1.00  0.00    -0.209 C  
HETATM    2  C   UNL     1     -12.153  14.878  69.739  1.00  0.00    -0.357 C  
HETATM    3  C   UNL     1     -11.816  14.604  68.302  1.00  0.00    -0.333 C  
HETATM    4  C   UNL     1     -10.071  13.555  67.872  1.00  0.00    -0.248 C  
HETATM    5  C   UNL     1      -9.915  20.023  67.382  1.00  0.00    -0.571 C  
HETATM    6  O   UNL     1      -9.204  13.113  68.991  1.00  0.00    -0.357 OA 
HETATM    7  C   UNL     1     -11.348  13.167  68.164  1.00  0.00    -0.328 C  
HETATM    8  C   UNL     1     -11.913  11.928  68.791  1.00  0.00    -0.307 C  
HETATM    9  H   UNL     1      -8.408  12.634  68.795  1.00  0.00     0.000 HD 
HETATM   10  C   UNL     1     -10.074  20.217  65.936  1.00  0.00    -0.331 C  
HETATM   11  C   UNL     1      -9.666  18.740  67.709  1.00  0.00    -0.356 C  
HETATM   12  C   UNL     1     -11.611  13.775  66.371  1.00  0.00    -0.380 C  
HETATM   13  C   UNL     1      -9.441  19.402  70.151  1.00  0.00     0.885 C  
HETATM   14  C   UNL     1     -10.602  15.132  66.020  1.00  0.00    -0.322 C  
HETATM   15  O   UNL     1      -9.309  14.580  65.709  1.00  0.00    -0.520 OA 
HETATM   16  C   UNL     1     -10.428  16.387  67.105  1.00  0.00    -0.297 C  
HETATM   17  C   UNL     1      -8.280  17.316  66.235  1.00  0.00    -0.302 C  
HETATM   18  C   UNL     1      -9.723  17.684  66.574  1.00  0.00    -0.310 C  
HETATM   19  C   UNL     1     -10.658  18.292  65.402  1.00  0.00     0.210 C  
HETATM   20  H   UNL     1      -8.755  15.326  65.515  1.00  0.00     0.000 HD 
HETATM   21  C   UNL     1      -9.921  15.893  68.665  1.00  0.00    -0.214 C  
HETATM   22  C   UNL     1      -9.975  17.071  69.626  1.00  0.00     0.138 C  
HETATM   23  O   UNL     1      -9.257  20.777  65.226  1.00  0.00     0.647 OA 
HETATM   24  C   UNL     1      -9.246  18.305  69.106  1.00  0.00     0.030 C  
HETATM   25  C   UNL     1     -11.284  19.483  65.390  1.00  0.00     0.489 C  
ENDROOT
BRANCH   4  26
HETATM   26  C   UNL     1      -9.664  12.083  66.863  1.00  0.00    -0.203 C  
HETATM   27  O   UNL     1      -8.583  11.965  66.260  1.00  0.00    -0.133 OA 
BRANCH  26  28
HETATM   28  C   UNL     1     -10.684  10.868  66.539  1.00  0.00    -0.209 C  
BRANCH  28  29
HETATM   29  O   UNL     1     -10.374   9.691  67.454  1.00  0.00    -0.215 OA 
BRANCH  29  30
HETATM   30  C   UNL     1      -9.569   8.647  67.058  1.00  0.00    -0.182 C  
HETATM   31  O   UNL     1      -9.381   8.348  65.888  1.00  0.00    -0.200 OA 
BRANCH  30  32
HETATM   32  C   UNL     1      -8.926   7.870  68.241  1.00  0.00    -0.132 C  
BRANCH  32  33
HETATM   33  C   UNL     1      -7.493   8.326  68.594  1.00  0.00    -0.097 C  
HETATM   34  C   UNL     1      -7.294   9.226  69.807  1.00  0.00    -0.072 C  
HETATM   35  O   UNL     1      -7.910  10.421  69.794  1.00  0.00    -0.157 OA 
HETATM   36  O   UNL     1      -6.594   8.900  70.758  1.00  0.00    -0.043 OA 
ENDBRANCH  32  33
ENDBRANCH  30  32
ENDBRANCH  29  30
ENDBRANCH  28  29
ENDBRANCH  26  28
ENDBRANCH   4  26
TORSDOF 6
ENDMDL
MODEL      138
REMARK 921   NORMALIZED FREE ENERGY PREDICTED BY IDOCK:   -3.16 KCAL/MOL
REMARK 922        TOTAL FREE ENERGY PREDICTED BY IDOCK:   -4.61 KCAL/MOL
REMARK 923 INTER-LIGAND FREE ENERGY PREDICTED BY IDOCK:   -5.00 KCAL/MOL
REMARK 924 INTRA-LIGAND FREE ENERGY PREDICTED BY IDOCK:    0.38 KCAL/MOL
REMARK 927      BINDING AFFINITY PREDICTED BY RF-SCORE:    0.00 PKD
ROOT
HETATM    1  C   UNL     1     -10.752   7.225  67.217  1.00  0.00    -0.391 C  
HETATM    2  C   UNL     1     -11.087   6.400  68.319  1.00  0.00    -0.359 C  
HETATM    3  C   UNL     1      -9.713   7.004  68.323  1.00  0.00    -0.136 C  
HETATM    4  C   UNL     1      -9.329   8.612  67.059  1.00  0.00    -0.159 C  
HETATM    5  C   UNL     1      -7.465   2.713  65.106  1.00  0.00    -0.071 C  
HETATM    6  O   UNL     1     -10.417   9.113  66.183  1.00  0.00    -0.198 OA 
HETATM    7  C   UNL     1      -9.833   8.517  68.325  1.00  0.00    -0.190 C  
HETATM    8  C   UNL     1     -10.766   9.386  69.114  1.00  0.00    -0.216 C  
HETATM    9  H   UNL     1     -10.243   9.847  65.606  1.00  0.00     0.000 HD 
HETATM   10  C   UNL     1      -6.037   2.724  65.442  1.00  0.00    -0.023 C  
HETATM   11  C   UNL     1      -8.028   3.934  65.191  1.00  0.00    -0.093 C  
HETATM   12  C   UNL     1      -7.991   8.168  68.697  1.00  0.00    -0.115 C  
HETATM   13  C   UNL     1     -10.235   2.976  64.375  1.00  0.00    -0.001 C  
HETATM   14  C   UNL     1      -7.253   7.283  67.410  1.00  0.00    -0.090 C  
HETATM   15  O   UNL     1      -6.929   8.263  66.406  1.00  0.00    -0.065 OA 
HETATM   16  C   UNL     1      -8.022   5.986  66.697  1.00  0.00    -0.102 C  
HETATM   17  C   UNL     1      -6.749   5.952  64.550  1.00  0.00    -0.046 C  
HETATM   18  C   UNL     1      -7.155   5.091  65.744  1.00  0.00    -0.068 C  
HETATM   19  C   UNL     1      -5.989   4.423  66.644  1.00  0.00    -0.027 C  
HETATM   20  H   UNL     1      -6.523   7.777  65.698  1.00  0.00     0.000 HD 
HETATM   21  C   UNL     1      -9.588   6.346  66.101  1.00  0.00    -0.042 C  
HETATM   22  C   UNL     1     -10.277   5.069  65.646  1.00  0.00    -0.088 C  
HETATM   23  O   UNL     1      -5.140   2.582  64.629  1.00  0.00    -0.007 OA 
HETATM   24  C   UNL     1      -9.432   4.238  64.688  1.00  0.00    -0.163 C  
HETATM   25  C   UNL     1      -5.792   3.114  66.888  1.00  0.00    -0.023 C  
ENDROOT
BRANCH   4  26
HETATM   26  C   UNL     1      -8.618  10.284  67.274  1.00  0.00    -0.125 C  
HETATM   27  O   UNL     1      -7.546  10.483  67.872  1.00  0.00    -0.090 OA 
BRANCH  26  28
HETATM   28  C   UNL     1      -9.347  11.666  66.847  1.00  0.00    -0.188 C  
BRANCH  28  29
HETATM   29  O   UNL     1      -9.038  12.740  67.880  1.00  0.00    -0.187 OA 
BRANCH  29  30
HETATM   30  C   UNL     1      -8.931  14.071  67.544  1.00  0.00    -0.195 C  
HETATM   31  O   UNL     1      -9.382  14.543  66.511  1.00  0.00    -0.269 OA 
BRANCH  30  32
HETATM   32  C   UNL     1      -8.168  14.922  68.598  1.00  0.00    -0.157 C  
BRANCH  32  33
HETATM   33  C   UNL     1      -9.084  15.686  69.579  1.00  0.00    -0.240 C  
HETATM   34  C   UNL     1     -10.190  16.566  69.010  1.00  0.00    -0.285 C  
HETATM   35  O   UNL     1      -9.817  17.584  68.215  1.00  0.00    -0.287 OA 
HETATM   36  O   UNL     1     -11.373  16.378  69.263  1.00  0.00    -0.300 OA 
ENDBRANCH  32  33
ENDBRANCH  30  32
ENDBRANCH  29  30
ENDBRANCH  28  29
ENDBRANCH  26  28
ENDBRANCH   4  26
TORSDOF 6
ENDMDL
MODEL      139
REMARK 921   NORMALIZED FREE ENERGY PREDICTED BY IDOCK:   -3.12 KCAL/MOL
REMARK 922        TOTAL FREE ENERGY PREDICTED BY IDOCK:   -4.56 KCAL/MOL
REMARK 923 INTER-LIGAND FREE ENERGY PREDICTED BY IDOCK:   -4.89 KCAL/MOL
REMARK 924 INTRA-LIGAND FREE ENERGY PREDICTED BY IDOCK:    0.34 KCAL/MOL
REMARK 927      BINDING AFFINITY PREDICTED BY RF-SCORE:    0.00 PKD
ROOT
HETATM    1  C   UNL     1      -6.173  12.818  68.484  1.00  0.00    -0.068 C  
HETATM    2  C   UNL     1      -6.507  13.347  69.755  1.00  0.00    -0.033 C  
HETATM    3  C   UNL     1      -7.271  12.134  69.308  1.00  0.00     0.097 C  
HETATM    4  C   UNL     1      -6.506  10.998  67.742  1.00  0.00    -0.063 C  
HETATM    5  C   UNL     1     -11.184  15.281  66.375  1.00  0.00    -0.224 C  
HETATM    6  O   UNL     1      -5.235  11.418  67.103  1.00  0.00    -0.052 OA 
HETATM    7  C   UNL     1      -6.302  10.986  69.092  1.00  0.00    -0.057 C  
HETATM    8  C   UNL     1      -5.139  10.563  69.939  1.00  0.00    -0.038 C  
HETATM    9  H   UNL     1      -4.885  10.900  66.388  1.00  0.00     0.000 HD 
HETATM   10  C   UNL     1     -12.372  14.421  66.329  1.00  0.00    -0.301 C  
HETATM   11  C   UNL     1     -10.035  14.578  66.399  1.00  0.00    -0.304 C  
HETATM   12  C   UNL     1      -8.037  10.186  69.034  1.00  0.00    -0.125 C  
HETATM   13  C   UNL     1      -8.705  16.741  66.343  1.00  0.00    -0.337 C  
HETATM   14  C   UNL     1      -8.992  10.863  67.765  1.00  0.00    -0.139 C  
HETATM   15  O   UNL     1      -8.572  10.188  66.564  1.00  0.00    -0.125 OA 
HETATM   16  C   UNL     1      -9.034  12.509  67.495  1.00  0.00    -0.185 C  
HETATM   17  C   UNL     1      -9.831  12.464  65.130  1.00  0.00    -0.157 C  
HETATM   18  C   UNL     1     -10.139  13.034  66.513  1.00  0.00    -0.270 C  
HETATM   19  C   UNL     1     -11.573  12.699  67.182  1.00  0.00    -0.434 C  
HETATM   20  H   UNL     1      -9.097  10.561  65.866  1.00  0.00     0.000 HD 
HETATM   21  C   UNL     1      -7.490  13.218  67.268  1.00  0.00    -0.069 C  
HETATM   22  C   UNL     1      -7.616  14.732  67.221  1.00  0.00    -0.195 C  
HETATM   23  O   UNL     1     -13.084  14.287  65.348  1.00  0.00    -0.685 OA 
HETATM   24  C   UNL     1      -8.665  15.218  66.228  1.00  0.00    -0.188 C  
HETATM   25  C   UNL     1     -12.515  13.574  67.579  1.00  0.00     0.140 C  
ENDROOT
BRANCH   4  26
HETATM   26  C   UNL     1      -6.143   9.222  67.491  1.00  0.00    -0.054 C  
HETATM   27  O   UNL     1      -6.072   8.708  66.362  1.00  0.00    -0.054 OA 
BRANCH  26  28
HETATM   28  C   UNL     1      -6.012   8.124  68.675  1.00  0.00    -0.044 C  
BRANCH  28  29
HETATM   29  O   UNL     1      -7.040   7.022  68.457  1.00  0.00    -0.082 OA 
BRANCH  29  30
HETATM   30  C   UNL     1      -7.787   6.502  69.489  1.00  0.00    -0.105 C  
HETATM   31  O   UNL     1      -7.301   6.106  70.539  1.00  0.00    -0.080 OA 
BRANCH  30  32
HETATM   32  C   UNL     1      -9.312   6.452  69.194  1.00  0.00    -0.132 C  
BRANCH  32  33
HETATM   33  C   UNL     1      -9.833   5.056  68.788  1.00  0.00    -0.236 C  
HETATM   34  C   UNL     1      -8.874   4.092  68.100  1.00  0.00    -0.108 C  
HETATM   35  O   UNL     1      -8.345   4.482  66.928  1.00  0.00    -0.106 OA 
HETATM   36  O   UNL     1      -8.594   2.997  68.573  1.00  0.00    -0.076 OA 
ENDBRANCH  32  33
ENDBRANCH  30  32
ENDBRANCH  29  30
ENDBRANCH  28  29
ENDBRANCH  26  28
ENDBRANCH   4  26
TORSDOF 6
ENDMDL
MODEL      140
REMARK 921   NORMALIZED FREE ENERGY PREDICTED BY IDOCK:   -3.10 KCAL/MOL
REMARK 922        TOTAL FREE ENERGY PREDICTED BY IDOCK:   -4.53 KCAL/MOL
REMARK 923 INTER-LIGAND FREE ENERGY PREDICTED BY IDOCK:   -5.14 KCAL/MOL
REMARK 924 INTRA-LIGAND FREE ENERGY PREDICTED BY IDOCK:    0.61 KCAL/MOL
REMARK 927      BINDING AFFINITY PREDICTED BY RF-SCORE:    0.00 PKD
ROOT
HETATM    1  C   UNL     1      -7.497  14.055  68.741  1.00  0.00    -0.124 C  
HETATM    2  C   UNL     1      -6.482  13.331  68.070  1.00  0.00    -0.131 C  
HETATM    3  C   UNL     1      -7.118  14.459  67.311  1.00  0.00     0.024 C  
HETATM    4  C   UNL     1      -8.209  15.880  68.370  1.00  0.00    -0.161 C  
HETATM    5  C   UNL     1     -11.491  11.135  65.402  1.00  0.00     0.262 C  
HETATM    6  O   UNL     1      -8.337  15.738  69.841  1.00  0.00     0.002 OA 
HETATM    7  C   UNL     1      -6.884  15.758  68.060  1.00  0.00    -0.141 C  
HETATM    8  C   UNL     1      -5.636  16.246  68.731  1.00  0.00    -0.109 C  
HETATM    9  H   UNL     1      -8.834  16.386  70.325  1.00  0.00     0.000 HD 
HETATM   10  C   UNL     1     -11.939  11.803  64.175  1.00  0.00    -0.235 C  
HETATM   11  C   UNL     1     -10.992  11.996  66.310  1.00  0.00    -0.340 C  
HETATM   12  C   UNL     1      -7.556  16.287  66.350  1.00  0.00    -0.131 C  
HETATM   13  C   UNL     1     -10.655  10.082  67.946  1.00  0.00    -0.298 C  
HETATM   14  C   UNL     1      -9.129  15.631  66.070  1.00  0.00    -0.311 C  
HETATM   15  O   UNL     1     -10.039  16.503  66.766  1.00  0.00    -0.270 OA 
HETATM   16  C   UNL     1      -9.484  14.044  66.437  1.00  0.00    -0.278 C  
HETATM   17  C   UNL     1     -11.968  14.254  66.566  1.00  0.00    -0.448 C  
HETATM   18  C   UNL     1     -10.841  13.480  65.886  1.00  0.00    -0.279 C  
HETATM   19  C   UNL     1     -10.752  13.510  64.271  1.00  0.00    -0.324 C  
HETATM   20  H   UNL     1     -10.904  16.143  66.612  1.00  0.00     0.000 HD 
HETATM   21  C   UNL     1      -9.144  13.610  68.059  1.00  0.00    -0.192 C  
HETATM   22  C   UNL     1      -9.319  12.111  68.245  1.00  0.00    -0.198 C  
HETATM   23  O   UNL     1     -13.108  11.945  63.861  1.00  0.00    -0.628 OA 
HETATM   24  C   UNL     1     -10.662  11.596  67.741  1.00  0.00    -0.244 C  
HETATM   25  C   UNL     1     -10.793  12.461  63.430  1.00  0.00    -0.417 C  
ENDROOT
BRANCH   4  26
HETATM   26  C   UNL     1      -8.204  17.707  68.462  1.00  0.00    -0.292 C  
HETATM   27  O   UNL     1      -7.652  18.418  67.604  1.00  0.00    -0.225 OA 
BRANCH  26  28
HETATM   28  C   UNL     1      -8.779  18.577  69.702  1.00  0.00     0.851 C  
BRANCH  28  29
HETATM   29  O   UNL     1     -10.300  18.585  69.650  1.00  0.00     0.157 OA 
BRANCH  29  30
HETATM   30  C   UNL     1     -11.035  17.431  69.498  1.00  0.00     0.539 C  
HETATM   31  O   UNL     1     -11.770  17.222  68.544  1.00  0.00     0.517 OA 
BRANCH  30  32
HETATM   32  C   UNL     1     -10.854  16.417  70.662  1.00  0.00     0.021 C  
BRANCH  32  33
HETATM   33  C   UNL     1     -11.945  15.326  70.727  1.00  0.00    -0.384 C  
HETATM   34  C   UNL     1     -13.192  15.590  71.563  1.00  0.00    -0.509 C  
HETATM   35  O   UNL     1     -13.016  15.808  72.877  1.00  0.00    -0.417 OA 
HETATM   36  O   UNL     1     -14.317  15.596  71.078  1.00  0.00    -0.428 OA 
ENDBRANCH  32  33
ENDBRANCH  30  32
ENDBRANCH  29  30
ENDBRANCH  28  29
ENDBRANCH  26  28
ENDBRANCH   4  26
TORSDOF 6
ENDMDL
MODEL      141
REMARK 921   NORMALIZED FREE ENERGY PREDICTED BY IDOCK:   -3.05 KCAL/MOL
REMARK 922        TOTAL FREE ENERGY PREDICTED BY IDOCK:   -4.47 KCAL/MOL
REMARK 923 INTER-LIGAND FREE ENERGY PREDICTED BY IDOCK:   -4.42 KCAL/MOL
REMARK 924 INTRA-LIGAND FREE ENERGY PREDICTED BY IDOCK:   -0.04 KCAL/MOL
REMARK 927      BINDING AFFINITY PREDICTED BY RF-SCORE:    0.00 PKD
ROOT
HETATM    1  C   UNL     1      -8.236  10.340  66.024  1.00  0.00    -0.141 C  
HETATM    2  C   UNL     1      -7.602  11.497  66.540  1.00  0.00    -0.036 C  
HETATM    3  C   UNL     1      -6.875  10.196  66.717  1.00  0.00    -0.086 C  
HETATM    4  C   UNL     1      -7.451   8.569  65.556  1.00  0.00    -0.085 C  
HETATM    5  C   UNL     1      -9.713   8.908  71.627  1.00  0.00    -0.379 C  
HETATM    6  O   UNL     1      -8.567   8.733  64.592  1.00  0.00    -0.242 OA 
HETATM    7  C   UNL     1      -6.579   9.601  65.353  1.00  0.00    -0.082 C  
HETATM    8  C   UNL     1      -6.088  10.285  64.113  1.00  0.00    -0.120 C  
HETATM    9  H   UNL     1      -8.830   7.990  64.061  1.00  0.00     0.000 HD 
HETATM   10  C   UNL     1      -8.807   7.996  72.335  1.00  0.00    -0.173 C  
HETATM   11  C   UNL     1      -9.600   8.816  70.288  1.00  0.00    -0.198 C  
HETATM   12  C   UNL     1      -5.548   8.560  66.581  1.00  0.00    -0.036 C  
HETATM   13  C   UNL     1     -11.473  10.510  70.010  1.00  0.00    -0.393 C  
HETATM   14  C   UNL     1      -6.562   7.787  67.746  1.00  0.00    -0.060 C  
HETATM   15  O   UNL     1      -7.079   6.614  67.089  1.00  0.00    -0.072 OA 
HETATM   16  C   UNL     1      -7.810   8.607  68.489  1.00  0.00    -0.108 C  
HETATM   17  C   UNL     1      -9.155   6.633  69.214  1.00  0.00    -0.138 C  
HETATM   18  C   UNL     1      -8.480   7.904  69.722  1.00  0.00    -0.132 C  
HETATM   19  C   UNL     1      -7.347   7.769  70.869  1.00  0.00    -0.065 C  
HETATM   20  H   UNL     1      -7.637   6.190  67.730  1.00  0.00     0.000 HD 
HETATM   21  C   UNL     1      -8.917   9.329  67.398  1.00  0.00    -0.135 C  
HETATM   22  C   UNL     1      -9.900  10.205  68.158  1.00  0.00    -0.164 C  
HETATM   23  O   UNL     1      -9.169   6.996  72.931  1.00  0.00    -0.136 OA 
HETATM   24  C   UNL     1     -10.568   9.486  69.325  1.00  0.00    -0.236 C  
HETATM   25  C   UNL     1      -7.348   8.333  72.090  1.00  0.00    -0.125 C  
ENDROOT
BRANCH   4  26
HETATM   26  C   UNL     1      -6.578   7.381  64.471  1.00  0.00    -0.040 C  
HETATM   27  O   UNL     1      -5.387   7.526  64.144  1.00  0.00    -0.029 OA 
BRANCH  26  28
HETATM   28  C   UNL     1      -7.269   6.120  63.727  1.00  0.00    -0.061 C  
BRANCH  28  29
HETATM   29  O   UNL     1      -8.222   5.426  64.690  1.00  0.00    -0.122 OA 
BRANCH  29  30
HETATM   30  C   UNL     1      -8.658   4.136  64.487  1.00  0.00    -0.121 C  
HETATM   31  O   UNL     1      -9.700   3.861  63.911  1.00  0.00    -0.150 OA 
BRANCH  30  32
HETATM   32  C   UNL     1      -7.707   3.055  65.073  1.00  0.00    -0.081 C  
BRANCH  32  33
HETATM   33  C   UNL     1      -7.588   3.084  66.613  1.00  0.00    -0.076 C  
HETATM   34  C   UNL     1      -8.851   2.905  67.446  1.00  0.00    -0.137 C  
HETATM   35  O   UNL     1      -9.829   3.811  67.281  1.00  0.00    -0.163 OA 
HETATM   36  O   UNL     1      -8.984   1.987  68.246  1.00  0.00    -0.105 OA 
ENDBRANCH  32  33
ENDBRANCH  30  32
ENDBRANCH  29  30
ENDBRANCH  28  29
ENDBRANCH  26  28
ENDBRANCH   4  26
TORSDOF 6
ENDMDL
MODEL      142
REMARK 921   NORMALIZED FREE ENERGY PREDICTED BY IDOCK:   -3.04 KCAL/MOL
REMARK 922        TOTAL FREE ENERGY PREDICTED BY IDOCK:   -4.45 KCAL/MOL
REMARK 923 INTER-LIGAND FREE ENERGY PREDICTED BY IDOCK:   -4.01 KCAL/MOL
REMARK 924 INTRA-LIGAND FREE ENERGY PREDICTED BY IDOCK:   -0.44 KCAL/MOL
REMARK 927      BINDING AFFINITY PREDICTED BY RF-SCORE:    0.00 PKD
ROOT
HETATM    1  C   UNL     1      -9.634  12.152  68.141  1.00  0.00    -0.208 C  
HETATM    2  C   UNL     1      -9.433  13.154  69.123  1.00  0.00     0.570 C  
HETATM    3  C   UNL     1      -8.398  12.070  69.044  1.00  0.00     0.279 C  
HETATM    4  C   UNL     1      -8.322  10.888  67.333  1.00  0.00    -0.117 C  
HETATM    5  C   UNL     1     -11.399   8.507  72.525  1.00  0.00    -0.357 C  
HETATM    6  O   UNL     1      -9.295  11.140  66.242  1.00  0.00    -0.183 OA 
HETATM    7  C   UNL     1      -7.760  12.088  67.667  1.00  0.00    -0.144 C  
HETATM    8  C   UNL     1      -7.318  13.264  66.849  1.00  0.00     0.487 C  
HETATM    9  H   UNL     1      -9.261  10.601  65.461  1.00  0.00     0.000 HD 
HETATM   10  C   UNL     1     -10.378   7.624  73.099  1.00  0.00    -0.352 C  
HETATM   11  C   UNL     1     -11.082   8.933  71.287  1.00  0.00    -0.367 C  
HETATM   12  C   UNL     1      -6.655  10.927  68.709  1.00  0.00    -0.059 C  
HETATM   13  C   UNL     1     -13.302  10.157  71.134  1.00  0.00    -0.372 C  
HETATM   14  C   UNL     1      -7.558   9.583  69.311  1.00  0.00    -0.084 C  
HETATM   15  O   UNL     1      -7.624   8.645  68.222  1.00  0.00    -0.094 OA 
HETATM   16  C   UNL     1      -9.077   9.785  69.969  1.00  0.00    -0.258 C  
HETATM   17  C   UNL     1      -9.891   7.439  69.715  1.00  0.00    -0.171 C  
HETATM   18  C   UNL     1      -9.682   8.556  70.734  1.00  0.00    -0.221 C  
HETATM   19  C   UNL     1      -8.727   8.268  72.008  1.00  0.00    -0.243 C  
HETATM   20  H   UNL     1      -8.121   7.906  68.553  1.00  0.00     0.000 HD 
HETATM   21  C   UNL     1     -10.182  10.591  68.937  1.00  0.00    -0.223 C  
HETATM   22  C   UNL     1     -11.469  10.894  69.689  1.00  0.00    -0.377 C  
HETATM   23  O   UNL     1     -10.520   6.423  73.254  1.00  0.00    -0.220 OA 
HETATM   24  C   UNL     1     -12.059   9.675  70.388  1.00  0.00    -0.115 C  
HETATM   25  C   UNL     1      -9.056   8.338  73.310  1.00  0.00    -0.278 C  
ENDROOT
BRANCH   4  26
HETATM   26  C   UNL     1      -7.007  10.395  66.161  1.00  0.00    -0.126 C  
HETATM   27  O   UNL     1      -5.956  11.045  66.023  1.00  0.00    -0.138 OA 
BRANCH  26  28
HETATM   28  C   UNL     1      -7.115   9.172  65.104  1.00  0.00    -0.088 C  
BRANCH  28  29
HETATM   29  O   UNL     1      -8.146   8.168  65.598  1.00  0.00    -0.104 OA 
BRANCH  29  30
HETATM   30  C   UNL     1      -7.966   6.809  65.468  1.00  0.00    -0.119 C  
HETATM   31  O   UNL     1      -8.871   6.034  65.194  1.00  0.00    -0.079 OA 
BRANCH  30  32
HETATM   32  C   UNL     1      -6.504   6.345  65.715  1.00  0.00    -0.043 C  
BRANCH  32  33
HETATM   33  C   UNL     1      -6.376   5.129  66.659  1.00  0.00    -0.040 C  
HETATM   34  C   UNL     1      -6.853   5.271  68.099  1.00  0.00    -0.060 C  
HETATM   35  O   UNL     1      -6.253   6.205  68.857  1.00  0.00    -0.033 OA 
HETATM   36  O   UNL     1      -7.736   4.564  68.570  1.00  0.00    -0.074 OA 
ENDBRANCH  32  33
ENDBRANCH  30  32
ENDBRANCH  29  30
ENDBRANCH  28  29
ENDBRANCH  26  28
ENDBRANCH   4  26
TORSDOF 6
ENDMDL
MODEL      143
REMARK 921   NORMALIZED FREE ENERGY PREDICTED BY IDOCK:   -3.04 KCAL/MOL
REMARK 922        TOTAL FREE ENERGY PREDICTED BY IDOCK:   -4.45 KCAL/MOL
REMARK 923 INTER-LIGAND FREE ENERGY PREDICTED BY IDOCK:   -4.62 KCAL/MOL
REMARK 924 INTRA-LIGAND FREE ENERGY PREDICTED BY IDOCK:    0.18 KCAL/MOL
REMARK 927      BINDING AFFINITY PREDICTED BY RF-SCORE:    0.00 PKD
ROOT
HETATM    1  C   UNL     1      -6.324  13.459  68.866  1.00  0.00    -0.099 C  
HETATM    2  C   UNL     1      -6.815  14.010  70.074  1.00  0.00     0.124 C  
HETATM    3  C   UNL     1      -7.401  12.696  69.646  1.00  0.00     0.647 C  
HETATM    4  C   UNL     1      -6.392  11.577  68.212  1.00  0.00    -0.046 C  
HETATM    5  C   UNL     1     -11.392  15.216  66.248  1.00  0.00    -0.219 C  
HETATM    6  O   UNL     1      -5.128  12.108  67.644  1.00  0.00    -0.065 OA 
HETATM    7  C   UNL     1      -6.297  11.659  69.572  1.00  0.00    -0.122 C  
HETATM    8  C   UNL     1      -5.166  11.416  70.526  1.00  0.00    -0.110 C  
HETATM    9  H   UNL     1      -4.667  11.597  66.989  1.00  0.00     0.000 HD 
HETATM   10  C   UNL     1     -12.470  14.224  66.167  1.00  0.00    -0.336 C  
HETATM   11  C   UNL     1     -10.177  14.652  66.399  1.00  0.00    -0.296 C  
HETATM   12  C   UNL     1      -7.922  10.662  69.434  1.00  0.00    -0.118 C  
HETATM   13  C   UNL     1      -9.096  16.949  66.312  1.00  0.00    -0.302 C  
HETATM   14  C   UNL     1      -8.842  11.158  68.059  1.00  0.00    -0.142 C  
HETATM   15  O   UNL     1      -8.254  10.475  66.936  1.00  0.00    -0.120 OA 
HETATM   16  C   UNL     1      -9.044  12.772  67.688  1.00  0.00    -0.193 C  
HETATM   17  C   UNL     1      -9.640  12.514  65.278  1.00  0.00     0.028 C  
HETATM   18  C   UNL     1     -10.118  13.115  66.598  1.00  0.00    -0.264 C  
HETATM   19  C   UNL     1     -11.555  12.652  67.179  1.00  0.00    -0.434 C  
HETATM   20  H   UNL     1      -8.760  10.749  66.180  1.00  0.00     0.000 HD 
HETATM   21  C   UNL     1      -7.575  13.641  67.534  1.00  0.00    -0.180 C  
HETATM   22  C   UNL     1      -7.864  15.127  67.387  1.00  0.00    -0.224 C  
HETATM   23  O   UNL     1     -13.081  13.959  65.146  1.00  0.00    -0.773 OA 
HETATM   24  C   UNL     1      -8.878  15.437  66.292  1.00  0.00    -0.302 C  
HETATM   25  C   UNL     1     -12.617  13.431  67.452  1.00  0.00     0.404 C  
ENDROOT
BRANCH   4  26
HETATM   26  C   UNL     1      -5.815   9.844  68.095  1.00  0.00    -0.042 C  
HETATM   27  O   UNL     1      -5.530   9.307  67.012  1.00  0.00    -0.039 OA 
BRANCH  26  28
HETATM   28  C   UNL     1      -5.743   8.804  69.335  1.00  0.00    -0.034 C  
BRANCH  28  29
HETATM   29  O   UNL     1      -6.135   7.415  68.850  1.00  0.00    -0.029 OA 
BRANCH  29  30
HETATM   30  C   UNL     1      -7.143   6.688  69.445  1.00  0.00    -0.080 C  
HETATM   31  O   UNL     1      -6.999   5.543  69.847  1.00  0.00    -0.057 OA 
BRANCH  30  32
HETATM   32  C   UNL     1      -8.490   7.456  69.547  1.00  0.00    -0.133 C  
BRANCH  32  33
HETATM   33  C   UNL     1      -9.250   7.228  70.872  1.00  0.00    -0.155 C  
HETATM   34  C   UNL     1      -9.289   8.357  71.894  1.00  0.00    -0.244 C  
HETATM   35  O   UNL     1      -8.112   8.784  72.383  1.00  0.00    -0.368 OA 
HETATM   36  O   UNL     1     -10.338   8.859  72.277  1.00  0.00    -0.302 OA 
ENDBRANCH  32  33
ENDBRANCH  30  32
ENDBRANCH  29  30
ENDBRANCH  28  29
ENDBRANCH  26  28
ENDBRANCH   4  26
TORSDOF 6
ENDMDL
MODEL      144
REMARK 921   NORMALIZED FREE ENERGY PREDICTED BY IDOCK:   -2.97 KCAL/MOL
REMARK 922        TOTAL FREE ENERGY PREDICTED BY IDOCK:   -4.35 KCAL/MOL
REMARK 923 INTER-LIGAND FREE ENERGY PREDICTED BY IDOCK:   -4.64 KCAL/MOL
REMARK 924 INTRA-LIGAND FREE ENERGY PREDICTED BY IDOCK:    0.28 KCAL/MOL
REMARK 927      BINDING AFFINITY PREDICTED BY RF-SCORE:    0.00 PKD
ROOT
HETATM    1  C   UNL     1      -8.051   4.490  67.252  1.00  0.00    -0.101 C  
HETATM    2  C   UNL     1      -9.173   3.719  66.860  1.00  0.00    -0.198 C  
HETATM    3  C   UNL     1      -9.422   5.169  67.155  1.00  0.00    -0.138 C  
HETATM    4  C   UNL     1      -7.797   6.467  67.215  1.00  0.00    -0.105 C  
HETATM    5  C   UNL     1     -10.093   4.226  72.854  1.00  0.00    -0.212 C  
HETATM    6  O   UNL     1      -6.437   5.926  66.974  1.00  0.00    -0.046 OA 
HETATM    7  C   UNL     1      -8.601   6.020  66.205  1.00  0.00    -0.142 C  
HETATM    8  C   UNL     1      -8.376   5.839  64.734  1.00  0.00    -0.116 C  
HETATM    9  H   UNL     1      -5.695   6.518  67.001  1.00  0.00     0.000 HD 
HETATM   10  C   UNL     1     -10.921   5.350  73.308  1.00  0.00    -0.307 C  
HETATM   11  C   UNL     1      -9.304   4.549  71.811  1.00  0.00    -0.194 C  
HETATM   12  C   UNL     1      -9.808   7.242  67.045  1.00  0.00    -0.265 C  
HETATM   13  C   UNL     1      -8.283   2.224  71.857  1.00  0.00    -0.054 C  
HETATM   14  C   UNL     1      -9.584   7.259  68.757  1.00  0.00    -0.142 C  
HETATM   15  O   UNL     1      -8.453   8.119  68.989  1.00  0.00    -0.127 OA 
HETATM   16  C   UNL     1      -9.397   5.845  69.621  1.00  0.00    -0.162 C  
HETATM   17  C   UNL     1      -8.304   6.806  71.649  1.00  0.00    -0.111 C  
HETATM   18  C   UNL     1      -9.484   5.957  71.183  1.00  0.00    -0.183 C  
HETATM   19  C   UNL     1     -10.981   6.454  71.544  1.00  0.00    -0.310 C  
HETATM   20  H   UNL     1      -8.331   8.129  69.931  1.00  0.00     0.000 HD 
HETATM   21  C   UNL     1      -8.127   4.844  69.053  1.00  0.00    -0.079 C  
HETATM   22  C   UNL     1      -8.158   3.506  69.774  1.00  0.00    -0.063 C  
HETATM   23  O   UNL     1     -10.741   5.957  74.349  1.00  0.00    -0.141 OA 
HETATM   24  C   UNL     1      -8.200   3.642  71.292  1.00  0.00    -0.076 C  
HETATM   25  C   UNL     1     -11.915   5.792  72.250  1.00  0.00    -0.147 C  
ENDROOT
BRANCH   4  26
HETATM   26  C   UNL     1      -7.392   8.068  66.427  1.00  0.00    -0.083 C  
HETATM   27  O   UNL     1      -6.223   8.466  66.285  1.00  0.00    -0.048 OA 
BRANCH  26  28
HETATM   28  C   UNL     1      -8.479   9.176  65.963  1.00  0.00    -0.131 C  
BRANCH  28  29
HETATM   29  O   UNL     1      -8.430  10.360  66.919  1.00  0.00    -0.123 OA 
BRANCH  29  30
HETATM   30  C   UNL     1      -9.481  11.240  67.050  1.00  0.00    -0.171 C  
HETATM   31  O   UNL     1     -10.609  10.897  67.374  1.00  0.00    -0.213 OA 
BRANCH  30  32
HETATM   32  C   UNL     1      -9.106  12.715  66.736  1.00  0.00    -0.214 C  
BRANCH  32  33
HETATM   33  C   UNL     1      -7.620  13.057  66.986  1.00  0.00     0.090 C  
HETATM   34  C   UNL     1      -7.201  13.512  68.378  1.00  0.00    -0.109 C  
HETATM   35  O   UNL     1      -7.772  14.631  68.856  1.00  0.00    -0.130 OA 
HETATM   36  O   UNL     1      -6.372  12.905  69.044  1.00  0.00    -0.087 OA 
ENDBRANCH  32  33
ENDBRANCH  30  32
ENDBRANCH  29  30
ENDBRANCH  28  29
ENDBRANCH  26  28
ENDBRANCH   4  26
TORSDOF 6
ENDMDL
MODEL      145
REMARK 921   NORMALIZED FREE ENERGY PREDICTED BY IDOCK:   -2.81 KCAL/MOL
REMARK 922        TOTAL FREE ENERGY PREDICTED BY IDOCK:   -4.14 KCAL/MOL
REMARK 923 INTER-LIGAND FREE ENERGY PREDICTED BY IDOCK:   -4.90 KCAL/MOL
REMARK 924 INTRA-LIGAND FREE ENERGY PREDICTED BY IDOCK:    0.76 KCAL/MOL
REMARK 927      BINDING AFFINITY PREDICTED BY RF-SCORE:    0.00 PKD
ROOT
HETATM    1  C   UNL     1     -10.223   7.935  71.289  1.00  0.00    -0.218 C  
HETATM    2  C   UNL     1      -9.340   8.720  72.069  1.00  0.00    -0.322 C  
HETATM    3  C   UNL     1      -8.810   8.211  70.761  1.00  0.00    -0.149 C  
HETATM    4  C   UNL     1     -10.165   7.520  69.340  1.00  0.00    -0.204 C  
HETATM    5  C   UNL     1      -7.158   3.124  73.045  1.00  0.00    -0.044 C  
HETATM    6  O   UNL     1     -11.613   7.542  69.658  1.00  0.00    -0.462 OA 
HETATM    7  C   UNL     1      -9.663   8.757  69.631  1.00  0.00    -0.173 C  
HETATM    8  C   UNL     1     -10.206  10.142  69.446  1.00  0.00    -0.246 C  
HETATM    9  H   UNL     1     -12.232   7.227  69.010  1.00  0.00     0.000 HD 
HETATM   10  C   UNL     1      -6.089   2.661  72.152  1.00  0.00    -0.013 C  
HETATM   11  C   UNL     1      -8.080   3.871  72.407  1.00  0.00    -0.085 C  
HETATM   12  C   UNL     1      -8.134   7.995  68.773  1.00  0.00    -0.125 C  
HETATM   13  C   UNL     1      -9.425   4.050  74.555  1.00  0.00    -0.134 C  
HETATM   14  C   UNL     1      -8.000   6.309  69.121  1.00  0.00    -0.110 C  
HETATM   15  O   UNL     1      -8.911   5.656  68.217  1.00  0.00    -0.115 OA 
HETATM   16  C   UNL     1      -8.230   5.722  70.666  1.00  0.00    -0.119 C  
HETATM   17  C   UNL     1      -8.725   3.348  70.077  1.00  0.00    -0.127 C  
HETATM   18  C   UNL     1      -7.812   4.232  70.922  1.00  0.00    -0.063 C  
HETATM   19  C   UNL     1      -6.214   4.136  70.688  1.00  0.00    -0.018 C  
HETATM   20  H   UNL     1      -8.838   4.728  68.409  1.00  0.00     0.000 HD 
HETATM   21  C   UNL     1      -9.729   6.167  71.365  1.00  0.00    -0.187 C  
HETATM   22  C   UNL     1      -9.765   5.752  72.827  1.00  0.00    -0.169 C  
HETATM   23  O   UNL     1      -5.957   1.508  71.781  1.00  0.00    -0.008 OA 
HETATM   24  C   UNL     1      -9.396   4.289  73.046  1.00  0.00    -0.129 C  
HETATM   25  C   UNL     1      -5.272   3.811  71.592  1.00  0.00     0.000 C  
ENDROOT
BRANCH   4  26
HETATM   26  C   UNL     1     -10.463   7.861  67.567  1.00  0.00    -0.262 C  
HETATM   27  O   UNL     1     -11.143   7.109  66.848  1.00  0.00    -0.327 OA 
BRANCH  26  28
HETATM   28  C   UNL     1      -9.785   9.068  66.725  1.00  0.00    -0.216 C  
BRANCH  28  29
HETATM   29  O   UNL     1      -8.367   8.675  66.334  1.00  0.00    -0.108 OA 
BRANCH  29  30
HETATM   30  C   UNL     1      -7.873   8.883  65.066  1.00  0.00    -0.112 C  
HETATM   31  O   UNL     1      -7.410   9.950  64.690  1.00  0.00    -0.129 OA 
BRANCH  30  32
HETATM   32  C   UNL     1      -7.970   7.634  64.145  1.00  0.00    -0.105 C  
BRANCH  32  33
HETATM   33  C   UNL     1      -7.449   6.330  64.789  1.00  0.00    -0.086 C  
HETATM   34  C   UNL     1      -8.323   5.084  64.723  1.00  0.00    -0.140 C  
HETATM   35  O   UNL     1      -9.534   5.151  65.303  1.00  0.00    -0.111 OA 
HETATM   36  O   UNL     1      -7.952   4.051  64.180  1.00  0.00    -0.084 OA 
ENDBRANCH  32  33
ENDBRANCH  30  32
ENDBRANCH  29  30
ENDBRANCH  28  29
ENDBRANCH  26  28
ENDBRANCH   4  26
TORSDOF 6
ENDMDL
MODEL      146
REMARK 921   NORMALIZED FREE ENERGY PREDICTED BY IDOCK:   -2.35 KCAL/MOL
REMARK 922        TOTAL FREE ENERGY PREDICTED BY IDOCK:   -3.52 KCAL/MOL
REMARK 923 INTER-LIGAND FREE ENERGY PREDICTED BY IDOCK:   -4.23 KCAL/MOL
REMARK 924 INTRA-LIGAND FREE ENERGY PREDICTED BY IDOCK:    0.72 KCAL/MOL
REMARK 927      BINDING AFFINITY PREDICTED BY RF-SCORE:    0.00 PKD
ROOT
HETATM    1  C   UNL     1      -9.860  16.407  68.824  1.00  0.00    -0.250 C  
HETATM    2  C   UNL     1      -8.637  15.942  69.368  1.00  0.00    -0.195 C  
HETATM    3  C   UNL     1      -9.326  15.037  68.389  1.00  0.00    -0.193 C  
HETATM    4  C   UNL     1     -10.807  15.836  67.166  1.00  0.00    -0.289 C  
HETATM    5  C   UNL     1     -12.679  12.631  72.487  1.00  0.00     0.533 C  
HETATM    6  O   UNL     1     -11.148  17.274  67.297  1.00  0.00    -0.082 OA 
HETATM    7  C   UNL     1      -9.448  15.746  67.054  1.00  0.00    -0.235 C  
HETATM    8  C   UNL     1      -8.432  16.581  66.334  1.00  0.00    -0.357 C  
HETATM    9  H   UNL     1     -11.824  17.639  66.739  1.00  0.00     0.000 HD 
HETATM   10  C   UNL     1     -13.028  11.316  71.936  1.00  0.00    -0.365 C  
HETATM   11  C   UNL     1     -12.493  13.561  71.531  1.00  0.00    -0.289 C  
HETATM   12  C   UNL     1      -9.911  13.927  66.691  1.00  0.00    -0.279 C  
HETATM   13  C   UNL     1     -12.103  15.324  73.317  1.00  0.00    -0.549 C  
HETATM   14  C   UNL     1     -11.278  13.435  67.625  1.00  0.00    -0.276 C  
HETATM   15  O   UNL     1     -12.428  13.934  66.917  1.00  0.00    -0.477 OA 
HETATM   16  C   UNL     1     -11.407  13.821  69.242  1.00  0.00    -0.325 C  
HETATM   17  C   UNL     1     -13.877  13.545  69.480  1.00  0.00     4.611 C  
HETATM   18  C   UNL     1     -12.536  13.092  70.053  1.00  0.00    -0.112 C  
HETATM   19  C   UNL     1     -12.188  11.512  70.042  1.00  0.00    -0.354 C  
HETATM   20  H   UNL     1     -13.180  13.663  67.430  1.00  0.00     0.000 HD 
HETATM   21  C   UNL     1     -11.268  15.497  69.572  1.00  0.00    -0.300 C  
HETATM   22  C   UNL     1     -11.208  15.727  71.074  1.00  0.00    -0.396 C  
HETATM   23  O   UNL     1     -14.136  10.813  72.014  1.00  0.00     0.284 OA 
HETATM   24  C   UNL     1     -12.339  15.044  71.834  1.00  0.00    -0.413 C  
HETATM   25  C   UNL     1     -11.907  10.729  71.099  1.00  0.00    -0.277 C  
ENDROOT
BRANCH   4  26
HETATM   26  C   UNL     1     -11.135  15.835  65.366  1.00  0.00    -0.228 C  
HETATM   27  O   UNL     1     -10.568  16.617  64.583  1.00  0.00    -0.622 OA 
BRANCH  26  28
HETATM   28  C   UNL     1     -12.266  14.940  64.628  1.00  0.00    -0.341 C  
BRANCH  28  29
HETATM   29  O   UNL     1     -11.589  13.879  63.771  1.00  0.00    -0.214 OA 
BRANCH  29  30
HETATM   30  C   UNL     1     -11.695  12.535  64.049  1.00  0.00    -0.423 C  
HETATM   31  O   UNL     1     -12.580  12.059  64.745  1.00  0.00    -0.412 OA 
BRANCH  30  32
HETATM   32  C   UNL     1     -10.573  11.673  63.406  1.00  0.00    -0.472 C  
BRANCH  32  33
HETATM   33  C   UNL     1      -9.884  10.697  64.385  1.00  0.00    -0.395 C  
HETATM   34  C   UNL     1      -8.690   9.890  63.890  1.00  0.00    -0.214 C  
HETATM   35  O   UNL     1      -8.896   9.059  62.854  1.00  0.00    -0.187 OA 
HETATM   36  O   UNL     1      -7.583   9.971  64.409  1.00  0.00    -0.139 OA 
ENDBRANCH  32  33
ENDBRANCH  30  32
ENDBRANCH  29  30
ENDBRANCH  28  29
ENDBRANCH  26  28
ENDBRANCH   4  26
TORSDOF 6
ENDMDL
MODEL      147
REMARK 921   NORMALIZED FREE ENERGY PREDICTED BY IDOCK:   -2.17 KCAL/MOL
REMARK 922        TOTAL FREE ENERGY PREDICTED BY IDOCK:   -3.28 KCAL/MOL
REMARK 923 INTER-LIGAND FREE ENERGY PREDICTED BY IDOCK:   -3.55 KCAL/MOL
REMARK 924 INTRA-LIGAND FREE ENERGY PREDICTED BY IDOCK:    0.27 KCAL/MOL
REMARK 927      BINDING AFFINITY PREDICTED BY RF-SCORE:    0.00 PKD
ROOT
HETATM    1  C   UNL     1      -6.549  12.079  70.007  1.00  0.00     0.132 C  
HETATM    2  C   UNL     1      -5.289  11.432  69.996  1.00  0.00    -0.075 C  
HETATM    3  C   UNL     1      -5.873  11.791  68.661  1.00  0.00    -0.049 C  
HETATM    4  C   UNL     1      -7.420  13.181  68.592  1.00  0.00    -0.092 C  
HETATM    5  C   UNL     1      -8.990   6.891  68.351  1.00  0.00    -0.121 C  
HETATM    6  O   UNL     1      -7.909  13.775  69.861  1.00  0.00     0.168 OA 
HETATM    7  C   UNL     1      -6.058  13.294  68.585  1.00  0.00    -0.085 C  
HETATM    8  C   UNL     1      -5.128  14.382  69.033  1.00  0.00    -0.082 C  
HETATM    9  H   UNL     1      -8.614  14.409  69.830  1.00  0.00     0.000 HD 
HETATM   10  C   UNL     1      -9.198   6.689  66.912  1.00  0.00    -0.142 C  
HETATM   11  C   UNL     1      -8.895   8.192  68.685  1.00  0.00    -0.134 C  
HETATM   12  C   UNL     1      -6.328  12.672  66.798  1.00  0.00     0.685 C  
HETATM   13  C   UNL     1      -8.702   7.554  71.136  1.00  0.00    -0.136 C  
HETATM   14  C   UNL     1      -7.644  11.556  66.719  1.00  0.00    -0.126 C  
HETATM   15  O   UNL     1      -8.833  12.366  66.683  1.00  0.00    -0.260 OA 
HETATM   16  C   UNL     1      -7.824  10.348  67.854  1.00  0.00    -0.101 C  
HETATM   17  C   UNL     1     -10.254   9.891  67.508  1.00  0.00    -0.265 C  
HETATM   18  C   UNL     1      -8.878   9.231  67.532  1.00  0.00    -0.123 C  
HETATM   19  C   UNL     1      -8.369   8.462  66.203  1.00  0.00    -0.127 C  
HETATM   20  H   UNL     1      -9.557  11.752  66.640  1.00  0.00     0.000 HD 
HETATM   21  C   UNL     1      -7.862  10.911  69.472  1.00  0.00     0.016 C  
HETATM   22  C   UNL     1      -7.837   9.733  70.433  1.00  0.00    -0.144 C  
HETATM   23  O   UNL     1     -10.248   6.319  66.417  1.00  0.00    -0.124 OA 
HETATM   24  C   UNL     1      -8.897   8.683  70.125  1.00  0.00    -0.144 C  
HETATM   25  C   UNL     1      -8.016   7.168  66.090  1.00  0.00    -0.112 C  
ENDROOT
BRANCH   4  26
HETATM   26  C   UNL     1      -7.733  14.720  67.653  1.00  0.00    -0.182 C  
HETATM   27  O   UNL     1      -7.345  14.879  66.483  1.00  0.00     0.399 OA 
BRANCH  26  28
HETATM   28  C   UNL     1      -8.408  16.060  68.263  1.00  0.00    -0.164 C  
BRANCH  28  29
HETATM   29  O   UNL     1      -9.048  16.860  67.137  1.00  0.00    -0.211 OA 
BRANCH  29  30
HETATM   30  C   UNL     1      -9.614  18.097  67.346  1.00  0.00    -0.275 C  
HETATM   31  O   UNL     1     -10.725  18.406  66.939  1.00  0.00    -0.370 OA 
BRANCH  30  32
HETATM   32  C   UNL     1      -8.705  19.074  68.141  1.00  0.00    -0.351 C  
BRANCH  32  33
HETATM   33  C   UNL     1      -7.570  19.706  67.305  1.00  0.00    -0.280 C  
HETATM   34  C   UNL     1      -6.630  18.784  66.537  1.00  0.00    -0.195 C  
HETATM   35  O   UNL     1      -5.914  17.902  67.254  1.00  0.00    -0.133 OA 
HETATM   36  O   UNL     1      -6.509  18.838  65.320  1.00  0.00    -0.344 OA 
ENDBRANCH  32  33
ENDBRANCH  30  32
ENDBRANCH  29  30
ENDBRANCH  28  29
ENDBRANCH  26  28
ENDBRANCH   4  26
TORSDOF 6
ENDMDL
MODEL      148
REMARK 921   NORMALIZED FREE ENERGY PREDICTED BY IDOCK:   -2.16 KCAL/MOL
REMARK 922        TOTAL FREE ENERGY PREDICTED BY IDOCK:   -3.26 KCAL/MOL
REMARK 923 INTER-LIGAND FREE ENERGY PREDICTED BY IDOCK:   -2.41 KCAL/MOL
REMARK 924 INTRA-LIGAND FREE ENERGY PREDICTED BY IDOCK:   -0.85 KCAL/MOL
REMARK 927      BINDING AFFINITY PREDICTED BY RF-SCORE:    0.00 PKD
ROOT
HETATM    1  C   UNL     1     -11.082  14.382  68.903  1.00  0.00    -0.277 C  
HETATM    2  C   UNL     1     -12.299  14.847  68.347  1.00  0.00     0.096 C  
HETATM    3  C   UNL     1     -11.155  14.653  67.395  1.00  0.00    -0.331 C  
HETATM    4  C   UNL     1      -9.537  13.497  68.007  1.00  0.00    -0.221 C  
HETATM    5  C   UNL     1      -8.981  19.948  68.424  1.00  0.00    -0.255 C  
HETATM    6  O   UNL     1      -9.551  12.903  69.367  1.00  0.00     0.078 OA 
HETATM    7  C   UNL     1     -10.731  13.196  67.416  1.00  0.00    -0.262 C  
HETATM    8  C   UNL     1     -11.587  11.966  67.427  1.00  0.00    -0.367 C  
HETATM    9  H   UNL     1      -8.813  12.375  69.647  1.00  0.00     0.000 HD 
HETATM   10  C   UNL     1      -8.213  20.260  67.213  1.00  0.00    -0.343 C  
HETATM   11  C   UNL     1      -9.012  18.628  68.693  1.00  0.00    -0.337 C  
HETATM   12  C   UNL     1      -9.822  13.954  65.914  1.00  0.00    -0.287 C  
HETATM   13  C   UNL     1     -10.324  19.088  70.819  1.00  0.00     2.056 C  
HETATM   14  C   UNL     1      -8.783  15.245  66.402  1.00  0.00    -0.230 C  
HETATM   15  O   UNL     1      -7.585  14.612  66.886  1.00  0.00    -0.293 OA 
HETATM   16  C   UNL     1      -9.288  16.397  67.497  1.00  0.00    -0.214 C  
HETATM   17  C   UNL     1      -7.042  17.206  68.226  1.00  0.00    -0.197 C  
HETATM   18  C   UNL     1      -8.380  17.667  67.652  1.00  0.00    -0.226 C  
HETATM   19  C   UNL     1      -8.384  18.435  66.228  1.00  0.00    -0.231 C  
HETATM   20  H   UNL     1      -7.013  15.321  67.154  1.00  0.00     0.000 HD 
HETATM   21  C   UNL     1      -9.859  15.750  68.977  1.00  0.00    -0.240 C  
HETATM   22  C   UNL     1     -10.469  16.854  69.826  1.00  0.00    -0.078 C  
HETATM   23  O   UNL     1      -7.121  20.801  67.216  1.00  0.00    -0.318 OA 
HETATM   24  C   UNL     1      -9.550  18.058  69.997  1.00  0.00     1.396 C  
HETATM   25  C   UNL     1      -8.845  19.671  65.966  1.00  0.00    -0.276 C  
ENDROOT
BRANCH   4  26
HETATM   26  C   UNL     1      -8.625  12.075  67.304  1.00  0.00    -0.177 C  
HETATM   27  O   UNL     1      -8.054  12.126  66.201  1.00  0.00     0.220 OA 
BRANCH  26  28
HETATM   28  C   UNL     1      -8.574  10.591  67.952  1.00  0.00    -0.123 C  
BRANCH  28  29
HETATM   29  O   UNL     1      -7.173  10.319  68.480  1.00  0.00    -0.076 OA 
BRANCH  29  30
HETATM   30  C   UNL     1      -6.887  10.304  69.827  1.00  0.00    -0.120 C  
HETATM   31  O   UNL     1      -7.687   9.949  70.681  1.00  0.00    -0.289 OA 
BRANCH  30  32
HETATM   32  C   UNL     1      -5.452  10.792  70.167  1.00  0.00    -0.064 C  
BRANCH  32  33
HETATM   33  C   UNL     1      -5.371  12.275  70.592  1.00  0.00    -0.153 C  
HETATM   34  C   UNL     1      -5.889  13.338  69.632  1.00  0.00    -0.114 C  
HETATM   35  O   UNL     1      -5.297  13.419  68.427  1.00  0.00    -0.079 OA 
HETATM   36  O   UNL     1      -6.796  14.105  69.929  1.00  0.00    -0.084 OA 
ENDBRANCH  32  33
ENDBRANCH  30  32
ENDBRANCH  29  30
ENDBRANCH  28  29
ENDBRANCH  26  28
ENDBRANCH   4  26
TORSDOF 6
ENDMDL
MODEL      149
REMARK 921   NORMALIZED FREE ENERGY PREDICTED BY IDOCK:   -2.05 KCAL/MOL
REMARK 922        TOTAL FREE ENERGY PREDICTED BY IDOCK:   -3.11 KCAL/MOL
REMARK 923 INTER-LIGAND FREE ENERGY PREDICTED BY IDOCK:   -4.40 KCAL/MOL
REMARK 924 INTRA-LIGAND FREE ENERGY PREDICTED BY IDOCK:    1.29 KCAL/MOL
REMARK 927      BINDING AFFINITY PREDICTED BY RF-SCORE:    0.00 PKD
ROOT
HETATM    1  C   UNL     1      -7.602  13.161  67.086  1.00  0.00    -0.008 C  
HETATM    2  C   UNL     1      -6.775  13.687  68.109  1.00  0.00    -0.122 C  
HETATM    3  C   UNL     1      -7.622  12.501  68.470  1.00  0.00    -0.119 C  
HETATM    4  C   UNL     1      -8.441  11.359  66.936  1.00  0.00    -0.157 C  
HETATM    5  C   UNL     1     -12.238  15.790  69.773  1.00  0.00    -0.236 C  
HETATM    6  O   UNL     1      -8.176  11.749  65.530  1.00  0.00    -0.192 OA 
HETATM    7  C   UNL     1      -7.241  11.328  67.587  1.00  0.00    -0.092 C  
HETATM    8  C   UNL     1      -5.876  10.863  67.176  1.00  0.00    -0.058 C  
HETATM    9  H   UNL     1      -8.549  11.228  64.829  1.00  0.00     0.000 HD 
HETATM   10  C   UNL     1     -13.012  14.966  70.709  1.00  0.00    -0.365 C  
HETATM   11  C   UNL     1     -11.545  15.054  68.883  1.00  0.00    -0.349 C  
HETATM   12  C   UNL     1      -8.352  10.580  68.950  1.00  0.00    -0.147 C  
HETATM   13  C   UNL     1     -10.734  17.178  67.751  1.00  0.00    -0.329 C  
HETATM   14  C   UNL     1      -9.923  11.297  68.936  1.00  0.00    -0.155 C  
HETATM   15  O   UNL     1     -10.645  10.622  67.890  1.00  0.00    -0.196 OA 
HETATM   16  C   UNL     1     -10.121  12.946  68.779  1.00  0.00    -0.058 C  
HETATM   17  C   UNL     1     -12.490  12.948  67.992  1.00  0.00     0.520 C  
HETATM   18  C   UNL     1     -11.557  13.513  69.060  1.00  0.00    -0.356 C  
HETATM   19  C   UNL     1     -11.893  13.213  70.614  1.00  0.00    -0.098 C  
HETATM   20  H   UNL     1     -11.509  11.017  67.882  1.00  0.00     0.000 HD 
HETATM   21  C   UNL     1      -9.355  13.611  67.398  1.00  0.00    -0.227 C  
HETATM   22  C   UNL     1      -9.429  15.130  67.444  1.00  0.00    -0.204 C  
HETATM   23  O   UNL     1     -14.226  14.863  70.688  1.00  0.00     0.084 OA 
HETATM   24  C   UNL     1     -10.841  15.656  67.676  1.00  0.00    -0.307 C  
HETATM   25  C   UNL     1     -12.121  14.110  71.590  1.00  0.00    -0.191 C  
ENDROOT
BRANCH   4  26
HETATM   26  C   UNL     1      -8.469   9.576  66.526  1.00  0.00    -0.126 C  
HETATM   27  O   UNL     1      -9.355   8.809  66.939  1.00  0.00    -0.150 OA 
BRANCH  26  28
HETATM   28  C   UNL     1      -7.305   8.791  65.717  1.00  0.00    -0.085 C  
BRANCH  28  29
HETATM   29  O   UNL     1      -6.965   7.501  66.448  1.00  0.00    -0.066 OA 
BRANCH  29  30
HETATM   30  C   UNL     1      -6.510   7.493  67.748  1.00  0.00    -0.054 C  
HETATM   31  O   UNL     1      -5.712   8.308  68.186  1.00  0.00    -0.033 OA 
BRANCH  30  32
HETATM   32  C   UNL     1      -7.095   6.339  68.608  1.00  0.00    -0.082 C  
BRANCH  32  33
HETATM   33  C   UNL     1      -8.408   5.740  68.057  1.00  0.00    -0.103 C  
HETATM   34  C   UNL     1      -8.743   4.291  68.386  1.00  0.00    -0.098 C  
HETATM   35  O   UNL     1      -7.878   3.350  67.970  1.00  0.00    -0.067 OA 
HETATM   36  O   UNL     1      -9.760   3.974  68.991  1.00  0.00    -0.169 OA 
ENDBRANCH  32  33
ENDBRANCH  30  32
ENDBRANCH  29  30
ENDBRANCH  28  29
ENDBRANCH  26  28
ENDBRANCH   4  26
TORSDOF 6
ENDMDL
MODEL      150
REMARK 921   NORMALIZED FREE ENERGY PREDICTED BY IDOCK:   -1.99 KCAL/MOL
REMARK 922        TOTAL FREE ENERGY PREDICTED BY IDOCK:   -3.04 KCAL/MOL
REMARK 923 INTER-LIGAND FREE ENERGY PREDICTED BY IDOCK:   -2.73 KCAL/MOL
REMARK 924 INTRA-LIGAND FREE ENERGY PREDICTED BY IDOCK:   -0.31 KCAL/MOL
REMARK 927      BINDING AFFINITY PREDICTED BY RF-SCORE:    0.00 PKD
ROOT
HETATM    1  C   UNL     1     -11.479  14.543  69.771  1.00  0.00    -0.327 C  
HETATM    2  C   UNL     1     -12.773  15.085  69.969  1.00  0.00    -0.197 C  
HETATM    3  C   UNL     1     -12.404  14.720  68.561  1.00  0.00     0.023 C  
HETATM    4  C   UNL     1     -10.780  13.457  68.252  1.00  0.00    -0.258 C  
HETATM    5  C   UNL     1      -9.827  19.838  67.568  1.00  0.00    -0.516 C  
HETATM    6  O   UNL     1     -10.025  12.958  69.428  1.00  0.00    -0.131 OA 
HETATM    7  C   UNL     1     -12.106  13.234  68.492  1.00  0.00    -0.256 C  
HETATM    8  C   UNL     1     -12.845  12.095  69.128  1.00  0.00     1.311 C  
HETATM    9  H   UNL     1      -9.283  12.381  69.287  1.00  0.00     0.000 HD 
HETATM   10  C   UNL     1      -9.895  19.996  66.111  1.00  0.00    -0.443 C  
HETATM   11  C   UNL     1      -9.749  18.548  67.948  1.00  0.00    -0.339 C  
HETATM   12  C   UNL     1     -12.211  13.802  66.670  1.00  0.00    -0.454 C  
HETATM   13  C   UNL     1      -9.561  19.270  70.376  1.00  0.00     1.322 C  
HETATM   14  C   UNL     1     -11.032  15.016  66.327  1.00  0.00    -0.338 C  
HETATM   15  O   UNL     1      -9.801  14.304  66.099  1.00  0.00    -0.294 OA 
HETATM   16  C   UNL     1     -10.759  16.281  67.379  1.00  0.00    -0.287 C  
HETATM   17  C   UNL     1      -8.478  16.917  66.591  1.00  0.00    -0.285 C  
HETATM   18  C   UNL     1      -9.880  17.465  66.845  1.00  0.00    -0.289 C  
HETATM   19  C   UNL     1     -10.680  18.135  65.609  1.00  0.00    -0.045 C  
HETATM   20  H   UNL     1      -9.153  14.972  65.911  1.00  0.00     0.000 HD 
HETATM   21  C   UNL     1     -10.388  15.789  68.979  1.00  0.00    -0.223 C  
HETATM   22  C   UNL     1     -10.344  17.000  69.898  1.00  0.00     0.154 C  
HETATM   23  O   UNL     1      -8.985  20.429  65.426  1.00  0.00     0.198 OA 
HETATM   24  C   UNL     1      -9.450  18.119  69.376  1.00  0.00     0.258 C  
HETATM   25  C   UNL     1     -11.158  19.390  65.527  1.00  0.00     0.119 C  
ENDROOT
BRANCH   4  26
HETATM   26  C   UNL     1     -10.506  11.911  67.313  1.00  0.00    -0.222 C  
HETATM   27  O   UNL     1     -11.041  11.694  66.212  1.00  0.00    -0.299 OA 
BRANCH  26  28
HETATM   28  C   UNL     1      -9.671  10.632  67.852  1.00  0.00    -0.161 C  
BRANCH  28  29
HETATM   29  O   UNL     1      -8.836  10.058  66.715  1.00  0.00    -0.131 OA 
BRANCH  29  30
HETATM   30  C   UNL     1      -7.468  10.205  66.665  1.00  0.00    -0.106 C  
HETATM   31  O   UNL     1      -6.688   9.266  66.727  1.00  0.00    -0.074 OA 
BRANCH  30  32
HETATM   32  C   UNL     1      -7.002  11.681  66.533  1.00  0.00     0.049 C  
BRANCH  32  33
HETATM   33  C   UNL     1      -6.470  12.297  67.847  1.00  0.00    -0.088 C  
HETATM   34  C   UNL     1      -6.430  13.815  67.976  1.00  0.00    -0.140 C  
HETATM   35  O   UNL     1      -5.672  14.487  67.092  1.00  0.00    -0.155 OA 
HETATM   36  O   UNL     1      -7.043  14.415  68.849  1.00  0.00    -0.104 OA 
ENDBRANCH  32  33
ENDBRANCH  30  32
ENDBRANCH  29  30
ENDBRANCH  28  29
ENDBRANCH  26  28
ENDBRANCH   4  26
TORSDOF 6
ENDMDL
MODEL      151
REMARK 921   NORMALIZED FREE ENERGY PREDICTED BY IDOCK:   -1.94 KCAL/MOL
REMARK 922        TOTAL FREE ENERGY PREDICTED BY IDOCK:   -2.97 KCAL/MOL
REMARK 923 INTER-LIGAND FREE ENERGY PREDICTED BY IDOCK:   -4.68 KCAL/MOL
REMARK 924 INTRA-LIGAND FREE ENERGY PREDICTED BY IDOCK:    1.72 KCAL/MOL
REMARK 927      BINDING AFFINITY PREDICTED BY RF-SCORE:    0.00 PKD
ROOT
HETATM    1  C   UNL     1     -10.220   7.935  71.290  1.00  0.00    -0.218 C  
HETATM    2  C   UNL     1      -9.342   8.713  72.083  1.00  0.00    -0.343 C  
HETATM    3  C   UNL     1      -8.799   8.203  70.780  1.00  0.00    -0.149 C  
HETATM    4  C   UNL     1     -10.140   7.524  69.341  1.00  0.00    -0.190 C  
HETATM    5  C   UNL     1      -7.209   3.101  73.074  1.00  0.00    -0.045 C  
HETATM    6  O   UNL     1     -11.593   7.555  69.641  1.00  0.00    -0.462 OA 
HETATM    7  C   UNL     1      -9.634   8.757  69.640  1.00  0.00    -0.171 C  
HETATM    8  C   UNL     1     -10.166  10.146  69.451  1.00  0.00    -0.246 C  
HETATM    9  H   UNL     1     -12.205   7.245  68.985  1.00  0.00     0.000 HD 
HETATM   10  C   UNL     1      -6.132   2.633  72.194  1.00  0.00    -0.013 C  
HETATM   11  C   UNL     1      -8.118   3.855  72.427  1.00  0.00    -0.085 C  
HETATM   12  C   UNL     1      -8.099   7.986  68.800  1.00  0.00    -0.125 C  
HETATM   13  C   UNL     1      -9.488   4.039  74.558  1.00  0.00    -0.134 C  
HETATM   14  C   UNL     1      -7.982   6.299  69.147  1.00  0.00    -0.110 C  
HETATM   15  O   UNL     1      -8.885   5.653  68.230  1.00  0.00    -0.109 OA 
HETATM   16  C   UNL     1      -8.234   5.711  70.687  1.00  0.00    -0.118 C  
HETATM   17  C   UNL     1      -8.737   3.340  70.087  1.00  0.00    -0.126 C  
HETATM   18  C   UNL     1      -7.829   4.217  70.946  1.00  0.00    -0.063 C  
HETATM   19  C   UNL     1      -6.229   4.111  70.732  1.00  0.00    -0.018 C  
HETATM   20  H   UNL     1      -8.820   4.725  68.421  1.00  0.00     0.000 HD 
HETATM   21  C   UNL     1      -9.739   6.164  71.368  1.00  0.00    -0.187 C  
HETATM   22  C   UNL     1      -9.796   5.746  72.829  1.00  0.00    -0.176 C  
HETATM   23  O   UNL     1      -6.003   1.479  71.823  1.00  0.00    -0.008 OA 
HETATM   24  C   UNL     1      -9.439   4.281  73.049  1.00  0.00    -0.144 C  
HETATM   25  C   UNL     1      -5.301   3.778  71.647  1.00  0.00    -0.004 C  
ENDROOT
BRANCH   4  26
HETATM   26  C   UNL     1     -10.414   7.869  67.565  1.00  0.00    -0.262 C  
HETATM   27  O   UNL     1      -9.971   7.135  66.665  1.00  0.00    -0.202 OA 
BRANCH  26  28
HETATM   28  C   UNL     1     -11.124   9.201  66.976  1.00  0.00     0.447 C  
BRANCH  28  29
HETATM   29  O   UNL     1     -10.117  10.343  66.957  1.00  0.00    -0.197 OA 
BRANCH  29  30
HETATM   30  C   UNL     1      -9.977  11.178  65.871  1.00  0.00    -0.239 C  
HETATM   31  O   UNL     1     -10.387  12.330  65.852  1.00  0.00    -0.240 OA 
BRANCH  30  32
HETATM   32  C   UNL     1      -9.259  10.518  64.662  1.00  0.00    -0.274 C  
BRANCH  32  33
HETATM   33  C   UNL     1      -7.952   9.780  65.027  1.00  0.00    -0.131 C  
HETATM   34  C   UNL     1      -6.652  10.236  64.377  1.00  0.00    -0.076 C  
HETATM   35  O   UNL     1      -6.578  10.169  63.036  1.00  0.00    -0.127 OA 
HETATM   36  O   UNL     1      -5.697  10.638  65.031  1.00  0.00    -0.139 OA 
ENDBRANCH  32  33
ENDBRANCH  30  32
ENDBRANCH  29  30
ENDBRANCH  28  29
ENDBRANCH  26  28
ENDBRANCH   4  26
TORSDOF 6
ENDMDL
MODEL      152
REMARK 921   NORMALIZED FREE ENERGY PREDICTED BY IDOCK:   -1.56 KCAL/MOL
REMARK 922        TOTAL FREE ENERGY PREDICTED BY IDOCK:   -2.45 KCAL/MOL
REMARK 923 INTER-LIGAND FREE ENERGY PREDICTED BY IDOCK:   -3.41 KCAL/MOL
REMARK 924 INTRA-LIGAND FREE ENERGY PREDICTED BY IDOCK:    0.97 KCAL/MOL
REMARK 927      BINDING AFFINITY PREDICTED BY RF-SCORE:    0.00 PKD
ROOT
HETATM    1  C   UNL     1     -10.458   5.496  69.006  1.00  0.00    -0.296 C  
HETATM    2  C   UNL     1     -10.041   4.210  69.428  1.00  0.00     0.149 C  
HETATM    3  C   UNL     1      -8.992   5.283  69.402  1.00  0.00    -0.124 C  
HETATM    4  C   UNL     1      -9.604   7.270  69.315  1.00  0.00    -0.156 C  
HETATM    5  C   UNL     1      -7.789   4.415  63.778  1.00  0.00    -0.087 C  
HETATM    6  O   UNL     1     -11.055   7.574  69.273  1.00  0.00    -0.429 OA 
HETATM    7  C   UNL     1      -9.396   6.399  70.347  1.00  0.00    -0.169 C  
HETATM    8  C   UNL     1      -9.979   6.302  71.725  1.00  0.00    -0.193 C  
HETATM    9  H   UNL     1     -11.335   8.481  69.234  1.00  0.00     0.000 HD 
HETATM   10  C   UNL     1      -6.413   4.903  63.628  1.00  0.00    -0.026 C  
HETATM   11  C   UNL     1      -8.471   5.073  64.737  1.00  0.00    -0.148 C  
HETATM   12  C   UNL     1      -7.579   6.775  69.887  1.00  0.00    -0.100 C  
HETATM   13  C   UNL     1     -10.553   3.726  64.185  1.00  0.00    -0.263 C  
HETATM   14  C   UNL     1      -7.402   7.001  68.184  1.00  0.00    -0.097 C  
HETATM   15  O   UNL     1      -7.811   8.358  67.931  1.00  0.00    -0.104 OA 
HETATM   16  C   UNL     1      -8.143   5.981  67.093  1.00  0.00    -0.106 C  
HETATM   17  C   UNL     1      -8.100   7.491  65.105  1.00  0.00    -0.130 C  
HETATM   18  C   UNL     1      -7.691   6.103  65.595  1.00  0.00    -0.092 C  
HETATM   19  C   UNL     1      -6.128   5.694  65.532  1.00  0.00    -0.026 C  
HETATM   20  H   UNL     1      -7.714   8.482  66.995  1.00  0.00     0.000 HD 
HETATM   21  C   UNL     1      -9.836   5.837  67.312  1.00  0.00    -0.158 C  
HETATM   22  C   UNL     1     -10.388   4.750  66.402  1.00  0.00    -0.312 C  
HETATM   23  O   UNL     1      -6.019   5.559  62.679  1.00  0.00    -0.017 OA 
HETATM   24  C   UNL     1      -9.970   4.916  64.946  1.00  0.00     0.202 C  
HETATM   25  C   UNL     1      -5.579   4.658  64.871  1.00  0.00    -0.014 C  
ENDROOT
BRANCH   4  26
HETATM   26  C   UNL     1      -9.229   8.781  70.277  1.00  0.00    -0.174 C  
HETATM   27  O   UNL     1      -9.740   9.883  70.016  1.00  0.00    -0.236 OA 
BRANCH  26  28
HETATM   28  C   UNL     1      -8.121   8.881  71.454  1.00  0.00    -0.108 C  
BRANCH  28  29
HETATM   29  O   UNL     1      -7.384  10.209  71.342  1.00  0.00     0.340 OA 
BRANCH  29  30
HETATM   30  C   UNL     1      -6.259  10.360  70.563  1.00  0.00    -0.113 C  
HETATM   31  O   UNL     1      -5.130  10.446  71.021  1.00  0.00    -0.067 OA 
BRANCH  30  32
HETATM   32  C   UNL     1      -6.558  10.423  69.039  1.00  0.00    -0.058 C  
BRANCH  32  33
HETATM   33  C   UNL     1      -5.902  11.619  68.314  1.00  0.00    -0.045 C  
HETATM   34  C   UNL     1      -6.158  13.024  68.846  1.00  0.00    -0.083 C  
HETATM   35  O   UNL     1      -7.433  13.450  68.870  1.00  0.00    -0.095 OA 
HETATM   36  O   UNL     1      -5.253  13.755  69.229  1.00  0.00    -0.081 OA 
ENDBRANCH  32  33
ENDBRANCH  30  32
ENDBRANCH  29  30
ENDBRANCH  28  29
ENDBRANCH  26  28
ENDBRANCH   4  26
TORSDOF 6
ENDMDL
MODEL      153
REMARK 921   NORMALIZED FREE ENERGY PREDICTED BY IDOCK:   -1.37 KCAL/MOL
REMARK 922        TOTAL FREE ENERGY PREDICTED BY IDOCK:   -2.20 KCAL/MOL
REMARK 923 INTER-LIGAND FREE ENERGY PREDICTED BY IDOCK:   -3.53 KCAL/MOL
REMARK 924 INTRA-LIGAND FREE ENERGY PREDICTED BY IDOCK:    1.33 KCAL/MOL
REMARK 927      BINDING AFFINITY PREDICTED BY RF-SCORE:    0.00 PKD
ROOT
HETATM    1  C   UNL     1      -9.938   7.708  66.188  1.00  0.00     0.132 C  
HETATM    2  C   UNL     1     -11.067   7.301  66.940  1.00  0.00     0.049 C  
HETATM    3  C   UNL     1      -9.862   7.742  67.719  1.00  0.00    -0.200 C  
HETATM    4  C   UNL     1      -8.388   8.834  66.738  1.00  0.00    -0.108 C  
HETATM    5  C   UNL     1      -7.416   2.469  67.533  1.00  0.00    -0.057 C  
HETATM    6  O   UNL     1      -8.561   9.142  65.297  1.00  0.00    -0.147 OA 
HETATM    7  C   UNL     1      -9.545   9.185  67.374  1.00  0.00    -0.193 C  
HETATM    8  C   UNL     1     -10.484  10.341  67.207  1.00  0.00    -0.307 C  
HETATM    9  H   UNL     1      -7.888   9.641  64.849  1.00  0.00     0.000 HD 
HETATM   10  C   UNL     1      -6.527   2.446  68.700  1.00  0.00    -0.029 C  
HETATM   11  C   UNL     1      -7.563   3.705  67.017  1.00  0.00    -0.079 C  
HETATM   12  C   UNL     1      -8.460   8.791  68.898  1.00  0.00    -0.131 C  
HETATM   13  C   UNL     1      -9.017   2.760  65.160  1.00  0.00    -0.135 C  
HETATM   14  C   UNL     1      -7.378   7.486  68.571  1.00  0.00    -0.099 C  
HETATM   15  O   UNL     1      -6.273   8.070  67.858  1.00  0.00    -0.048 OA 
HETATM   16  C   UNL     1      -7.892   6.112  67.777  1.00  0.00    -0.105 C  
HETATM   17  C   UNL     1      -5.666   5.292  67.003  1.00  0.00    -0.017 C  
HETATM   18  C   UNL     1      -6.913   4.886  67.784  1.00  0.00    -0.061 C  
HETATM   19  C   UNL     1      -6.741   4.420  69.323  1.00  0.00    -0.045 C  
HETATM   20  H   UNL     1      -5.678   7.352  67.678  1.00  0.00     0.000 HD 
HETATM   21  C   UNL     1      -8.633   6.419  66.262  1.00  0.00    -0.140 C  
HETATM   22  C   UNL     1      -9.233   5.137  65.708  1.00  0.00    -0.162 C  
HETATM   23  O   UNL     1      -5.403   1.973  68.696  1.00  0.00    -0.012 OA 
HETATM   24  C   UNL     1      -8.249   3.972  65.686  1.00  0.00    -0.105 C  
HETATM   25  C   UNL     1      -7.089   3.239  69.865  1.00  0.00    -0.041 C  
ENDROOT
BRANCH   4  26
HETATM   26  C   UNL     1      -7.522  10.414  67.058  1.00  0.00    -0.097 C  
HETATM   27  O   UNL     1      -6.334  10.600  66.745  1.00  0.00    -0.071 OA 
BRANCH  26  28
HETATM   28  C   UNL     1      -8.142  11.663  67.883  1.00  0.00    -0.138 C  
BRANCH  28  29
HETATM   29  O   UNL     1      -8.523  12.771  66.911  1.00  0.00    -0.181 OA 
BRANCH  29  30
HETATM   30  C   UNL     1      -9.757  13.380  66.940  1.00  0.00    -0.253 C  
HETATM   31  O   UNL     1     -10.476  13.396  67.928  1.00  0.00    -0.230 OA 
BRANCH  30  32
HETATM   32  C   UNL     1     -10.161  14.038  65.591  1.00  0.00    -0.351 C  
BRANCH  32  33
HETATM   33  C   UNL     1     -11.516  13.552  65.030  1.00  0.00    -0.334 C  
HETATM   34  C   UNL     1     -11.689  12.069  64.724  1.00  0.00    -0.275 C  
HETATM   35  O   UNL     1     -10.863  11.530  63.810  1.00  0.00    -0.364 OA 
HETATM   36  O   UNL     1     -12.546  11.383  65.266  1.00  0.00     0.807 OA 
ENDBRANCH  32  33
ENDBRANCH  30  32
ENDBRANCH  29  30
ENDBRANCH  28  29
ENDBRANCH  26  28
ENDBRANCH   4  26
TORSDOF 6
ENDMDL
MODEL      154
REMARK 921   NORMALIZED FREE ENERGY PREDICTED BY IDOCK:   -1.09 KCAL/MOL
REMARK 922        TOTAL FREE ENERGY PREDICTED BY IDOCK:   -1.82 KCAL/MOL
REMARK 923 INTER-LIGAND FREE ENERGY PREDICTED BY IDOCK:   -1.97 KCAL/MOL
REMARK 924 INTRA-LIGAND FREE ENERGY PREDICTED BY IDOCK:    0.14 KCAL/MOL
REMARK 927      BINDING AFFINITY PREDICTED BY RF-SCORE:    0.00 PKD
ROOT
HETATM    1  C   UNL     1     -11.543  13.657  69.747  1.00  0.00    -0.322 C  
HETATM    2  C   UNL     1     -12.899  14.029  69.575  1.00  0.00     0.475 C  
HETATM    3  C   UNL     1     -12.147  13.633  68.337  1.00  0.00    -0.312 C  
HETATM    4  C   UNL     1     -10.361  12.587  68.550  1.00  0.00    -0.222 C  
HETATM    5  C   UNL     1     -10.020  18.985  67.530  1.00  0.00    -0.418 C  
HETATM    6  O   UNL     1      -9.874  12.267  69.914  1.00  0.00     0.941 OA 
HETATM    7  C   UNL     1     -11.669  12.200  68.481  1.00  0.00    -0.382 C  
HETATM    8  C   UNL     1     -12.406  11.012  69.021  1.00  0.00     0.006 C  
HETATM    9  H   UNL     1      -9.059  11.790  70.012  1.00  0.00     0.000 HD 
HETATM   10  C   UNL     1      -9.735  19.044  66.092  1.00  0.00    -0.296 C  
HETATM   11  C   UNL     1      -9.889  17.743  68.035  1.00  0.00    -0.317 C  
HETATM   12  C   UNL     1     -11.376  12.637  66.643  1.00  0.00    -0.379 C  
HETATM   13  C   UNL     1     -10.406  18.629  70.359  1.00  0.00     1.698 C  
HETATM   14  C   UNL     1     -10.299  13.978  66.486  1.00  0.00    -0.285 C  
HETATM   15  O   UNL     1      -8.976  13.428  66.630  1.00  0.00    -0.374 OA 
HETATM   16  C   UNL     1     -10.450  15.329  67.451  1.00  0.00    -0.270 C  
HETATM   17  C   UNL     1      -8.135  16.221  67.184  1.00  0.00    -0.219 C  
HETATM   18  C   UNL     1      -9.610  16.588  67.039  1.00  0.00    -0.249 C  
HETATM   19  C   UNL     1     -10.145  17.066  65.589  1.00  0.00    -0.136 C  
HETATM   20  H   UNL     1      -8.384  14.165  66.544  1.00  0.00     0.000 HD 
HETATM   21  C   UNL     1     -10.440  14.991  69.131  1.00  0.00    -0.247 C  
HETATM   22  C   UNL     1     -10.772  16.249  69.917  1.00  0.00    -0.322 C  
HETATM   23  O   UNL     1      -8.739  19.555  65.611  1.00  0.00    -0.336 OA 
HETATM   24  C   UNL     1      -9.913  17.446  69.527  1.00  0.00     0.101 C  
HETATM   25  C   UNL     1     -10.730  18.237  65.278  1.00  0.00     0.431 C  
ENDROOT
BRANCH   4  26
HETATM   26  C   UNL     1      -9.679  11.039  67.852  1.00  0.00    -0.172 C  
HETATM   27  O   UNL     1     -10.400  10.086  67.511  1.00  0.00    -0.200 OA 
BRANCH  26  28
HETATM   28  C   UNL     1      -8.102  10.690  67.730  1.00  0.00    -0.111 C  
BRANCH  28  29
HETATM   29  O   UNL     1      -7.752  10.441  66.270  1.00  0.00    -0.117 OA 
BRANCH  29  30
HETATM   30  C   UNL     1      -7.860   9.196  65.692  1.00  0.00    -0.095 C  
HETATM   31  O   UNL     1      -7.490   8.166  66.238  1.00  0.00    -0.080 OA 
BRANCH  30  32
HETATM   32  C   UNL     1      -8.488   9.219  64.271  1.00  0.00    -0.202 C  
BRANCH  32  33
HETATM   33  C   UNL     1      -9.901   9.839  64.212  1.00  0.00     0.183 C  
HETATM   34  C   UNL     1     -10.077  11.187  63.523  1.00  0.00    -0.385 C  
HETATM   35  O   UNL     1      -9.397  12.230  64.028  1.00  0.00     0.153 OA 
HETATM   36  O   UNL     1     -10.814  11.337  62.556  1.00  0.00     0.490 OA 
ENDBRANCH  32  33
ENDBRANCH  30  32
ENDBRANCH  29  30
ENDBRANCH  28  29
ENDBRANCH  26  28
ENDBRANCH   4  26
TORSDOF 6
ENDMDL
MODEL      155
REMARK 921   NORMALIZED FREE ENERGY PREDICTED BY IDOCK:   -1.05 KCAL/MOL
REMARK 922        TOTAL FREE ENERGY PREDICTED BY IDOCK:   -1.77 KCAL/MOL
REMARK 923 INTER-LIGAND FREE ENERGY PREDICTED BY IDOCK:   -2.21 KCAL/MOL
REMARK 924 INTRA-LIGAND FREE ENERGY PREDICTED BY IDOCK:    0.45 KCAL/MOL
REMARK 927      BINDING AFFINITY PREDICTED BY RF-SCORE:    0.00 PKD
ROOT
HETATM    1  C   UNL     1     -11.184  14.331  66.495  1.00  0.00    -0.333 C  
HETATM    2  C   UNL     1     -12.530  13.905  66.384  1.00  0.00    -0.414 C  
HETATM    3  C   UNL     1     -11.945  13.934  67.766  1.00  0.00    -0.390 C  
HETATM    4  C   UNL     1     -10.202  15.023  68.086  1.00  0.00    -0.221 C  
HETATM    5  C   UNL     1      -9.657   8.611  67.257  1.00  0.00    -0.216 C  
HETATM    6  O   UNL     1      -9.579  15.734  66.943  1.00  0.00    -0.220 OA 
HETATM    7  C   UNL     1     -11.527  15.353  68.101  1.00  0.00    -0.352 C  
HETATM    8  C   UNL     1     -12.256  16.637  67.838  1.00  0.00     1.555 C  
HETATM    9  H   UNL     1      -8.783  16.232  67.088  1.00  0.00     0.000 HD 
HETATM   10  C   UNL     1      -9.536   8.140  68.641  1.00  0.00    -0.149 C  
HETATM   11  C   UNL     1      -9.533   9.949  67.151  1.00  0.00    -0.190 C  
HETATM   12  C   UNL     1     -11.425  14.404  69.757  1.00  0.00    -0.328 C  
HETATM   13  C   UNL     1      -9.735   9.771  64.625  1.00  0.00    -0.166 C  
HETATM   14  C   UNL     1     -10.306  13.092  69.654  1.00  0.00     0.856 C  
HETATM   15  O   UNL     1      -9.005  13.680  69.839  1.00  0.00     0.991 OA 
HETATM   16  C   UNL     1     -10.278  12.079  68.330  1.00  0.00    -0.207 C  
HETATM   17  C   UNL     1      -7.966  11.182  68.614  1.00  0.00    -0.145 C  
HETATM   18  C   UNL     1      -9.427  10.767  68.464  1.00  0.00    -0.181 C  
HETATM   19  C   UNL     1     -10.100   9.879  69.637  1.00  0.00    -0.254 C  
HETATM   20  H   UNL     1      -8.390  12.959  69.783  1.00  0.00     0.000 HD 
HETATM   21  C   UNL     1     -10.093  12.893  66.833  1.00  0.00    -0.241 C  
HETATM   22  C   UNL     1     -10.269  11.913  65.683  1.00  0.00    -0.280 C  
HETATM   23  O   UNL     1      -8.577   7.527  69.074  1.00  0.00    -0.134 OA 
HETATM   24  C   UNL     1      -9.401  10.667  65.816  1.00  0.00    -0.223 C  
HETATM   25  C   UNL     1     -10.657   8.659  69.523  1.00  0.00    -0.218 C  
ENDROOT
BRANCH   4  26
HETATM   26  C   UNL     1      -9.683  16.310  69.278  1.00  0.00    -0.238 C  
HETATM   27  O   UNL     1     -10.491  17.087  69.816  1.00  0.00    -0.203 OA 
BRANCH  26  28
HETATM   28  C   UNL     1      -8.148  16.665  69.654  1.00  0.00     0.529 C  
BRANCH  28  29
HETATM   29  O   UNL     1      -7.361  16.917  68.375  1.00  0.00    -0.184 OA 
BRANCH  29  30
HETATM   30  C   UNL     1      -6.778  18.133  68.101  1.00  0.00    -0.206 C  
HETATM   31  O   UNL     1      -7.354  19.038  67.514  1.00  0.00    -0.224 OA 
BRANCH  30  32
HETATM   32  C   UNL     1      -5.310  18.249  68.595  1.00  0.00    -0.169 C  
BRANCH  32  33
HETATM   33  C   UNL     1      -5.160  18.893  69.991  1.00  0.00    -0.195 C  
HETATM   34  C   UNL     1      -6.212  19.896  70.448  1.00  0.00    -0.295 C  
HETATM   35  O   UNL     1      -6.366  21.006  69.706  1.00  0.00     0.016 OA 
HETATM   36  O   UNL     1      -6.890  19.723  71.453  1.00  0.00     0.416 OA 
ENDBRANCH  32  33
ENDBRANCH  30  32
ENDBRANCH  29  30
ENDBRANCH  28  29
ENDBRANCH  26  28
ENDBRANCH   4  26
TORSDOF 6
ENDMDL
MODEL      156
REMARK 921   NORMALIZED FREE ENERGY PREDICTED BY IDOCK:   -0.79 KCAL/MOL
REMARK 922        TOTAL FREE ENERGY PREDICTED BY IDOCK:   -1.41 KCAL/MOL
REMARK 923 INTER-LIGAND FREE ENERGY PREDICTED BY IDOCK:   -4.67 KCAL/MOL
REMARK 924 INTRA-LIGAND FREE ENERGY PREDICTED BY IDOCK:    3.26 KCAL/MOL
REMARK 927      BINDING AFFINITY PREDICTED BY RF-SCORE:    0.00 PKD
ROOT
HETATM    1  C   UNL     1      -8.539  10.897  68.768  1.00  0.00    -0.159 C  
HETATM    2  C   UNL     1      -7.164  11.166  68.561  1.00  0.00    -0.088 C  
HETATM    3  C   UNL     1      -8.026  11.087  67.335  1.00  0.00    -0.119 C  
HETATM    4  C   UNL     1     -10.090  11.227  67.560  1.00  0.00    -0.183 C  
HETATM    5  C   UNL     1      -7.504   5.308  66.947  1.00  0.00    -0.088 C  
HETATM    6  O   UNL     1     -10.655  11.392  68.922  1.00  0.00    -0.197 OA 
HETATM    7  C   UNL     1      -9.100  12.156  67.411  1.00  0.00    -0.181 C  
HETATM    8  C   UNL     1      -8.977  13.585  67.846  1.00  0.00    -0.200 C  
HETATM    9  H   UNL     1     -11.597  11.455  69.025  1.00  0.00     0.000 HD 
HETATM   10  C   UNL     1      -7.746   5.022  65.528  1.00  0.00    -0.087 C  
HETATM   11  C   UNL     1      -8.178   6.391  67.380  1.00  0.00    -0.116 C  
HETATM   12  C   UNL     1      -9.182  11.500  65.618  1.00  0.00    -0.184 C  
HETATM   13  C   UNL     1      -7.292   6.007  69.730  1.00  0.00    -0.079 C  
HETATM   14  C   UNL     1      -9.536   9.810  65.588  1.00  0.00    -0.263 C  
HETATM   15  O   UNL     1     -10.963   9.713  65.755  1.00  0.00     0.546 OA 
HETATM   16  C   UNL     1      -8.778   8.748  66.627  1.00  0.00    -0.138 C  
HETATM   17  C   UNL     1     -10.441   6.889  66.514  1.00  0.00    -0.088 C  
HETATM   18  C   UNL     1      -8.962   7.219  66.328  1.00  0.00    -0.185 C  
HETATM   19  C   UNL     1      -8.283   6.928  64.889  1.00  0.00    -0.074 C  
HETATM   20  H   UNL     1     -11.158   8.783  65.739  1.00  0.00     0.000 HD 
HETATM   21  C   UNL     1      -8.924   9.168  68.282  1.00  0.00    -0.129 C  
HETATM   22  C   UNL     1      -8.049   8.257  69.128  1.00  0.00    -0.120 C  
HETATM   23  O   UNL     1      -8.407   4.082  65.122  1.00  0.00    -0.104 OA 
HETATM   24  C   UNL     1      -8.276   6.776  68.849  1.00  0.00    -0.121 C  
HETATM   25  C   UNL     1      -7.234   6.128  64.625  1.00  0.00    -0.064 C  
ENDROOT
BRANCH   4  26
HETATM   26  C   UNL     1     -11.407  12.244  66.799  1.00  0.00    -0.339 C  
HETATM   27  O   UNL     1     -12.354  12.710  67.455  1.00  0.00    -0.322 OA 
BRANCH  26  28
HETATM   28  C   UNL     1     -11.560  12.530  65.212  1.00  0.00    -0.364 C  
BRANCH  28  29
HETATM   29  O   UNL     1     -12.132  13.926  65.004  1.00  0.00    -0.367 OA 
BRANCH  29  30
HETATM   30  C   UNL     1     -11.906  14.951  65.894  1.00  0.00    -0.113 C  
HETATM   31  O   UNL     1     -12.201  14.891  67.079  1.00  0.00    -0.148 OA 
BRANCH  30  32
HETATM   32  C   UNL     1     -11.249  16.204  65.251  1.00  0.00    -0.071 C  
BRANCH  32  33
HETATM   33  C   UNL     1     -10.961  17.350  66.247  1.00  0.00     0.237 C  
HETATM   34  C   UNL     1      -9.526  17.573  66.706  1.00  0.00    -0.275 C  
HETATM   35  O   UNL     1      -8.921  16.560  67.351  1.00  0.00    -0.196 OA 
HETATM   36  O   UNL     1      -8.933  18.628  66.517  1.00  0.00    -0.296 OA 
ENDBRANCH  32  33
ENDBRANCH  30  32
ENDBRANCH  29  30
ENDBRANCH  28  29
ENDBRANCH  26  28
ENDBRANCH   4  26
TORSDOF 6
ENDMDL
MODEL      157
REMARK 921   NORMALIZED FREE ENERGY PREDICTED BY IDOCK:    0.12 KCAL/MOL
REMARK 922        TOTAL FREE ENERGY PREDICTED BY IDOCK:   -0.18 KCAL/MOL
REMARK 923 INTER-LIGAND FREE ENERGY PREDICTED BY IDOCK:   -3.24 KCAL/MOL
REMARK 924 INTRA-LIGAND FREE ENERGY PREDICTED BY IDOCK:    3.06 KCAL/MOL
REMARK 927      BINDING AFFINITY PREDICTED BY RF-SCORE:    0.00 PKD
ROOT
HETATM    1  C   UNL     1     -11.401  16.204  65.675  1.00  0.00     0.255 C  
HETATM    2  C   UNL     1     -11.040  16.972  64.540  1.00  0.00     0.578 C  
HETATM    3  C   UNL     1     -10.070  15.912  64.972  1.00  0.00     0.059 C  
HETATM    4  C   UNL     1     -10.734  14.419  66.260  1.00  0.00    -0.307 C  
HETATM    5  C   UNL     1      -7.472  19.407  68.827  1.00  0.00    -0.393 C  
HETATM    6  O   UNL     1     -12.143  14.446  66.725  1.00  0.00    -0.424 OA 
HETATM    7  C   UNL     1     -10.748  14.556  64.901  1.00  0.00    -0.448 C  
HETATM    8  C   UNL     1     -11.648  14.008  63.835  1.00  0.00    -0.091 C  
HETATM    9  H   UNL     1     -12.446  13.765  67.313  1.00  0.00     0.000 HD 
HETATM   10  C   UNL     1      -6.127  18.840  68.973  1.00  0.00    -0.228 C  
HETATM   11  C   UNL     1      -8.401  18.473  68.540  1.00  0.00    -0.359 C  
HETATM   12  C   UNL     1      -8.893  14.169  65.156  1.00  0.00     2.474 C  
HETATM   13  C   UNL     1     -10.215  20.249  68.611  1.00  0.00    -0.261 C  
HETATM   14  C   UNL     1      -8.310  14.855  66.630  1.00  0.00    -0.024 C  
HETATM   15  O   UNL     1      -8.708  13.937  67.665  1.00  0.00    -0.165 OA 
HETATM   16  C   UNL     1      -8.709  16.411  67.079  1.00  0.00    -0.224 C  
HETATM   17  C   UNL     1      -8.247  16.208  69.523  1.00  0.00     0.045 C  
HETATM   18  C   UNL     1      -7.907  17.025  68.279  1.00  0.00    -0.216 C  
HETATM   19  C   UNL     1      -6.359  17.123  67.820  1.00  0.00    -0.158 C  
HETATM   20  H   UNL     1      -8.388  14.315  68.476  1.00  0.00     0.000 HD 
HETATM   21  C   UNL     1     -10.395  16.713  67.125  1.00  0.00    -0.300 C  
HETATM   22  C   UNL     1     -10.653  18.193  67.356  1.00  0.00    -0.406 C  
HETATM   23  O   UNL     1      -5.541  18.731  70.037  1.00  0.00    -0.221 OA 
HETATM   24  C   UNL     1      -9.895  18.756  68.553  1.00  0.00    -0.444 C  
HETATM   25  C   UNL     1      -5.616  18.235  67.679  1.00  0.00    -0.150 C  
ENDROOT
BRANCH   4  26
HETATM   26  C   UNL     1     -10.681  12.590  66.256  1.00  0.00    -0.260 C  
HETATM   27  O   UNL     1     -11.353  11.905  65.467  1.00  0.00    -0.322 OA 
BRANCH  26  28
HETATM   28  C   UNL     1      -9.883  11.681  67.333  1.00  0.00    -0.183 C  
BRANCH  28  29
HETATM   29  O   UNL     1      -8.403  12.031  67.291  1.00  0.00    -0.160 OA 
BRANCH  29  30
HETATM   30  C   UNL     1      -7.458  11.307  67.984  1.00  0.00    -0.095 C  
HETATM   31  O   UNL     1      -6.432  11.796  68.434  1.00  0.00    -0.050 OA 
BRANCH  30  32
HETATM   32  C   UNL     1      -7.810   9.801  68.131  1.00  0.00    -0.085 C  
BRANCH  32  33
HETATM   33  C   UNL     1      -8.148   9.367  69.574  1.00  0.00    -0.114 C  
HETATM   34  C   UNL     1      -9.530   8.794  69.858  1.00  0.00    -0.169 C  
HETATM   35  O   UNL     1     -10.587   9.586  69.611  1.00  0.00    -0.209 OA 
HETATM   36  O   UNL     1      -9.693   7.665  70.306  1.00  0.00    -0.179 OA 
ENDBRANCH  32  33
ENDBRANCH  30  32
ENDBRANCH  29  30
ENDBRANCH  28  29
ENDBRANCH  26  28
ENDBRANCH   4  26
TORSDOF 6
ENDMDL
MODEL      158
REMARK 921   NORMALIZED FREE ENERGY PREDICTED BY IDOCK:    0.80 KCAL/MOL
REMARK 922        TOTAL FREE ENERGY PREDICTED BY IDOCK:    0.74 KCAL/MOL
REMARK 923 INTER-LIGAND FREE ENERGY PREDICTED BY IDOCK:   -4.03 KCAL/MOL
REMARK 924 INTRA-LIGAND FREE ENERGY PREDICTED BY IDOCK:    4.77 KCAL/MOL
REMARK 927      BINDING AFFINITY PREDICTED BY RF-SCORE:    0.00 PKD
ROOT
HETATM    1  C   UNL     1      -9.041   6.922  67.820  1.00  0.00    -0.118 C  
HETATM    2  C   UNL     1      -7.738   6.439  67.547  1.00  0.00    -0.101 C  
HETATM    3  C   UNL     1      -7.941   7.118  68.871  1.00  0.00    -0.120 C  
HETATM    4  C   UNL     1      -9.884   7.374  69.569  1.00  0.00    -0.165 C  
HETATM    5  C   UNL     1      -7.022  12.417  66.659  1.00  0.00     0.476 C  
HETATM    6  O   UNL     1     -11.015   6.889  68.741  1.00  0.00    -0.372 OA 
HETATM    7  C   UNL     1      -8.982   6.353  69.668  1.00  0.00    -0.137 C  
HETATM    8  C   UNL     1      -9.139   4.872  69.834  1.00  0.00    -0.164 C  
HETATM    9  H   UNL     1     -11.902   7.006  69.059  1.00  0.00     0.000 HD 
HETATM   10  C   UNL     1      -6.576  13.212  67.809  1.00  0.00    -0.151 C  
HETATM   11  C   UNL     1      -7.871  11.431  67.008  1.00  0.00    -0.158 C  
HETATM   12  C   UNL     1      -8.205   7.577  70.914  1.00  0.00    -0.112 C  
HETATM   13  C   UNL     1      -8.137  10.791  64.564  1.00  0.00     0.134 C  
HETATM   14  C   UNL     1      -8.425   9.211  70.401  1.00  0.00    -0.199 C  
HETATM   15  O   UNL     1      -9.764   9.562  70.797  1.00  0.00    -0.269 OA 
HETATM   16  C   UNL     1      -8.174   9.663  68.815  1.00  0.00    -0.106 C  
HETATM   17  C   UNL     1      -9.510  11.772  68.829  1.00  0.00    -0.037 C  
HETATM   18  C   UNL     1      -8.127  11.204  68.521  1.00  0.00    -0.146 C  
HETATM   19  C   UNL     1      -6.853  11.804  69.317  1.00  0.00    -0.093 C  
HETATM   20  H   UNL     1      -9.885  10.461  70.514  1.00  0.00     0.000 HD 
HETATM   21  C   UNL     1      -9.078   8.753  67.680  1.00  0.00    -0.145 C  
HETATM   22  C   UNL     1      -8.643   9.105  66.266  1.00  0.00    -0.137 C  
HETATM   23  O   UNL     1      -6.933  14.356  68.031  1.00  0.00    -0.110 OA 
HETATM   24  C   UNL     1      -8.647  10.605  65.992  1.00  0.00    -0.177 C  
HETATM   25  C   UNL     1      -5.762  12.391  68.792  1.00  0.00    -0.058 C  
ENDROOT
BRANCH   4  26
HETATM   26  C   UNL     1     -10.756   6.994  71.132  1.00  0.00    -0.230 C  
HETATM   27  O   UNL     1     -11.911   6.537  71.159  1.00  0.00    -0.353 OA 
BRANCH  26  28
HETATM   28  C   UNL     1     -10.194   7.327  72.615  1.00  0.00    -0.212 C  
BRANCH  28  29
HETATM   29  O   UNL     1      -9.960   6.026  73.370  1.00  0.00    -0.166 OA 
BRANCH  29  30
HETATM   30  C   UNL     1     -10.252   4.798  72.822  1.00  0.00    -0.182 C  
HETATM   31  O   UNL     1     -10.794   4.657  71.735  1.00  0.00     0.001 OA 
BRANCH  30  32
HETATM   32  C   UNL     1      -9.841   3.599  73.721  1.00  0.00    -0.152 C  
BRANCH  32  33
HETATM   33  C   UNL     1      -8.351   3.593  74.127  1.00  0.00    -0.086 C  
HETATM   34  C   UNL     1      -7.331   4.187  73.164  1.00  0.00    -0.070 C  
HETATM   35  O   UNL     1      -7.233   3.624  71.947  1.00  0.00    -0.047 OA 
HETATM   36  O   UNL     1      -6.612   5.130  73.470  1.00  0.00    -0.066 OA 
ENDBRANCH  32  33
ENDBRANCH  30  32
ENDBRANCH  29  30
ENDBRANCH  28  29
ENDBRANCH  26  28
ENDBRANCH   4  26
TORSDOF 6
ENDMDL
MODEL      159
REMARK 921   NORMALIZED FREE ENERGY PREDICTED BY IDOCK:    1.60 KCAL/MOL
REMARK 922        TOTAL FREE ENERGY PREDICTED BY IDOCK:    1.82 KCAL/MOL
REMARK 923 INTER-LIGAND FREE ENERGY PREDICTED BY IDOCK:    1.59 KCAL/MOL
REMARK 924 INTRA-LIGAND FREE ENERGY PREDICTED BY IDOCK:    0.23 KCAL/MOL
REMARK 927      BINDING AFFINITY PREDICTED BY RF-SCORE:    0.00 PKD
ROOT
HETATM    1  C   UNL     1     -10.122  14.375  70.061  1.00  0.00     0.603 C  
HETATM    2  C   UNL     1     -10.267  14.995  71.326  1.00  0.00     1.154 C  
HETATM    3  C   UNL     1     -10.841  15.726  70.147  1.00  0.00    -0.360 C  
HETATM    4  C   UNL     1     -11.144  14.677  68.376  1.00  0.00    -0.257 C  
HETATM    5  C   UNL     1      -5.783  18.297  68.872  1.00  0.00    -0.206 C  
HETATM    6  O   UNL     1     -10.779  13.240  68.321  1.00  0.00    -0.237 OA 
HETATM    7  C   UNL     1     -11.905  14.864  69.495  1.00  0.00    -0.360 C  
HETATM    8  C   UNL     1     -12.976  14.039  70.143  1.00  0.00     0.075 C  
HETATM    9  H   UNL     1     -10.917  12.760  67.513  1.00  0.00     0.000 HD 
HETATM   10  C   UNL     1      -6.172  19.509  68.141  1.00  0.00    -0.226 C  
HETATM   11  C   UNL     1      -6.652  17.283  68.696  1.00  0.00    -0.186 C  
HETATM   12  C   UNL     1     -12.105  16.587  68.691  1.00  0.00     0.699 C  
HETATM   13  C   UNL     1      -5.177  15.769  70.106  1.00  0.00    -0.137 C  
HETATM   14  C   UNL     1     -10.657  17.068  67.883  1.00  0.00    -0.365 C  
HETATM   15  O   UNL     1     -10.688  16.401  66.607  1.00  0.00    -0.278 OA 
HETATM   16  C   UNL     1      -9.160  16.857  68.587  1.00  0.00    -0.265 C  
HETATM   17  C   UNL     1      -7.772  16.956  66.514  1.00  0.00    -0.326 C  
HETATM   18  C   UNL     1      -7.949  17.578  67.897  1.00  0.00    -0.227 C  
HETATM   19  C   UNL     1      -8.220  19.170  67.997  1.00  0.00    -0.339 C  
HETATM   20  H   UNL     1      -9.892  16.666  66.163  1.00  0.00     0.000 HD 
HETATM   21  C   UNL     1      -8.840  15.246  69.075  1.00  0.00    -0.226 C  
HETATM   22  C   UNL     1      -7.545  15.191  69.870  1.00  0.00     0.003 C  
HETATM   23  O   UNL     1      -5.597  19.925  67.150  1.00  0.00    -0.170 OA 
HETATM   24  C   UNL     1      -6.374  15.861  69.160  1.00  0.00    -0.146 C  
HETATM   25  C   UNL     1      -7.480  20.087  68.646  1.00  0.00    -0.211 C  
ENDROOT
BRANCH   4  26
HETATM   26  C   UNL     1     -12.556  14.449  67.235  1.00  0.00     0.425 C  
HETATM   27  O   UNL     1     -13.613  15.093  67.343  1.00  0.00     3.971 OA 
BRANCH  26  28
HETATM   28  C   UNL     1     -12.640  13.321  66.075  1.00  0.00    -0.210 C  
BRANCH  28  29
HETATM   29  O   UNL     1     -11.309  12.587  65.987  1.00  0.00    -0.309 OA 
BRANCH  29  30
HETATM   30  C   UNL     1     -11.219  11.282  65.559  1.00  0.00     0.001 C  
HETATM   31  O   UNL     1     -11.022  10.967  64.395  1.00  0.00    -0.231 OA 
BRANCH  30  32
HETATM   32  C   UNL     1     -11.404  10.238  66.696  1.00  0.00     0.544 C  
BRANCH  32  33
HETATM   33  C   UNL     1     -10.127   9.969  67.523  1.00  0.00    -0.243 C  
HETATM   34  C   UNL     1      -8.773  10.099  66.836  1.00  0.00    -0.129 C  
HETATM   35  O   UNL     1      -8.534   9.292  65.788  1.00  0.00    -0.124 OA 
HETATM   36  O   UNL     1      -7.919  10.891  67.216  1.00  0.00    -0.117 OA 
ENDBRANCH  32  33
ENDBRANCH  30  32
ENDBRANCH  29  30
ENDBRANCH  28  29
ENDBRANCH  26  28
ENDBRANCH   4  26
TORSDOF 6
ENDMDL
MODEL      160
REMARK 921   NORMALIZED FREE ENERGY PREDICTED BY IDOCK:    2.01 KCAL/MOL
REMARK 922        TOTAL FREE ENERGY PREDICTED BY IDOCK:    2.37 KCAL/MOL
REMARK 923 INTER-LIGAND FREE ENERGY PREDICTED BY IDOCK:    2.18 KCAL/MOL
REMARK 924 INTRA-LIGAND FREE ENERGY PREDICTED BY IDOCK:    0.19 KCAL/MOL
REMARK 927      BINDING AFFINITY PREDICTED BY RF-SCORE:    0.00 PKD
ROOT
HETATM    1  C   UNL     1      -9.275  13.405  69.035  1.00  0.00     0.387 C  
HETATM    2  C   UNL     1      -8.764  13.970  70.229  1.00  0.00     2.533 C  
HETATM    3  C   UNL     1      -8.073  12.740  69.716  1.00  0.00     1.899 C  
HETATM    4  C   UNL     1      -8.399  12.165  67.743  1.00  0.00    -0.159 C  
HETATM    5  C   UNL     1     -11.793   9.149  72.377  1.00  0.00    -0.112 C  
HETATM    6  O   UNL     1      -9.309  12.977  66.899  1.00  0.00    -0.228 OA 
HETATM    7  C   UNL     1      -7.514  13.022  68.334  1.00  0.00    -0.128 C  
HETATM    8  C   UNL     1      -6.799  14.242  67.838  1.00  0.00    -0.174 C  
HETATM    9  H   UNL     1      -9.458  12.715  65.998  1.00  0.00     0.000 HD 
HETATM   10  C   UNL     1     -11.032   7.905  72.543  1.00  0.00    -0.350 C  
HETATM   11  C   UNL     1     -11.423   9.842  71.283  1.00  0.00    -0.457 C  
HETATM   12  C   UNL     1      -6.730  11.358  68.854  1.00  0.00    -0.080 C  
HETATM   13  C   UNL     1     -13.222  11.569  71.763  1.00  0.00    -0.456 C  
HETATM   14  C   UNL     1      -7.942  10.166  69.155  1.00  0.00    -0.124 C  
HETATM   15  O   UNL     1      -8.312   9.657  67.859  1.00  0.00    -0.116 OA 
HETATM   16  C   UNL     1      -9.318  10.528  70.026  1.00  0.00     0.382 C  
HETATM   17  C   UNL     1     -10.759   8.658  69.215  1.00  0.00    -0.151 C  
HETATM   18  C   UNL     1     -10.206   9.316  70.477  1.00  0.00    -0.309 C  
HETATM   19  C   UNL     1      -9.315   8.419  71.486  1.00  0.00    -0.263 C  
HETATM   20  H   UNL     1      -8.979   9.002  68.025  1.00  0.00     0.000 HD 
HETATM   21  C   UNL     1     -10.200  11.863  69.412  1.00  0.00     0.347 C  
HETATM   22  C   UNL     1     -11.319  12.232  70.373  1.00  0.00     0.507 C  
HETATM   23  O   UNL     1     -11.494   6.791  72.365  1.00  0.00    -0.268 OA 
HETATM   24  C   UNL     1     -12.193  11.046  70.762  1.00  0.00    -0.480 C  
HETATM   25  C   UNL     1      -9.557   8.163  72.784  1.00  0.00    -0.353 C  
ENDROOT
BRANCH   4  26
HETATM   26  C   UNL     1      -7.322  11.745  66.325  1.00  0.00     0.320 C  
HETATM   27  O   UNL     1      -6.152  12.154  66.230  1.00  0.00     0.120 OA 
BRANCH  26  28
HETATM   28  C   UNL     1      -7.796  10.931  65.007  1.00  0.00     0.222 C  
BRANCH  28  29
HETATM   29  O   UNL     1      -9.207  10.403  65.220  1.00  0.00    -0.172 OA 
BRANCH  29  30
HETATM   30  C   UNL     1      -9.482   9.056  65.300  1.00  0.00    -0.023 C  
HETATM   31  O   UNL     1     -10.233   8.571  66.134  1.00  0.00    -0.173 OA 
BRANCH  30  32
HETATM   32  C   UNL     1      -8.737   8.202  64.237  1.00  0.00     0.274 C  
BRANCH  32  33
HETATM   33  C   UNL     1      -7.687   7.233  64.825  1.00  0.00    -0.115 C  
HETATM   34  C   UNL     1      -6.261   7.733  65.017  1.00  0.00    -0.038 C  
HETATM   35  O   UNL     1      -5.599   8.140  63.921  1.00  0.00    -0.051 OA 
HETATM   36  O   UNL     1      -5.718   7.758  66.114  1.00  0.00    -0.035 OA 
ENDBRANCH  32  33
ENDBRANCH  30  32
ENDBRANCH  29  30
ENDBRANCH  28  29
ENDBRANCH  26  28
ENDBRANCH   4  26
TORSDOF 6
ENDMDL
MODEL      161
REMARK 921   NORMALIZED FREE ENERGY PREDICTED BY IDOCK:    2.10 KCAL/MOL
REMARK 922        TOTAL FREE ENERGY PREDICTED BY IDOCK:    2.48 KCAL/MOL
REMARK 923 INTER-LIGAND FREE ENERGY PREDICTED BY IDOCK:    1.90 KCAL/MOL
REMARK 924 INTRA-LIGAND FREE ENERGY PREDICTED BY IDOCK:    0.58 KCAL/MOL
REMARK 927      BINDING AFFINITY PREDICTED BY RF-SCORE:    0.00 PKD
ROOT
HETATM    1  C   UNL     1     -11.278  10.811  66.746  1.00  0.00    -0.053 C  
HETATM    2  C   UNL     1     -12.131  11.182  65.677  1.00  0.00     1.718 C  
HETATM    3  C   UNL     1     -10.713  11.670  65.608  1.00  0.00    -0.330 C  
HETATM    4  C   UNL     1      -9.287  10.760  66.819  1.00  0.00    -0.161 C  
HETATM    5  C   UNL     1     -11.838  16.372  68.841  1.00  0.00     0.066 C  
HETATM    6  O   UNL     1      -9.708   9.660  67.722  1.00  0.00    -0.141 OA 
HETATM    7  C   UNL     1      -9.775  10.478  65.575  1.00  0.00    -0.298 C  
HETATM    8  C   UNL     1      -9.904   9.200  64.800  1.00  0.00     0.723 C  
HETATM    9  H   UNL     1      -9.057   9.244  68.275  1.00  0.00     0.000 HD 
HETATM   10  C   UNL     1     -10.797  17.331  68.452  1.00  0.00    -0.273 C  
HETATM   11  C   UNL     1     -11.426  15.092  68.748  1.00  0.00    -0.335 C  
HETATM   12  C   UNL     1      -8.677  11.982  65.144  1.00  0.00     0.773 C  
HETATM   13  C   UNL     1     -13.659  14.303  69.666  1.00  0.00     2.331 C  
HETATM   14  C   UNL     1      -8.680  13.142  66.423  1.00  0.00     0.206 C  
HETATM   15  O   UNL     1      -7.735  12.650  67.391  1.00  0.00    -0.151 OA 
HETATM   16  C   UNL     1     -10.094  13.578  67.194  1.00  0.00    -0.245 C  
HETATM   17  C   UNL     1      -9.091  14.484  69.293  1.00  0.00     0.113 C  
HETATM   18  C   UNL     1     -10.025  14.831  68.136  1.00  0.00    -0.221 C  
HETATM   19  C   UNL     1      -9.661  16.106  67.210  1.00  0.00    -0.233 C  
HETATM   20  H   UNL     1      -7.737  13.288  68.095  1.00  0.00     0.000 HD 
HETATM   21  C   UNL     1     -10.973  12.255  67.838  1.00  0.00    -0.265 C  
HETATM   22  C   UNL     1     -12.325  12.729  68.348  1.00  0.00     0.260 C  
HETATM   23  O   UNL     1     -10.201  18.049  69.235  1.00  0.00    -0.297 OA 
HETATM   24  C   UNL     1     -12.227  13.920  69.294  1.00  0.00    -0.319 C  
HETATM   25  C   UNL     1     -10.414  17.199  66.989  1.00  0.00    -0.282 C  
ENDROOT
BRANCH   4  26
HETATM   26  C   UNL     1      -7.640  10.012  66.538  1.00  0.00    -0.106 C  
HETATM   27  O   UNL     1      -6.661  10.264  67.261  1.00  0.00    -0.067 OA 
BRANCH  26  28
HETATM   28  C   UNL     1      -7.248   9.076  65.276  1.00  0.00    -0.088 C  
BRANCH  28  29
HETATM   29  O   UNL     1      -7.339   7.613  65.686  1.00  0.00    -0.070 OA 
BRANCH  29  30
HETATM   30  C   UNL     1      -6.287   6.739  65.525  1.00  0.00    -0.042 C  
HETATM   31  O   UNL     1      -5.282   6.761  66.220  1.00  0.00    -0.016 OA 
BRANCH  30  32
HETATM   32  C   UNL     1      -6.489   5.725  64.364  1.00  0.00    -0.033 C  
BRANCH  32  33
HETATM   33  C   UNL     1      -7.453   4.565  64.697  1.00  0.00    -0.072 C  
HETATM   34  C   UNL     1      -7.317   3.868  66.045  1.00  0.00    -0.072 C  
HETATM   35  O   UNL     1      -6.144   3.267  66.312  1.00  0.00    -0.023 OA 
HETATM   36  O   UNL     1      -8.230   3.834  66.861  1.00  0.00    -0.095 OA 
ENDBRANCH  32  33
ENDBRANCH  30  32
ENDBRANCH  29  30
ENDBRANCH  28  29
ENDBRANCH  26  28
ENDBRANCH   4  26
TORSDOF 6
ENDMDL
MODEL      162
REMARK 921   NORMALIZED FREE ENERGY PREDICTED BY IDOCK:    2.54 KCAL/MOL
REMARK 922        TOTAL FREE ENERGY PREDICTED BY IDOCK:    3.08 KCAL/MOL
REMARK 923 INTER-LIGAND FREE ENERGY PREDICTED BY IDOCK:    2.58 KCAL/MOL
REMARK 924 INTRA-LIGAND FREE ENERGY PREDICTED BY IDOCK:    0.50 KCAL/MOL
REMARK 927      BINDING AFFINITY PREDICTED BY RF-SCORE:    0.00 PKD
ROOT
HETATM    1  C   UNL     1     -10.580  15.402  70.227  1.00  0.00    -0.299 C  
HETATM    2  C   UNL     1     -11.994  15.442  70.150  1.00  0.00    -0.378 C  
HETATM    3  C   UNL     1     -11.267  14.953  68.932  1.00  0.00    -0.282 C  
HETATM    4  C   UNL     1      -9.280  14.366  69.127  1.00  0.00     0.083 C  
HETATM    5  C   UNL     1     -10.467  20.328  66.858  1.00  0.00    -0.321 C  
HETATM    6  O   UNL     1      -8.633  14.453  70.459  1.00  0.00     1.017 OA 
HETATM    7  C   UNL     1     -10.469  13.714  69.291  1.00  0.00     0.072 C  
HETATM    8  C   UNL     1     -10.876  12.543  70.135  1.00  0.00     1.108 C  
HETATM    9  H   UNL     1      -7.726  14.185  70.549  1.00  0.00     0.000 HD 
HETATM   10  C   UNL     1     -10.311  20.133  65.412  1.00  0.00     0.033 C  
HETATM   11  C   UNL     1     -10.022  19.276  67.574  1.00  0.00    -0.460 C  
HETATM   12  C   UNL     1     -10.421  13.797  67.382  1.00  0.00    -0.256 C  
HETATM   13  C   UNL     1     -10.550  20.515  69.728  1.00  0.00     0.670 C  
HETATM   14  C   UNL     1      -9.688  15.264  66.841  1.00  0.00    -0.233 C  
HETATM   15  O   UNL     1      -8.268  15.041  66.929  1.00  0.00    -0.234 OA 
HETATM   16  C   UNL     1     -10.067  16.731  67.538  1.00  0.00    -0.276 C  
HETATM   17  C   UNL     1      -8.039  18.000  66.829  1.00  0.00    -0.264 C  
HETATM   18  C   UNL     1      -9.565  18.016  66.793  1.00  0.00    -0.303 C  
HETATM   19  C   UNL     1     -10.301  18.053  65.353  1.00  0.00     0.309 C  
HETATM   20  H   UNL     1      -7.865  15.848  66.632  1.00  0.00     0.000 HD 
HETATM   21  C   UNL     1      -9.855  16.770  69.238  1.00  0.00    -0.168 C  
HETATM   22  C   UNL     1     -10.403  18.072  69.801  1.00  0.00     0.643 C  
HETATM   23  O   UNL     1      -9.494  20.722  64.726  1.00  0.00     0.947 OA 
HETATM   24  C   UNL     1      -9.867  19.308  69.087  1.00  0.00    -0.398 C  
HETATM   25  C   UNL     1     -11.156  18.985  64.894  1.00  0.00     1.858 C  
ENDROOT
BRANCH   4  26
HETATM   26  C   UNL     1      -8.321  12.878  68.664  1.00  0.00     0.032 C  
HETATM   27  O   UNL     1      -8.758  11.725  68.825  1.00  0.00    -0.099 OA 
BRANCH  26  28
HETATM   28  C   UNL     1      -6.789  12.886  68.138  1.00  0.00    -0.097 C  
BRANCH  28  29
HETATM   29  O   UNL     1      -6.763  12.526  66.659  1.00  0.00     0.115 OA 
BRANCH  29  30
HETATM   30  C   UNL     1      -6.303  11.309  66.209  1.00  0.00    -0.048 C  
HETATM   31  O   UNL     1      -5.640  10.544  66.894  1.00  0.00    -0.041 OA 
BRANCH  30  32
HETATM   32  C   UNL     1      -6.694  10.999  64.737  1.00  0.00     0.643 C  
BRANCH  32  33
HETATM   33  C   UNL     1      -7.485   9.685  64.555  1.00  0.00    -0.128 C  
HETATM   34  C   UNL     1      -8.869   9.749  63.922  1.00  0.00    -0.233 C  
HETATM   35  O   UNL     1      -9.801  10.484  64.553  1.00  0.00    -0.288 OA 
HETATM   36  O   UNL     1      -9.146   9.153  62.888  1.00  0.00    -0.139 OA 
ENDBRANCH  32  33
ENDBRANCH  30  32
ENDBRANCH  29  30
ENDBRANCH  28  29
ENDBRANCH  26  28
ENDBRANCH   4  26
TORSDOF 6
ENDMDL
MODEL      163
REMARK 921   NORMALIZED FREE ENERGY PREDICTED BY IDOCK:    6.86 KCAL/MOL
REMARK 922        TOTAL FREE ENERGY PREDICTED BY IDOCK:    8.92 KCAL/MOL
REMARK 923 INTER-LIGAND FREE ENERGY PREDICTED BY IDOCK:    7.88 KCAL/MOL
REMARK 924 INTRA-LIGAND FREE ENERGY PREDICTED BY IDOCK:    1.05 KCAL/MOL
REMARK 927      BINDING AFFINITY PREDICTED BY RF-SCORE:    0.00 PKD
ROOT
HETATM    1  C   UNL     1      -8.792  17.716  68.365  1.00  0.00    -0.281 C  
HETATM    2  C   UNL     1      -7.629  17.404  69.112  1.00  0.00    -0.088 C  
HETATM    3  C   UNL     1      -8.418  16.244  68.577  1.00  0.00    -0.206 C  
HETATM    4  C   UNL     1      -9.799  16.594  67.061  1.00  0.00    -0.260 C  
HETATM    5  C   UNL     1     -12.020  16.174  73.142  1.00  0.00    -0.576 C  
HETATM    6  O   UNL     1      -9.974  17.977  66.554  1.00  0.00    -0.334 OA 
HETATM    7  C   UNL     1      -8.460  16.325  67.063  1.00  0.00    -0.232 C  
HETATM    8  C   UNL     1      -7.355  16.663  66.107  1.00  0.00     0.040 C  
HETATM    9  H   UNL     1     -10.604  18.138  65.862  1.00  0.00     0.000 HD 
HETATM   10  C   UNL     1     -12.518  14.794  73.184  1.00  0.00    -0.373 C  
HETATM   11  C   UNL     1     -11.731  16.584  71.892  1.00  0.00    -0.277 C  
HETATM   12  C   UNL     1      -9.127  14.584  67.483  1.00  0.00    -0.193 C  
HETATM   13  C   UNL     1     -11.141  18.890  72.780  1.00  0.00     3.797 C  
HETATM   14  C   UNL     1     -10.540  14.680  68.470  1.00  0.00    -0.245 C  
HETATM   15  O   UNL     1     -11.626  14.946  67.563  1.00  0.00    -0.349 OA 
HETATM   16  C   UNL     1     -10.624  15.730  69.764  1.00  0.00    -0.312 C  
HETATM   17  C   UNL     1     -13.108  15.838  69.977  1.00  0.00     0.529 C  
HETATM   18  C   UNL     1     -11.828  15.537  70.751  1.00  0.00    -0.406 C  
HETATM   19  C   UNL     1     -11.662  14.077  71.428  1.00  0.00     0.253 C  
HETATM   20  H   UNL     1     -12.404  14.999  68.107  1.00  0.00     0.000 HD 
HETATM   21  C   UNL     1     -10.294  17.362  69.359  1.00  0.00    -0.120 C  
HETATM   22  C   UNL     1     -10.207  18.204  70.623  1.00  0.00     2.235 C  
HETATM   23  O   UNL     1     -13.675  14.490  73.414  1.00  0.00    -0.284 OA 
HETATM   24  C   UNL     1     -11.408  18.030  71.545  1.00  0.00     3.419 C  
HETATM   25  C   UNL     1     -11.472  13.794  72.729  1.00  0.00     2.906 C  
ENDROOT
BRANCH   4  26
HETATM   26  C   UNL     1     -10.127  15.860  65.417  1.00  0.00    -0.261 C  
HETATM   27  O   UNL     1      -9.461  16.154  64.409  1.00  0.00     1.879 OA 
BRANCH  26  28
HETATM   28  C   UNL     1     -11.368  14.879  65.068  1.00  0.00    -0.398 C  
BRANCH  28  29
HETATM   29  O   UNL     1     -10.917  13.837  64.054  1.00  0.00    -0.228 OA 
BRANCH  29  30
HETATM   30  C   UNL     1     -10.679  12.527  64.405  1.00  0.00    -0.350 C  
HETATM   31  O   UNL     1     -10.370  12.179  65.535  1.00  0.00    -0.248 OA 
BRANCH  30  32
HETATM   32  C   UNL     1     -10.829  11.527  63.225  1.00  0.00    -0.342 C  
BRANCH  32  33
HETATM   33  C   UNL     1      -9.490  10.959  62.703  1.00  0.00    -0.324 C  
HETATM   34  C   UNL     1      -9.066   9.565  63.150  1.00  0.00    -0.126 C  
HETATM   35  O   UNL     1      -8.893   9.368  64.468  1.00  0.00    -0.201 OA 
HETATM   36  O   UNL     1      -8.874   8.652  62.356  1.00  0.00    -0.169 OA 
ENDBRANCH  32  33
ENDBRANCH  30  32
ENDBRANCH  29  30
ENDBRANCH  28  29
ENDBRANCH  26  28
ENDBRANCH   4  26
TORSDOF 6
ENDMDL
MODEL      164
REMARK 921   NORMALIZED FREE ENERGY PREDICTED BY IDOCK:    8.07 KCAL/MOL
REMARK 922        TOTAL FREE ENERGY PREDICTED BY IDOCK:   10.56 KCAL/MOL
REMARK 923 INTER-LIGAND FREE ENERGY PREDICTED BY IDOCK:    9.26 KCAL/MOL
REMARK 924 INTRA-LIGAND FREE ENERGY PREDICTED BY IDOCK:    1.30 KCAL/MOL
REMARK 927      BINDING AFFINITY PREDICTED BY RF-SCORE:    0.00 PKD
ROOT
HETATM    1  C   UNL     1     -12.142  12.432  66.429  1.00  0.00    -0.215 C  
HETATM    2  C   UNL     1     -13.408  13.067  66.442  1.00  0.00     2.873 C  
HETATM    3  C   UNL     1     -12.546  13.306  65.236  1.00  0.00    -0.528 C  
HETATM    4  C   UNL     1     -10.942  12.028  64.889  1.00  0.00    -0.306 C  
HETATM    5  C   UNL     1      -9.712  17.723  67.743  1.00  0.00    -0.285 C  
HETATM    6  O   UNL     1     -10.687  10.920  65.843  1.00  0.00    -0.215 OA 
HETATM    7  C   UNL     1     -12.265  11.982  64.553  1.00  0.00    -0.329 C  
HETATM    8  C   UNL     1     -13.204  10.845  64.279  1.00  0.00     4.328 C  
HETATM    9  H   UNL     1      -9.955  10.336  65.685  1.00  0.00     0.000 HD 
HETATM   10  C   UNL     1      -9.229  18.526  66.612  1.00  0.00    -0.306 C  
HETATM   11  C   UNL     1      -9.800  16.411  67.448  1.00  0.00    -0.244 C  
HETATM   12  C   UNL     1     -11.675  13.312  63.313  1.00  0.00    -0.176 C  
HETATM   13  C   UNL     1     -10.520  15.920  69.834  1.00  0.00    -0.311 C  
HETATM   14  C   UNL     1     -10.436  14.298  64.002  1.00  0.00     1.101 C  
HETATM   15  O   UNL     1      -9.219  13.540  63.863  1.00  0.00     0.985 OA 
HETATM   16  C   UNL     1     -10.557  14.880  65.561  1.00  0.00    -0.373 C  
HETATM   17  C   UNL     1      -8.137  15.348  65.957  1.00  0.00     1.040 C  
HETATM   18  C   UNL     1      -9.525  15.984  65.983  1.00  0.00    -0.384 C  
HETATM   19  C   UNL     1      -9.797  17.276  65.048  1.00  0.00     1.573 C  
HETATM   20  H   UNL     1      -8.538  14.083  64.242  1.00  0.00     0.000 HD 
HETATM   21  C   UNL     1     -10.816  13.664  66.740  1.00  0.00    -0.291 C  
HETATM   22  C   UNL     1     -11.101  14.303  68.091  1.00  0.00    -0.275 C  
HETATM   23  O   UNL     1      -8.123  19.034  66.557  1.00  0.00    -0.268 OA 
HETATM   24  C   UNL     1     -10.061  15.341  68.497  1.00  0.00    -0.222 C  
HETATM   25  C   UNL     1     -10.192  18.501  65.440  1.00  0.00     0.551 C  
ENDROOT
BRANCH   4  26
HETATM   26  C   UNL     1     -10.359  11.044  63.461  1.00  0.00    -0.340 C  
HETATM   27  O   UNL     1     -10.962  11.023  62.374  1.00  0.00     0.890 OA 
BRANCH  26  28
HETATM   28  C   UNL     1      -9.109  10.015  63.489  1.00  0.00    -0.272 C  
BRANCH  28  29
HETATM   29  O   UNL     1      -8.872   9.549  64.918  1.00  0.00    -0.179 OA 
BRANCH  29  30
HETATM   30  C   UNL     1      -9.531   8.466  65.456  1.00  0.00     0.201 C  
HETATM   31  O   UNL     1     -10.724   8.471  65.725  1.00  0.00     1.341 OA 
BRANCH  30  32
HETATM   32  C   UNL     1      -8.616   7.235  65.702  1.00  0.00    -0.123 C  
BRANCH  32  33
HETATM   33  C   UNL     1      -8.982   5.994  64.858  1.00  0.00     0.258 C  
HETATM   34  C   UNL     1      -7.998   5.517  63.797  1.00  0.00    -0.112 C  
HETATM   35  O   UNL     1      -7.693   6.376  62.810  1.00  0.00    -0.079 OA 
HETATM   36  O   UNL     1      -7.503   4.397  63.819  1.00  0.00    -0.054 OA 
ENDBRANCH  32  33
ENDBRANCH  30  32
ENDBRANCH  29  30
ENDBRANCH  28  29
ENDBRANCH  26  28
ENDBRANCH   4  26
TORSDOF 6
ENDMDL
MODEL      165
REMARK 921   NORMALIZED FREE ENERGY PREDICTED BY IDOCK:   12.47 KCAL/MOL
REMARK 922        TOTAL FREE ENERGY PREDICTED BY IDOCK:   16.50 KCAL/MOL
REMARK 923 INTER-LIGAND FREE ENERGY PREDICTED BY IDOCK:    8.92 KCAL/MOL
REMARK 924 INTRA-LIGAND FREE ENERGY PREDICTED BY IDOCK:    7.57 KCAL/MOL
REMARK 927      BINDING AFFINITY PREDICTED BY RF-SCORE:    0.00 PKD
ROOT
HETATM    1  C   UNL     1      -9.662   4.992  68.961  1.00  0.00    -0.238 C  
HETATM    2  C   UNL     1      -8.650   4.335  69.703  1.00  0.00    -0.103 C  
HETATM    3  C   UNL     1      -9.176   5.620  70.272  1.00  0.00    -0.178 C  
HETATM    4  C   UNL     1     -10.984   6.360  69.556  1.00  0.00    -0.359 C  
HETATM    5  C   UNL     1      -5.512   8.877  67.142  1.00  0.00    -0.041 C  
HETATM    6  O   UNL     1     -11.701   5.605  68.499  1.00  0.00     0.811 OA 
HETATM    7  C   UNL     1     -10.661   5.475  70.545  1.00  0.00    -0.310 C  
HETATM    8  C   UNL     1     -11.398   4.319  71.152  1.00  0.00     2.458 C  
HETATM    9  H   UNL     1     -12.526   5.943  68.172  1.00  0.00     0.000 HD 
HETATM   10  C   UNL     1      -5.388  10.118  67.915  1.00  0.00    -0.038 C  
HETATM   11  C   UNL     1      -6.717   8.292  67.289  1.00  0.00    -0.063 C  
HETATM   12  C   UNL     1     -10.157   7.103  71.409  1.00  0.00    -0.196 C  
HETATM   13  C   UNL     1      -6.049   6.488  65.630  1.00  0.00    -0.030 C  
HETATM   14  C   UNL     1      -9.514   8.237  70.276  1.00  0.00    -0.164 C  
HETATM   15  O   UNL     1     -10.659   8.849  69.653  1.00  0.00    -0.223 OA 
HETATM   16  C   UNL     1      -8.424   7.767  69.104  1.00  0.00    -0.138 C  
HETATM   17  C   UNL     1      -8.759   9.668  67.521  1.00  0.00    -0.126 C  
HETATM   18  C   UNL     1      -7.697   8.914  68.318  1.00  0.00    -0.096 C  
HETATM   19  C   UNL     1      -6.808   9.739  69.388  1.00  0.00    -0.057 C  
HETATM   20  H   UNL     1     -10.305   9.472  69.029  1.00  0.00     0.000 HD 
HETATM   21  C   UNL     1      -8.970   6.472  68.123  1.00  0.00    -0.116 C  
HETATM   22  C   UNL     1      -7.844   5.994  67.220  1.00  0.00    -0.102 C  
HETATM   23  O   UNL     1      -5.369  11.233  67.422  1.00  0.00    -0.039 OA 
HETATM   24  C   UNL     1      -7.182   7.122  66.436  1.00  0.00    -0.078 C  
HETATM   25  C   UNL     1      -5.469   9.873  69.410  1.00  0.00    -0.034 C  
ENDROOT
BRANCH   4  26
HETATM   26  C   UNL     1     -12.543   6.929  70.326  1.00  0.00     0.365 C  
HETATM   27  O   UNL     1     -13.373   6.142  70.813  1.00  0.00     1.389 OA 
BRANCH  26  28
HETATM   28  C   UNL     1     -13.069   8.461  70.339  1.00  0.00     1.154 C  
BRANCH  28  29
HETATM   29  O   UNL     1     -12.606   9.164  69.070  1.00  0.00     2.429 OA 
BRANCH  29  30
HETATM   30  C   UNL     1     -11.953  10.376  69.100  1.00  0.00     0.016 C  
HETATM   31  O   UNL     1     -11.129  10.717  68.265  1.00  0.00    -0.229 OA 
BRANCH  30  32
HETATM   32  C   UNL     1     -12.352  11.270  70.307  1.00  0.00    -0.389 C  
BRANCH  32  33
HETATM   33  C   UNL     1     -11.472  11.072  71.561  1.00  0.00     1.317 C  
HETATM   34  C   UNL     1     -11.782   9.905  72.491  1.00  0.00     1.595 C  
HETATM   35  O   UNL     1     -12.997   9.882  73.066  1.00  0.00     0.446 OA 
HETATM   36  O   UNL     1     -10.967   9.022  72.729  1.00  0.00     0.294 OA 
ENDBRANCH  32  33
ENDBRANCH  30  32
ENDBRANCH  29  30
ENDBRANCH  28  29
ENDBRANCH  26  28
ENDBRANCH   4  26
TORSDOF 6
ENDMDL
MODEL      166
REMARK 921   NORMALIZED FREE ENERGY PREDICTED BY IDOCK:   17.14 KCAL/MOL
REMARK 922        TOTAL FREE ENERGY PREDICTED BY IDOCK:   22.81 KCAL/MOL
REMARK 923 INTER-LIGAND FREE ENERGY PREDICTED BY IDOCK:   22.36 KCAL/MOL
REMARK 924 INTRA-LIGAND FREE ENERGY PREDICTED BY IDOCK:    0.45 KCAL/MOL
REMARK 927      BINDING AFFINITY PREDICTED BY RF-SCORE:    0.00 PKD
ROOT
HETATM    1  C   UNL     1      -7.798  17.859  68.634  1.00  0.00    -0.294 C  
HETATM    2  C   UNL     1      -6.734  17.549  69.517  1.00  0.00    -0.116 C  
HETATM    3  C   UNL     1      -7.578  16.399  69.049  1.00  0.00    -0.232 C  
HETATM    4  C   UNL     1      -8.792  16.669  67.381  1.00  0.00    -0.188 C  
HETATM    5  C   UNL     1     -11.535  17.182  73.238  1.00  0.00     0.876 C  
HETATM    6  O   UNL     1      -8.799  17.989  66.703  1.00  0.00    -0.253 OA 
HETATM    7  C   UNL     1      -7.487  16.296  67.538  1.00  0.00    -0.172 C  
HETATM    8  C   UNL     1      -6.282  16.425  66.656  1.00  0.00     0.187 C  
HETATM    9  H   UNL     1      -9.353  18.113  65.942  1.00  0.00     0.000 HD 
HETATM   10  C   UNL     1     -12.158  15.862  73.393  1.00  0.00    -0.482 C  
HETATM   11  C   UNL     1     -11.108  17.410  71.981  1.00  0.00     1.862 C  
HETATM   12  C   UNL     1      -8.342  14.679  68.093  1.00  0.00    -0.144 C  
HETATM   13  C   UNL     1     -10.387  19.752  72.647  1.00  0.00     3.762 C  
HETATM   14  C   UNL     1      -9.817  15.009  68.928  1.00  0.00    -0.233 C  
HETATM   15  O   UNL     1     -10.796  15.247  67.899  1.00  0.00    -0.271 OA 
HETATM   16  C   UNL     1      -9.912  16.214  70.078  1.00  0.00     0.137 C  
HETATM   17  C   UNL     1     -12.385  16.546  70.046  1.00  0.00     1.275 C  
HETATM   18  C   UNL     1     -11.205  16.241  70.965  1.00  0.00    -0.227 C  
HETATM   19  C   UNL     1     -11.229  14.867  71.818  1.00  0.00    -0.033 C  
HETATM   20  H   UNL     1     -11.608  15.429  68.358  1.00  0.00     0.000 HD 
HETATM   21  C   UNL     1      -9.403  17.752  69.519  1.00  0.00     0.521 C  
HETATM   22  C   UNL     1      -9.345  18.733  70.680  1.00  0.00     3.014 C  
HETATM   23  O   UNL     1     -13.353  15.682  73.548  1.00  0.00    -0.488 OA 
HETATM   24  C   UNL     1     -10.629  18.771  71.501  1.00  0.00     3.205 C  
HETATM   25  C   UNL     1     -11.173  14.733  73.156  1.00  0.00     0.877 C  
ENDROOT
BRANCH   4  26
HETATM   26  C   UNL     1      -9.048  15.767  65.810  1.00  0.00    -0.152 C  
HETATM   27  O   UNL     1      -8.531  14.659  65.584  1.00  0.00     1.229 OA 
BRANCH  26  28
HETATM   28  C   UNL     1      -9.839  16.349  64.522  1.00  0.00     2.522 C  
BRANCH  28  29
HETATM   29  O   UNL     1     -10.441  15.194  63.734  1.00  0.00     1.365 OA 
BRANCH  29  30
HETATM   30  C   UNL     1     -11.742  14.783  63.916  1.00  0.00     0.208 C  
HETATM   31  O   UNL     1     -12.460  15.197  64.814  1.00  0.00    -0.183 OA 
BRANCH  30  32
HETATM   32  C   UNL     1     -12.215  13.728  62.877  1.00  0.00     0.853 C  
BRANCH  32  33
HETATM   33  C   UNL     1     -12.306  12.289  63.432  1.00  0.00    -0.624 C  
HETATM   34  C   UNL     1     -13.560  11.880  64.194  1.00  0.00     1.371 C  
HETATM   35  O   UNL     1     -13.854  12.569  65.311  1.00  0.00     0.934 OA 
HETATM   36  O   UNL     1     -14.278  10.957  63.829  1.00  0.00     2.252 OA 
ENDBRANCH  32  33
ENDBRANCH  30  32
ENDBRANCH  29  30
ENDBRANCH  28  29
ENDBRANCH  26  28
ENDBRANCH   4  26
TORSDOF 6
ENDMDL
MODEL      167
REMARK 921   NORMALIZED FREE ENERGY PREDICTED BY IDOCK:   17.34 KCAL/MOL
REMARK 922        TOTAL FREE ENERGY PREDICTED BY IDOCK:   23.08 KCAL/MOL
REMARK 923 INTER-LIGAND FREE ENERGY PREDICTED BY IDOCK:    7.13 KCAL/MOL
REMARK 924 INTRA-LIGAND FREE ENERGY PREDICTED BY IDOCK:   15.94 KCAL/MOL
REMARK 927      BINDING AFFINITY PREDICTED BY RF-SCORE:    0.00 PKD
ROOT
HETATM    1  C   UNL     1      -8.267  13.809  66.516  1.00  0.00     0.574 C  
HETATM    2  C   UNL     1      -7.026  14.150  67.107  1.00  0.00     0.351 C  
HETATM    3  C   UNL     1      -7.946  13.288  67.922  1.00  0.00    -0.159 C  
HETATM    4  C   UNL     1      -9.514  12.318  66.957  1.00  0.00    -0.204 C  
HETATM    5  C   UNL     1     -10.837  17.850  70.078  1.00  0.00     1.445 C  
HETATM    6  O   UNL     1      -9.687  12.509  65.496  1.00  0.00    -0.378 OA 
HETATM    7  C   UNL     1      -8.206  11.992  67.176  1.00  0.00    -0.181 C  
HETATM    8  C   UNL     1      -7.237  11.126  66.428  1.00  0.00    -0.094 C  
HETATM    9  H   UNL     1     -10.403  12.067  65.056  1.00  0.00     0.000 HD 
HETATM   10  C   UNL     1     -11.397  17.355  71.341  1.00  0.00     1.769 C  
HETATM   11  C   UNL     1     -10.713  16.882  69.149  1.00  0.00    -0.298 C  
HETATM   12  C   UNL     1      -8.897  11.698  68.933  1.00  0.00     0.078 C  
HETATM   13  C   UNL     1      -9.875  18.594  67.470  1.00  0.00    -0.350 C  
HETATM   14  C   UNL     1     -10.142  12.833  69.311  1.00  0.00     0.512 C  
HETATM   15  O   UNL     1     -11.334  12.318  68.688  1.00  0.00    -0.244 OA 
HETATM   16  C   UNL     1      -9.978  14.453  68.948  1.00  0.00    -0.183 C  
HETATM   17  C   UNL     1     -12.395  15.075  68.989  1.00  0.00    -0.056 C  
HETATM   18  C   UNL     1     -11.032  15.427  69.581  1.00  0.00    -0.288 C  
HETATM   19  C   UNL     1     -10.848  15.353  71.187  1.00  0.00    -0.162 C  
HETATM   20  H   UNL     1     -12.019  12.942  68.896  1.00  0.00     0.000 HD 
HETATM   21  C   UNL     1      -9.624  14.766  67.301  1.00  0.00    -0.223 C  
HETATM   22  C   UNL     1      -9.307  16.240  67.108  1.00  0.00    -0.232 C  
HETATM   23  O   UNL     1     -12.522  17.604  71.735  1.00  0.00     4.558 OA 
HETATM   24  C   UNL     1     -10.367  17.165  67.695  1.00  0.00    -0.344 C  
HETATM   25  C   UNL     1     -10.484  16.348  72.015  1.00  0.00     2.952 C  
ENDROOT
BRANCH   4  26
HETATM   26  C   UNL     1     -10.119  10.592  66.889  1.00  0.00    -0.214 C  
HETATM   27  O   UNL     1     -10.822  10.095  67.785  1.00  0.00    -0.259 OA 
BRANCH  26  28
HETATM   28  C   UNL     1      -9.708   9.508  65.758  1.00  0.00    -0.287 C  
BRANCH  28  29
HETATM   29  O   UNL     1      -8.431   8.796  66.182  1.00  0.00    -0.120 OA 
BRANCH  29  30
HETATM   30  C   UNL     1      -7.637   9.262  67.206  1.00  0.00    -0.091 C  
HETATM   31  O   UNL     1      -7.147  10.382  67.222  1.00  0.00    -0.085 OA 
BRANCH  30  32
HETATM   32  C   UNL     1      -7.409   8.225  68.340  1.00  0.00    -0.094 C  
BRANCH  32  33
HETATM   33  C   UNL     1      -8.695   7.514  68.817  1.00  0.00    -0.128 C  
HETATM   34  C   UNL     1      -9.778   8.344  69.494  1.00  0.00    -0.177 C  
HETATM   35  O   UNL     1      -9.445   8.984  70.628  1.00  0.00    -0.196 OA 
HETATM   36  O   UNL     1     -10.916   8.427  69.047  1.00  0.00    -0.058 OA 
ENDBRANCH  32  33
ENDBRANCH  30  32
ENDBRANCH  29  30
ENDBRANCH  28  29
ENDBRANCH  26  28
ENDBRANCH   4  26
TORSDOF 6
ENDMDL
MODEL      168
REMARK 921   NORMALIZED FREE ENERGY PREDICTED BY IDOCK:   41.90 KCAL/MOL
REMARK 922        TOTAL FREE ENERGY PREDICTED BY IDOCK:   56.25 KCAL/MOL
REMARK 923 INTER-LIGAND FREE ENERGY PREDICTED BY IDOCK:   46.47 KCAL/MOL
REMARK 924 INTRA-LIGAND FREE ENERGY PREDICTED BY IDOCK:    9.78 KCAL/MOL
REMARK 927      BINDING AFFINITY PREDICTED BY RF-SCORE:    0.00 PKD
ROOT
HETATM    1  C   UNL     1     -10.081  15.316  65.921  1.00  0.00    -0.359 C  
HETATM    2  C   UNL     1      -8.734  15.736  66.043  1.00  0.00    -0.169 C  
HETATM    3  C   UNL     1      -9.083  14.407  66.649  1.00  0.00    -0.265 C  
HETATM    4  C   UNL     1     -10.856  13.486  66.071  1.00  0.00    -0.278 C  
HETATM    5  C   UNL     1     -10.840  16.790  71.655  1.00  0.00     1.394 C  
HETATM    6  O   UNL     1     -11.731  14.166  65.085  1.00  0.00    -0.333 OA 
HETATM    7  C   UNL     1      -9.590  13.480  65.560  1.00  0.00     0.034 C  
HETATM    8  C   UNL     1      -9.056  13.275  64.174  1.00  0.00     2.897 C  
HETATM    9  H   UNL     1     -12.541  13.746  64.821  1.00  0.00     0.000 HD 
HETATM   10  C   UNL     1     -10.680  15.713  72.639  1.00  0.00     1.705 C  
HETATM   11  C   UNL     1     -11.122  16.328  70.421  1.00  0.00    -0.322 C  
HETATM   12  C   UNL     1      -9.316  12.354  67.080  1.00  0.00    -0.204 C  
HETATM   13  C   UNL     1     -11.321  18.713  69.570  1.00  0.00     3.434 C  
HETATM   14  C   UNL     1     -10.289  12.861  68.414  1.00  0.00    -0.244 C  
HETATM   15  O   UNL     1     -11.597  12.313  68.166  1.00  0.00    -0.297 OA 
HETATM   16  C   UNL     1     -10.426  14.472  68.824  1.00  0.00    -0.246 C  
HETATM   17  C   UNL     1     -12.550  14.330  70.127  1.00  0.00    -0.338 C  
HETATM   18  C   UNL     1     -11.097  14.792  70.205  1.00  0.00    -0.185 C  
HETATM   19  C   UNL     1     -10.150  14.163  71.355  1.00  0.00     4.332 C  
HETATM   20  H   UNL     1     -12.132  12.592  68.899  1.00  0.00     0.000 HD 
HETATM   21  C   UNL     1     -10.941  15.478  67.536  1.00  0.00    -0.316 C  
HETATM   22  C   UNL     1     -10.852  16.938  67.950  1.00  0.00    -0.310 C  
HETATM   23  O   UNL     1     -11.484  15.466  73.521  1.00  0.00    -0.166 OA 
HETATM   24  C   UNL     1     -11.549  17.231  69.274  1.00  0.00     1.374 C  
HETATM   25  C   UNL     1      -9.492  14.823  72.326  1.00  0.00     5.782 C  
ENDROOT
BRANCH   4  26
HETATM   26  C   UNL     1     -11.306  11.824  65.451  1.00  0.00    -0.222 C  
HETATM   27  O   UNL     1     -10.523  10.860  65.496  1.00  0.00    -0.261 OA 
BRANCH  26  28
HETATM   28  C   UNL     1     -12.681  11.463  64.673  1.00  0.00     1.528 C  
BRANCH  28  29
HETATM   29  O   UNL     1     -12.486  10.183  63.873  1.00  0.00     5.464 OA 
BRANCH  29  30
HETATM   30  C   UNL     1     -11.296   9.490  63.875  1.00  0.00     8.067 C  
HETATM   31  O   UNL     1     -10.284   9.891  63.319  1.00  0.00     0.680 OA 
BRANCH  30  32
HETATM   32  C   UNL     1     -11.360   8.140  64.642  1.00  0.00    12.827 C  
BRANCH  32  33
HETATM   33  C   UNL     1     -10.995   8.244  66.140  1.00  0.00     2.042 C  
HETATM   34  C   UNL     1      -9.869   9.184  66.552  1.00  0.00    -0.264 C  
HETATM   35  O   UNL     1      -8.649   8.943  66.042  1.00  0.00    -0.130 OA 
HETATM   36  O   UNL     1     -10.045  10.117  67.325  1.00  0.00    -0.186 OA 
ENDBRANCH  32  33
ENDBRANCH  30  32
ENDBRANCH  29  30
ENDBRANCH  28  29
ENDBRANCH  26  28
ENDBRANCH   4  26
TORSDOF 6
ENDMDL
MODEL      169
REMARK 921   NORMALIZED FREE ENERGY PREDICTED BY IDOCK:   44.12 KCAL/MOL
REMARK 922        TOTAL FREE ENERGY PREDICTED BY IDOCK:   59.24 KCAL/MOL
REMARK 923 INTER-LIGAND FREE ENERGY PREDICTED BY IDOCK:   56.12 KCAL/MOL
REMARK 924 INTRA-LIGAND FREE ENERGY PREDICTED BY IDOCK:    3.13 KCAL/MOL
REMARK 927      BINDING AFFINITY PREDICTED BY RF-SCORE:    0.00 PKD
ROOT
HETATM    1  C   UNL     1      -7.260  16.671  65.502  1.00  0.00     2.065 C  
HETATM    2  C   UNL     1      -6.032  16.906  66.168  1.00  0.00     0.405 C  
HETATM    3  C   UNL     1      -6.982  15.948  66.826  1.00  0.00     0.058 C  
HETATM    4  C   UNL     1      -8.533  15.150  65.692  1.00  0.00     1.739 C  
HETATM    5  C   UNL     1      -9.883  20.192  69.545  1.00  0.00     0.097 C  
HETATM    6  O   UNL     1      -8.665  15.552  64.270  1.00  0.00     4.161 OA 
HETATM    7  C   UNL     1      -7.235  14.778  65.894  1.00  0.00     5.051 C  
HETATM    8  C   UNL     1      -6.255  14.015  65.054  1.00  0.00    16.001 C  
HETATM    9  H   UNL     1      -9.373  15.188  63.752  1.00  0.00     0.000 HD 
HETATM   10  C   UNL     1     -10.482  19.527  70.709  1.00  0.00     2.041 C  
HETATM   11  C   UNL     1      -9.744  19.366  68.490  1.00  0.00    -0.497 C  
HETATM   12  C   UNL     1      -7.976  14.242  67.572  1.00  0.00    -0.203 C  
HETATM   13  C   UNL     1      -8.844  21.291  67.098  1.00  0.00     0.399 C  
HETATM   14  C   UNL     1      -9.220  15.328  68.079  1.00  0.00    -0.188 C  
HETATM   15  O   UNL     1     -10.399  14.925  67.358  1.00  0.00    -0.241 OA 
HETATM   16  C   UNL     1      -9.029  16.981  67.958  1.00  0.00    -0.230 C  
HETATM   17  C   UNL     1     -11.440  17.625  68.028  1.00  0.00     0.734 C  
HETATM   18  C   UNL     1     -10.090  17.868  68.699  1.00  0.00    -0.394 C  
HETATM   19  C   UNL     1      -9.950  17.561  70.281  1.00  0.00     1.488 C  
HETATM   20  H   UNL     1     -11.083  15.522  67.637  1.00  0.00     0.000 HD 
HETATM   21  C   UNL     1      -8.628  17.523  66.383  1.00  0.00    -0.273 C  
HETATM   22  C   UNL     1      -8.290  19.006  66.414  1.00  0.00    -0.315 C  
HETATM   23  O   UNL     1     -11.615  19.732  71.106  1.00  0.00     6.205 OA 
HETATM   24  C   UNL     1      -9.357  19.851  67.101  1.00  0.00    -0.479 C  
HETATM   25  C   UNL     1      -9.598  18.421  71.254  1.00  0.00     5.455 C  
ENDROOT
BRANCH   4  26
HETATM   26  C   UNL     1      -9.154  13.461  65.359  1.00  0.00     0.934 C  
HETATM   27  O   UNL     1      -9.605  12.726  66.255  1.00  0.00    -0.257 OA 
BRANCH  26  28
HETATM   28  C   UNL     1      -9.063  12.702  63.931  1.00  0.00     1.653 C  
BRANCH  28  29
HETATM   29  O   UNL     1     -10.358  12.919  63.161  1.00  0.00     0.083 OA 
BRANCH  29  30
HETATM   30  C   UNL     1     -11.469  13.489  63.741  1.00  0.00    -0.158 C  
HETATM   31  O   UNL     1     -12.153  14.340  63.191  1.00  0.00    -0.137 OA 
BRANCH  30  32
HETATM   32  C   UNL     1     -11.769  12.959  65.171  1.00  0.00    -0.385 C  
BRANCH  32  33
HETATM   33  C   UNL     1     -12.522  11.611  65.202  1.00  0.00     1.012 C  
HETATM   34  C   UNL     1     -11.849  10.386  64.597  1.00  0.00     3.698 C  
HETATM   35  O   UNL     1     -11.539  10.437  63.290  1.00  0.00     2.058 OA 
HETATM   36  O   UNL     1     -11.604   9.381  65.253  1.00  0.00     4.537 OA 
ENDBRANCH  32  33
ENDBRANCH  30  32
ENDBRANCH  29  30
ENDBRANCH  28  29
ENDBRANCH  26  28
ENDBRANCH   4  26
TORSDOF 6
ENDMDL
MODEL      170
REMARK 921   NORMALIZED FREE ENERGY PREDICTED BY IDOCK:   65.40 KCAL/MOL
REMARK 922        TOTAL FREE ENERGY PREDICTED BY IDOCK:   88.00 KCAL/MOL
REMARK 923 INTER-LIGAND FREE ENERGY PREDICTED BY IDOCK:   84.60 KCAL/MOL
REMARK 924 INTRA-LIGAND FREE ENERGY PREDICTED BY IDOCK:    3.40 KCAL/MOL
REMARK 927      BINDING AFFINITY PREDICTED BY RF-SCORE:    0.00 PKD
ROOT
HETATM    1  C   UNL     1     -12.157   9.954  66.774  1.00  0.00     4.799 C  
HETATM    2  C   UNL     1     -13.473  10.293  67.173  1.00  0.00    14.861 C  
HETATM    3  C   UNL     1     -12.454  11.395  67.208  1.00  0.00     2.114 C  
HETATM    4  C   UNL     1     -10.674  11.138  66.161  1.00  0.00    -0.225 C  
HETATM    5  C   UNL     1     -10.627   9.972  72.543  1.00  0.00     4.105 C  
HETATM    6  O   UNL     1     -10.455   9.874  65.416  1.00  0.00    -0.126 OA 
HETATM    7  C   UNL     1     -11.906  11.612  65.810  1.00  0.00     0.192 C  
HETATM    8  C   UNL     1     -12.644  11.653  64.506  1.00  0.00     0.377 C  
HETATM    9  H   UNL     1      -9.643   9.756  64.937  1.00  0.00     0.000 HD 
HETATM   10  C   UNL     1     -10.058  11.218  73.070  1.00  0.00    17.810 C  
HETATM   11  C   UNL     1     -10.508   9.872  71.205  1.00  0.00     0.028 C  
HETATM   12  C   UNL     1     -11.277  13.104  66.825  1.00  0.00    -0.330 C  
HETATM   13  C   UNL     1     -11.558   7.560  71.280  1.00  0.00    -0.305 C  
HETATM   14  C   UNL     1     -10.297  12.587  68.150  1.00  0.00    -0.232 C  
HETATM   15  O   UNL     1      -8.994  12.338  67.591  1.00  0.00    -0.166 OA 
HETATM   16  C   UNL     1     -10.748  11.300  69.111  1.00  0.00    -0.247 C  
HETATM   17  C   UNL     1      -8.503  10.755  70.055  1.00  0.00     0.790 C  
HETATM   18  C   UNL     1      -9.940  11.097  70.440  1.00  0.00     1.926 C  
HETATM   19  C   UNL     1     -10.201  12.400  71.363  1.00  0.00     9.414 C  
HETATM   20  H   UNL     1      -8.455  12.053  68.320  1.00  0.00     0.000 HD 
HETATM   21  C   UNL     1     -11.058   9.856  68.242  1.00  0.00    -0.207 C  
HETATM   22  C   UNL     1     -11.641   8.804  69.173  1.00  0.00     0.818 C  
HETATM   23  O   UNL     1      -9.027  11.280  73.716  1.00  0.00    15.358 OA 
HETATM   24  C   UNL     1     -10.815   8.595  70.436  1.00  0.00    -0.250 C  
HETATM   25  C   UNL     1     -10.798  12.443  72.568  1.00  0.00    11.594 C  
ENDROOT
BRANCH   4  26
HETATM   26  C   UNL     1      -9.746  12.123  64.930  1.00  0.00    -0.072 C  
HETATM   27  O   UNL     1     -10.240  12.471  63.843  1.00  0.00    -0.408 OA 
BRANCH  26  28
HETATM   28  C   UNL     1      -8.181  12.525  65.050  1.00  0.00     2.922 C  
BRANCH  28  29
HETATM   29  O   UNL     1      -7.323  11.335  64.645  1.00  0.00     0.749 OA 
BRANCH  29  30
HETATM   30  C   UNL     1      -7.285  10.173  65.383  1.00  0.00    -0.144 C  
HETATM   31  O   UNL     1      -6.394   9.909  66.177  1.00  0.00    -0.071 OA 
BRANCH  30  32
HETATM   32  C   UNL     1      -8.478   9.217  65.104  1.00  0.00    -0.173 C  
BRANCH  32  33
HETATM   33  C   UNL     1      -8.174   8.108  64.074  1.00  0.00    -0.077 C  
HETATM   34  C   UNL     1      -7.357   6.902  64.521  1.00  0.00    -0.091 C  
HETATM   35  O   UNL     1      -6.112   7.134  64.971  1.00  0.00    -0.036 OA 
HETATM   36  O   UNL     1      -7.793   5.758  64.467  1.00  0.00    -0.099 OA 
ENDBRANCH  32  33
ENDBRANCH  30  32
ENDBRANCH  29  30
ENDBRANCH  28  29
ENDBRANCH  26  28
ENDBRANCH   4  26
TORSDOF 6
ENDMDL
MODEL      171
REMARK 921   NORMALIZED FREE ENERGY PREDICTED BY IDOCK:   90.54 KCAL/MOL
REMARK 922        TOTAL FREE ENERGY PREDICTED BY IDOCK:  121.96 KCAL/MOL
REMARK 923 INTER-LIGAND FREE ENERGY PREDICTED BY IDOCK:   37.90 KCAL/MOL
REMARK 924 INTRA-LIGAND FREE ENERGY PREDICTED BY IDOCK:   84.06 KCAL/MOL
REMARK 927      BINDING AFFINITY PREDICTED BY RF-SCORE:    0.00 PKD
ROOT
HETATM    1  C   UNL     1      -9.745  15.617  65.069  1.00  0.00     0.308 C  
HETATM    2  C   UNL     1      -8.358  15.906  65.050  1.00  0.00     4.448 C  
HETATM    3  C   UNL     1      -8.763  14.586  65.640  1.00  0.00     1.407 C  
HETATM    4  C   UNL     1     -10.671  13.860  65.237  1.00  0.00    -0.345 C  
HETATM    5  C   UNL     1      -9.711  16.867  70.905  1.00  0.00     3.487 C  
HETATM    6  O   UNL     1     -11.581  14.666  64.387  1.00  0.00    -0.560 OA 
HETATM    7  C   UNL     1      -9.476  13.765  64.582  1.00  0.00     1.115 C  
HETATM    8  C   UNL     1      -9.123  13.581  63.137  1.00  0.00     7.659 C  
HETATM    9  H   UNL     1     -12.452  14.334  64.202  1.00  0.00     0.000 HD 
HETATM   10  C   UNL     1      -9.546  15.733  71.821  1.00  0.00     4.374 C  
HETATM   11  C   UNL     1     -10.173  16.495  69.696  1.00  0.00    -0.156 C  
HETATM   12  C   UNL     1      -9.143  12.544  66.015  1.00  0.00     0.062 C  
HETATM   13  C   UNL     1     -10.235  18.928  68.967  1.00  0.00    -0.198 C  
HETATM   14  C   UNL     1      -9.907  13.070  67.471  1.00  0.00    -0.209 C  
HETATM   15  O   UNL     1     -11.282  12.657  67.356  1.00  0.00    -0.260 OA 
HETATM   16  C   UNL     1      -9.842  14.665  67.957  1.00  0.00    -0.216 C  
HETATM   17  C   UNL     1     -11.811  14.652  69.492  1.00  0.00    -0.374 C  
HETATM   18  C   UNL     1     -10.320  14.976  69.419  1.00  0.00    -0.241 C  
HETATM   19  C   UNL     1      -9.315  14.206  70.425  1.00  0.00     2.521 C  
HETATM   20  H   UNL     1     -11.702  12.947  68.157  1.00  0.00     0.000 HD 
HETATM   21  C   UNL     1     -10.399  15.776  66.778  1.00  0.00    -0.293 C  
HETATM   22  C   UNL     1     -10.124  17.200  67.235  1.00  0.00    -0.294 C  
HETATM   23  O   UNL     1     -10.266  15.517  72.781  1.00  0.00     2.499 OA 
HETATM   24  C   UNL     1     -10.636  17.489  68.642  1.00  0.00    -0.288 C  
HETATM   25  C   UNL     1      -8.492  14.755  71.338  1.00  0.00     4.063 C  
ENDROOT
BRANCH   4  26
HETATM   26  C   UNL     1     -11.345  12.279  64.609  1.00  0.00    -0.322 C  
HETATM   27  O   UNL     1     -10.658  11.247  64.523  1.00  0.00    -0.313 OA 
BRANCH  26  28
HETATM   28  C   UNL     1     -12.827  12.084  63.985  1.00  0.00    -0.236 C  
BRANCH  28  29
HETATM   29  O   UNL     1     -13.642  13.349  64.214  1.00  0.00     0.862 OA 
BRANCH  29  30
HETATM   30  C   UNL     1     -13.115  14.457  64.838  1.00  0.00     0.344 C  
HETATM   31  O   UNL     1     -12.870  14.503  66.035  1.00  0.00    -0.203 OA 
BRANCH  30  32
HETATM   32  C   UNL     1     -12.871  15.657  63.881  1.00  0.00     1.171 C  
BRANCH  32  33
HETATM   33  C   UNL     1     -11.473  15.669  63.224  1.00  0.00     2.770 C  
HETATM   34  C   UNL     1     -10.372  14.813  63.837  1.00  0.00     2.433 C  
HETATM   35  O   UNL     1     -10.024  15.077  65.108  1.00  0.00    -0.330 OA 
HETATM   36  O   UNL     1      -9.807  13.925  63.211  1.00  0.00     3.211 OA 
ENDBRANCH  32  33
ENDBRANCH  30  32
ENDBRANCH  29  30
ENDBRANCH  28  29
ENDBRANCH  26  28
ENDBRANCH   4  26
TORSDOF 6
ENDMDL
