MODEL        1
REMARK 921   NORMALIZED FREE ENERGY PREDICTED BY IDOCK:   -5.71 KCAL/MOL
REMARK 922        TOTAL FREE ENERGY PREDICTED BY IDOCK:   -7.18 KCAL/MOL
REMARK 923 INTER-LIGAND FREE ENERGY PREDICTED BY IDOCK:   -7.05 KCAL/MOL
REMARK 924 INTRA-LIGAND FREE ENERGY PREDICTED BY IDOCK:   -0.13 KCAL/MOL
REMARK 927      BINDING AFFINITY PREDICTED BY RF-SCORE:    0.00 PKD
ROOT
HETATM    1  C   UNL     1     -13.858  15.407  72.346  1.00  0.00    -0.562 C  
HETATM    2  O   UNL     1     -13.999  14.028  72.669  1.00  0.00    -0.654 OA 
ENDROOT
BRANCH   2   3
HETATM    3  C   UNL     1     -13.343  13.159  71.837  1.00  0.00    -0.455 A  
HETATM    4  C   UNL     1     -13.334  11.775  71.986  1.00  0.00    -0.417 A  
HETATM    5  C   UNL     1     -12.618  10.942  71.099  1.00  0.00    -0.532 A  
HETATM    6  C   UNL     1     -11.917  11.541  70.037  1.00  0.00    -0.357 A  
HETATM    7  C   UNL     1     -11.966  12.931  69.863  1.00  0.00    -0.377 A  
HETATM    8  C   UNL     1     -12.675  13.732  70.762  1.00  0.00    -0.361 A  
BRANCH   5   9
HETATM    9  C   UNL     1     -12.615   9.432  71.293  1.00  0.00    -0.325 C  
HETATM   10  H   UNL     1     -11.560   8.104  72.315  1.00  0.00     0.000 HD 
HETATM   11  O   UNL     1     -11.561   9.046  72.195  1.00  0.00    -0.355 OA 
BRANCH   9  12
HETATM   12  C   UNL     1     -13.978   8.851  71.784  1.00  0.00    -0.393 C  
HETATM   13  C   UNL     1     -14.125   7.382  71.367  1.00  0.00    -0.491 C  
HETATM   14  N   UNL     1     -14.150   8.914  73.254  1.00  0.00    -1.248 NA 
HETATM   15  H1  UNL     1     -15.041   8.534  73.576  1.00  0.00     0.000 HD 
HETATM   16  H2  UNL     1     -14.022   9.867  73.593  1.00  0.00     0.000 HD 
ENDBRANCH   9  12
ENDBRANCH   5   9
BRANCH   6  17
HETATM   17  O   UNL     1     -11.245  10.701  69.186  1.00  0.00    -0.229 OA 
HETATM   18  C   UNL     1     -11.407  10.983  67.799  1.00  0.00    -0.292 C  
ENDBRANCH   6  17
ENDBRANCH   2   3
TORSDOF 4
ENDMDL
MODEL        2
REMARK 921   NORMALIZED FREE ENERGY PREDICTED BY IDOCK:   -5.54 KCAL/MOL
REMARK 922        TOTAL FREE ENERGY PREDICTED BY IDOCK:   -6.97 KCAL/MOL
REMARK 923 INTER-LIGAND FREE ENERGY PREDICTED BY IDOCK:   -6.64 KCAL/MOL
REMARK 924 INTRA-LIGAND FREE ENERGY PREDICTED BY IDOCK:   -0.32 KCAL/MOL
REMARK 927      BINDING AFFINITY PREDICTED BY RF-SCORE:    0.00 PKD
ROOT
HETATM    1  C   UNL     1     -11.299  15.616  71.436  1.00  0.00    -0.381 C  
HETATM    2  O   UNL     1     -12.304  15.588  70.428  1.00  0.00    -0.381 OA 
ENDROOT
BRANCH   2   3
HETATM    3  C   UNL     1     -12.117  14.662  69.437  1.00  0.00    -0.280 A  
HETATM    4  C   UNL     1     -12.009  14.963  68.082  1.00  0.00    -0.234 A  
HETATM    5  C   UNL     1     -11.835  13.951  67.113  1.00  0.00    -0.445 A  
HETATM    6  C   UNL     1     -11.756  12.616  67.546  1.00  0.00    -0.368 A  
HETATM    7  C   UNL     1     -11.820  12.320  68.915  1.00  0.00    -0.355 A  
HETATM    8  C   UNL     1     -12.001  13.342  69.851  1.00  0.00    -0.400 A  
BRANCH   5   9
HETATM    9  C   UNL     1     -11.732  14.308  65.636  1.00  0.00    -0.358 C  
HETATM   10  H   UNL     1     -12.961  14.445  64.089  1.00  0.00     0.000 HD 
HETATM   11  O   UNL     1     -13.026  14.222  65.010  1.00  0.00    -0.693 OA 
BRANCH   9  12
HETATM   12  C   UNL     1     -11.099  15.709  65.362  1.00  0.00    -0.267 C  
HETATM   13  C   UNL     1      -9.570  15.642  65.458  1.00  0.00    -0.237 C  
HETATM   14  N   UNL     1     -11.437  16.258  64.029  1.00  0.00    -1.521 NA 
HETATM   15  H1  UNL     1     -11.024  17.173  63.850  1.00  0.00     0.000 HD 
HETATM   16  H2  UNL     1     -12.448  16.287  63.895  1.00  0.00     0.000 HD 
ENDBRANCH   9  12
ENDBRANCH   5   9
BRANCH   6  17
HETATM   17  O   UNL     1     -11.573  11.660  66.579  1.00  0.00    -0.473 OA 
HETATM   18  C   UNL     1     -10.487  10.767  66.805  1.00  0.00    -0.251 C  
ENDBRANCH   6  17
ENDBRANCH   2   3
TORSDOF 4
ENDMDL
MODEL        3
REMARK 921   NORMALIZED FREE ENERGY PREDICTED BY IDOCK:   -5.38 KCAL/MOL
REMARK 922        TOTAL FREE ENERGY PREDICTED BY IDOCK:   -6.77 KCAL/MOL
REMARK 923 INTER-LIGAND FREE ENERGY PREDICTED BY IDOCK:   -6.36 KCAL/MOL
REMARK 924 INTRA-LIGAND FREE ENERGY PREDICTED BY IDOCK:   -0.41 KCAL/MOL
REMARK 927      BINDING AFFINITY PREDICTED BY RF-SCORE:    0.00 PKD
ROOT
HETATM    1  C   UNL     1      -9.710  18.185  66.519  1.00  0.00    -0.344 C  
HETATM    2  O   UNL     1      -9.820  17.198  65.498  1.00  0.00    -0.549 OA 
ENDROOT
BRANCH   2   3
HETATM    3  C   UNL     1     -10.411  16.023  65.879  1.00  0.00    -0.359 A  
HETATM    4  C   UNL     1     -10.738  14.984  65.011  1.00  0.00    -0.448 A  
HETATM    5  C   UNL     1     -11.365  13.806  65.473  1.00  0.00    -0.313 A  
HETATM    6  C   UNL     1     -11.643  13.690  66.846  1.00  0.00    -0.367 A  
HETATM    7  C   UNL     1     -11.271  14.718  67.724  1.00  0.00    -0.323 A  
HETATM    8  C   UNL     1     -10.660  15.877  67.237  1.00  0.00    -0.314 A  
BRANCH   5   9
HETATM    9  C   UNL     1     -11.722  12.691  64.501  1.00  0.00    -0.359 C  
HETATM   10  H   UNL     1     -12.745  12.512  62.813  1.00  0.00     0.000 HD 
HETATM   11  O   UNL     1     -12.522  13.208  63.420  1.00  0.00    -0.730 OA 
BRANCH   9  12
HETATM   12  C   UNL     1     -10.488  11.923  63.931  1.00  0.00    -0.397 C  
HETATM   13  C   UNL     1      -9.784  11.128  65.038  1.00  0.00    -0.298 C  
HETATM   14  N   UNL     1     -10.834  10.970  62.851  1.00  0.00    -0.768 NA 
HETATM   15  H1  UNL     1     -10.028  10.468  62.478  1.00  0.00     0.000 HD 
HETATM   16  H2  UNL     1     -11.343  11.441  62.102  1.00  0.00     0.000 HD 
ENDBRANCH   9  12
ENDBRANCH   5   9
BRANCH   6  17
HETATM   17  O   UNL     1     -12.238  12.527  67.263  1.00  0.00    -0.454 OA 
HETATM   18  C   UNL     1     -11.740  11.992  68.486  1.00  0.00    -0.332 C  
ENDBRANCH   6  17
ENDBRANCH   2   3
TORSDOF 4
ENDMDL
MODEL        4
REMARK 921   NORMALIZED FREE ENERGY PREDICTED BY IDOCK:   -5.37 KCAL/MOL
REMARK 922        TOTAL FREE ENERGY PREDICTED BY IDOCK:   -6.75 KCAL/MOL
REMARK 923 INTER-LIGAND FREE ENERGY PREDICTED BY IDOCK:   -6.48 KCAL/MOL
REMARK 924 INTRA-LIGAND FREE ENERGY PREDICTED BY IDOCK:   -0.27 KCAL/MOL
REMARK 927      BINDING AFFINITY PREDICTED BY RF-SCORE:    0.00 PKD
ROOT
HETATM    1  C   UNL     1     -11.871  13.468  69.773  1.00  0.00    -0.329 C  
HETATM    2  O   UNL     1     -12.157  12.226  69.139  1.00  0.00    -0.264 OA 
ENDROOT
BRANCH   2   3
HETATM    3  C   UNL     1     -11.651  12.080  67.875  1.00  0.00    -0.337 A  
HETATM    4  C   UNL     1     -11.747  13.039  66.869  1.00  0.00    -0.441 A  
HETATM    5  C   UNL     1     -11.216  12.811  65.580  1.00  0.00    -0.335 A  
HETATM    6  C   UNL     1     -10.566  11.590  65.331  1.00  0.00    -0.282 A  
HETATM    7  C   UNL     1     -10.431  10.646  66.358  1.00  0.00    -0.276 A  
HETATM    8  C   UNL     1     -10.974  10.895  67.622  1.00  0.00    -0.350 A  
BRANCH   5   9
HETATM    9  C   UNL     1     -11.346  13.871  64.496  1.00  0.00    -0.372 C  
HETATM   10  H   UNL     1     -12.694  14.408  63.147  1.00  0.00     0.000 HD 
HETATM   11  O   UNL     1     -12.613  13.747  63.824  1.00  0.00    -0.712 OA 
BRANCH   9  12
HETATM   12  C   UNL     1     -11.155  15.333  65.008  1.00  0.00    -0.426 C  
HETATM   13  C   UNL     1      -9.720  15.553  65.504  1.00  0.00    -0.307 C  
HETATM   14  N   UNL     1     -11.431  16.360  63.978  1.00  0.00    -1.573 NA 
HETATM   15  H1  UNL     1     -11.307  17.316  64.312  1.00  0.00     0.000 HD 
HETATM   16  H2  UNL     1     -12.363  16.235  63.582  1.00  0.00     0.000 HD 
ENDBRANCH   9  12
ENDBRANCH   5   9
BRANCH   6  17
HETATM   17  O   UNL     1     -10.049  11.408  64.073  1.00  0.00    -0.262 OA 
HETATM   18  C   UNL     1      -8.921  10.542  63.997  1.00  0.00    -0.217 C  
ENDBRANCH   6  17
ENDBRANCH   2   3
TORSDOF 4
ENDMDL
MODEL        5
REMARK 921   NORMALIZED FREE ENERGY PREDICTED BY IDOCK:   -5.36 KCAL/MOL
REMARK 922        TOTAL FREE ENERGY PREDICTED BY IDOCK:   -6.74 KCAL/MOL
REMARK 923 INTER-LIGAND FREE ENERGY PREDICTED BY IDOCK:   -6.44 KCAL/MOL
REMARK 924 INTRA-LIGAND FREE ENERGY PREDICTED BY IDOCK:   -0.31 KCAL/MOL
REMARK 927      BINDING AFFINITY PREDICTED BY RF-SCORE:    0.00 PKD
ROOT
HETATM    1  C   UNL     1      -9.856  19.088  66.207  1.00  0.00    -0.374 C  
HETATM    2  O   UNL     1      -9.501  17.777  65.780  1.00  0.00    -0.518 OA 
ENDROOT
BRANCH   2   3
HETATM    3  C   UNL     1     -10.188  16.756  66.382  1.00  0.00    -0.323 A  
HETATM    4  C   UNL     1     -10.831  15.725  65.702  1.00  0.00    -0.316 A  
HETATM    5  C   UNL     1     -11.537  14.715  66.390  1.00  0.00    -0.343 A  
HETATM    6  C   UNL     1     -11.568  14.758  67.795  1.00  0.00    -0.357 A  
HETATM    7  C   UNL     1     -10.882  15.772  68.479  1.00  0.00    -0.290 A  
HETATM    8  C   UNL     1     -10.198  16.764  67.771  1.00  0.00    -0.303 A  
BRANCH   5   9
HETATM    9  C   UNL     1     -12.241  13.606  65.621  1.00  0.00    -0.454 C  
HETATM   10  H   UNL     1     -14.087  13.200  65.026  1.00  0.00     0.000 HD 
HETATM   11  O   UNL     1     -13.648  13.892  65.506  1.00  0.00    -0.579 OA 
BRANCH   9  12
HETATM   12  C   UNL     1     -11.637  13.329  64.208  1.00  0.00    -0.400 C  
HETATM   13  C   UNL     1     -11.319  11.838  64.036  1.00  0.00    -0.461 C  
HETATM   14  N   UNL     1     -12.532  13.723  63.096  1.00  0.00    -1.074 NA 
HETATM   15  H1  UNL     1     -12.137  13.542  62.173  1.00  0.00     0.000 HD 
HETATM   16  H2  UNL     1     -12.809  14.701  63.184  1.00  0.00     0.000 HD 
ENDBRANCH   9  12
ENDBRANCH   5   9
BRANCH   6  17
HETATM   17  O   UNL     1     -12.250  13.753  68.432  1.00  0.00    -0.340 OA 
HETATM   18  C   UNL     1     -11.438  12.798  69.108  1.00  0.00    -0.306 C  
ENDBRANCH   6  17
ENDBRANCH   2   3
TORSDOF 4
ENDMDL
MODEL        6
REMARK 921   NORMALIZED FREE ENERGY PREDICTED BY IDOCK:   -5.34 KCAL/MOL
REMARK 922        TOTAL FREE ENERGY PREDICTED BY IDOCK:   -6.72 KCAL/MOL
REMARK 923 INTER-LIGAND FREE ENERGY PREDICTED BY IDOCK:   -6.40 KCAL/MOL
REMARK 924 INTRA-LIGAND FREE ENERGY PREDICTED BY IDOCK:   -0.32 KCAL/MOL
REMARK 927      BINDING AFFINITY PREDICTED BY RF-SCORE:    0.00 PKD
ROOT
HETATM    1  C   UNL     1     -10.938  16.562  69.688  1.00  0.00    -0.287 C  
HETATM    2  O   UNL     1     -11.577  16.216  68.464  1.00  0.00    -0.377 OA 
ENDROOT
BRANCH   2   3
HETATM    3  C   UNL     1     -11.634  14.875  68.190  1.00  0.00    -0.334 A  
HETATM    4  C   UNL     1     -11.784  14.334  66.916  1.00  0.00    -0.430 A  
HETATM    5  C   UNL     1     -11.854  12.938  66.711  1.00  0.00    -0.452 A  
HETATM    6  C   UNL     1     -11.751  12.092  67.828  1.00  0.00    -0.309 A  
HETATM    7  C   UNL     1     -11.554  12.638  69.104  1.00  0.00    -0.374 A  
HETATM    8  C   UNL     1     -11.498  14.024  69.278  1.00  0.00    -0.344 A  
BRANCH   5   9
HETATM    9  C   UNL     1     -12.031  12.374  65.308  1.00  0.00    -0.404 C  
HETATM   10  H   UNL     1     -13.535  12.008  64.072  1.00  0.00     0.000 HD 
HETATM   11  O   UNL     1     -13.425  12.360  64.947  1.00  0.00    -0.484 OA 
BRANCH   9  12
HETATM   12  C   UNL     1     -11.204  13.119  64.213  1.00  0.00    -0.388 C  
HETATM   13  C   UNL     1     -10.356  12.128  63.405  1.00  0.00    -0.438 C  
HETATM   14  N   UNL     1     -12.042  13.873  63.252  1.00  0.00    -1.003 NA 
HETATM   15  H1  UNL     1     -11.502  14.359  62.537  1.00  0.00     0.000 HD 
HETATM   16  H2  UNL     1     -12.659  14.521  63.742  1.00  0.00     0.000 HD 
ENDBRANCH   9  12
ENDBRANCH   5   9
BRANCH   6  17
HETATM   17  O   UNL     1     -11.807  10.742  67.591  1.00  0.00    -0.505 OA 
HETATM   18  C   UNL     1     -10.566  10.051  67.703  1.00  0.00    -0.270 C  
ENDBRANCH   6  17
ENDBRANCH   2   3
TORSDOF 4
ENDMDL
MODEL        7
REMARK 921   NORMALIZED FREE ENERGY PREDICTED BY IDOCK:   -5.27 KCAL/MOL
REMARK 922        TOTAL FREE ENERGY PREDICTED BY IDOCK:   -6.63 KCAL/MOL
REMARK 923 INTER-LIGAND FREE ENERGY PREDICTED BY IDOCK:   -6.22 KCAL/MOL
REMARK 924 INTRA-LIGAND FREE ENERGY PREDICTED BY IDOCK:   -0.41 KCAL/MOL
REMARK 927      BINDING AFFINITY PREDICTED BY RF-SCORE:    0.00 PKD
ROOT
HETATM    1  C   UNL     1     -12.156  12.804  63.313  1.00  0.00    -0.439 C  
HETATM    2  O   UNL     1     -12.449  14.156  63.650  1.00  0.00    -0.819 OA 
ENDROOT
BRANCH   2   3
HETATM    3  C   UNL     1     -11.990  14.570  64.872  1.00  0.00    -0.422 A  
HETATM    4  C   UNL     1     -11.063  15.592  65.066  1.00  0.00    -0.411 A  
HETATM    5  C   UNL     1     -10.622  15.952  66.358  1.00  0.00    -0.298 A  
HETATM    6  C   UNL     1     -11.153  15.264  67.462  1.00  0.00    -0.324 A  
HETATM    7  C   UNL     1     -12.120  14.268  67.268  1.00  0.00    -0.390 A  
HETATM    8  C   UNL     1     -12.532  13.926  65.976  1.00  0.00    -0.501 A  
BRANCH   5   9
HETATM    9  C   UNL     1      -9.599  17.064  66.539  1.00  0.00    -0.278 C  
HETATM   10  H   UNL     1      -7.795  17.502  65.846  1.00  0.00     0.000 HD 
HETATM   11  O   UNL     1      -8.434  16.809  65.732  1.00  0.00    -0.472 OA 
BRANCH   9  12
HETATM   12  C   UNL     1     -10.151  18.493  66.240  1.00  0.00    -0.398 C  
HETATM   13  C   UNL     1     -10.901  19.052  67.456  1.00  0.00    -0.478 C  
HETATM   14  N   UNL     1      -9.097  19.470  65.881  1.00  0.00    -0.400 NA 
HETATM   15  H1  UNL     1      -9.458  20.404  65.685  1.00  0.00     0.000 HD 
HETATM   16  H2  UNL     1      -8.539  19.128  65.099  1.00  0.00     0.000 HD 
ENDBRANCH   9  12
ENDBRANCH   5   9
BRANCH   6  17
HETATM   17  O   UNL     1     -10.714  15.650  68.703  1.00  0.00    -0.238 OA 
HETATM   18  C   UNL     1     -11.725  15.755  69.702  1.00  0.00    -0.355 C  
ENDBRANCH   6  17
ENDBRANCH   2   3
TORSDOF 4
ENDMDL
MODEL        8
REMARK 921   NORMALIZED FREE ENERGY PREDICTED BY IDOCK:   -5.23 KCAL/MOL
REMARK 922        TOTAL FREE ENERGY PREDICTED BY IDOCK:   -6.59 KCAL/MOL
REMARK 923 INTER-LIGAND FREE ENERGY PREDICTED BY IDOCK:   -6.28 KCAL/MOL
REMARK 924 INTRA-LIGAND FREE ENERGY PREDICTED BY IDOCK:   -0.30 KCAL/MOL
REMARK 927      BINDING AFFINITY PREDICTED BY RF-SCORE:    0.00 PKD
ROOT
HETATM    1  C   UNL     1     -11.986  11.649  70.212  1.00  0.00    -0.358 C  
HETATM    2  O   UNL     1     -12.326  11.462  68.843  1.00  0.00    -0.446 OA 
ENDROOT
BRANCH   2   3
HETATM    3  C   UNL     1     -11.894  12.443  67.990  1.00  0.00    -0.316 A  
HETATM    4  C   UNL     1     -11.510  12.231  66.669  1.00  0.00    -0.431 A  
HETATM    5  C   UNL     1     -11.057  13.290  65.853  1.00  0.00    -0.301 A  
HETATM    6  C   UNL     1     -11.015  14.585  66.399  1.00  0.00    -0.324 A  
HETATM    7  C   UNL     1     -11.446  14.803  67.716  1.00  0.00    -0.363 A  
HETATM    8  C   UNL     1     -11.881  13.733  68.503  1.00  0.00    -0.406 A  
BRANCH   5   9
HETATM    9  C   UNL     1     -10.632  13.028  64.415  1.00  0.00    -0.409 C  
HETATM   10  H   UNL     1      -9.752  11.566  63.408  1.00  0.00     0.000 HD 
HETATM   11  O   UNL     1     -10.018  11.730  64.305  1.00  0.00    -0.258 OA 
BRANCH   9  12
HETATM   12  C   UNL     1     -11.787  13.161  63.374  1.00  0.00    -0.427 C  
HETATM   13  C   UNL     1     -12.781  12.001  63.513  1.00  0.00    -0.567 C  
HETATM   14  N   UNL     1     -12.555  14.421  63.503  1.00  0.00    -1.000 NA 
HETATM   15  H1  UNL     1     -13.310  14.508  62.823  1.00  0.00     0.000 HD 
HETATM   16  H2  UNL     1     -11.935  15.229  63.459  1.00  0.00     0.000 HD 
ENDBRANCH   9  12
ENDBRANCH   5   9
BRANCH   6  17
HETATM   17  O   UNL     1     -10.584  15.593  65.575  1.00  0.00    -0.353 OA 
HETATM   18  C   UNL     1     -10.097  16.756  66.237  1.00  0.00    -0.326 C  
ENDBRANCH   6  17
ENDBRANCH   2   3
TORSDOF 4
ENDMDL
MODEL        9
REMARK 921   NORMALIZED FREE ENERGY PREDICTED BY IDOCK:   -5.17 KCAL/MOL
REMARK 922        TOTAL FREE ENERGY PREDICTED BY IDOCK:   -6.51 KCAL/MOL
REMARK 923 INTER-LIGAND FREE ENERGY PREDICTED BY IDOCK:   -6.18 KCAL/MOL
REMARK 924 INTRA-LIGAND FREE ENERGY PREDICTED BY IDOCK:   -0.33 KCAL/MOL
REMARK 927      BINDING AFFINITY PREDICTED BY RF-SCORE:    0.00 PKD
ROOT
HETATM    1  C   UNL     1     -12.636  15.592  71.287  1.00  0.00    -0.447 C  
HETATM    2  O   UNL     1     -12.174  15.723  69.946  1.00  0.00    -0.352 OA 
ENDROOT
BRANCH   2   3
HETATM    3  C   UNL     1     -12.035  14.550  69.255  1.00  0.00    -0.319 A  
HETATM    4  C   UNL     1     -12.112  14.433  67.869  1.00  0.00    -0.280 A  
HETATM    5  C   UNL     1     -11.977  13.184  67.225  1.00  0.00    -0.389 A  
HETATM    6  C   UNL     1     -11.743  12.046  68.015  1.00  0.00    -0.331 A  
HETATM    7  C   UNL     1     -11.620  12.172  69.406  1.00  0.00    -0.381 A  
HETATM    8  C   UNL     1     -11.768  13.420  70.017  1.00  0.00    -0.297 A  
BRANCH   5   9
HETATM    9  C   UNL     1     -12.078  13.084  65.709  1.00  0.00    -0.454 C  
HETATM   10  H   UNL     1     -13.246  13.810  64.283  1.00  0.00     0.000 HD 
HETATM   11  O   UNL     1     -13.183  13.873  65.229  1.00  0.00    -0.774 OA 
BRANCH   9  12
HETATM   12  C   UNL     1     -10.771  13.485  64.956  1.00  0.00    -0.357 C  
HETATM   13  C   UNL     1     -10.476  12.500  63.817  1.00  0.00    -0.451 C  
HETATM   14  N   UNL     1     -10.821  14.842  64.366  1.00  0.00    -0.592 NA 
HETATM   15  H1  UNL     1      -9.967  15.104  63.874  1.00  0.00     0.000 HD 
HETATM   16  H2  UNL     1     -11.055  15.536  65.076  1.00  0.00     0.000 HD 
ENDBRANCH   9  12
ENDBRANCH   5   9
BRANCH   6  17
HETATM   17  O   UNL     1     -11.602  10.851  67.356  1.00  0.00    -0.509 OA 
HETATM   18  C   UNL     1     -10.720   9.916  67.971  1.00  0.00    -0.248 C  
ENDBRANCH   6  17
ENDBRANCH   2   3
TORSDOF 4
ENDMDL
MODEL       10
REMARK 921   NORMALIZED FREE ENERGY PREDICTED BY IDOCK:   -5.05 KCAL/MOL
REMARK 922        TOTAL FREE ENERGY PREDICTED BY IDOCK:   -6.37 KCAL/MOL
REMARK 923 INTER-LIGAND FREE ENERGY PREDICTED BY IDOCK:   -5.99 KCAL/MOL
REMARK 924 INTRA-LIGAND FREE ENERGY PREDICTED BY IDOCK:   -0.38 KCAL/MOL
REMARK 927      BINDING AFFINITY PREDICTED BY RF-SCORE:    0.00 PKD
ROOT
HETATM    1  C   UNL     1     -10.824  13.507  64.618  1.00  0.00    -0.405 C  
HETATM    2  O   UNL     1     -11.615  14.124  65.628  1.00  0.00    -0.325 OA 
ENDROOT
BRANCH   2   3
HETATM    3  C   UNL     1     -11.629  13.483  66.838  1.00  0.00    -0.363 A  
HETATM    4  C   UNL     1     -11.833  14.111  68.065  1.00  0.00    -0.400 A  
HETATM    5  C   UNL     1     -11.815  13.386  69.276  1.00  0.00    -0.385 A  
HETATM    6  C   UNL     1     -11.601  11.998  69.223  1.00  0.00    -0.321 A  
HETATM    7  C   UNL     1     -11.441  11.362  67.983  1.00  0.00    -0.377 A  
HETATM    8  C   UNL     1     -11.455  12.106  66.800  1.00  0.00    -0.418 A  
BRANCH   5   9
HETATM    9  C   UNL     1     -12.028  14.100  70.604  1.00  0.00    -0.315 C  
HETATM   10  H   UNL     1     -11.654  15.891  71.363  1.00  0.00     0.000 HD 
HETATM   11  O   UNL     1     -11.521  15.446  70.535  1.00  0.00    -0.271 OA 
BRANCH   9  12
HETATM   12  C   UNL     1     -13.512  14.114  71.088  1.00  0.00    -0.230 C  
HETATM   13  C   UNL     1     -13.604  13.731  72.570  1.00  0.00    -0.680 C  
HETATM   14  N   UNL     1     -14.173  15.430  70.928  1.00  0.00    -0.857 NA 
HETATM   15  H1  UNL     1     -15.142  15.439  71.244  1.00  0.00     0.000 HD 
HETATM   16  H2  UNL     1     -14.105  15.754  69.963  1.00  0.00     0.000 HD 
ENDBRANCH   9  12
ENDBRANCH   5   9
BRANCH   6  17
HETATM   17  O   UNL     1     -11.604  11.323  70.417  1.00  0.00    -0.311 OA 
HETATM   18  C   UNL     1     -12.717  10.458  70.624  1.00  0.00    -0.333 C  
ENDBRANCH   6  17
ENDBRANCH   2   3
TORSDOF 4
ENDMDL
MODEL       11
REMARK 921   NORMALIZED FREE ENERGY PREDICTED BY IDOCK:   -4.95 KCAL/MOL
REMARK 922        TOTAL FREE ENERGY PREDICTED BY IDOCK:   -6.23 KCAL/MOL
REMARK 923 INTER-LIGAND FREE ENERGY PREDICTED BY IDOCK:   -5.89 KCAL/MOL
REMARK 924 INTRA-LIGAND FREE ENERGY PREDICTED BY IDOCK:   -0.34 KCAL/MOL
REMARK 927      BINDING AFFINITY PREDICTED BY RF-SCORE:    0.00 PKD
ROOT
HETATM    1  C   UNL     1     -13.412  15.765  72.916  1.00  0.00    -0.580 C  
HETATM    2  O   UNL     1     -13.431  15.422  71.534  1.00  0.00    -0.453 OA 
ENDROOT
BRANCH   2   3
HETATM    3  C   UNL     1     -13.082  14.130  71.244  1.00  0.00    -0.350 A  
HETATM    4  C   UNL     1     -12.309  13.745  70.151  1.00  0.00    -0.390 A  
HETATM    5  C   UNL     1     -12.003  12.389  69.905  1.00  0.00    -0.369 A  
HETATM    6  C   UNL     1     -12.486  11.421  70.803  1.00  0.00    -0.365 A  
HETATM    7  C   UNL     1     -13.225  11.815  71.927  1.00  0.00    -0.468 A  
HETATM    8  C   UNL     1     -13.520  13.165  72.141  1.00  0.00    -0.653 A  
BRANCH   5   9
HETATM    9  C   UNL     1     -11.167  11.995  68.696  1.00  0.00    -0.258 C  
HETATM   10  H   UNL     1     -11.497  11.351  66.852  1.00  0.00     0.000 HD 
HETATM   11  O   UNL     1     -12.019  11.597  67.606  1.00  0.00    -0.618 OA 
BRANCH   9  12
HETATM   12  C   UNL     1     -10.175  13.103  68.220  1.00  0.00    -0.250 C  
HETATM   13  C   UNL     1      -8.750  12.546  68.111  1.00  0.00    -0.190 C  
HETATM   14  N   UNL     1     -10.526  13.683  66.903  1.00  0.00    -0.270 NA 
HETATM   15  H1  UNL     1      -9.879  14.407  66.592  1.00  0.00     0.000 HD 
HETATM   16  H2  UNL     1     -11.484  14.034  66.907  1.00  0.00     0.000 HD 
ENDBRANCH   9  12
ENDBRANCH   5   9
BRANCH   6  17
HETATM   17  O   UNL     1     -12.158  10.114  70.542  1.00  0.00    -0.283 OA 
HETATM   18  C   UNL     1     -11.643   9.382  71.650  1.00  0.00    -0.396 C  
ENDBRANCH   6  17
ENDBRANCH   2   3
TORSDOF 4
ENDMDL
MODEL       12
REMARK 921   NORMALIZED FREE ENERGY PREDICTED BY IDOCK:   -4.94 KCAL/MOL
REMARK 922        TOTAL FREE ENERGY PREDICTED BY IDOCK:   -6.23 KCAL/MOL
REMARK 923 INTER-LIGAND FREE ENERGY PREDICTED BY IDOCK:   -5.91 KCAL/MOL
REMARK 924 INTRA-LIGAND FREE ENERGY PREDICTED BY IDOCK:   -0.31 KCAL/MOL
REMARK 927      BINDING AFFINITY PREDICTED BY RF-SCORE:    0.00 PKD
ROOT
HETATM    1  C   UNL     1     -13.772   9.143  72.210  1.00  0.00    -0.487 C  
HETATM    2  O   UNL     1     -12.647   9.574  71.451  1.00  0.00    -0.320 OA 
ENDROOT
BRANCH   2   3
HETATM    3  C   UNL     1     -12.616  10.910  71.154  1.00  0.00    -0.428 A  
HETATM    4  C   UNL     1     -12.015  11.457  70.023  1.00  0.00    -0.442 A  
HETATM    5  C   UNL     1     -12.006  12.849  69.792  1.00  0.00    -0.365 A  
HETATM    6  C   UNL     1     -12.636  13.687  70.728  1.00  0.00    -0.325 A  
HETATM    7  C   UNL     1     -13.281  13.131  71.842  1.00  0.00    -0.526 A  
HETATM    8  C   UNL     1     -13.266  11.749  72.050  1.00  0.00    -0.460 A  
BRANCH   5   9
HETATM    9  C   UNL     1     -11.330  13.420  68.553  1.00  0.00    -0.289 C  
HETATM   10  H   UNL     1      -9.585  13.229  67.636  1.00  0.00     0.000 HD 
HETATM   11  O   UNL     1     -10.006  12.873  68.408  1.00  0.00    -0.227 OA 
BRANCH   9  12
HETATM   12  C   UNL     1     -12.139  13.213  67.234  1.00  0.00    -0.274 C  
HETATM   13  C   UNL     1     -11.996  14.430  66.312  1.00  0.00    -0.391 C  
HETATM   14  N   UNL     1     -11.718  12.020  66.464  1.00  0.00    -0.575 NA 
HETATM   15  H1  UNL     1     -12.246  11.885  65.602  1.00  0.00     0.000 HD 
HETATM   16  H2  UNL     1     -11.755  11.183  67.045  1.00  0.00     0.000 HD 
ENDBRANCH   9  12
ENDBRANCH   5   9
BRANCH   6  17
HETATM   17  O   UNL     1     -12.622  15.033  70.465  1.00  0.00    -0.339 OA 
HETATM   18  C   UNL     1     -12.259  15.865  71.563  1.00  0.00    -0.465 C  
ENDBRANCH   6  17
ENDBRANCH   2   3
TORSDOF 4
ENDMDL
MODEL       13
REMARK 921   NORMALIZED FREE ENERGY PREDICTED BY IDOCK:   -4.93 KCAL/MOL
REMARK 922        TOTAL FREE ENERGY PREDICTED BY IDOCK:   -6.22 KCAL/MOL
REMARK 923 INTER-LIGAND FREE ENERGY PREDICTED BY IDOCK:   -5.90 KCAL/MOL
REMARK 924 INTRA-LIGAND FREE ENERGY PREDICTED BY IDOCK:   -0.32 KCAL/MOL
REMARK 927      BINDING AFFINITY PREDICTED BY RF-SCORE:    0.00 PKD
ROOT
HETATM    1  C   UNL     1     -11.607   8.028  71.319  1.00  0.00    -0.276 C  
HETATM    2  O   UNL     1     -12.460   9.035  71.853  1.00  0.00    -0.333 OA 
ENDROOT
BRANCH   2   3
HETATM    3  C   UNL     1     -12.378  10.259  71.243  1.00  0.00    -0.403 A  
HETATM    4  C   UNL     1     -12.831  11.453  71.798  1.00  0.00    -0.449 A  
HETATM    5  C   UNL     1     -12.730  12.676  71.100  1.00  0.00    -0.347 A  
HETATM    6  C   UNL     1     -12.140  12.672  69.824  1.00  0.00    -0.233 A  
HETATM    7  C   UNL     1     -11.642  11.476  69.287  1.00  0.00    -0.388 A  
HETATM    8  C   UNL     1     -11.765  10.278  69.996  1.00  0.00    -0.330 A  
BRANCH   5   9
HETATM    9  C   UNL     1     -13.246  13.964  71.726  1.00  0.00    -0.376 C  
HETATM   10  H   UNL     1     -14.698  14.494  72.965  1.00  0.00     0.000 HD 
HETATM   11  O   UNL     1     -14.376  13.690  72.574  1.00  0.00    -0.707 OA 
BRANCH   9  12
HETATM   12  C   UNL     1     -12.165  14.764  72.520  1.00  0.00    -0.262 C  
HETATM   13  C   UNL     1     -11.892  16.118  71.853  1.00  0.00    -0.605 C  
HETATM   14  N   UNL     1     -12.543  15.029  73.927  1.00  0.00    -0.531 NA 
HETATM   15  H1  UNL     1     -11.837  15.552  74.446  1.00  0.00     0.000 HD 
HETATM   16  H2  UNL     1     -12.775  14.161  74.409  1.00  0.00     0.000 HD 
ENDBRANCH   9  12
ENDBRANCH   5   9
BRANCH   6  17
HETATM   17  O   UNL     1     -12.044  13.880  69.181  1.00  0.00    -0.345 OA 
HETATM   18  C   UNL     1     -11.490  13.830  67.870  1.00  0.00    -0.314 C  
ENDBRANCH   6  17
ENDBRANCH   2   3
TORSDOF 4
ENDMDL
MODEL       14
REMARK 921   NORMALIZED FREE ENERGY PREDICTED BY IDOCK:   -4.91 KCAL/MOL
REMARK 922        TOTAL FREE ENERGY PREDICTED BY IDOCK:   -6.19 KCAL/MOL
REMARK 923 INTER-LIGAND FREE ENERGY PREDICTED BY IDOCK:   -5.95 KCAL/MOL
REMARK 924 INTRA-LIGAND FREE ENERGY PREDICTED BY IDOCK:   -0.24 KCAL/MOL
REMARK 927      BINDING AFFINITY PREDICTED BY RF-SCORE:    0.00 PKD
ROOT
HETATM    1  C   UNL     1     -13.026  10.269  71.393  1.00  0.00    -0.440 C  
HETATM    2  O   UNL     1     -12.090  10.306  70.321  1.00  0.00    -0.272 OA 
ENDROOT
BRANCH   2   3
HETATM    3  C   UNL     1     -11.994  11.504  69.665  1.00  0.00    -0.339 A  
HETATM    4  C   UNL     1     -11.725  11.644  68.305  1.00  0.00    -0.374 A  
HETATM    5  C   UNL     1     -11.623  12.915  67.700  1.00  0.00    -0.406 A  
HETATM    6  C   UNL     1     -11.817  14.055  68.499  1.00  0.00    -0.364 A  
HETATM    7  C   UNL     1     -12.134  13.911  69.858  1.00  0.00    -0.406 A  
HETATM    8  C   UNL     1     -12.219  12.640  70.432  1.00  0.00    -0.368 A  
BRANCH   5   9
HETATM    9  C   UNL     1     -11.315  13.038  66.214  1.00  0.00    -0.317 C  
HETATM   10  H   UNL     1     -10.497  11.911  64.805  1.00  0.00     0.000 HD 
HETATM   11  O   UNL     1     -10.689  11.834  65.732  1.00  0.00    -0.264 OA 
BRANCH   9  12
HETATM   12  C   UNL     1     -12.557  13.383  65.333  1.00  0.00    -0.475 C  
HETATM   13  C   UNL     1     -12.268  14.595  64.438  1.00  0.00    -0.473 C  
HETATM   14  N   UNL     1     -12.982  12.272  64.451  1.00  0.00    -0.764 NA 
HETATM   15  H1  UNL     1     -13.793  12.497  63.875  1.00  0.00     0.000 HD 
HETATM   16  H2  UNL     1     -13.148  11.424  64.992  1.00  0.00     0.000 HD 
ENDBRANCH   9  12
ENDBRANCH   5   9
BRANCH   6  17
HETATM   17  O   UNL     1     -11.726  15.273  67.876  1.00  0.00    -0.328 OA 
HETATM   18  C   UNL     1     -11.175  16.322  68.666  1.00  0.00    -0.354 C  
ENDBRANCH   6  17
ENDBRANCH   2   3
TORSDOF 4
ENDMDL
MODEL       15
REMARK 921   NORMALIZED FREE ENERGY PREDICTED BY IDOCK:   -4.88 KCAL/MOL
REMARK 922        TOTAL FREE ENERGY PREDICTED BY IDOCK:   -6.15 KCAL/MOL
REMARK 923 INTER-LIGAND FREE ENERGY PREDICTED BY IDOCK:   -6.03 KCAL/MOL
REMARK 924 INTRA-LIGAND FREE ENERGY PREDICTED BY IDOCK:   -0.12 KCAL/MOL
REMARK 927      BINDING AFFINITY PREDICTED BY RF-SCORE:    0.00 PKD
ROOT
HETATM    1  C   UNL     1     -12.622  11.998  63.496  1.00  0.00    -0.507 C  
HETATM    2  O   UNL     1     -13.215  12.615  64.634  1.00  0.00    -0.828 OA 
ENDROOT
BRANCH   2   3
HETATM    3  C   UNL     1     -12.438  13.547  65.268  1.00  0.00    -0.482 A  
HETATM    4  C   UNL     1     -12.221  13.594  66.643  1.00  0.00    -0.437 A  
HETATM    5  C   UNL     1     -11.420  14.598  67.230  1.00  0.00    -0.386 A  
HETATM    6  C   UNL     1     -10.823  15.554  66.390  1.00  0.00    -0.277 A  
HETATM    7  C   UNL     1     -11.005  15.477  65.002  1.00  0.00    -0.454 A  
HETATM    8  C   UNL     1     -11.810  14.477  64.450  1.00  0.00    -0.419 A  
BRANCH   5   9
HETATM    9  C   UNL     1     -11.211  14.633  68.737  1.00  0.00    -0.267 C  
HETATM   10  H   UNL     1      -9.675  14.666  69.988  1.00  0.00     0.000 HD 
HETATM   11  O   UNL     1      -9.805  14.644  69.047  1.00  0.00    -0.221 OA 
BRANCH   9  12
HETATM   12  C   UNL     1     -11.924  15.824  69.452  1.00  0.00    -0.305 C  
HETATM   13  C   UNL     1     -12.740  15.329  70.652  1.00  0.00    -0.470 C  
HETATM   14  N   UNL     1     -10.988  16.859  69.949  1.00  0.00    -0.358 NA 
HETATM   15  H1  UNL     1     -11.453  17.638  70.416  1.00  0.00     0.000 HD 
HETATM   16  H2  UNL     1     -10.389  17.197  69.195  1.00  0.00     0.000 HD 
ENDBRANCH   9  12
ENDBRANCH   5   9
BRANCH   6  17
HETATM   17  O   UNL     1     -10.039  16.505  66.992  1.00  0.00    -0.265 OA 
HETATM   18  C   UNL     1     -10.211  17.833  66.505  1.00  0.00    -0.358 C  
ENDBRANCH   6  17
ENDBRANCH   2   3
TORSDOF 4
ENDMDL
MODEL       16
REMARK 921   NORMALIZED FREE ENERGY PREDICTED BY IDOCK:   -4.85 KCAL/MOL
REMARK 922        TOTAL FREE ENERGY PREDICTED BY IDOCK:   -6.11 KCAL/MOL
REMARK 923 INTER-LIGAND FREE ENERGY PREDICTED BY IDOCK:   -5.93 KCAL/MOL
REMARK 924 INTRA-LIGAND FREE ENERGY PREDICTED BY IDOCK:   -0.19 KCAL/MOL
REMARK 927      BINDING AFFINITY PREDICTED BY RF-SCORE:    0.00 PKD
ROOT
HETATM    1  C   UNL     1      -9.491  17.584  66.798  1.00  0.00    -0.275 C  
HETATM    2  O   UNL     1      -9.893  16.982  68.024  1.00  0.00    -0.259 OA 
ENDROOT
BRANCH   2   3
HETATM    3  C   UNL     1     -10.441  15.732  67.913  1.00  0.00    -0.270 A  
HETATM    4  C   UNL     1     -11.003  15.214  66.749  1.00  0.00    -0.321 A  
HETATM    5  C   UNL     1     -11.568  13.920  66.715  1.00  0.00    -0.398 A  
HETATM    6  C   UNL     1     -11.539  13.146  67.888  1.00  0.00    -0.336 A  
HETATM    7  C   UNL     1     -10.932  13.652  69.046  1.00  0.00    -0.271 A  
HETATM    8  C   UNL     1     -10.389  14.940  69.053  1.00  0.00    -0.245 A  
BRANCH   5   9
HETATM    9  C   UNL     1     -12.186  13.384  65.432  1.00  0.00    -0.452 C  
HETATM   10  H   UNL     1     -13.147  14.124  63.865  1.00  0.00     0.000 HD 
HETATM   11  O   UNL     1     -12.761  14.459  64.666  1.00  0.00    -0.655 OA 
BRANCH   9  12
HETATM   12  C   UNL     1     -11.199  12.565  64.542  1.00  0.00    -0.325 C  
HETATM   13  C   UNL     1     -11.886  12.100  63.252  1.00  0.00    -0.466 C  
HETATM   14  N   UNL     1      -9.988  13.323  64.151  1.00  0.00    -0.760 NA 
HETATM   15  H1  UNL     1      -9.343  12.789  63.571  1.00  0.00     0.000 HD 
HETATM   16  H2  UNL     1      -9.511  13.693  64.974  1.00  0.00     0.000 HD 
ENDBRANCH   9  12
ENDBRANCH   5   9
BRANCH   6  17
HETATM   17  O   UNL     1     -12.083  11.889  67.815  1.00  0.00    -0.564 OA 
HETATM   18  C   UNL     1     -11.747  11.016  68.890  1.00  0.00    -0.330 C  
ENDBRANCH   6  17
ENDBRANCH   2   3
TORSDOF 4
ENDMDL
MODEL       17
REMARK 921   NORMALIZED FREE ENERGY PREDICTED BY IDOCK:   -4.83 KCAL/MOL
REMARK 922        TOTAL FREE ENERGY PREDICTED BY IDOCK:   -6.08 KCAL/MOL
REMARK 923 INTER-LIGAND FREE ENERGY PREDICTED BY IDOCK:   -5.67 KCAL/MOL
REMARK 924 INTRA-LIGAND FREE ENERGY PREDICTED BY IDOCK:   -0.42 KCAL/MOL
REMARK 927      BINDING AFFINITY PREDICTED BY RF-SCORE:    0.00 PKD
ROOT
HETATM    1  C   UNL     1      -8.136   9.372  65.216  1.00  0.00    -0.124 C  
HETATM    2  O   UNL     1      -9.119   9.587  64.208  1.00  0.00    -0.233 OA 
ENDROOT
BRANCH   2   3
HETATM    3  C   UNL     1     -10.004  10.601  64.457  1.00  0.00    -0.345 A  
HETATM    4  C   UNL     1     -10.400  11.013  65.728  1.00  0.00    -0.316 A  
HETATM    5  C   UNL     1     -11.334  12.056  65.908  1.00  0.00    -0.391 A  
HETATM    6  C   UNL     1     -11.853  12.694  64.767  1.00  0.00    -0.380 A  
HETATM    7  C   UNL     1     -11.418  12.309  63.491  1.00  0.00    -0.558 A  
HETATM    8  C   UNL     1     -10.499  11.266  63.343  1.00  0.00    -0.424 A  
BRANCH   5   9
HETATM    9  C   UNL     1     -11.759  12.477  67.307  1.00  0.00    -0.362 C  
HETATM   10  H   UNL     1     -12.442  11.591  68.943  1.00  0.00     0.000 HD 
HETATM   11  O   UNL     1     -12.177  11.329  68.069  1.00  0.00    -0.621 OA 
BRANCH   9  12
HETATM   12  C   UNL     1     -10.667  13.269  68.093  1.00  0.00    -0.249 C  
HETATM   13  C   UNL     1     -10.671  14.748  67.688  1.00  0.00    -0.270 C  
HETATM   14  N   UNL     1     -10.838  13.210  69.563  1.00  0.00    -0.448 NA 
HETATM   15  H1  UNL     1     -10.125  13.728  70.077  1.00  0.00     0.000 HD 
HETATM   16  H2  UNL     1     -10.883  12.243  69.884  1.00  0.00     0.000 HD 
ENDBRANCH   9  12
ENDBRANCH   5   9
BRANCH   6  17
HETATM   17  O   UNL     1     -12.746  13.713  64.979  1.00  0.00    -0.622 OA 
HETATM   18  C   UNL     1     -12.399  14.961  64.386  1.00  0.00    -0.323 C  
ENDBRANCH   6  17
ENDBRANCH   2   3
TORSDOF 4
ENDMDL
MODEL       18
REMARK 921   NORMALIZED FREE ENERGY PREDICTED BY IDOCK:   -4.82 KCAL/MOL
REMARK 922        TOTAL FREE ENERGY PREDICTED BY IDOCK:   -6.07 KCAL/MOL
REMARK 923 INTER-LIGAND FREE ENERGY PREDICTED BY IDOCK:   -6.25 KCAL/MOL
REMARK 924 INTRA-LIGAND FREE ENERGY PREDICTED BY IDOCK:    0.18 KCAL/MOL
REMARK 927      BINDING AFFINITY PREDICTED BY RF-SCORE:    0.00 PKD
ROOT
HETATM    1  C   UNL     1      -8.595   9.800  64.692  1.00  0.00    -0.184 C  
HETATM    2  O   UNL     1      -9.708   9.550  65.543  1.00  0.00    -0.283 OA 
ENDROOT
BRANCH   2   3
HETATM    3  C   UNL     1     -10.324  10.665  66.048  1.00  0.00    -0.225 A  
HETATM    4  C   UNL     1     -10.839  11.703  65.275  1.00  0.00    -0.340 A  
HETATM    5  C   UNL     1     -11.445  12.832  65.867  1.00  0.00    -0.399 A  
HETATM    6  C   UNL     1     -11.537  12.885  67.269  1.00  0.00    -0.360 A  
HETATM    7  C   UNL     1     -11.060  11.817  68.042  1.00  0.00    -0.297 A  
HETATM    8  C   UNL     1     -10.456  10.715  67.429  1.00  0.00    -0.280 A  
BRANCH   5   9
HETATM    9  C   UNL     1     -11.988  13.958  64.999  1.00  0.00    -0.390 C  
HETATM   10  H   UNL     1     -13.739  14.828  64.680  1.00  0.00     0.000 HD 
HETATM   11  O   UNL     1     -13.401  14.125  65.221  1.00  0.00    -0.715 OA 
BRANCH   9  12
HETATM   12  C   UNL     1     -11.254  15.323  65.193  1.00  0.00    -0.370 C  
HETATM   13  C   UNL     1      -9.750  15.106  65.404  1.00  0.00    -0.239 C  
HETATM   14  N   UNL     1     -11.413  16.247  64.047  1.00  0.00    -1.521 NA 
HETATM   15  H1  UNL     1     -10.933  17.138  64.174  1.00  0.00     0.000 HD 
HETATM   16  H2  UNL     1     -12.400  16.395  63.836  1.00  0.00     0.000 HD 
ENDBRANCH   9  12
ENDBRANCH   5   9
BRANCH   6  17
HETATM   17  O   UNL     1     -12.146  13.989  67.810  1.00  0.00    -0.371 OA 
HETATM   18  C   UNL     1     -11.399  14.663  68.818  1.00  0.00    -0.281 C  
ENDBRANCH   6  17
ENDBRANCH   2   3
TORSDOF 4
ENDMDL
MODEL       19
REMARK 921   NORMALIZED FREE ENERGY PREDICTED BY IDOCK:   -4.78 KCAL/MOL
REMARK 922        TOTAL FREE ENERGY PREDICTED BY IDOCK:   -6.03 KCAL/MOL
REMARK 923 INTER-LIGAND FREE ENERGY PREDICTED BY IDOCK:   -5.73 KCAL/MOL
REMARK 924 INTRA-LIGAND FREE ENERGY PREDICTED BY IDOCK:   -0.30 KCAL/MOL
REMARK 927      BINDING AFFINITY PREDICTED BY RF-SCORE:    0.00 PKD
ROOT
HETATM    1  C   UNL     1     -12.243  12.002  63.343  1.00  0.00    -0.519 C  
HETATM    2  O   UNL     1     -12.902  13.062  64.029  1.00  0.00    -0.657 OA 
ENDROOT
BRANCH   2   3
HETATM    3  C   UNL     1     -12.234  13.565  65.114  1.00  0.00    -0.428 A  
HETATM    4  C   UNL     1     -12.067  12.894  66.323  1.00  0.00    -0.433 A  
HETATM    5  C   UNL     1     -11.381  13.485  67.406  1.00  0.00    -0.338 A  
HETATM    6  C   UNL     1     -10.847  14.774  67.237  1.00  0.00    -0.309 A  
HETATM    7  C   UNL     1     -10.977  15.429  66.004  1.00  0.00    -0.286 A  
HETATM    8  C   UNL     1     -11.669  14.823  64.951  1.00  0.00    -0.390 A  
BRANCH   5   9
HETATM    9  C   UNL     1     -11.224  12.734  68.720  1.00  0.00    -0.283 C  
HETATM   10  H   UNL     1     -11.994  12.825  70.543  1.00  0.00     0.000 HD 
HETATM   11  O   UNL     1     -12.092  13.294  69.723  1.00  0.00    -0.316 OA 
BRANCH   9  12
HETATM   12  C   UNL     1     -11.465  11.195  68.607  1.00  0.00    -0.298 C  
HETATM   13  C   UNL     1     -10.218  10.416  69.046  1.00  0.00    -0.233 C  
HETATM   14  N   UNL     1     -12.601  10.713  69.426  1.00  0.00    -0.678 NA 
HETATM   15  H1  UNL     1     -12.758   9.708  69.352  1.00  0.00     0.000 HD 
HETATM   16  H2  UNL     1     -13.452  11.229  69.202  1.00  0.00     0.000 HD 
ENDBRANCH   9  12
ENDBRANCH   5   9
BRANCH   6  17
HETATM   17  O   UNL     1     -10.174  15.312  68.304  1.00  0.00    -0.222 OA 
HETATM   18  C   UNL     1     -10.740  16.502  68.845  1.00  0.00    -0.337 C  
ENDBRANCH   6  17
ENDBRANCH   2   3
TORSDOF 4
ENDMDL
MODEL       20
REMARK 921   NORMALIZED FREE ENERGY PREDICTED BY IDOCK:   -4.77 KCAL/MOL
REMARK 922        TOTAL FREE ENERGY PREDICTED BY IDOCK:   -6.01 KCAL/MOL
REMARK 923 INTER-LIGAND FREE ENERGY PREDICTED BY IDOCK:   -5.94 KCAL/MOL
REMARK 924 INTRA-LIGAND FREE ENERGY PREDICTED BY IDOCK:   -0.07 KCAL/MOL
REMARK 927      BINDING AFFINITY PREDICTED BY RF-SCORE:    0.00 PKD
ROOT
HETATM    1  C   UNL     1     -12.066  11.285  70.546  1.00  0.00    -0.387 C  
HETATM    2  O   UNL     1     -12.122  12.706  70.495  1.00  0.00    -0.363 OA 
ENDROOT
BRANCH   2   3
HETATM    3  C   UNL     1     -11.925  13.259  69.258  1.00  0.00    -0.303 A  
HETATM    4  C   UNL     1     -11.975  12.553  68.058  1.00  0.00    -0.281 A  
HETATM    5  C   UNL     1     -11.743  13.187  66.819  1.00  0.00    -0.439 A  
HETATM    6  C   UNL     1     -11.473  14.567  66.813  1.00  0.00    -0.367 A  
HETATM    7  C   UNL     1     -11.468  15.284  68.018  1.00  0.00    -0.351 A  
HETATM    8  C   UNL     1     -11.692  14.627  69.232  1.00  0.00    -0.348 A  
BRANCH   5   9
HETATM    9  C   UNL     1     -11.792  12.389  65.524  1.00  0.00    -0.412 C  
HETATM   10  H   UNL     1     -12.707  12.522  63.772  1.00  0.00     0.000 HD 
HETATM   11  O   UNL     1     -12.677  13.020  64.580  1.00  0.00    -0.656 OA 
BRANCH   9  12
HETATM   12  C   UNL     1     -10.395  12.151  64.869  1.00  0.00    -0.289 C  
HETATM   13  C   UNL     1     -10.229  10.682  64.459  1.00  0.00    -0.399 C  
HETATM   14  N   UNL     1     -10.161  12.978  63.663  1.00  0.00    -0.686 NA 
HETATM   15  H1  UNL     1      -9.248  12.823  63.235  1.00  0.00     0.000 HD 
HETATM   16  H2  UNL     1     -10.299  13.967  63.870  1.00  0.00     0.000 HD 
ENDBRANCH   9  12
ENDBRANCH   5   9
BRANCH   6  17
HETATM   17  O   UNL     1     -11.267  15.154  65.591  1.00  0.00    -0.336 OA 
HETATM   18  C   UNL     1     -10.641  16.433  65.627  1.00  0.00    -0.323 C  
ENDBRANCH   6  17
ENDBRANCH   2   3
TORSDOF 4
ENDMDL
MODEL       21
REMARK 921   NORMALIZED FREE ENERGY PREDICTED BY IDOCK:   -4.76 KCAL/MOL
REMARK 922        TOTAL FREE ENERGY PREDICTED BY IDOCK:   -6.01 KCAL/MOL
REMARK 923 INTER-LIGAND FREE ENERGY PREDICTED BY IDOCK:   -5.81 KCAL/MOL
REMARK 924 INTRA-LIGAND FREE ENERGY PREDICTED BY IDOCK:   -0.19 KCAL/MOL
REMARK 927      BINDING AFFINITY PREDICTED BY RF-SCORE:    0.00 PKD
ROOT
HETATM    1  C   UNL     1     -12.475  14.354  70.923  1.00  0.00    -0.354 C  
HETATM    2  O   UNL     1     -11.970  15.449  70.167  1.00  0.00    -0.302 OA 
ENDROOT
BRANCH   2   3
HETATM    3  C   UNL     1     -11.650  15.167  68.866  1.00  0.00    -0.341 A  
HETATM    4  C   UNL     1     -11.071  16.071  67.979  1.00  0.00    -0.334 A  
HETATM    5  C   UNL     1     -10.785  15.714  66.643  1.00  0.00    -0.296 A  
HETATM    6  C   UNL     1     -11.084  14.407  66.221  1.00  0.00    -0.331 A  
HETATM    7  C   UNL     1     -11.625  13.485  67.128  1.00  0.00    -0.393 A  
HETATM    8  C   UNL     1     -11.906  13.869  68.443  1.00  0.00    -0.409 A  
BRANCH   5   9
HETATM    9  C   UNL     1     -10.163  16.727  65.692  1.00  0.00    -0.236 C  
HETATM   10  H   UNL     1     -10.689  17.668  64.030  1.00  0.00     0.000 HD 
HETATM   11  O   UNL     1     -11.078  17.036  64.623  1.00  0.00    -0.997 OA 
BRANCH   9  12
HETATM   12  C   UNL     1      -9.687  18.043  66.384  1.00  0.00    -0.321 C  
HETATM   13  C   UNL     1      -8.156  18.136  66.381  1.00  0.00    -0.291 C  
HETATM   14  N   UNL     1     -10.208  19.270  65.739  1.00  0.00    -0.503 NA 
HETATM   15  H1  UNL     1      -9.897  20.130  66.192  1.00  0.00     0.000 HD 
HETATM   16  H2  UNL     1     -11.226  19.243  65.678  1.00  0.00     0.000 HD 
ENDBRANCH   9  12
ENDBRANCH   5   9
BRANCH   6  17
HETATM   17  O   UNL     1     -10.780  14.090  64.922  1.00  0.00    -0.371 OA 
HETATM   18  C   UNL     1     -10.583  12.703  64.663  1.00  0.00    -0.333 C  
ENDBRANCH   6  17
ENDBRANCH   2   3
TORSDOF 4
ENDMDL
MODEL       22
REMARK 921   NORMALIZED FREE ENERGY PREDICTED BY IDOCK:   -4.75 KCAL/MOL
REMARK 922        TOTAL FREE ENERGY PREDICTED BY IDOCK:   -5.99 KCAL/MOL
REMARK 923 INTER-LIGAND FREE ENERGY PREDICTED BY IDOCK:   -5.64 KCAL/MOL
REMARK 924 INTRA-LIGAND FREE ENERGY PREDICTED BY IDOCK:   -0.35 KCAL/MOL
REMARK 927      BINDING AFFINITY PREDICTED BY RF-SCORE:    0.00 PKD
ROOT
HETATM    1  C   UNL     1     -12.090  16.063  72.220  1.00  0.00    -0.527 C  
HETATM    2  O   UNL     1     -12.357  15.507  70.937  1.00  0.00    -0.358 OA 
ENDROOT
BRANCH   2   3
HETATM    3  C   UNL     1     -12.486  14.144  70.903  1.00  0.00    -0.365 A  
HETATM    4  C   UNL     1     -12.055  13.334  69.855  1.00  0.00    -0.377 A  
HETATM    5  C   UNL     1     -12.239  11.935  69.881  1.00  0.00    -0.269 A  
HETATM    6  C   UNL     1     -12.858  11.361  71.005  1.00  0.00    -0.286 A  
HETATM    7  C   UNL     1     -13.250  12.174  72.078  1.00  0.00    -0.496 A  
HETATM    8  C   UNL     1     -13.064  13.558  72.021  1.00  0.00    -0.481 A  
BRANCH   5   9
HETATM    9  C   UNL     1     -11.769  11.075  68.716  1.00  0.00    -0.314 C  
HETATM   10  H   UNL     1     -11.681  11.229  66.743  1.00  0.00     0.000 HD 
HETATM   11  O   UNL     1     -11.975  11.766  67.469  1.00  0.00    -0.607 OA 
BRANCH   9  12
HETATM   12  C   UNL     1     -10.283  10.608  68.827  1.00  0.00    -0.190 C  
HETATM   13  C   UNL     1      -9.333  11.682  68.282  1.00  0.00    -0.191 C  
HETATM   14  N   UNL     1      -9.862  10.305  70.215  1.00  0.00    -0.367 NA 
HETATM   15  H1  UNL     1      -8.892  10.000  70.288  1.00  0.00     0.000 HD 
HETATM   16  H2  UNL     1     -10.488   9.622  70.642  1.00  0.00     0.000 HD 
ENDBRANCH   9  12
ENDBRANCH   5   9
BRANCH   6  17
HETATM   17  O   UNL     1     -13.007   9.998  71.003  1.00  0.00    -0.358 OA 
HETATM   18  C   UNL     1     -13.614   9.450  72.170  1.00  0.00    -0.457 C  
ENDBRANCH   6  17
ENDBRANCH   2   3
TORSDOF 4
ENDMDL
MODEL       23
REMARK 921   NORMALIZED FREE ENERGY PREDICTED BY IDOCK:   -4.74 KCAL/MOL
REMARK 922        TOTAL FREE ENERGY PREDICTED BY IDOCK:   -5.98 KCAL/MOL
REMARK 923 INTER-LIGAND FREE ENERGY PREDICTED BY IDOCK:   -5.72 KCAL/MOL
REMARK 924 INTRA-LIGAND FREE ENERGY PREDICTED BY IDOCK:   -0.26 KCAL/MOL
REMARK 927      BINDING AFFINITY PREDICTED BY RF-SCORE:    0.00 PKD
ROOT
HETATM    1  C   UNL     1      -8.811   8.267  67.408  1.00  0.00    -0.131 C  
HETATM    2  O   UNL     1     -10.007   8.474  66.664  1.00  0.00    -0.248 OA 
ENDROOT
BRANCH   2   3
HETATM    3  C   UNL     1     -10.398   9.780  66.530  1.00  0.00    -0.192 A  
HETATM    4  C   UNL     1     -10.271  10.529  65.363  1.00  0.00    -0.340 A  
HETATM    5  C   UNL     1     -10.680  11.879  65.304  1.00  0.00    -0.331 A  
HETATM    6  C   UNL     1     -11.241  12.459  66.455  1.00  0.00    -0.319 A  
HETATM    7  C   UNL     1     -11.409  11.690  67.615  1.00  0.00    -0.362 A  
HETATM    8  C   UNL     1     -10.987  10.358  67.647  1.00  0.00    -0.374 A  
BRANCH   5   9
HETATM    9  C   UNL     1     -10.518  12.677  64.019  1.00  0.00    -0.416 C  
HETATM   10  H   UNL     1      -9.466  12.534  62.346  1.00  0.00     0.000 HD 
HETATM   11  O   UNL     1      -9.567  12.036  63.148  1.00  0.00    -0.365 OA 
BRANCH   9  12
HETATM   12  C   UNL     1     -11.855  12.930  63.253  1.00  0.00    -0.398 C  
HETATM   13  C   UNL     1     -12.885  11.842  63.583  1.00  0.00    -0.429 C  
HETATM   14  N   UNL     1     -12.475  14.238  63.565  1.00  0.00    -1.102 NA 
HETATM   15  H1  UNL     1     -13.349  14.404  63.065  1.00  0.00     0.000 HD 
HETATM   16  H2  UNL     1     -11.816  14.999  63.401  1.00  0.00     0.000 HD 
ENDBRANCH   9  12
ENDBRANCH   5   9
BRANCH   6  17
HETATM   17  O   UNL     1     -11.641  13.767  66.359  1.00  0.00    -0.331 OA 
HETATM   18  C   UNL     1     -11.598  14.509  67.574  1.00  0.00    -0.381 C  
ENDBRANCH   6  17
ENDBRANCH   2   3
TORSDOF 4
ENDMDL
MODEL       24
REMARK 921   NORMALIZED FREE ENERGY PREDICTED BY IDOCK:   -4.74 KCAL/MOL
REMARK 922        TOTAL FREE ENERGY PREDICTED BY IDOCK:   -5.98 KCAL/MOL
REMARK 923 INTER-LIGAND FREE ENERGY PREDICTED BY IDOCK:   -5.65 KCAL/MOL
REMARK 924 INTRA-LIGAND FREE ENERGY PREDICTED BY IDOCK:   -0.33 KCAL/MOL
REMARK 927      BINDING AFFINITY PREDICTED BY RF-SCORE:    0.00 PKD
ROOT
HETATM    1  C   UNL     1     -13.496  15.169  72.820  1.00  0.00    -0.501 C  
HETATM    2  O   UNL     1     -13.843  13.791  72.741  1.00  0.00    -0.716 OA 
ENDROOT
BRANCH   2   3
HETATM    3  C   UNL     1     -13.199  13.077  71.765  1.00  0.00    -0.392 A  
HETATM    4  C   UNL     1     -12.526  13.642  70.684  1.00  0.00    -0.417 A  
HETATM    5  C   UNL     1     -11.900  12.841  69.705  1.00  0.00    -0.384 A  
HETATM    6  C   UNL     1     -11.954  11.444  69.848  1.00  0.00    -0.359 A  
HETATM    7  C   UNL     1     -12.592  10.879  70.961  1.00  0.00    -0.517 A  
HETATM    8  C   UNL     1     -13.212  11.696  71.911  1.00  0.00    -0.475 A  
BRANCH   5   9
HETATM    9  C   UNL     1     -11.182  13.485  68.527  1.00  0.00    -0.278 C  
HETATM   10  H   UNL     1     -11.604  13.944  66.647  1.00  0.00     0.000 HD 
HETATM   11  O   UNL     1     -12.053  13.542  67.381  1.00  0.00    -0.369 OA 
BRANCH   9  12
HETATM   12  C   UNL     1     -10.607  14.905  68.831  1.00  0.00    -0.247 C  
HETATM   13  C   UNL     1      -9.083  14.923  68.657  1.00  0.00    -0.185 C  
HETATM   14  N   UNL     1     -11.166  15.966  67.961  1.00  0.00    -0.340 NA 
HETATM   15  H1  UNL     1     -10.790  16.893  68.160  1.00  0.00     0.000 HD 
HETATM   16  H2  UNL     1     -12.185  15.972  68.007  1.00  0.00     0.000 HD 
ENDBRANCH   9  12
ENDBRANCH   5   9
BRANCH   6  17
HETATM   17  O   UNL     1     -11.322  10.697  68.887  1.00  0.00    -0.249 OA 
HETATM   18  C   UNL     1     -10.243   9.892  69.352  1.00  0.00    -0.216 C  
ENDBRANCH   6  17
ENDBRANCH   2   3
TORSDOF 4
ENDMDL
MODEL       25
REMARK 921   NORMALIZED FREE ENERGY PREDICTED BY IDOCK:   -4.74 KCAL/MOL
REMARK 922        TOTAL FREE ENERGY PREDICTED BY IDOCK:   -5.97 KCAL/MOL
REMARK 923 INTER-LIGAND FREE ENERGY PREDICTED BY IDOCK:   -5.67 KCAL/MOL
REMARK 924 INTRA-LIGAND FREE ENERGY PREDICTED BY IDOCK:   -0.31 KCAL/MOL
REMARK 927      BINDING AFFINITY PREDICTED BY RF-SCORE:    0.00 PKD
ROOT
HETATM    1  C   UNL     1     -10.516  18.408  66.006  1.00  0.00    -0.374 C  
HETATM    2  O   UNL     1      -9.708  17.253  65.804  1.00  0.00    -0.530 OA 
ENDROOT
BRANCH   2   3
HETATM    3  C   UNL     1     -10.387  16.067  65.721  1.00  0.00    -0.378 A  
HETATM    4  C   UNL     1     -10.232  15.002  66.605  1.00  0.00    -0.271 A  
HETATM    5  C   UNL     1     -10.955  13.800  66.446  1.00  0.00    -0.298 A  
HETATM    6  C   UNL     1     -11.859  13.700  65.375  1.00  0.00    -0.353 A  
HETATM    7  C   UNL     1     -12.048  14.790  64.513  1.00  0.00    -0.460 A  
HETATM    8  C   UNL     1     -11.311  15.965  64.690  1.00  0.00    -0.328 A  
BRANCH   5   9
HETATM    9  C   UNL     1     -10.756  12.648  67.420  1.00  0.00    -0.229 C  
HETATM   10  H   UNL     1      -9.262  11.875  68.467  1.00  0.00     0.000 HD 
HETATM   11  O   UNL     1      -9.386  12.594  67.859  1.00  0.00    -0.190 OA 
BRANCH   9  12
HETATM   12  C   UNL     1     -11.710  12.686  68.656  1.00  0.00    -0.325 C  
HETATM   13  C   UNL     1     -11.999  11.267  69.164  1.00  0.00    -0.405 C  
HETATM   14  N   UNL     1     -11.170  13.464  69.794  1.00  0.00    -0.477 NA 
HETATM   15  H1  UNL     1     -11.793  13.489  70.602  1.00  0.00     0.000 HD 
HETATM   16  H2  UNL     1     -10.921  14.408  69.501  1.00  0.00     0.000 HD 
ENDBRANCH   9  12
ENDBRANCH   5   9
BRANCH   6  17
HETATM   17  O   UNL     1     -12.556  12.524  65.259  1.00  0.00    -0.645 OA 
HETATM   18  C   UNL     1     -12.658  12.004  63.936  1.00  0.00    -0.406 C  
ENDBRANCH   6  17
ENDBRANCH   2   3
TORSDOF 4
ENDMDL
MODEL       26
REMARK 921   NORMALIZED FREE ENERGY PREDICTED BY IDOCK:   -4.73 KCAL/MOL
REMARK 922        TOTAL FREE ENERGY PREDICTED BY IDOCK:   -5.97 KCAL/MOL
REMARK 923 INTER-LIGAND FREE ENERGY PREDICTED BY IDOCK:   -5.62 KCAL/MOL
REMARK 924 INTRA-LIGAND FREE ENERGY PREDICTED BY IDOCK:   -0.35 KCAL/MOL
REMARK 927      BINDING AFFINITY PREDICTED BY RF-SCORE:    0.00 PKD
ROOT
HETATM    1  C   UNL     1     -13.002  10.762  71.642  1.00  0.00    -0.476 C  
HETATM    2  O   UNL     1     -13.209  12.111  72.046  1.00  0.00    -0.499 OA 
ENDROOT
BRANCH   2   3
HETATM    3  C   UNL     1     -12.783  13.063  71.159  1.00  0.00    -0.283 A  
HETATM    4  C   UNL     1     -12.132  12.792  69.958  1.00  0.00    -0.355 A  
HETATM    5  C   UNL     1     -11.704  13.828  69.100  1.00  0.00    -0.379 A  
HETATM    6  C   UNL     1     -11.964  15.158  69.475  1.00  0.00    -0.321 A  
HETATM    7  C   UNL     1     -12.661  15.427  70.662  1.00  0.00    -0.491 A  
HETATM    8  C   UNL     1     -13.064  14.381  71.497  1.00  0.00    -0.411 A  
BRANCH   5   9
HETATM    9  C   UNL     1     -10.983  13.503  67.800  1.00  0.00    -0.266 C  
HETATM   10  H   UNL     1      -9.419  12.424  67.240  1.00  0.00     0.000 HD 
HETATM   11  O   UNL     1      -9.869  12.627  68.051  1.00  0.00    -0.205 OA 
BRANCH   9  12
HETATM   12  C   UNL     1     -11.904  12.892  66.697  1.00  0.00    -0.395 C  
HETATM   13  C   UNL     1     -12.378  13.977  65.721  1.00  0.00    -0.506 C  
HETATM   14  N   UNL     1     -11.245  11.833  65.898  1.00  0.00    -0.316 NA 
HETATM   15  H1  UNL     1     -11.846  11.434  65.177  1.00  0.00     0.000 HD 
HETATM   16  H2  UNL     1     -10.872  11.102  66.504  1.00  0.00     0.000 HD 
ENDBRANCH   9  12
ENDBRANCH   5   9
BRANCH   6  17
HETATM   17  O   UNL     1     -11.549  16.139  68.612  1.00  0.00    -0.376 OA 
HETATM   18  C   UNL     1     -10.450  16.925  69.065  1.00  0.00    -0.341 C  
ENDBRANCH   6  17
ENDBRANCH   2   3
TORSDOF 4
ENDMDL
MODEL       27
REMARK 921   NORMALIZED FREE ENERGY PREDICTED BY IDOCK:   -4.73 KCAL/MOL
REMARK 922        TOTAL FREE ENERGY PREDICTED BY IDOCK:   -5.96 KCAL/MOL
REMARK 923 INTER-LIGAND FREE ENERGY PREDICTED BY IDOCK:   -5.59 KCAL/MOL
REMARK 924 INTRA-LIGAND FREE ENERGY PREDICTED BY IDOCK:   -0.38 KCAL/MOL
REMARK 927      BINDING AFFINITY PREDICTED BY RF-SCORE:    0.00 PKD
ROOT
HETATM    1  C   UNL     1     -12.431  12.234  63.497  1.00  0.00    -0.534 C  
HETATM    2  O   UNL     1     -12.913  12.785  64.718  1.00  0.00    -0.768 OA 
ENDROOT
BRANCH   2   3
HETATM    3  C   UNL     1     -11.960  13.029  65.671  1.00  0.00    -0.429 A  
HETATM    4  C   UNL     1     -12.121  13.895  66.749  1.00  0.00    -0.476 A  
HETATM    5  C   UNL     1     -11.085  14.111  67.684  1.00  0.00    -0.296 A  
HETATM    6  C   UNL     1      -9.876  13.414  67.515  1.00  0.00    -0.227 A  
HETATM    7  C   UNL     1      -9.733  12.507  66.455  1.00  0.00    -0.253 A  
HETATM    8  C   UNL     1     -10.773  12.321  65.539  1.00  0.00    -0.314 A  
BRANCH   5   9
HETATM    9  C   UNL     1     -11.285  15.073  68.846  1.00  0.00    -0.277 C  
HETATM   10  H   UNL     1     -11.491  17.028  69.090  1.00  0.00     0.000 HD 
HETATM   11  O   UNL     1     -11.367  16.428  68.365  1.00  0.00    -0.366 OA 
BRANCH   9  12
HETATM   12  C   UNL     1     -12.525  14.748  69.737  1.00  0.00    -0.191 C  
HETATM   13  C   UNL     1     -12.183  13.667  70.770  1.00  0.00    -0.424 C  
HETATM   14  N   UNL     1     -13.044  15.921  70.476  1.00  0.00    -0.719 NA 
HETATM   15  H1  UNL     1     -13.854  15.709  71.058  1.00  0.00     0.000 HD 
HETATM   16  H2  UNL     1     -13.250  16.690  69.837  1.00  0.00     0.000 HD 
ENDBRANCH   9  12
ENDBRANCH   5   9
BRANCH   6  17
HETATM   17  O   UNL     1      -8.897  13.635  68.449  1.00  0.00    -0.179 OA 
HETATM   18  C   UNL     1      -7.817  12.706  68.432  1.00  0.00    -0.136 C  
ENDBRANCH   6  17
ENDBRANCH   2   3
TORSDOF 4
ENDMDL
MODEL       28
REMARK 921   NORMALIZED FREE ENERGY PREDICTED BY IDOCK:   -4.72 KCAL/MOL
REMARK 922        TOTAL FREE ENERGY PREDICTED BY IDOCK:   -5.96 KCAL/MOL
REMARK 923 INTER-LIGAND FREE ENERGY PREDICTED BY IDOCK:   -5.90 KCAL/MOL
REMARK 924 INTRA-LIGAND FREE ENERGY PREDICTED BY IDOCK:   -0.05 KCAL/MOL
REMARK 927      BINDING AFFINITY PREDICTED BY RF-SCORE:    0.00 PKD
ROOT
HETATM    1  C   UNL     1     -12.742  11.919  63.527  1.00  0.00    -0.405 C  
HETATM    2  O   UNL     1     -12.947  12.550  64.787  1.00  0.00    -0.827 OA 
ENDROOT
BRANCH   2   3
HETATM    3  C   UNL     1     -11.857  13.199  65.304  1.00  0.00    -0.365 A  
HETATM    4  C   UNL     1     -11.627  14.568  65.196  1.00  0.00    -0.371 A  
HETATM    5  C   UNL     1     -10.469  15.166  65.739  1.00  0.00    -0.355 A  
HETATM    6  C   UNL     1      -9.547  14.348  66.414  1.00  0.00    -0.299 A  
HETATM    7  C   UNL     1      -9.803  12.978  66.561  1.00  0.00    -0.263 A  
HETATM    8  C   UNL     1     -10.954  12.411  66.005  1.00  0.00    -0.324 A  
BRANCH   5   9
HETATM    9  C   UNL     1     -10.236  16.664  65.595  1.00  0.00    -0.262 C  
HETATM   10  H   UNL     1     -11.057  18.170  64.604  1.00  0.00     0.000 HD 
HETATM   11  O   UNL     1     -11.202  17.236  64.694  1.00  0.00    -1.014 OA 
BRANCH   9  12
HETATM   12  C   UNL     1     -10.244  17.442  66.949  1.00  0.00    -0.322 C  
HETATM   13  C   UNL     1     -10.783  18.865  66.754  1.00  0.00    -0.414 C  
HETATM   14  N   UNL     1     -11.066  16.795  67.997  1.00  0.00    -0.294 NA 
HETATM   15  H1  UNL     1     -11.071  17.304  68.881  1.00  0.00     0.000 HD 
HETATM   16  H2  UNL     1     -10.776  15.828  68.139  1.00  0.00     0.000 HD 
ENDBRANCH   9  12
ENDBRANCH   5   9
BRANCH   6  17
HETATM   17  O   UNL     1      -8.441  14.964  66.942  1.00  0.00    -0.228 OA 
HETATM   18  C   UNL     1      -7.670  14.169  67.838  1.00  0.00    -0.158 C  
ENDBRANCH   6  17
ENDBRANCH   2   3
TORSDOF 4
ENDMDL
MODEL       29
REMARK 921   NORMALIZED FREE ENERGY PREDICTED BY IDOCK:   -4.70 KCAL/MOL
REMARK 922        TOTAL FREE ENERGY PREDICTED BY IDOCK:   -5.92 KCAL/MOL
REMARK 923 INTER-LIGAND FREE ENERGY PREDICTED BY IDOCK:   -5.55 KCAL/MOL
REMARK 924 INTRA-LIGAND FREE ENERGY PREDICTED BY IDOCK:   -0.37 KCAL/MOL
REMARK 927      BINDING AFFINITY PREDICTED BY RF-SCORE:    0.00 PKD
ROOT
HETATM    1  C   UNL     1     -12.406  13.328  63.560  1.00  0.00    -0.366 C  
HETATM    2  O   UNL     1     -12.609  14.059  64.764  1.00  0.00    -0.605 OA 
ENDROOT
BRANCH   2   3
HETATM    3  C   UNL     1     -12.119  13.470  65.899  1.00  0.00    -0.435 A  
HETATM    4  C   UNL     1     -12.066  14.082  67.150  1.00  0.00    -0.436 A  
HETATM    5  C   UNL     1     -11.529  13.417  68.274  1.00  0.00    -0.350 A  
HETATM    6  C   UNL     1     -11.057  12.103  68.112  1.00  0.00    -0.248 A  
HETATM    7  C   UNL     1     -11.153  11.474  66.863  1.00  0.00    -0.366 A  
HETATM    8  C   UNL     1     -11.681  12.159  65.765  1.00  0.00    -0.391 A  
BRANCH   5   9
HETATM    9  C   UNL     1     -11.472  14.114  69.626  1.00  0.00    -0.273 C  
HETATM   10  H   UNL     1     -10.736  15.802  70.357  1.00  0.00     0.000 HD 
HETATM   11  O   UNL     1     -10.772  15.367  69.513  1.00  0.00    -0.234 OA 
BRANCH   9  12
HETATM   12  C   UNL     1     -12.870  14.342  70.284  1.00  0.00    -0.178 C  
HETATM   13  C   UNL     1     -12.959  13.620  71.634  1.00  0.00    -0.448 C  
HETATM   14  N   UNL     1     -13.184  15.770  70.523  1.00  0.00    -0.767 NA 
HETATM   15  H1  UNL     1     -14.096  15.919  70.953  1.00  0.00     0.000 HD 
HETATM   16  H2  UNL     1     -13.099  16.308  69.660  1.00  0.00     0.000 HD 
ENDBRANCH   9  12
ENDBRANCH   5   9
BRANCH   6  17
HETATM   17  O   UNL     1     -10.555  11.482  69.228  1.00  0.00    -0.181 OA 
HETATM   18  C   UNL     1     -11.301  10.358  69.686  1.00  0.00    -0.272 C  
ENDBRANCH   6  17
ENDBRANCH   2   3
TORSDOF 4
ENDMDL
MODEL       30
REMARK 921   NORMALIZED FREE ENERGY PREDICTED BY IDOCK:   -4.69 KCAL/MOL
REMARK 922        TOTAL FREE ENERGY PREDICTED BY IDOCK:   -5.92 KCAL/MOL
REMARK 923 INTER-LIGAND FREE ENERGY PREDICTED BY IDOCK:   -5.59 KCAL/MOL
REMARK 924 INTRA-LIGAND FREE ENERGY PREDICTED BY IDOCK:   -0.33 KCAL/MOL
REMARK 927      BINDING AFFINITY PREDICTED BY RF-SCORE:    0.00 PKD
ROOT
HETATM    1  C   UNL     1      -7.711  17.350  66.112  1.00  0.00    -0.276 C  
HETATM    2  O   UNL     1      -9.107  17.511  65.886  1.00  0.00    -0.512 OA 
ENDROOT
BRANCH   2   3
HETATM    3  C   UNL     1      -9.914  16.609  66.526  1.00  0.00    -0.285 A  
HETATM    4  C   UNL     1     -10.677  15.636  65.885  1.00  0.00    -0.336 A  
HETATM    5  C   UNL     1     -11.503  14.749  66.611  1.00  0.00    -0.339 A  
HETATM    6  C   UNL     1     -11.529  14.856  68.013  1.00  0.00    -0.337 A  
HETATM    7  C   UNL     1     -10.725  15.806  68.658  1.00  0.00    -0.263 A  
HETATM    8  C   UNL     1      -9.924  16.676  67.913  1.00  0.00    -0.254 A  
BRANCH   5   9
HETATM    9  C   UNL     1     -12.336  13.703  65.885  1.00  0.00    -0.471 C  
HETATM   10  H   UNL     1     -13.176  13.502  64.102  1.00  0.00     0.000 HD 
HETATM   11  O   UNL     1     -12.656  14.154  64.555  1.00  0.00    -0.643 OA 
BRANCH   9  12
HETATM   12  C   UNL     1     -11.674  12.291  65.823  1.00  0.00    -0.385 C  
HETATM   13  C   UNL     1     -10.192  12.401  65.442  1.00  0.00    -0.302 C  
HETATM   14  N   UNL     1     -11.749  11.548  67.102  1.00  0.00    -0.577 NA 
HETATM   15  H1  UNL     1     -11.316  10.625  67.062  1.00  0.00     0.000 HD 
HETATM   16  H2  UNL     1     -12.714  11.480  67.425  1.00  0.00     0.000 HD 
ENDBRANCH   9  12
ENDBRANCH   5   9
BRANCH   6  17
HETATM   17  O   UNL     1     -12.330  13.969  68.687  1.00  0.00    -0.271 OA 
HETATM   18  C   UNL     1     -12.030  13.809  70.071  1.00  0.00    -0.338 C  
ENDBRANCH   6  17
ENDBRANCH   2   3
TORSDOF 4
ENDMDL
MODEL       31
REMARK 921   NORMALIZED FREE ENERGY PREDICTED BY IDOCK:   -4.68 KCAL/MOL
REMARK 922        TOTAL FREE ENERGY PREDICTED BY IDOCK:   -5.90 KCAL/MOL
REMARK 923 INTER-LIGAND FREE ENERGY PREDICTED BY IDOCK:   -5.95 KCAL/MOL
REMARK 924 INTRA-LIGAND FREE ENERGY PREDICTED BY IDOCK:    0.05 KCAL/MOL
REMARK 927      BINDING AFFINITY PREDICTED BY RF-SCORE:    0.00 PKD
ROOT
HETATM    1  C   UNL     1     -11.438   9.434  71.530  1.00  0.00    -0.397 C  
HETATM    2  O   UNL     1     -11.809  10.231  70.410  1.00  0.00    -0.269 OA 
ENDROOT
BRANCH   2   3
HETATM    3  C   UNL     1     -12.190  11.514  70.701  1.00  0.00    -0.378 A  
HETATM    4  C   UNL     1     -11.792  12.640  69.986  1.00  0.00    -0.358 A  
HETATM    5  C   UNL     1     -12.211  13.936  70.357  1.00  0.00    -0.438 A  
HETATM    6  C   UNL     1     -13.063  14.072  71.466  1.00  0.00    -0.363 A  
HETATM    7  C   UNL     1     -13.500  12.933  72.157  1.00  0.00    -0.619 A  
HETATM    8  C   UNL     1     -13.061  11.662  71.773  1.00  0.00    -0.487 A  
BRANCH   5   9
HETATM    9  C   UNL     1     -11.750  15.151  69.564  1.00  0.00    -0.327 C  
HETATM   10  H   UNL     1     -10.620  16.747  69.883  1.00  0.00     0.000 HD 
HETATM   11  O   UNL     1     -10.907  15.989  70.378  1.00  0.00    -0.323 OA 
BRANCH   9  12
HETATM   12  C   UNL     1     -11.022  14.801  68.228  1.00  0.00    -0.258 C  
HETATM   13  C   UNL     1     -12.021  14.285  67.184  1.00  0.00    -0.449 C  
HETATM   14  N   UNL     1     -10.307  15.950  67.627  1.00  0.00    -0.274 NA 
HETATM   15  H1  UNL     1      -9.831  15.722  66.754  1.00  0.00     0.000 HD 
HETATM   16  H2  UNL     1      -9.655  16.361  68.296  1.00  0.00     0.000 HD 
ENDBRANCH   9  12
ENDBRANCH   5   9
BRANCH   6  17
HETATM   17  O   UNL     1     -13.463  15.344  71.790  1.00  0.00    -0.419 OA 
HETATM   18  C   UNL     1     -13.253  15.722  73.147  1.00  0.00    -0.591 C  
ENDBRANCH   6  17
ENDBRANCH   2   3
TORSDOF 4
ENDMDL
MODEL       32
REMARK 921   NORMALIZED FREE ENERGY PREDICTED BY IDOCK:   -4.67 KCAL/MOL
REMARK 922        TOTAL FREE ENERGY PREDICTED BY IDOCK:   -5.90 KCAL/MOL
REMARK 923 INTER-LIGAND FREE ENERGY PREDICTED BY IDOCK:   -5.61 KCAL/MOL
REMARK 924 INTRA-LIGAND FREE ENERGY PREDICTED BY IDOCK:   -0.29 KCAL/MOL
REMARK 927      BINDING AFFINITY PREDICTED BY RF-SCORE:    0.00 PKD
ROOT
HETATM    1  C   UNL     1     -11.858  13.839  66.011  1.00  0.00    -0.390 C  
HETATM    2  O   UNL     1     -11.019  13.140  66.925  1.00  0.00    -0.269 OA 
ENDROOT
BRANCH   2   3
HETATM    3  C   UNL     1     -11.495  13.045  68.205  1.00  0.00    -0.312 A  
HETATM    4  C   UNL     1     -11.566  11.863  68.938  1.00  0.00    -0.370 A  
HETATM    5  C   UNL     1     -12.087  11.839  70.250  1.00  0.00    -0.426 A  
HETATM    6  C   UNL     1     -12.524  13.047  70.820  1.00  0.00    -0.302 A  
HETATM    7  C   UNL     1     -12.408  14.243  70.097  1.00  0.00    -0.413 A  
HETATM    8  C   UNL     1     -11.897  14.236  68.796  1.00  0.00    -0.377 A  
BRANCH   5   9
HETATM    9  C   UNL     1     -12.165  10.530  71.024  1.00  0.00    -0.400 C  
HETATM   10  H   UNL     1     -13.509   9.109  71.338  1.00  0.00     0.000 HD 
HETATM   11  O   UNL     1     -13.461   9.926  70.855  1.00  0.00    -0.334 OA 
BRANCH   9  12
HETATM   12  C   UNL     1     -11.046   9.505  70.655  1.00  0.00    -0.300 C  
HETATM   13  C   UNL     1     -10.509   8.810  71.912  1.00  0.00    -0.423 C  
HETATM   14  N   UNL     1     -11.500   8.447  69.722  1.00  0.00    -0.431 NA 
HETATM   15  H1  UNL     1     -10.770   7.777  69.481  1.00  0.00     0.000 HD 
HETATM   16  H2  UNL     1     -11.906   8.856  68.881  1.00  0.00     0.000 HD 
ENDBRANCH   9  12
ENDBRANCH   5   9
BRANCH   6  17
HETATM   17  O   UNL     1     -13.010  12.990  72.101  1.00  0.00    -0.321 OA 
HETATM   18  C   UNL     1     -13.653  14.174  72.562  1.00  0.00    -0.541 C  
ENDBRANCH   6  17
ENDBRANCH   2   3
TORSDOF 4
ENDMDL
MODEL       33
REMARK 921   NORMALIZED FREE ENERGY PREDICTED BY IDOCK:   -4.65 KCAL/MOL
REMARK 922        TOTAL FREE ENERGY PREDICTED BY IDOCK:   -5.86 KCAL/MOL
REMARK 923 INTER-LIGAND FREE ENERGY PREDICTED BY IDOCK:   -5.68 KCAL/MOL
REMARK 924 INTRA-LIGAND FREE ENERGY PREDICTED BY IDOCK:   -0.18 KCAL/MOL
REMARK 927      BINDING AFFINITY PREDICTED BY RF-SCORE:    0.00 PKD
ROOT
HETATM    1  C   UNL     1      -9.787  11.930  63.206  1.00  0.00    -0.325 C  
HETATM    2  O   UNL     1     -11.055  12.530  63.447  1.00  0.00    -0.459 OA 
ENDROOT
BRANCH   2   3
HETATM    3  C   UNL     1     -11.178  13.183  64.645  1.00  0.00    -0.340 A  
HETATM    4  C   UNL     1     -10.493  14.346  64.987  1.00  0.00    -0.454 A  
HETATM    5  C   UNL     1     -10.657  14.954  66.250  1.00  0.00    -0.309 A  
HETATM    6  C   UNL     1     -11.549  14.368  67.165  1.00  0.00    -0.386 A  
HETATM    7  C   UNL     1     -12.272  13.223  66.801  1.00  0.00    -0.340 A  
HETATM    8  C   UNL     1     -12.082  12.637  65.546  1.00  0.00    -0.515 A  
BRANCH   5   9
HETATM    9  C   UNL     1      -9.886  16.219  66.601  1.00  0.00    -0.253 C  
HETATM   10  H   UNL     1      -8.121  17.008  66.168  1.00  0.00     0.000 HD 
HETATM   11  O   UNL     1      -8.602  16.219  65.949  1.00  0.00    -0.364 OA 
BRANCH   9  12
HETATM   12  C   UNL     1     -10.649  17.542  66.277  1.00  0.00    -0.198 C  
HETATM   13  C   UNL     1      -9.780  18.764  66.600  1.00  0.00    -0.370 C  
HETATM   14  N   UNL     1     -11.062  17.652  64.859  1.00  0.00    -0.717 NA 
HETATM   15  H1  UNL     1     -11.561  18.516  64.647  1.00  0.00     0.000 HD 
HETATM   16  H2  UNL     1     -11.612  16.840  64.578  1.00  0.00     0.000 HD 
ENDBRANCH   9  12
ENDBRANCH   5   9
BRANCH   6  17
HETATM   17  O   UNL     1     -11.695  14.994  68.377  1.00  0.00    -0.324 OA 
HETATM   18  C   UNL     1     -12.100  14.152  69.452  1.00  0.00    -0.328 C  
ENDBRANCH   6  17
ENDBRANCH   2   3
TORSDOF 4
ENDMDL
MODEL       34
REMARK 921   NORMALIZED FREE ENERGY PREDICTED BY IDOCK:   -4.64 KCAL/MOL
REMARK 922        TOTAL FREE ENERGY PREDICTED BY IDOCK:   -5.86 KCAL/MOL
REMARK 923 INTER-LIGAND FREE ENERGY PREDICTED BY IDOCK:   -5.51 KCAL/MOL
REMARK 924 INTRA-LIGAND FREE ENERGY PREDICTED BY IDOCK:   -0.34 KCAL/MOL
REMARK 927      BINDING AFFINITY PREDICTED BY RF-SCORE:    0.00 PKD
ROOT
HETATM    1  C   UNL     1     -13.402   9.672  71.471  1.00  0.00    -0.388 C  
HETATM    2  O   UNL     1     -12.107  10.217  71.240  1.00  0.00    -0.355 OA 
ENDROOT
BRANCH   2   3
HETATM    3  C   UNL     1     -12.052  11.238  70.328  1.00  0.00    -0.373 A  
HETATM    4  C   UNL     1     -12.306  12.576  70.621  1.00  0.00    -0.369 A  
HETATM    5  C   UNL     1     -12.249  13.573  69.623  1.00  0.00    -0.304 A  
HETATM    6  C   UNL     1     -11.911  13.190  68.313  1.00  0.00    -0.349 A  
HETATM    7  C   UNL     1     -11.611  11.850  68.031  1.00  0.00    -0.401 A  
HETATM    8  C   UNL     1     -11.684  10.883  69.037  1.00  0.00    -0.391 A  
BRANCH   5   9
HETATM    9  C   UNL     1     -12.543  15.025  69.968  1.00  0.00    -0.217 C  
HETATM   10  H   UNL     1     -13.931  16.026  70.968  1.00  0.00     0.000 HD 
HETATM   11  O   UNL     1     -13.747  15.119  70.753  1.00  0.00    -0.324 OA 
BRANCH   9  12
HETATM   12  C   UNL     1     -11.373  15.757  70.699  1.00  0.00    -0.388 C  
HETATM   13  C   UNL     1     -10.749  16.825  69.792  1.00  0.00    -0.187 C  
HETATM   14  N   UNL     1     -11.787  16.426  71.953  1.00  0.00    -0.658 NA 
HETATM   15  H1  UNL     1     -11.022  16.903  72.431  1.00  0.00     0.000 HD 
HETATM   16  H2  UNL     1     -12.247  15.766  72.580  1.00  0.00     0.000 HD 
ENDBRANCH   9  12
ENDBRANCH   5   9
BRANCH   6  17
HETATM   17  O   UNL     1     -11.849  14.186  67.372  1.00  0.00    -0.374 OA 
HETATM   18  C   UNL     1     -12.485  13.892  66.131  1.00  0.00    -0.436 C  
ENDBRANCH   6  17
ENDBRANCH   2   3
TORSDOF 4
ENDMDL
MODEL       35
REMARK 921   NORMALIZED FREE ENERGY PREDICTED BY IDOCK:   -4.61 KCAL/MOL
REMARK 922        TOTAL FREE ENERGY PREDICTED BY IDOCK:   -5.82 KCAL/MOL
REMARK 923 INTER-LIGAND FREE ENERGY PREDICTED BY IDOCK:   -5.53 KCAL/MOL
REMARK 924 INTRA-LIGAND FREE ENERGY PREDICTED BY IDOCK:   -0.29 KCAL/MOL
REMARK 927      BINDING AFFINITY PREDICTED BY RF-SCORE:    0.00 PKD
ROOT
HETATM    1  C   UNL     1     -12.028  13.317  64.053  1.00  0.00    -0.465 C  
HETATM    2  O   UNL     1     -10.908  14.053  64.534  1.00  0.00    -0.400 OA 
ENDROOT
BRANCH   2   3
HETATM    3  C   UNL     1     -11.050  14.588  65.787  1.00  0.00    -0.324 A  
HETATM    4  C   UNL     1     -10.494  15.796  66.200  1.00  0.00    -0.326 A  
HETATM    5  C   UNL     1     -10.668  16.276  67.516  1.00  0.00    -0.300 A  
HETATM    6  C   UNL     1     -11.436  15.512  68.412  1.00  0.00    -0.363 A  
HETATM    7  C   UNL     1     -12.033  14.319  67.980  1.00  0.00    -0.353 A  
HETATM    8  C   UNL     1     -11.836  13.863  66.673  1.00  0.00    -0.447 A  
BRANCH   5   9
HETATM    9  C   UNL     1     -10.038  17.594  67.945  1.00  0.00    -0.345 C  
HETATM   10  H   UNL     1      -8.501  18.174  69.052  1.00  0.00     0.000 HD 
HETATM   11  O   UNL     1      -8.894  17.352  68.785  1.00  0.00    -0.274 OA 
BRANCH   9  12
HETATM   12  C   UNL     1      -9.639  18.525  66.757  1.00  0.00    -0.321 C  
HETATM   13  C   UNL     1     -10.604  19.712  66.649  1.00  0.00    -0.599 C  
HETATM   14  N   UNL     1      -8.269  19.076  66.872  1.00  0.00    -0.266 NA 
HETATM   15  H1  UNL     1      -8.009  19.684  66.096  1.00  0.00     0.000 HD 
HETATM   16  H2  UNL     1      -7.587  18.327  66.988  1.00  0.00     0.000 HD 
ENDBRANCH   9  12
ENDBRANCH   5   9
BRANCH   6  17
HETATM   17  O   UNL     1     -11.597  16.015  69.677  1.00  0.00    -0.326 OA 
HETATM   18  C   UNL     1     -12.579  15.359  70.474  1.00  0.00    -0.423 C  
ENDBRANCH   6  17
ENDBRANCH   2   3
TORSDOF 4
ENDMDL
MODEL       36
REMARK 921   NORMALIZED FREE ENERGY PREDICTED BY IDOCK:   -4.55 KCAL/MOL
REMARK 922        TOTAL FREE ENERGY PREDICTED BY IDOCK:   -5.74 KCAL/MOL
REMARK 923 INTER-LIGAND FREE ENERGY PREDICTED BY IDOCK:   -5.44 KCAL/MOL
REMARK 924 INTRA-LIGAND FREE ENERGY PREDICTED BY IDOCK:   -0.30 KCAL/MOL
REMARK 927      BINDING AFFINITY PREDICTED BY RF-SCORE:    0.00 PKD
ROOT
HETATM    1  C   UNL     1     -12.770  11.990  63.570  1.00  0.00    -0.443 C  
HETATM    2  O   UNL     1     -13.235  12.707  64.709  1.00  0.00    -0.846 OA 
ENDROOT
BRANCH   2   3
HETATM    3  C   UNL     1     -12.377  13.654  65.199  1.00  0.00    -0.452 A  
HETATM    4  C   UNL     1     -11.758  13.594  66.445  1.00  0.00    -0.403 A  
HETATM    5  C   UNL     1     -10.897  14.620  66.892  1.00  0.00    -0.305 A  
HETATM    6  C   UNL     1     -10.657  15.711  66.039  1.00  0.00    -0.328 A  
HETATM    7  C   UNL     1     -11.245  15.747  64.767  1.00  0.00    -0.375 A  
HETATM    8  C   UNL     1     -12.101  14.722  64.355  1.00  0.00    -0.457 A  
BRANCH   5   9
HETATM    9  C   UNL     1     -10.244  14.534  68.264  1.00  0.00    -0.234 C  
HETATM   10  H   UNL     1     -10.715  13.823  70.052  1.00  0.00     0.000 HD 
HETATM   11  O   UNL     1     -11.123  13.876  69.196  1.00  0.00    -0.248 OA 
BRANCH   9  12
HETATM   12  C   UNL     1      -8.848  13.834  68.263  1.00  0.00    -0.185 C  
HETATM   13  C   UNL     1      -9.000  12.318  68.084  1.00  0.00    -0.192 C  
HETATM   14  N   UNL     1      -7.945  14.319  67.194  1.00  0.00    -0.349 NA 
HETATM   15  H1  UNL     1      -7.034  13.863  67.193  1.00  0.00     0.000 HD 
HETATM   16  H2  UNL     1      -7.841  15.333  67.241  1.00  0.00     0.000 HD 
ENDBRANCH   9  12
ENDBRANCH   5   9
BRANCH   6  17
HETATM   17  O   UNL     1      -9.804  16.682  66.498  1.00  0.00    -0.253 OA 
HETATM   18  C   UNL     1     -10.377  17.979  66.641  1.00  0.00    -0.371 C  
ENDBRANCH   6  17
ENDBRANCH   2   3
TORSDOF 4
ENDMDL
MODEL       37
REMARK 921   NORMALIZED FREE ENERGY PREDICTED BY IDOCK:   -4.54 KCAL/MOL
REMARK 922        TOTAL FREE ENERGY PREDICTED BY IDOCK:   -5.73 KCAL/MOL
REMARK 923 INTER-LIGAND FREE ENERGY PREDICTED BY IDOCK:   -5.41 KCAL/MOL
REMARK 924 INTRA-LIGAND FREE ENERGY PREDICTED BY IDOCK:   -0.32 KCAL/MOL
REMARK 927      BINDING AFFINITY PREDICTED BY RF-SCORE:    0.00 PKD
ROOT
HETATM    1  C   UNL     1     -13.417  13.855  72.393  1.00  0.00    -0.560 C  
HETATM    2  O   UNL     1     -13.464  14.838  71.365  1.00  0.00    -0.360 OA 
ENDROOT
BRANCH   2   3
HETATM    3  C   UNL     1     -12.400  14.839  70.502  1.00  0.00    -0.337 A  
HETATM    4  C   UNL     1     -12.366  14.160  69.287  1.00  0.00    -0.206 A  
HETATM    5  C   UNL     1     -11.224  14.192  68.456  1.00  0.00    -0.285 A  
HETATM    6  C   UNL     1     -10.113  14.943  68.875  1.00  0.00    -0.236 A  
HETATM    7  C   UNL     1     -10.167  15.663  70.077  1.00  0.00    -0.277 A  
HETATM    8  C   UNL     1     -11.307  15.606  70.883  1.00  0.00    -0.417 A  
BRANCH   5   9
HETATM    9  C   UNL     1     -11.210  13.430  67.139  1.00  0.00    -0.302 C  
HETATM   10  H   UNL     1     -11.953  11.733  66.436  1.00  0.00     0.000 HD 
HETATM   11  O   UNL     1     -11.962  12.208  67.258  1.00  0.00    -0.573 OA 
BRANCH   9  12
HETATM   12  C   UNL     1     -11.726  14.257  65.919  1.00  0.00    -0.372 C  
HETATM   13  C   UNL     1     -10.669  14.307  64.809  1.00  0.00    -0.435 C  
HETATM   14  N   UNL     1     -12.970  13.716  65.324  1.00  0.00    -0.737 NA 
HETATM   15  H1  UNL     1     -13.308  14.256  64.527  1.00  0.00     0.000 HD 
HETATM   16  H2  UNL     1     -13.699  13.622  66.031  1.00  0.00     0.000 HD 
ENDBRANCH   9  12
ENDBRANCH   5   9
BRANCH   6  17
HETATM   17  O   UNL     1      -9.027  14.964  68.037  1.00  0.00    -0.166 OA 
HETATM   18  C   UNL     1      -7.864  14.306  68.530  1.00  0.00    -0.143 C  
ENDBRANCH   6  17
ENDBRANCH   2   3
TORSDOF 4
ENDMDL
MODEL       38
REMARK 921   NORMALIZED FREE ENERGY PREDICTED BY IDOCK:   -4.53 KCAL/MOL
REMARK 922        TOTAL FREE ENERGY PREDICTED BY IDOCK:   -5.72 KCAL/MOL
REMARK 923 INTER-LIGAND FREE ENERGY PREDICTED BY IDOCK:   -5.51 KCAL/MOL
REMARK 924 INTRA-LIGAND FREE ENERGY PREDICTED BY IDOCK:   -0.21 KCAL/MOL
REMARK 927      BINDING AFFINITY PREDICTED BY RF-SCORE:    0.00 PKD
ROOT
HETATM    1  C   UNL     1      -8.186  10.600  66.214  1.00  0.00    -0.153 C  
HETATM    2  O   UNL     1      -9.470  10.546  66.826  1.00  0.00    -0.158 OA 
ENDROOT
BRANCH   2   3
HETATM    3  C   UNL     1     -10.011  11.757  67.166  1.00  0.00    -0.203 A  
HETATM    4  C   UNL     1      -9.963  12.898  66.368  1.00  0.00    -0.267 A  
HETATM    5  C   UNL     1     -10.529  14.119  66.793  1.00  0.00    -0.277 A  
HETATM    6  C   UNL     1     -11.163  14.163  68.046  1.00  0.00    -0.281 A  
HETATM    7  C   UNL     1     -11.250  13.002  68.828  1.00  0.00    -0.325 A  
HETATM    8  C   UNL     1     -10.673  11.808  68.385  1.00  0.00    -0.249 A  
BRANCH   5   9
HETATM    9  C   UNL     1     -10.451  15.354  65.905  1.00  0.00    -0.340 C  
HETATM   10  H   UNL     1      -9.031  16.512  65.154  1.00  0.00     0.000 HD 
HETATM   11  O   UNL     1      -9.079  15.742  65.707  1.00  0.00    -0.308 OA 
BRANCH   9  12
HETATM   12  C   UNL     1     -11.163  15.191  64.525  1.00  0.00    -0.272 C  
HETATM   13  C   UNL     1     -12.468  14.399  64.676  1.00  0.00    -0.364 C  
HETATM   14  N   UNL     1     -11.500  16.481  63.880  1.00  0.00    -1.599 NA 
HETATM   15  H1  UNL     1     -11.965  16.375  62.978  1.00  0.00     0.000 HD 
HETATM   16  H2  UNL     1     -10.671  17.068  63.791  1.00  0.00     0.000 HD 
ENDBRANCH   9  12
ENDBRANCH   5   9
BRANCH   6  17
HETATM   17  O   UNL     1     -11.715  15.362  68.421  1.00  0.00    -0.352 OA 
HETATM   18  C   UNL     1     -11.969  15.506  69.815  1.00  0.00    -0.364 C  
ENDBRANCH   6  17
ENDBRANCH   2   3
TORSDOF 4
ENDMDL
MODEL       39
REMARK 921   NORMALIZED FREE ENERGY PREDICTED BY IDOCK:   -4.52 KCAL/MOL
REMARK 922        TOTAL FREE ENERGY PREDICTED BY IDOCK:   -5.70 KCAL/MOL
REMARK 923 INTER-LIGAND FREE ENERGY PREDICTED BY IDOCK:   -5.36 KCAL/MOL
REMARK 924 INTRA-LIGAND FREE ENERGY PREDICTED BY IDOCK:   -0.34 KCAL/MOL
REMARK 927      BINDING AFFINITY PREDICTED BY RF-SCORE:    0.00 PKD
ROOT
HETATM    1  C   UNL     1     -12.711  13.683  65.057  1.00  0.00    -0.336 C  
HETATM    2  O   UNL     1     -11.993  14.835  64.628  1.00  0.00    -0.434 OA 
ENDROOT
BRANCH   2   3
HETATM    3  C   UNL     1     -10.898  15.161  65.384  1.00  0.00    -0.381 A  
HETATM    4  C   UNL     1     -10.473  16.461  65.642  1.00  0.00    -0.364 A  
HETATM    5  C   UNL     1      -9.321  16.721  66.417  1.00  0.00    -0.305 A  
HETATM    6  C   UNL     1      -8.610  15.629  66.945  1.00  0.00    -0.248 A  
HETATM    7  C   UNL     1      -9.067  14.323  66.722  1.00  0.00    -0.269 A  
HETATM    8  C   UNL     1     -10.205  14.095  65.943  1.00  0.00    -0.332 A  
BRANCH   5   9
HETATM    9  C   UNL     1      -8.872  18.152  66.672  1.00  0.00    -0.275 C  
HETATM   10  H   UNL     1      -7.618  19.447  65.849  1.00  0.00     0.000 HD 
HETATM   11  O   UNL     1      -7.899  18.554  65.690  1.00  0.00    -0.491 OA 
BRANCH   9  12
HETATM   12  C   UNL     1     -10.039  19.188  66.721  1.00  0.00    -0.381 C  
HETATM   13  C   UNL     1     -10.358  19.581  68.169  1.00  0.00    -0.550 C  
HETATM   14  N   UNL     1      -9.753  20.435  65.975  1.00  0.00    -0.666 NA 
HETATM   15  H1  UNL     1     -10.516  21.112  66.006  1.00  0.00     0.000 HD 
HETATM   16  H2  UNL     1      -9.494  20.228  65.010  1.00  0.00     0.000 HD 
ENDBRANCH   9  12
ENDBRANCH   5   9
BRANCH   6  17
HETATM   17  O   UNL     1      -7.506  15.918  67.705  1.00  0.00    -0.124 OA 
HETATM   18  C   UNL     1      -7.635  15.643  69.097  1.00  0.00    -0.206 C  
ENDBRANCH   6  17
ENDBRANCH   2   3
TORSDOF 4
ENDMDL
MODEL       40
REMARK 921   NORMALIZED FREE ENERGY PREDICTED BY IDOCK:   -4.51 KCAL/MOL
REMARK 922        TOTAL FREE ENERGY PREDICTED BY IDOCK:   -5.69 KCAL/MOL
REMARK 923 INTER-LIGAND FREE ENERGY PREDICTED BY IDOCK:   -5.38 KCAL/MOL
REMARK 924 INTRA-LIGAND FREE ENERGY PREDICTED BY IDOCK:   -0.31 KCAL/MOL
REMARK 927      BINDING AFFINITY PREDICTED BY RF-SCORE:    0.00 PKD
ROOT
HETATM    1  C   UNL     1     -11.275   5.954  72.213  1.00  0.00    -0.291 C  
HETATM    2  O   UNL     1     -12.515   6.611  71.974  1.00  0.00    -0.325 OA 
ENDROOT
BRANCH   2   3
HETATM    3  C   UNL     1     -12.426   7.946  71.681  1.00  0.00    -0.319 A  
HETATM    4  C   UNL     1     -11.456   8.513  70.859  1.00  0.00    -0.302 A  
HETATM    5  C   UNL     1     -11.415   9.903  70.616  1.00  0.00    -0.411 A  
HETATM    6  C   UNL     1     -12.395  10.716  71.213  1.00  0.00    -0.383 A  
HETATM    7  C   UNL     1     -13.398  10.136  72.003  1.00  0.00    -0.492 A  
HETATM    8  C   UNL     1     -13.408   8.758  72.233  1.00  0.00    -0.460 A  
BRANCH   5   9
HETATM    9  C   UNL     1     -10.336  10.498  69.723  1.00  0.00    -0.166 C  
HETATM   10  H   UNL     1      -8.423  10.154  69.335  1.00  0.00     0.000 HD 
HETATM   11  O   UNL     1      -9.097   9.783  69.892  1.00  0.00    -0.208 OA 
BRANCH   9  12
HETATM   12  C   UNL     1     -10.718  10.551  68.210  1.00  0.00    -0.229 C  
HETATM   13  C   UNL     1     -10.532   9.177  67.554  1.00  0.00    -0.335 C  
HETATM   14  N   UNL     1     -12.117  10.973  67.969  1.00  0.00    -0.727 NA 
HETATM   15  H1  UNL     1     -12.367  11.007  66.981  1.00  0.00     0.000 HD 
HETATM   16  H2  UNL     1     -12.308  11.867  68.421  1.00  0.00     0.000 HD 
ENDBRANCH   9  12
ENDBRANCH   5   9
BRANCH   6  17
HETATM   17  O   UNL     1     -12.335  12.059  70.943  1.00  0.00    -0.373 OA 
HETATM   18  C   UNL     1     -13.156  12.883  71.766  1.00  0.00    -0.360 C  
ENDBRANCH   6  17
ENDBRANCH   2   3
TORSDOF 4
ENDMDL
MODEL       41
REMARK 921   NORMALIZED FREE ENERGY PREDICTED BY IDOCK:   -4.46 KCAL/MOL
REMARK 922        TOTAL FREE ENERGY PREDICTED BY IDOCK:   -5.64 KCAL/MOL
REMARK 923 INTER-LIGAND FREE ENERGY PREDICTED BY IDOCK:   -5.30 KCAL/MOL
REMARK 924 INTRA-LIGAND FREE ENERGY PREDICTED BY IDOCK:   -0.33 KCAL/MOL
REMARK 927      BINDING AFFINITY PREDICTED BY RF-SCORE:    0.00 PKD
ROOT
HETATM    1  C   UNL     1     -13.469  15.435  72.652  1.00  0.00    -0.529 C  
HETATM    2  O   UNL     1     -12.141  15.711  72.219  1.00  0.00    -0.364 OA 
ENDROOT
BRANCH   2   3
HETATM    3  C   UNL     1     -11.892  15.468  70.895  1.00  0.00    -0.371 A  
HETATM    4  C   UNL     1     -11.218  16.338  70.043  1.00  0.00    -0.324 A  
HETATM    5  C   UNL     1     -11.014  16.027  68.681  1.00  0.00    -0.323 A  
HETATM    6  C   UNL     1     -11.495  14.799  68.195  1.00  0.00    -0.323 A  
HETATM    7  C   UNL     1     -12.134  13.904  69.066  1.00  0.00    -0.365 A  
HETATM    8  C   UNL     1     -12.330  14.243  70.408  1.00  0.00    -0.419 A  
BRANCH   5   9
HETATM    9  C   UNL     1     -10.284  17.003  67.769  1.00  0.00    -0.312 C  
HETATM   10  H   UNL     1     -10.128  18.969  67.578  1.00  0.00     0.000 HD 
HETATM   11  O   UNL     1     -10.583  18.360  68.147  1.00  0.00    -0.356 OA 
BRANCH   9  12
HETATM   12  C   UNL     1      -8.737  16.793  67.719  1.00  0.00    -0.210 C  
HETATM   13  C   UNL     1      -8.273  16.518  66.283  1.00  0.00    -0.360 C  
HETATM   14  N   UNL     1      -7.967  17.955  68.219  1.00  0.00    -0.281 NA 
HETATM   15  H1  UNL     1      -6.957  17.818  68.187  1.00  0.00     0.000 HD 
HETATM   16  H2  UNL     1      -8.266  18.208  69.161  1.00  0.00     0.000 HD 
ENDBRANCH   9  12
ENDBRANCH   5   9
BRANCH   6  17
HETATM   17  O   UNL     1     -11.267  14.523  66.871  1.00  0.00    -0.316 OA 
HETATM   18  C   UNL     1     -12.282  13.762  66.223  1.00  0.00    -0.447 C  
ENDBRANCH   6  17
ENDBRANCH   2   3
TORSDOF 4
ENDMDL
MODEL       42
REMARK 921   NORMALIZED FREE ENERGY PREDICTED BY IDOCK:   -4.46 KCAL/MOL
REMARK 922        TOTAL FREE ENERGY PREDICTED BY IDOCK:   -5.64 KCAL/MOL
REMARK 923 INTER-LIGAND FREE ENERGY PREDICTED BY IDOCK:   -5.29 KCAL/MOL
REMARK 924 INTRA-LIGAND FREE ENERGY PREDICTED BY IDOCK:   -0.35 KCAL/MOL
REMARK 927      BINDING AFFINITY PREDICTED BY RF-SCORE:    0.00 PKD
ROOT
HETATM    1  C   UNL     1      -7.877   9.728  63.468  1.00  0.00    -0.140 C  
HETATM    2  O   UNL     1      -7.886   9.511  64.875  1.00  0.00    -0.110 OA 
ENDROOT
BRANCH   2   3
HETATM    3  C   UNL     1      -8.959  10.037  65.544  1.00  0.00    -0.174 A  
HETATM    4  C   UNL     1      -9.638  11.193  65.167  1.00  0.00    -0.273 A  
HETATM    5  C   UNL     1     -10.727  11.687  65.918  1.00  0.00    -0.328 A  
HETATM    6  C   UNL     1     -11.131  10.973  67.061  1.00  0.00    -0.244 A  
HETATM    7  C   UNL     1     -10.475   9.785  67.412  1.00  0.00    -0.319 A  
HETATM    8  C   UNL     1      -9.394   9.324  66.654  1.00  0.00    -0.219 A  
BRANCH   5   9
HETATM    9  C   UNL     1     -11.443  12.960  65.491  1.00  0.00    -0.326 C  
HETATM   10  H   UNL     1     -11.096  14.909  65.553  1.00  0.00     0.000 HD 
HETATM   11  O   UNL     1     -10.649  14.115  65.820  1.00  0.00    -0.283 OA 
BRANCH   9  12
HETATM   12  C   UNL     1     -11.833  12.994  63.979  1.00  0.00    -0.445 C  
HETATM   13  C   UNL     1     -12.881  11.920  63.663  1.00  0.00    -0.429 C  
HETATM   14  N   UNL     1     -12.386  14.296  63.542  1.00  0.00    -1.122 NA 
HETATM   15  H1  UNL     1     -12.641  14.319  62.555  1.00  0.00     0.000 HD 
HETATM   16  H2  UNL     1     -11.744  15.056  63.766  1.00  0.00     0.000 HD 
ENDBRANCH   9  12
ENDBRANCH   5   9
BRANCH   6  17
HETATM   17  O   UNL     1     -12.201  11.473  67.758  1.00  0.00    -0.560 OA 
HETATM   18  C   UNL     1     -11.890  12.039  69.028  1.00  0.00    -0.315 C  
ENDBRANCH   6  17
ENDBRANCH   2   3
TORSDOF 4
ENDMDL
MODEL       43
REMARK 921   NORMALIZED FREE ENERGY PREDICTED BY IDOCK:   -4.42 KCAL/MOL
REMARK 922        TOTAL FREE ENERGY PREDICTED BY IDOCK:   -5.58 KCAL/MOL
REMARK 923 INTER-LIGAND FREE ENERGY PREDICTED BY IDOCK:   -5.54 KCAL/MOL
REMARK 924 INTRA-LIGAND FREE ENERGY PREDICTED BY IDOCK:   -0.04 KCAL/MOL
REMARK 927      BINDING AFFINITY PREDICTED BY RF-SCORE:    0.00 PKD
ROOT
HETATM    1  C   UNL     1      -8.845   9.633  62.481  1.00  0.00    -0.249 C  
HETATM    2  O   UNL     1      -8.699   9.226  63.837  1.00  0.00    -0.207 OA 
ENDROOT
BRANCH   2   3
HETATM    3  C   UNL     1      -9.487   9.891  64.739  1.00  0.00    -0.291 A  
HETATM    4  C   UNL     1     -10.104  11.116  64.499  1.00  0.00    -0.364 A  
HETATM    5  C   UNL     1     -10.889  11.752  65.485  1.00  0.00    -0.348 A  
HETATM    6  C   UNL     1     -11.053  11.112  66.726  1.00  0.00    -0.214 A  
HETATM    7  C   UNL     1     -10.468   9.857  66.949  1.00  0.00    -0.284 A  
HETATM    8  C   UNL     1      -9.689   9.255  65.957  1.00  0.00    -0.359 A  
BRANCH   5   9
HETATM    9  C   UNL     1     -11.542  13.097  65.200  1.00  0.00    -0.318 C  
HETATM   10  H   UNL     1     -13.382  13.797  64.974  1.00  0.00     0.000 HD 
HETATM   11  O   UNL     1     -12.975  12.958  65.152  1.00  0.00    -0.758 OA 
BRANCH   9  12
HETATM   12  C   UNL     1     -11.150  14.222  66.209  1.00  0.00    -0.323 C  
HETATM   13  C   UNL     1     -10.844  15.532  65.471  1.00  0.00    -0.372 C  
HETATM   14  N   UNL     1     -12.203  14.512  67.209  1.00  0.00    -0.581 NA 
HETATM   15  H1  UNL     1     -11.947  15.247  67.868  1.00  0.00     0.000 HD 
HETATM   16  H2  UNL     1     -12.476  13.663  67.704  1.00  0.00     0.000 HD 
ENDBRANCH   9  12
ENDBRANCH   5   9
BRANCH   6  17
HETATM   17  O   UNL     1     -11.833  11.751  67.655  1.00  0.00    -0.558 OA 
HETATM   18  C   UNL     1     -11.577  11.399  69.012  1.00  0.00    -0.317 C  
ENDBRANCH   6  17
ENDBRANCH   2   3
TORSDOF 4
ENDMDL
MODEL       44
REMARK 921   NORMALIZED FREE ENERGY PREDICTED BY IDOCK:   -4.39 KCAL/MOL
REMARK 922        TOTAL FREE ENERGY PREDICTED BY IDOCK:   -5.55 KCAL/MOL
REMARK 923 INTER-LIGAND FREE ENERGY PREDICTED BY IDOCK:   -5.51 KCAL/MOL
REMARK 924 INTRA-LIGAND FREE ENERGY PREDICTED BY IDOCK:   -0.05 KCAL/MOL
REMARK 927      BINDING AFFINITY PREDICTED BY RF-SCORE:    0.00 PKD
ROOT
HETATM    1  C   UNL     1     -13.448  14.208  72.387  1.00  0.00    -0.517 C  
HETATM    2  O   UNL     1     -12.405  15.158  72.198  1.00  0.00    -0.319 OA 
ENDROOT
BRANCH   2   3
HETATM    3  C   UNL     1     -11.929  15.262  70.918  1.00  0.00    -0.342 A  
HETATM    4  C   UNL     1     -11.127  16.302  70.453  1.00  0.00    -0.322 A  
HETATM    5  C   UNL     1     -10.689  16.352  69.112  1.00  0.00    -0.317 A  
HETATM    6  C   UNL     1     -11.067  15.313  68.245  1.00  0.00    -0.300 A  
HETATM    7  C   UNL     1     -11.836  14.244  68.727  1.00  0.00    -0.377 A  
HETATM    8  C   UNL     1     -12.263  14.225  70.058  1.00  0.00    -0.417 A  
BRANCH   5   9
HETATM    9  C   UNL     1      -9.824  17.507  68.628  1.00  0.00    -0.338 C  
HETATM   10  H   UNL     1      -7.937  17.777  68.085  1.00  0.00     0.000 HD 
HETATM   11  O   UNL     1      -8.477  17.056  68.387  1.00  0.00    -0.221 OA 
BRANCH   9  12
HETATM   12  C   UNL     1     -10.378  18.230  67.360  1.00  0.00    -0.392 C  
HETATM   13  C   UNL     1     -10.641  19.713  67.652  1.00  0.00    -0.556 C  
HETATM   14  N   UNL     1      -9.466  18.162  66.195  1.00  0.00    -0.504 NA 
HETATM   15  H1  UNL     1      -9.828  18.634  65.367  1.00  0.00     0.000 HD 
HETATM   16  H2  UNL     1      -9.225  17.194  65.982  1.00  0.00     0.000 HD 
ENDBRANCH   9  12
ENDBRANCH   5   9
BRANCH   6  17
HETATM   17  O   UNL     1     -10.611  15.385  66.953  1.00  0.00    -0.297 OA 
HETATM   18  C   UNL     1     -10.473  14.135  66.284  1.00  0.00    -0.286 C  
ENDBRANCH   6  17
ENDBRANCH   2   3
TORSDOF 4
ENDMDL
MODEL       45
REMARK 921   NORMALIZED FREE ENERGY PREDICTED BY IDOCK:   -4.39 KCAL/MOL
REMARK 922        TOTAL FREE ENERGY PREDICTED BY IDOCK:   -5.55 KCAL/MOL
REMARK 923 INTER-LIGAND FREE ENERGY PREDICTED BY IDOCK:   -5.18 KCAL/MOL
REMARK 924 INTRA-LIGAND FREE ENERGY PREDICTED BY IDOCK:   -0.37 KCAL/MOL
REMARK 927      BINDING AFFINITY PREDICTED BY RF-SCORE:    0.00 PKD
ROOT
HETATM    1  C   UNL     1     -10.174  18.119  66.253  1.00  0.00    -0.395 C  
HETATM    2  O   UNL     1     -10.137  16.713  66.030  1.00  0.00    -0.322 OA 
ENDROOT
BRANCH   2   3
HETATM    3  C   UNL     1     -10.716  15.948  67.006  1.00  0.00    -0.292 A  
HETATM    4  C   UNL     1     -10.979  14.585  66.893  1.00  0.00    -0.316 A  
HETATM    5  C   UNL     1     -11.597  13.863  67.937  1.00  0.00    -0.377 A  
HETATM    6  C   UNL     1     -11.934  14.549  69.117  1.00  0.00    -0.309 A  
HETATM    7  C   UNL     1     -11.627  15.911  69.246  1.00  0.00    -0.372 A  
HETATM    8  C   UNL     1     -11.022  16.602  68.192  1.00  0.00    -0.327 A  
BRANCH   5   9
HETATM    9  C   UNL     1     -11.883  12.376  67.781  1.00  0.00    -0.298 C  
HETATM   10  H   UNL     1     -12.263  11.121  66.296  1.00  0.00     0.000 HD 
HETATM   11  O   UNL     1     -12.084  12.049  66.393  1.00  0.00    -0.610 OA 
BRANCH   9  12
HETATM   12  C   UNL     1     -10.788  11.449  68.394  1.00  0.00    -0.207 C  
HETATM   13  C   UNL     1      -9.389  12.039  68.175  1.00  0.00    -0.199 C  
HETATM   14  N   UNL     1     -10.951  11.224  69.849  1.00  0.00    -0.471 NA 
HETATM   15  H1  UNL     1     -10.236  10.618  70.250  1.00  0.00     0.000 HD 
HETATM   16  H2  UNL     1     -11.884  10.868  70.058  1.00  0.00     0.000 HD 
ENDBRANCH   9  12
ENDBRANCH   5   9
BRANCH   6  17
HETATM   17  O   UNL     1     -12.519  13.814  70.116  1.00  0.00    -0.323 OA 
HETATM   18  C   UNL     1     -12.402  14.364  71.425  1.00  0.00    -0.360 C  
ENDBRANCH   6  17
ENDBRANCH   2   3
TORSDOF 4
ENDMDL
MODEL       46
REMARK 921   NORMALIZED FREE ENERGY PREDICTED BY IDOCK:   -4.38 KCAL/MOL
REMARK 922        TOTAL FREE ENERGY PREDICTED BY IDOCK:   -5.54 KCAL/MOL
REMARK 923 INTER-LIGAND FREE ENERGY PREDICTED BY IDOCK:   -5.37 KCAL/MOL
REMARK 924 INTRA-LIGAND FREE ENERGY PREDICTED BY IDOCK:   -0.17 KCAL/MOL
REMARK 927      BINDING AFFINITY PREDICTED BY RF-SCORE:    0.00 PKD
ROOT
HETATM    1  C   UNL     1      -9.312   8.693  67.430  1.00  0.00    -0.144 C  
HETATM    2  O   UNL     1     -10.680   8.971  67.711  1.00  0.00    -0.229 OA 
ENDROOT
BRANCH   2   3
HETATM    3  C   UNL     1     -10.979  10.290  67.929  1.00  0.00    -0.292 A  
HETATM    4  C   UNL     1     -10.939  11.282  66.952  1.00  0.00    -0.348 A  
HETATM    5  C   UNL     1     -11.243  12.627  67.255  1.00  0.00    -0.346 A  
HETATM    6  C   UNL     1     -11.608  12.951  68.573  1.00  0.00    -0.323 A  
HETATM    7  C   UNL     1     -11.692  11.943  69.544  1.00  0.00    -0.410 A  
HETATM    8  C   UNL     1     -11.376  10.620  69.218  1.00  0.00    -0.346 A  
BRANCH   5   9
HETATM    9  C   UNL     1     -11.180  13.694  66.170  1.00  0.00    -0.302 C  
HETATM   10  H   UNL     1     -10.070  14.074  64.574  1.00  0.00     0.000 HD 
HETATM   11  O   UNL     1     -10.109  13.409  65.251  1.00  0.00    -0.297 OA 
BRANCH   9  12
HETATM   12  C   UNL     1     -12.517  13.887  65.388  1.00  0.00    -0.501 C  
HETATM   13  C   UNL     1     -12.362  14.962  64.304  1.00  0.00    -0.300 C  
HETATM   14  N   UNL     1     -12.997  12.653  64.725  1.00  0.00    -0.867 NA 
HETATM   15  H1  UNL     1     -13.870  12.780  64.214  1.00  0.00     0.000 HD 
HETATM   16  H2  UNL     1     -13.079  11.890  65.397  1.00  0.00     0.000 HD 
ENDBRANCH   9  12
ENDBRANCH   5   9
BRANCH   6  17
HETATM   17  O   UNL     1     -11.911  14.264  68.828  1.00  0.00    -0.325 OA 
HETATM   18  C   UNL     1     -12.218  14.566  70.187  1.00  0.00    -0.342 C  
ENDBRANCH   6  17
ENDBRANCH   2   3
TORSDOF 4
ENDMDL
MODEL       47
REMARK 921   NORMALIZED FREE ENERGY PREDICTED BY IDOCK:   -4.38 KCAL/MOL
REMARK 922        TOTAL FREE ENERGY PREDICTED BY IDOCK:   -5.53 KCAL/MOL
REMARK 923 INTER-LIGAND FREE ENERGY PREDICTED BY IDOCK:   -5.20 KCAL/MOL
REMARK 924 INTRA-LIGAND FREE ENERGY PREDICTED BY IDOCK:   -0.33 KCAL/MOL
REMARK 927      BINDING AFFINITY PREDICTED BY RF-SCORE:    0.00 PKD
ROOT
HETATM    1  C   UNL     1     -13.405  13.382  72.293  1.00  0.00    -0.544 C  
HETATM    2  O   UNL     1     -13.521  11.976  72.102  1.00  0.00    -0.476 OA 
ENDROOT
BRANCH   2   3
HETATM    3  C   UNL     1     -12.676  11.437  71.169  1.00  0.00    -0.377 A  
HETATM    4  C   UNL     1     -12.265  12.084  70.006  1.00  0.00    -0.280 A  
HETATM    5  C   UNL     1     -11.404  11.458  69.079  1.00  0.00    -0.345 A  
HETATM    6  C   UNL     1     -10.949  10.158  69.360  1.00  0.00    -0.245 A  
HETATM    7  C   UNL     1     -11.328   9.527  70.553  1.00  0.00    -0.343 A  
HETATM    8  C   UNL     1     -12.188  10.167  71.449  1.00  0.00    -0.492 A  
BRANCH   5   9
HETATM    9  C   UNL     1     -10.981  12.183  67.810  1.00  0.00    -0.233 C  
HETATM   10  H   UNL     1     -11.604  12.307  65.933  1.00  0.00     0.000 HD 
HETATM   11  O   UNL     1     -11.869  11.854  66.725  1.00  0.00    -0.598 OA 
BRANCH   9  12
HETATM   12  C   UNL     1     -10.881  13.734  67.965  1.00  0.00    -0.249 C  
HETATM   13  C   UNL     1      -9.522  14.244  67.471  1.00  0.00    -0.209 C  
HETATM   14  N   UNL     1     -11.929  14.470  67.221  1.00  0.00    -0.511 NA 
HETATM   15  H1  UNL     1     -11.864  15.483  67.323  1.00  0.00     0.000 HD 
HETATM   16  H2  UNL     1     -12.858  14.140  67.482  1.00  0.00     0.000 HD 
ENDBRANCH   9  12
ENDBRANCH   5   9
BRANCH   6  17
HETATM   17  O   UNL     1     -10.103   9.585  68.445  1.00  0.00    -0.163 OA 
HETATM   18  C   UNL     1      -9.007   8.863  68.998  1.00  0.00    -0.137 C  
ENDBRANCH   6  17
ENDBRANCH   2   3
TORSDOF 4
ENDMDL
MODEL       48
REMARK 921   NORMALIZED FREE ENERGY PREDICTED BY IDOCK:   -4.38 KCAL/MOL
REMARK 922        TOTAL FREE ENERGY PREDICTED BY IDOCK:   -5.53 KCAL/MOL
REMARK 923 INTER-LIGAND FREE ENERGY PREDICTED BY IDOCK:   -5.18 KCAL/MOL
REMARK 924 INTRA-LIGAND FREE ENERGY PREDICTED BY IDOCK:   -0.35 KCAL/MOL
REMARK 927      BINDING AFFINITY PREDICTED BY RF-SCORE:    0.00 PKD
ROOT
HETATM    1  C   UNL     1     -10.674  12.078  64.031  1.00  0.00    -0.375 C  
HETATM    2  O   UNL     1     -11.926  12.335  64.659  1.00  0.00    -0.375 OA 
ENDROOT
BRANCH   2   3
HETATM    3  C   UNL     1     -11.862  12.649  65.990  1.00  0.00    -0.436 A  
HETATM    4  C   UNL     1     -11.592  11.737  67.007  1.00  0.00    -0.321 A  
HETATM    5  C   UNL     1     -11.561  12.130  68.363  1.00  0.00    -0.381 A  
HETATM    6  C   UNL     1     -11.795  13.481  68.673  1.00  0.00    -0.369 A  
HETATM    7  C   UNL     1     -12.022  14.406  67.644  1.00  0.00    -0.378 A  
HETATM    8  C   UNL     1     -12.056  13.986  66.311  1.00  0.00    -0.482 A  
BRANCH   5   9
HETATM    9  C   UNL     1     -11.275  11.109  69.455  1.00  0.00    -0.270 C  
HETATM   10  H   UNL     1     -12.329   9.961  70.677  1.00  0.00     0.000 HD 
HETATM   11  O   UNL     1     -12.508  10.598  69.996  1.00  0.00    -0.317 OA 
BRANCH   9  12
HETATM   12  C   UNL     1     -10.362   9.928  68.999  1.00  0.00    -0.209 C  
HETATM   13  C   UNL     1      -9.181   9.752  69.961  1.00  0.00    -0.266 C  
HETATM   14  N   UNL     1     -11.071   8.629  68.924  1.00  0.00    -0.420 NA 
HETATM   15  H1  UNL     1     -10.474   7.857  68.626  1.00  0.00     0.000 HD 
HETATM   16  H2  UNL     1     -11.894   8.701  68.326  1.00  0.00     0.000 HD 
ENDBRANCH   9  12
ENDBRANCH   5   9
BRANCH   6  17
HETATM   17  O   UNL     1     -11.743  13.832  69.998  1.00  0.00    -0.281 OA 
HETATM   18  C   UNL     1     -12.894  14.507  70.495  1.00  0.00    -0.304 C  
ENDBRANCH   6  17
ENDBRANCH   2   3
TORSDOF 4
ENDMDL
MODEL       49
REMARK 921   NORMALIZED FREE ENERGY PREDICTED BY IDOCK:   -4.36 KCAL/MOL
REMARK 922        TOTAL FREE ENERGY PREDICTED BY IDOCK:   -5.51 KCAL/MOL
REMARK 923 INTER-LIGAND FREE ENERGY PREDICTED BY IDOCK:   -5.74 KCAL/MOL
REMARK 924 INTRA-LIGAND FREE ENERGY PREDICTED BY IDOCK:    0.24 KCAL/MOL
REMARK 927      BINDING AFFINITY PREDICTED BY RF-SCORE:    0.00 PKD
ROOT
HETATM    1  C   UNL     1     -10.117  17.857  66.749  1.00  0.00    -0.349 C  
HETATM    2  O   UNL     1      -9.664  16.998  65.707  1.00  0.00    -0.522 OA 
ENDROOT
BRANCH   2   3
HETATM    3  C   UNL     1     -10.365  15.831  65.560  1.00  0.00    -0.404 A  
HETATM    4  C   UNL     1     -10.165  14.685  66.326  1.00  0.00    -0.302 A  
HETATM    5  C   UNL     1     -10.915  13.510  66.105  1.00  0.00    -0.289 A  
HETATM    6  C   UNL     1     -11.893  13.520  65.094  1.00  0.00    -0.343 A  
HETATM    7  C   UNL     1     -12.124  14.689  64.356  1.00  0.00    -0.481 A  
HETATM    8  C   UNL     1     -11.359  15.836  64.591  1.00  0.00    -0.343 A  
BRANCH   5   9
HETATM    9  C   UNL     1     -10.667  12.268  66.948  1.00  0.00    -0.232 C  
HETATM   10  H   UNL     1     -11.762  10.869  67.826  1.00  0.00     0.000 HD 
HETATM   11  O   UNL     1     -11.917  11.644  67.299  1.00  0.00    -0.627 OA 
BRANCH   9  12
HETATM   12  C   UNL     1      -9.719  11.223  66.280  1.00  0.00    -0.216 C  
HETATM   13  C   UNL     1     -10.382   9.841  66.230  1.00  0.00    -0.235 C  
HETATM   14  N   UNL     1      -9.329  11.579  64.897  1.00  0.00    -0.399 NA 
HETATM   15  H1  UNL     1      -8.709  10.897  64.460  1.00  0.00     0.000 HD 
HETATM   16  H2  UNL     1      -8.917  12.512  64.866  1.00  0.00     0.000 HD 
ENDBRANCH   9  12
ENDBRANCH   5   9
BRANCH   6  17
HETATM   17  O   UNL     1     -12.613  12.367  64.916  1.00  0.00    -0.563 OA 
HETATM   18  C   UNL     1     -12.638  11.863  63.584  1.00  0.00    -0.439 C  
ENDBRANCH   6  17
ENDBRANCH   2   3
TORSDOF 4
ENDMDL
MODEL       50
REMARK 921   NORMALIZED FREE ENERGY PREDICTED BY IDOCK:   -4.30 KCAL/MOL
REMARK 922        TOTAL FREE ENERGY PREDICTED BY IDOCK:   -5.43 KCAL/MOL
REMARK 923 INTER-LIGAND FREE ENERGY PREDICTED BY IDOCK:   -5.10 KCAL/MOL
REMARK 924 INTRA-LIGAND FREE ENERGY PREDICTED BY IDOCK:   -0.33 KCAL/MOL
REMARK 927      BINDING AFFINITY PREDICTED BY RF-SCORE:    0.00 PKD
ROOT
HETATM    1  C   UNL     1     -12.033  15.771  64.269  1.00  0.00    -0.058 C  
HETATM    2  O   UNL     1     -12.491  14.490  63.849  1.00  0.00    -0.814 OA 
ENDROOT
BRANCH   2   3
HETATM    3  C   UNL     1     -11.856  13.421  64.423  1.00  0.00    -0.408 A  
HETATM    4  C   UNL     1     -11.533  13.323  65.774  1.00  0.00    -0.349 A  
HETATM    5  C   UNL     1     -10.860  12.196  66.292  1.00  0.00    -0.317 A  
HETATM    6  C   UNL     1     -10.529  11.151  65.412  1.00  0.00    -0.259 A  
HETATM    7  C   UNL     1     -10.896  11.231  64.061  1.00  0.00    -0.414 A  
HETATM    8  C   UNL     1     -11.554  12.364  63.574  1.00  0.00    -0.577 A  
BRANCH   5   9
HETATM    9  C   UNL     1     -10.509  12.121  67.771  1.00  0.00    -0.205 C  
HETATM   10  H   UNL     1      -9.376  13.130  69.045  1.00  0.00     0.000 HD 
HETATM   11  O   UNL     1      -9.595  13.176  68.123  1.00  0.00    -0.217 OA 
BRANCH   9  12
HETATM   12  C   UNL     1     -11.747  12.150  68.722  1.00  0.00    -0.321 C  
HETATM   13  C   UNL     1     -11.883  10.822  69.479  1.00  0.00    -0.380 C  
HETATM   14  N   UNL     1     -11.690  13.232  69.732  1.00  0.00    -0.409 NA 
HETATM   15  H1  UNL     1     -12.499  13.251  70.353  1.00  0.00     0.000 HD 
HETATM   16  H2  UNL     1     -11.559  14.139  69.283  1.00  0.00     0.000 HD 
ENDBRANCH   9  12
ENDBRANCH   5   9
BRANCH   6  17
HETATM   17  O   UNL     1      -9.889  10.064  65.952  1.00  0.00    -0.227 OA 
HETATM   18  C   UNL     1      -8.625   9.752  65.373  1.00  0.00    -0.149 C  
ENDBRANCH   6  17
ENDBRANCH   2   3
TORSDOF 4
ENDMDL
MODEL       51
REMARK 921   NORMALIZED FREE ENERGY PREDICTED BY IDOCK:   -4.27 KCAL/MOL
REMARK 922        TOTAL FREE ENERGY PREDICTED BY IDOCK:   -5.39 KCAL/MOL
REMARK 923 INTER-LIGAND FREE ENERGY PREDICTED BY IDOCK:   -5.12 KCAL/MOL
REMARK 924 INTRA-LIGAND FREE ENERGY PREDICTED BY IDOCK:   -0.28 KCAL/MOL
REMARK 927      BINDING AFFINITY PREDICTED BY RF-SCORE:    0.00 PKD
ROOT
HETATM    1  C   UNL     1     -12.416  12.111  64.385  1.00  0.00    -0.324 C  
HETATM    2  O   UNL     1     -12.829  12.985  65.430  1.00  0.00    -0.592 OA 
ENDROOT
BRANCH   2   3
HETATM    3  C   UNL     1     -12.109  14.144  65.547  1.00  0.00    -0.414 A  
HETATM    4  C   UNL     1     -11.450  14.555  66.703  1.00  0.00    -0.373 A  
HETATM    5  C   UNL     1     -10.741  15.774  66.754  1.00  0.00    -0.293 A  
HETATM    6  C   UNL     1     -10.696  16.572  65.598  1.00  0.00    -0.248 A  
HETATM    7  C   UNL     1     -11.322  16.135  64.422  1.00  0.00    -0.210 A  
HETATM    8  C   UNL     1     -12.025  14.927  64.402  1.00  0.00    -0.408 A  
BRANCH   5   9
HETATM    9  C   UNL     1     -10.040  16.204  68.035  1.00  0.00    -0.242 C  
HETATM   10  H   UNL     1     -10.388  17.460  69.527  1.00  0.00     0.000 HD 
HETATM   11  O   UNL     1     -10.825  17.192  68.728  1.00  0.00    -0.305 OA 
BRANCH   9  12
HETATM   12  C   UNL     1      -9.697  15.025  69.000  1.00  0.00    -0.229 C  
HETATM   13  C   UNL     1      -8.234  15.102  69.454  1.00  0.00    -0.197 C  
HETATM   14  N   UNL     1     -10.539  14.995  70.218  1.00  0.00    -0.491 NA 
HETATM   15  H1  UNL     1     -10.315  14.225  70.848  1.00  0.00     0.000 HD 
HETATM   16  H2  UNL     1     -11.529  14.984  69.973  1.00  0.00     0.000 HD 
ENDBRANCH   9  12
ENDBRANCH   5   9
BRANCH   6  17
HETATM   17  O   UNL     1      -9.986  17.743  65.679  1.00  0.00    -0.548 OA 
HETATM   18  C   UNL     1     -10.772  18.927  65.774  1.00  0.00    -0.243 C  
ENDBRANCH   6  17
ENDBRANCH   2   3
TORSDOF 4
ENDMDL
MODEL       52
REMARK 921   NORMALIZED FREE ENERGY PREDICTED BY IDOCK:   -4.25 KCAL/MOL
REMARK 922        TOTAL FREE ENERGY PREDICTED BY IDOCK:   -5.38 KCAL/MOL
REMARK 923 INTER-LIGAND FREE ENERGY PREDICTED BY IDOCK:   -5.26 KCAL/MOL
REMARK 924 INTRA-LIGAND FREE ENERGY PREDICTED BY IDOCK:   -0.11 KCAL/MOL
REMARK 927      BINDING AFFINITY PREDICTED BY RF-SCORE:    0.00 PKD
ROOT
HETATM    1  C   UNL     1     -12.750  11.938  63.457  1.00  0.00    -0.405 C  
HETATM    2  O   UNL     1     -13.220  12.543  64.657  1.00  0.00    -0.848 OA 
ENDROOT
BRANCH   2   3
HETATM    3  C   UNL     1     -12.251  12.890  65.560  1.00  0.00    -0.474 A  
HETATM    4  C   UNL     1     -12.248  14.065  66.307  1.00  0.00    -0.493 A  
HETATM    5  C   UNL     1     -11.203  14.364  67.208  1.00  0.00    -0.334 A  
HETATM    6  C   UNL     1     -10.157  13.436  67.352  1.00  0.00    -0.237 A  
HETATM    7  C   UNL     1     -10.185  12.233  66.632  1.00  0.00    -0.235 A  
HETATM    8  C   UNL     1     -11.229  11.967  65.741  1.00  0.00    -0.383 A  
BRANCH   5   9
HETATM    9  C   UNL     1     -11.219  15.662  68.003  1.00  0.00    -0.339 C  
HETATM   10  H   UNL     1     -11.244  16.193  69.912  1.00  0.00     0.000 HD 
HETATM   11  O   UNL     1     -11.234  15.383  69.416  1.00  0.00    -0.257 OA 
BRANCH   9  12
HETATM   12  C   UNL     1     -10.044  16.632  67.664  1.00  0.00    -0.272 C  
HETATM   13  C   UNL     1     -10.578  18.012  67.259  1.00  0.00    -0.358 C  
HETATM   14  N   UNL     1      -9.101  16.833  68.788  1.00  0.00    -0.259 NA 
HETATM   15  H1  UNL     1      -8.333  17.466  68.566  1.00  0.00     0.000 HD 
HETATM   16  H2  UNL     1      -8.745  15.938  69.125  1.00  0.00     0.000 HD 
ENDBRANCH   9  12
ENDBRANCH   5   9
BRANCH   6  17
HETATM   17  O   UNL     1      -9.166  13.751  68.246  1.00  0.00    -0.198 OA 
HETATM   18  C   UNL     1      -7.837  13.641  67.746  1.00  0.00    -0.171 C  
ENDBRANCH   6  17
ENDBRANCH   2   3
TORSDOF 4
ENDMDL
MODEL       53
REMARK 921   NORMALIZED FREE ENERGY PREDICTED BY IDOCK:   -4.25 KCAL/MOL
REMARK 922        TOTAL FREE ENERGY PREDICTED BY IDOCK:   -5.37 KCAL/MOL
REMARK 923 INTER-LIGAND FREE ENERGY PREDICTED BY IDOCK:   -5.46 KCAL/MOL
REMARK 924 INTRA-LIGAND FREE ENERGY PREDICTED BY IDOCK:    0.08 KCAL/MOL
REMARK 927      BINDING AFFINITY PREDICTED BY RF-SCORE:    0.00 PKD
ROOT
HETATM    1  C   UNL     1     -10.415  19.293  67.384  1.00  0.00    -0.459 C  
HETATM    2  O   UNL     1      -9.607  18.134  67.206  1.00  0.00    -0.272 OA 
ENDROOT
BRANCH   2   3
HETATM    3  C   UNL     1     -10.281  16.942  67.200  1.00  0.00    -0.297 A  
HETATM    4  C   UNL     1     -10.899  16.377  68.313  1.00  0.00    -0.347 A  
HETATM    5  C   UNL     1     -11.562  15.132  68.236  1.00  0.00    -0.357 A  
HETATM    6  C   UNL     1     -11.603  14.472  66.996  1.00  0.00    -0.386 A  
HETATM    7  C   UNL     1     -11.020  15.065  65.867  1.00  0.00    -0.343 A  
HETATM    8  C   UNL     1     -10.363  16.294  65.975  1.00  0.00    -0.363 A  
BRANCH   5   9
HETATM    9  C   UNL     1     -12.217  14.532  69.471  1.00  0.00    -0.265 C  
HETATM   10  H   UNL     1     -11.709  13.277  70.917  1.00  0.00     0.000 HD 
HETATM   11  O   UNL     1     -11.299  13.652  70.147  1.00  0.00    -0.104 OA 
BRANCH   9  12
HETATM   12  C   UNL     1     -12.777  15.589  70.474  1.00  0.00    -0.388 C  
HETATM   13  C   UNL     1     -13.695  14.926  71.508  1.00  0.00    -0.532 C  
HETATM   14  N   UNL     1     -11.721  16.314  71.217  1.00  0.00    -0.624 NA 
HETATM   15  H1  UNL     1     -12.087  17.006  71.872  1.00  0.00     0.000 HD 
HETATM   16  H2  UNL     1     -11.056  16.744  70.574  1.00  0.00     0.000 HD 
ENDBRANCH   9  12
ENDBRANCH   5   9
BRANCH   6  17
HETATM   17  O   UNL     1     -12.268  13.273  66.953  1.00  0.00    -0.350 OA 
HETATM   18  C   UNL     1     -11.511  12.174  66.455  1.00  0.00    -0.370 C  
ENDBRANCH   6  17
ENDBRANCH   2   3
TORSDOF 4
ENDMDL
MODEL       54
REMARK 921   NORMALIZED FREE ENERGY PREDICTED BY IDOCK:   -4.24 KCAL/MOL
REMARK 922        TOTAL FREE ENERGY PREDICTED BY IDOCK:   -5.36 KCAL/MOL
REMARK 923 INTER-LIGAND FREE ENERGY PREDICTED BY IDOCK:   -5.03 KCAL/MOL
REMARK 924 INTRA-LIGAND FREE ENERGY PREDICTED BY IDOCK:   -0.34 KCAL/MOL
REMARK 927      BINDING AFFINITY PREDICTED BY RF-SCORE:    0.00 PKD
ROOT
HETATM    1  C   UNL     1      -7.547   5.848  74.045  1.00  0.00    -0.092 C  
HETATM    2  O   UNL     1      -8.502   6.895  73.910  1.00  0.00    -0.127 OA 
ENDROOT
BRANCH   2   3
HETATM    3  C   UNL     1      -9.300   6.823  72.799  1.00  0.00    -0.135 A  
HETATM    4  C   UNL     1     -10.584   7.353  72.711  1.00  0.00    -0.345 A  
HETATM    5  C   UNL     1     -11.357   7.225  71.536  1.00  0.00    -0.280 A  
HETATM    6  C   UNL     1     -10.794   6.557  70.435  1.00  0.00    -0.273 A  
HETATM    7  C   UNL     1      -9.483   6.065  70.510  1.00  0.00    -0.191 A  
HETATM    8  C   UNL     1      -8.745   6.198  71.690  1.00  0.00    -0.135 A  
BRANCH   5   9
HETATM    9  C   UNL     1     -12.763   7.803  71.472  1.00  0.00    -0.332 C  
HETATM   10  H   UNL     1     -14.616   7.137  71.691  1.00  0.00     0.000 HD 
HETATM   11  O   UNL     1     -13.739   6.776  71.731  1.00  0.00    -0.250 OA 
BRANCH   9  12
HETATM   12  C   UNL     1     -12.998   9.015  72.429  1.00  0.00    -0.405 C  
HETATM   13  C   UNL     1     -13.086  10.324  71.635  1.00  0.00    -0.553 C  
HETATM   14  N   UNL     1     -14.235   8.899  73.235  1.00  0.00    -1.237 NA 
HETATM   15  H1  UNL     1     -14.389   9.690  73.860  1.00  0.00     0.000 HD 
HETATM   16  H2  UNL     1     -14.248   8.021  73.754  1.00  0.00     0.000 HD 
ENDBRANCH   9  12
ENDBRANCH   5   9
BRANCH   6  17
HETATM   17  O   UNL     1     -11.566   6.463  69.305  1.00  0.00    -0.354 OA 
HETATM   18  C   UNL     1     -10.847   6.267  68.090  1.00  0.00    -0.320 C  
ENDBRANCH   6  17
ENDBRANCH   2   3
TORSDOF 4
ENDMDL
MODEL       55
REMARK 921   NORMALIZED FREE ENERGY PREDICTED BY IDOCK:   -4.22 KCAL/MOL
REMARK 922        TOTAL FREE ENERGY PREDICTED BY IDOCK:   -5.33 KCAL/MOL
REMARK 923 INTER-LIGAND FREE ENERGY PREDICTED BY IDOCK:   -4.98 KCAL/MOL
REMARK 924 INTRA-LIGAND FREE ENERGY PREDICTED BY IDOCK:   -0.35 KCAL/MOL
REMARK 927      BINDING AFFINITY PREDICTED BY RF-SCORE:    0.00 PKD
ROOT
HETATM    1  C   UNL     1     -10.653  19.177  66.092  1.00  0.00    -0.439 C  
HETATM    2  O   UNL     1      -9.388  18.580  66.361  1.00  0.00    -0.303 OA 
ENDROOT
BRANCH   2   3
HETATM    3  C   UNL     1      -9.392  17.215  66.463  1.00  0.00    -0.265 A  
HETATM    4  C   UNL     1     -10.370  16.383  65.921  1.00  0.00    -0.378 A  
HETATM    5  C   UNL     1     -10.317  14.981  66.082  1.00  0.00    -0.310 A  
HETATM    6  C   UNL     1      -9.239  14.429  66.794  1.00  0.00    -0.268 A  
HETATM    7  C   UNL     1      -8.232  15.264  67.299  1.00  0.00    -0.230 A  
HETATM    8  C   UNL     1      -8.315  16.650  67.132  1.00  0.00    -0.202 A  
BRANCH   5   9
HETATM    9  C   UNL     1     -11.406  14.097  65.490  1.00  0.00    -0.319 C  
HETATM   10  H   UNL     1     -13.385  14.097  65.401  1.00  0.00     0.000 HD 
HETATM   11  O   UNL     1     -12.706  14.649  65.771  1.00  0.00    -0.189 OA 
BRANCH   9  12
HETATM   12  C   UNL     1     -11.256  13.842  63.957  1.00  0.00    -0.091 C  
HETATM   13  C   UNL     1     -10.762  12.414  63.690  1.00  0.00    -0.497 C  
HETATM   14  N   UNL     1     -12.516  14.024  63.202  1.00  0.00    -1.070 NA 
HETATM   15  H1  UNL     1     -12.418  13.857  62.200  1.00  0.00     0.000 HD 
HETATM   16  H2  UNL     1     -12.912  14.948  63.376  1.00  0.00     0.000 HD 
ENDBRANCH   9  12
ENDBRANCH   5   9
BRANCH   6  17
HETATM   17  O   UNL     1      -9.212  13.063  66.918  1.00  0.00    -0.224 OA 
HETATM   18  C   UNL     1      -9.342  12.570  68.248  1.00  0.00    -0.193 C  
ENDBRANCH   6  17
ENDBRANCH   2   3
TORSDOF 4
ENDMDL
MODEL       56
REMARK 921   NORMALIZED FREE ENERGY PREDICTED BY IDOCK:   -4.19 KCAL/MOL
REMARK 922        TOTAL FREE ENERGY PREDICTED BY IDOCK:   -5.30 KCAL/MOL
REMARK 923 INTER-LIGAND FREE ENERGY PREDICTED BY IDOCK:   -5.18 KCAL/MOL
REMARK 924 INTRA-LIGAND FREE ENERGY PREDICTED BY IDOCK:   -0.12 KCAL/MOL
REMARK 927      BINDING AFFINITY PREDICTED BY RF-SCORE:    0.00 PKD
ROOT
HETATM    1  C   UNL     1     -12.210  15.100  70.907  1.00  0.00    -0.342 C  
HETATM    2  O   UNL     1     -11.966  14.935  69.514  1.00  0.00    -0.298 OA 
ENDROOT
BRANCH   2   3
HETATM    3  C   UNL     1     -10.880  15.608  69.023  1.00  0.00    -0.254 A  
HETATM    4  C   UNL     1     -10.918  16.505  67.958  1.00  0.00    -0.320 A  
HETATM    5  C   UNL     1      -9.751  17.150  67.494  1.00  0.00    -0.256 A  
HETATM    6  C   UNL     1      -8.534  16.881  68.144  1.00  0.00    -0.217 A  
HETATM    7  C   UNL     1      -8.506  16.013  69.245  1.00  0.00    -0.224 A  
HETATM    8  C   UNL     1      -9.675  15.382  69.677  1.00  0.00    -0.251 A  
BRANCH   5   9
HETATM    9  C   UNL     1      -9.821  18.115  66.319  1.00  0.00    -0.310 C  
HETATM   10  H   UNL     1     -10.619  18.138  64.506  1.00  0.00     0.000 HD 
HETATM   11  O   UNL     1     -10.576  17.535  65.239  1.00  0.00    -0.664 OA 
BRANCH   9  12
HETATM   12  C   UNL     1     -10.402  19.519  66.682  1.00  0.00    -0.465 C  
HETATM   13  C   UNL     1     -10.284  19.783  68.188  1.00  0.00    -0.577 C  
HETATM   14  N   UNL     1      -9.727  20.635  65.981  1.00  0.00    -0.549 NA 
HETATM   15  H1  UNL     1     -10.107  21.552  66.217  1.00  0.00     0.000 HD 
HETATM   16  H2  UNL     1      -9.740  20.489  64.971  1.00  0.00     0.000 HD 
ENDBRANCH   9  12
ENDBRANCH   5   9
BRANCH   6  17
HETATM   17  O   UNL     1      -7.423  17.536  67.676  1.00  0.00    -0.181 OA 
HETATM   18  C   UNL     1      -6.928  18.572  68.519  1.00  0.00    -0.269 C  
ENDBRANCH   6  17
ENDBRANCH   2   3
TORSDOF 4
ENDMDL
MODEL       57
REMARK 921   NORMALIZED FREE ENERGY PREDICTED BY IDOCK:   -4.19 KCAL/MOL
REMARK 922        TOTAL FREE ENERGY PREDICTED BY IDOCK:   -5.29 KCAL/MOL
REMARK 923 INTER-LIGAND FREE ENERGY PREDICTED BY IDOCK:   -5.22 KCAL/MOL
REMARK 924 INTRA-LIGAND FREE ENERGY PREDICTED BY IDOCK:   -0.07 KCAL/MOL
REMARK 927      BINDING AFFINITY PREDICTED BY RF-SCORE:    0.00 PKD
ROOT
HETATM    1  C   UNL     1     -13.789   8.803  71.579  1.00  0.00    -0.340 C  
HETATM    2  O   UNL     1     -12.950   9.775  72.193  1.00  0.00    -0.407 OA 
ENDROOT
BRANCH   2   3
HETATM    3  C   UNL     1     -12.689  10.888  71.439  1.00  0.00    -0.434 A  
HETATM    4  C   UNL     1     -12.075  10.871  70.189  1.00  0.00    -0.431 A  
HETATM    5  C   UNL     1     -11.821  12.063  69.476  1.00  0.00    -0.390 A  
HETATM    6  C   UNL     1     -12.218  13.283  70.049  1.00  0.00    -0.275 A  
HETATM    7  C   UNL     1     -12.876  13.294  71.287  1.00  0.00    -0.398 A  
HETATM    8  C   UNL     1     -13.107  12.099  71.975  1.00  0.00    -0.462 A  
BRANCH   5   9
HETATM    9  C   UNL     1     -11.138  12.016  68.116  1.00  0.00    -0.245 C  
HETATM   10  H   UNL     1     -11.633  12.375  66.232  1.00  0.00     0.000 HD 
HETATM   11  O   UNL     1     -12.059  12.404  67.080  1.00  0.00    -0.549 OA 
BRANCH   9  12
HETATM   12  C   UNL     1      -9.840  12.879  68.026  1.00  0.00    -0.223 C  
HETATM   13  C   UNL     1      -8.627  12.002  67.689  1.00  0.00    -0.163 C  
HETATM   14  N   UNL     1      -9.912  13.948  67.004  1.00  0.00    -0.253 NA 
HETATM   15  H1  UNL     1      -9.064  14.512  66.945  1.00  0.00     0.000 HD 
HETATM   16  H2  UNL     1     -10.728  14.540  67.157  1.00  0.00     0.000 HD 
ENDBRANCH   9  12
ENDBRANCH   5   9
BRANCH   6  17
HETATM   17  O   UNL     1     -11.969  14.420  69.323  1.00  0.00    -0.307 OA 
HETATM   18  C   UNL     1     -11.697  15.588  70.092  1.00  0.00    -0.347 C  
ENDBRANCH   6  17
ENDBRANCH   2   3
TORSDOF 4
ENDMDL
MODEL       58
REMARK 921   NORMALIZED FREE ENERGY PREDICTED BY IDOCK:   -4.17 KCAL/MOL
REMARK 922        TOTAL FREE ENERGY PREDICTED BY IDOCK:   -5.28 KCAL/MOL
REMARK 923 INTER-LIGAND FREE ENERGY PREDICTED BY IDOCK:   -5.63 KCAL/MOL
REMARK 924 INTRA-LIGAND FREE ENERGY PREDICTED BY IDOCK:    0.35 KCAL/MOL
REMARK 927      BINDING AFFINITY PREDICTED BY RF-SCORE:    0.00 PKD
ROOT
HETATM    1  C   UNL     1     -11.912  10.143  71.444  1.00  0.00    -0.358 C  
HETATM    2  O   UNL     1     -12.236  11.356  70.772  1.00  0.00    -0.368 OA 
ENDROOT
BRANCH   2   3
HETATM    3  C   UNL     1     -11.810  11.440  69.473  1.00  0.00    -0.357 A  
HETATM    4  C   UNL     1     -11.814  12.606  68.712  1.00  0.00    -0.341 A  
HETATM    5  C   UNL     1     -11.376  12.613  67.370  1.00  0.00    -0.367 A  
HETATM    6  C   UNL     1     -10.913  11.409  66.811  1.00  0.00    -0.291 A  
HETATM    7  C   UNL     1     -10.867  10.247  67.593  1.00  0.00    -0.363 A  
HETATM    8  C   UNL     1     -11.316  10.267  68.917  1.00  0.00    -0.230 A  
BRANCH   5   9
HETATM    9  C   UNL     1     -11.403  13.900  66.558  1.00  0.00    -0.331 C  
HETATM   10  H   UNL     1     -10.165  14.892  65.372  1.00  0.00     0.000 HD 
HETATM   11  O   UNL     1     -10.147  14.089  65.879  1.00  0.00    -0.300 OA 
BRANCH   9  12
HETATM   12  C   UNL     1     -12.580  13.984  65.536  1.00  0.00    -0.516 C  
HETATM   13  C   UNL     1     -12.237  14.942  64.388  1.00  0.00    -0.399 C  
HETATM   14  N   UNL     1     -12.933  12.677  64.934  1.00  0.00    -0.850 NA 
HETATM   15  H1  UNL     1     -13.702  12.732  64.266  1.00  0.00     0.000 HD 
HETATM   16  H2  UNL     1     -13.132  11.987  65.658  1.00  0.00     0.000 HD 
ENDBRANCH   9  12
ENDBRANCH   5   9
BRANCH   6  17
HETATM   17  O   UNL     1     -10.481  11.455  65.510  1.00  0.00    -0.253 OA 
HETATM   18  C   UNL     1      -9.758  10.310  65.067  1.00  0.00    -0.305 C  
ENDBRANCH   6  17
ENDBRANCH   2   3
TORSDOF 4
ENDMDL
MODEL       59
REMARK 921   NORMALIZED FREE ENERGY PREDICTED BY IDOCK:   -4.16 KCAL/MOL
REMARK 922        TOTAL FREE ENERGY PREDICTED BY IDOCK:   -5.27 KCAL/MOL
REMARK 923 INTER-LIGAND FREE ENERGY PREDICTED BY IDOCK:   -4.97 KCAL/MOL
REMARK 924 INTRA-LIGAND FREE ENERGY PREDICTED BY IDOCK:   -0.29 KCAL/MOL
REMARK 927      BINDING AFFINITY PREDICTED BY RF-SCORE:    0.00 PKD
ROOT
HETATM    1  C   UNL     1     -10.095  11.326  67.590  1.00  0.00    -0.179 C  
HETATM    2  O   UNL     1     -10.845  11.998  68.597  1.00  0.00    -0.219 OA 
ENDROOT
BRANCH   2   3
HETATM    3  C   UNL     1     -11.367  11.194  69.575  1.00  0.00    -0.290 A  
HETATM    4  C   UNL     1     -11.017   9.861  69.776  1.00  0.00    -0.304 A  
HETATM    5  C   UNL     1     -11.612   9.088  70.797  1.00  0.00    -0.313 A  
HETATM    6  C   UNL     1     -12.565   9.699  71.630  1.00  0.00    -0.402 A  
HETATM    7  C   UNL     1     -12.882  11.054  71.455  1.00  0.00    -0.548 A  
HETATM    8  C   UNL     1     -12.284  11.792  70.430  1.00  0.00    -0.416 A  
BRANCH   5   9
HETATM    9  C   UNL     1     -11.220   7.630  70.986  1.00  0.00    -0.267 C  
HETATM   10  H   UNL     1     -10.422   6.189  69.885  1.00  0.00     0.000 HD 
HETATM   11  O   UNL     1     -10.667   7.099  69.767  1.00  0.00    -0.228 OA 
BRANCH   9  12
HETATM   12  C   UNL     1     -10.233   7.384  72.170  1.00  0.00    -0.192 C  
HETATM   13  C   UNL     1      -9.286   8.577  72.346  1.00  0.00    -0.349 C  
HETATM   14  N   UNL     1     -10.912   7.160  73.467  1.00  0.00    -0.563 NA 
HETATM   15  H1  UNL     1     -10.268   6.999  74.241  1.00  0.00     0.000 HD 
HETATM   16  H2  UNL     1     -11.587   6.399  73.396  1.00  0.00     0.000 HD 
ENDBRANCH   9  12
ENDBRANCH   5   9
BRANCH   6  17
HETATM   17  O   UNL     1     -13.112   8.923  72.620  1.00  0.00    -0.418 OA 
HETATM   18  C   UNL     1     -14.411   8.407  72.343  1.00  0.00    -0.284 C  
ENDBRANCH   6  17
ENDBRANCH   2   3
TORSDOF 4
ENDMDL
MODEL       60
REMARK 921   NORMALIZED FREE ENERGY PREDICTED BY IDOCK:   -4.15 KCAL/MOL
REMARK 922        TOTAL FREE ENERGY PREDICTED BY IDOCK:   -5.25 KCAL/MOL
REMARK 923 INTER-LIGAND FREE ENERGY PREDICTED BY IDOCK:   -5.13 KCAL/MOL
REMARK 924 INTRA-LIGAND FREE ENERGY PREDICTED BY IDOCK:   -0.12 KCAL/MOL
REMARK 927      BINDING AFFINITY PREDICTED BY RF-SCORE:    0.00 PKD
ROOT
HETATM    1  C   UNL     1      -7.563  11.113  67.911  1.00  0.00    -0.099 C  
HETATM    2  O   UNL     1      -7.799  12.446  68.351  1.00  0.00    -0.138 OA 
ENDROOT
BRANCH   2   3
HETATM    3  C   UNL     1      -8.531  13.227  67.497  1.00  0.00    -0.202 A  
HETATM    4  C   UNL     1      -9.755  12.860  66.941  1.00  0.00    -0.240 A  
HETATM    5  C   UNL     1     -10.445  13.712  66.052  1.00  0.00    -0.300 A  
HETATM    6  C   UNL     1      -9.877  14.960  65.743  1.00  0.00    -0.348 A  
HETATM    7  C   UNL     1      -8.668  15.346  66.340  1.00  0.00    -0.307 A  
HETATM    8  C   UNL     1      -8.002  14.478  67.210  1.00  0.00    -0.216 A  
BRANCH   5   9
HETATM    9  C   UNL     1     -11.775  13.281  65.449  1.00  0.00    -0.343 C  
HETATM   10  H   UNL     1     -13.648  13.927  65.457  1.00  0.00     0.000 HD 
HETATM   11  O   UNL     1     -12.818  14.196  65.833  1.00  0.00    -0.471 OA 
BRANCH   9  12
HETATM   12  C   UNL     1     -11.749  13.123  63.896  1.00  0.00    -0.456 C  
HETATM   13  C   UNL     1     -12.420  11.810  63.472  1.00  0.00    -0.504 C  
HETATM   14  N   UNL     1     -12.435  14.223  63.180  1.00  0.00    -0.930 NA 
HETATM   15  H1  UNL     1     -12.418  14.120  62.165  1.00  0.00     0.000 HD 
HETATM   16  H2  UNL     1     -12.054  15.128  63.457  1.00  0.00     0.000 HD 
ENDBRANCH   9  12
ENDBRANCH   5   9
BRANCH   6  17
HETATM   17  O   UNL     1     -10.582  15.768  64.888  1.00  0.00    -0.490 OA 
HETATM   18  C   UNL     1     -10.775  17.107  65.334  1.00  0.00    -0.088 C  
ENDBRANCH   6  17
ENDBRANCH   2   3
TORSDOF 4
ENDMDL
MODEL       61
REMARK 921   NORMALIZED FREE ENERGY PREDICTED BY IDOCK:   -4.14 KCAL/MOL
REMARK 922        TOTAL FREE ENERGY PREDICTED BY IDOCK:   -5.24 KCAL/MOL
REMARK 923 INTER-LIGAND FREE ENERGY PREDICTED BY IDOCK:   -4.93 KCAL/MOL
REMARK 924 INTRA-LIGAND FREE ENERGY PREDICTED BY IDOCK:   -0.30 KCAL/MOL
REMARK 927      BINDING AFFINITY PREDICTED BY RF-SCORE:    0.00 PKD
ROOT
HETATM    1  C   UNL     1     -10.807   9.861  67.910  1.00  0.00    -0.258 C  
HETATM    2  O   UNL     1     -11.629  10.878  67.346  1.00  0.00    -0.509 OA 
ENDROOT
BRANCH   2   3
HETATM    3  C   UNL     1     -11.471  12.128  67.883  1.00  0.00    -0.328 A  
HETATM    4  C   UNL     1     -10.823  13.185  67.250  1.00  0.00    -0.270 A  
HETATM    5  C   UNL     1     -10.681  14.444  67.874  1.00  0.00    -0.246 A  
HETATM    6  C   UNL     1     -11.226  14.619  69.158  1.00  0.00    -0.270 A  
HETATM    7  C   UNL     1     -11.918  13.567  69.775  1.00  0.00    -0.405 A  
HETATM    8  C   UNL     1     -12.035  12.329  69.136  1.00  0.00    -0.303 A  
BRANCH   5   9
HETATM    9  C   UNL     1      -9.958  15.579  67.164  1.00  0.00    -0.242 C  
HETATM   10  H   UNL     1      -8.313  15.796  66.080  1.00  0.00     0.000 HD 
HETATM   11  O   UNL     1      -8.765  15.088  66.524  1.00  0.00    -0.269 OA 
BRANCH   9  12
HETATM   12  C   UNL     1     -10.839  16.348  66.130  1.00  0.00    -0.075 C  
HETATM   13  C   UNL     1     -10.517  17.847  66.149  1.00  0.00    -0.321 C  
HETATM   14  N   UNL     1     -10.665  15.874  64.737  1.00  0.00    -0.742 NA 
HETATM   15  H1  UNL     1     -11.241  16.376  64.062  1.00  0.00     0.000 HD 
HETATM   16  H2  UNL     1     -10.828  14.869  64.674  1.00  0.00     0.000 HD 
ENDBRANCH   9  12
ENDBRANCH   5   9
BRANCH   6  17
HETATM   17  O   UNL     1     -11.083  15.858  69.729  1.00  0.00    -0.271 OA 
HETATM   18  C   UNL     1     -11.544  15.967  71.072  1.00  0.00    -0.424 C  
ENDBRANCH   6  17
ENDBRANCH   2   3
TORSDOF 4
ENDMDL
MODEL       62
REMARK 921   NORMALIZED FREE ENERGY PREDICTED BY IDOCK:   -4.13 KCAL/MOL
REMARK 922        TOTAL FREE ENERGY PREDICTED BY IDOCK:   -5.22 KCAL/MOL
REMARK 923 INTER-LIGAND FREE ENERGY PREDICTED BY IDOCK:   -4.79 KCAL/MOL
REMARK 924 INTRA-LIGAND FREE ENERGY PREDICTED BY IDOCK:   -0.43 KCAL/MOL
REMARK 927      BINDING AFFINITY PREDICTED BY RF-SCORE:    0.00 PKD
ROOT
HETATM    1  C   UNL     1     -10.110   9.571  68.913  1.00  0.00    -0.188 C  
HETATM    2  O   UNL     1      -9.727  10.939  69.008  1.00  0.00    -0.202 OA 
ENDROOT
BRANCH   2   3
HETATM    3  C   UNL     1     -10.455  11.808  68.240  1.00  0.00    -0.206 A  
HETATM    4  C   UNL     1     -10.649  13.155  68.535  1.00  0.00    -0.274 A  
HETATM    5  C   UNL     1     -11.429  13.987  67.704  1.00  0.00    -0.362 A  
HETATM    6  C   UNL     1     -12.003  13.431  66.548  1.00  0.00    -0.400 A  
HETATM    7  C   UNL     1     -11.769  12.086  66.229  1.00  0.00    -0.319 A  
HETATM    8  C   UNL     1     -10.999  11.282  67.075  1.00  0.00    -0.352 A  
BRANCH   5   9
HETATM    9  C   UNL     1     -11.635  15.453  68.058  1.00  0.00    -0.292 C  
HETATM   10  H   UNL     1     -12.353  16.489  69.586  1.00  0.00     0.000 HD 
HETATM   11  O   UNL     1     -12.225  15.575  69.366  1.00  0.00    -0.312 OA 
BRANCH   9  12
HETATM   12  C   UNL     1     -10.336  16.316  67.977  1.00  0.00    -0.279 C  
HETATM   13  C   UNL     1     -10.091  16.798  66.542  1.00  0.00    -0.322 C  
HETATM   14  N   UNL     1     -10.368  17.514  68.848  1.00  0.00    -0.358 NA 
HETATM   15  H1  UNL     1      -9.519  18.077  68.796  1.00  0.00     0.000 HD 
HETATM   16  H2  UNL     1     -10.569  17.253  69.814  1.00  0.00     0.000 HD 
ENDBRANCH   9  12
ENDBRANCH   5   9
BRANCH   6  17
HETATM   17  O   UNL     1     -12.743  14.271  65.756  1.00  0.00    -0.464 OA 
HETATM   18  C   UNL     1     -12.248  14.454  64.433  1.00  0.00    -0.458 C  
ENDBRANCH   6  17
ENDBRANCH   2   3
TORSDOF 4
ENDMDL
MODEL       63
REMARK 921   NORMALIZED FREE ENERGY PREDICTED BY IDOCK:   -4.12 KCAL/MOL
REMARK 922        TOTAL FREE ENERGY PREDICTED BY IDOCK:   -5.22 KCAL/MOL
REMARK 923 INTER-LIGAND FREE ENERGY PREDICTED BY IDOCK:   -4.94 KCAL/MOL
REMARK 924 INTRA-LIGAND FREE ENERGY PREDICTED BY IDOCK:   -0.28 KCAL/MOL
REMARK 927      BINDING AFFINITY PREDICTED BY RF-SCORE:    0.00 PKD
ROOT
HETATM    1  C   UNL     1     -13.920  14.115  72.109  1.00  0.00    -0.531 C  
HETATM    2  O   UNL     1     -12.972  13.788  71.098  1.00  0.00    -0.326 OA 
ENDROOT
BRANCH   2   3
HETATM    3  C   UNL     1     -12.679  12.456  70.976  1.00  0.00    -0.223 A  
HETATM    4  C   UNL     1     -11.839  11.915  70.005  1.00  0.00    -0.407 A  
HETATM    5  C   UNL     1     -11.598  10.526  69.928  1.00  0.00    -0.384 A  
HETATM    6  C   UNL     1     -12.216   9.687  70.871  1.00  0.00    -0.285 A  
HETATM    7  C   UNL     1     -13.024  10.238  71.876  1.00  0.00    -0.554 A  
HETATM    8  C   UNL     1     -13.252  11.616  71.922  1.00  0.00    -0.475 A  
BRANCH   5   9
HETATM    9  C   UNL     1     -10.686   9.962  68.849  1.00  0.00    -0.221 C  
HETATM   10  H   UNL     1     -10.365  10.264  66.917  1.00  0.00     0.000 HD 
HETATM   11  O   UNL     1     -10.934  10.616  67.591  1.00  0.00    -0.270 OA 
BRANCH   9  12
HETATM   12  C   UNL     1      -9.165  10.036  69.197  1.00  0.00    -0.190 C  
HETATM   13  C   UNL     1      -8.378   8.971  68.424  1.00  0.00    -0.124 C  
HETATM   14  N   UNL     1      -8.553  11.349  68.892  1.00  0.00    -0.354 NA 
HETATM   15  H1  UNL     1      -7.560  11.398  69.120  1.00  0.00     0.000 HD 
HETATM   16  H2  UNL     1      -9.066  12.102  69.352  1.00  0.00     0.000 HD 
ENDBRANCH   9  12
ENDBRANCH   5   9
BRANCH   6  17
HETATM   17  O   UNL     1     -11.948   8.345  70.777  1.00  0.00    -0.236 OA 
HETATM   18  C   UNL     1     -12.783   7.500  71.563  1.00  0.00    -0.359 C  
ENDBRANCH   6  17
ENDBRANCH   2   3
TORSDOF 4
ENDMDL
MODEL       64
REMARK 921   NORMALIZED FREE ENERGY PREDICTED BY IDOCK:   -4.11 KCAL/MOL
REMARK 922        TOTAL FREE ENERGY PREDICTED BY IDOCK:   -5.20 KCAL/MOL
REMARK 923 INTER-LIGAND FREE ENERGY PREDICTED BY IDOCK:   -4.88 KCAL/MOL
REMARK 924 INTRA-LIGAND FREE ENERGY PREDICTED BY IDOCK:   -0.32 KCAL/MOL
REMARK 927      BINDING AFFINITY PREDICTED BY RF-SCORE:    0.00 PKD
ROOT
HETATM    1  C   UNL     1     -12.689  11.834  63.375  1.00  0.00    -0.267 C  
HETATM    2  O   UNL     1     -12.673  13.098  64.031  1.00  0.00    -0.653 OA 
ENDROOT
BRANCH   2   3
HETATM    3  C   UNL     1     -12.259  13.078  65.336  1.00  0.00    -0.471 A  
HETATM    4  C   UNL     1     -11.635  11.997  65.953  1.00  0.00    -0.364 A  
HETATM    5  C   UNL     1     -11.252  12.043  67.311  1.00  0.00    -0.371 A  
HETATM    6  C   UNL     1     -11.500  13.220  68.037  1.00  0.00    -0.309 A  
HETATM    7  C   UNL     1     -12.088  14.323  67.402  1.00  0.00    -0.371 A  
HETATM    8  C   UNL     1     -12.465  14.247  66.058  1.00  0.00    -0.392 A  
BRANCH   5   9
HETATM    9  C   UNL     1     -10.582  10.842  67.963  1.00  0.00    -0.207 C  
HETATM   10  H   UNL     1     -10.609   8.872  67.748  1.00  0.00     0.000 HD 
HETATM   11  O   UNL     1     -11.028   9.622  67.341  1.00  0.00    -0.247 OA 
BRANCH   9  12
HETATM   12  C   UNL     1      -9.021  10.902  67.959  1.00  0.00    -0.145 C  
HETATM   13  C   UNL     1      -8.507  11.575  66.680  1.00  0.00    -0.172 C  
HETATM   14  N   UNL     1      -8.457  11.645  69.109  1.00  0.00    -0.358 NA 
HETATM   15  H1  UNL     1      -7.438  11.685  69.106  1.00  0.00     0.000 HD 
HETATM   16  H2  UNL     1      -8.801  11.263  69.990  1.00  0.00     0.000 HD 
ENDBRANCH   9  12
ENDBRANCH   5   9
BRANCH   6  17
HETATM   17  O   UNL     1     -11.102  13.235  69.350  1.00  0.00    -0.197 OA 
HETATM   18  C   UNL     1     -12.087  13.676  70.280  1.00  0.00    -0.357 C  
ENDBRANCH   6  17
ENDBRANCH   2   3
TORSDOF 4
ENDMDL
MODEL       65
REMARK 921   NORMALIZED FREE ENERGY PREDICTED BY IDOCK:   -4.11 KCAL/MOL
REMARK 922        TOTAL FREE ENERGY PREDICTED BY IDOCK:   -5.20 KCAL/MOL
REMARK 923 INTER-LIGAND FREE ENERGY PREDICTED BY IDOCK:   -4.85 KCAL/MOL
REMARK 924 INTRA-LIGAND FREE ENERGY PREDICTED BY IDOCK:   -0.35 KCAL/MOL
REMARK 927      BINDING AFFINITY PREDICTED BY RF-SCORE:    0.00 PKD
ROOT
HETATM    1  C   UNL     1     -12.521  12.342  63.287  1.00  0.00    -0.337 C  
HETATM    2  O   UNL     1     -13.062  12.527  64.591  1.00  0.00    -0.845 OA 
ENDROOT
BRANCH   2   3
HETATM    3  C   UNL     1     -12.174  12.960  65.540  1.00  0.00    -0.474 A  
HETATM    4  C   UNL     1     -11.975  12.349  66.775  1.00  0.00    -0.282 A  
HETATM    5  C   UNL     1     -11.054  12.864  67.713  1.00  0.00    -0.291 A  
HETATM    6  C   UNL     1     -10.318  14.010  67.368  1.00  0.00    -0.259 A  
HETATM    7  C   UNL     1     -10.486  14.596  66.105  1.00  0.00    -0.308 A  
HETATM    8  C   UNL     1     -11.412  14.070  65.200  1.00  0.00    -0.328 A  
BRANCH   5   9
HETATM    9  C   UNL     1     -10.866  12.183  69.061  1.00  0.00    -0.162 C  
HETATM   10  H   UNL     1     -11.731  12.231  70.843  1.00  0.00     0.000 HD 
HETATM   11  O   UNL     1     -11.848  12.656  70.002  1.00  0.00    -0.329 OA 
BRANCH   9  12
HETATM   12  C   UNL     1     -10.898  10.623  68.997  1.00  0.00    -0.235 C  
HETATM   13  C   UNL     1      -9.497  10.041  69.226  1.00  0.00    -0.227 C  
HETATM   14  N   UNL     1     -11.802  10.010  69.997  1.00  0.00    -0.433 NA 
HETATM   15  H1  UNL     1     -11.823   8.991  69.955  1.00  0.00     0.000 HD 
HETATM   16  H2  UNL     1     -12.744  10.393  69.916  1.00  0.00     0.000 HD 
ENDBRANCH   9  12
ENDBRANCH   5   9
BRANCH   6  17
HETATM   17  O   UNL     1      -9.421  14.474  68.296  1.00  0.00    -0.195 OA 
HETATM   18  C   UNL     1      -8.062  14.504  67.869  1.00  0.00    -0.148 C  
ENDBRANCH   6  17
ENDBRANCH   2   3
TORSDOF 4
ENDMDL
MODEL       66
REMARK 921   NORMALIZED FREE ENERGY PREDICTED BY IDOCK:   -4.10 KCAL/MOL
REMARK 922        TOTAL FREE ENERGY PREDICTED BY IDOCK:   -5.19 KCAL/MOL
REMARK 923 INTER-LIGAND FREE ENERGY PREDICTED BY IDOCK:   -5.08 KCAL/MOL
REMARK 924 INTRA-LIGAND FREE ENERGY PREDICTED BY IDOCK:   -0.11 KCAL/MOL
REMARK 927      BINDING AFFINITY PREDICTED BY RF-SCORE:    0.00 PKD
ROOT
HETATM    1  C   UNL     1      -8.992  11.273  68.341  1.00  0.00    -0.167 C  
HETATM    2  O   UNL     1     -10.261  11.755  68.769  1.00  0.00    -0.211 OA 
ENDROOT
BRANCH   2   3
HETATM    3  C   UNL     1     -10.901  10.980  69.699  1.00  0.00    -0.183 A  
HETATM    4  C   UNL     1     -10.383   9.809  70.246  1.00  0.00    -0.348 A  
HETATM    5  C   UNL     1     -11.110   9.050  71.189  1.00  0.00    -0.371 A  
HETATM    6  C   UNL     1     -12.378   9.512  71.585  1.00  0.00    -0.398 A  
HETATM    7  C   UNL     1     -12.877  10.715  71.068  1.00  0.00    -0.496 A  
HETATM    8  C   UNL     1     -12.139  11.441  70.128  1.00  0.00    -0.439 A  
BRANCH   5   9
HETATM    9  C   UNL     1     -10.525   7.767  71.761  1.00  0.00    -0.216 C  
HETATM   10  H   UNL     1     -10.048   7.063  73.550  1.00  0.00     0.000 HD 
HETATM   11  O   UNL     1     -10.413   7.863  73.193  1.00  0.00    -0.345 OA 
BRANCH   9  12
HETATM   12  C   UNL     1     -11.316   6.478  71.374  1.00  0.00    -0.294 C  
HETATM   13  C   UNL     1     -10.409   5.484  70.637  1.00  0.00    -0.332 C  
HETATM   14  N   UNL     1     -11.897   5.770  72.538  1.00  0.00    -0.443 NA 
HETATM   15  H1  UNL     1     -12.414   4.928  72.285  1.00  0.00     0.000 HD 
HETATM   16  H2  UNL     1     -12.480   6.399  73.090  1.00  0.00     0.000 HD 
ENDBRANCH   9  12
ENDBRANCH   5   9
BRANCH   6  17
HETATM   17  O   UNL     1     -13.050   8.759  72.514  1.00  0.00    -0.401 OA 
HETATM   18  C   UNL     1     -14.410   8.473  72.198  1.00  0.00    -0.436 C  
ENDBRANCH   6  17
ENDBRANCH   2   3
TORSDOF 4
ENDMDL
MODEL       67
REMARK 921   NORMALIZED FREE ENERGY PREDICTED BY IDOCK:   -4.09 KCAL/MOL
REMARK 922        TOTAL FREE ENERGY PREDICTED BY IDOCK:   -5.17 KCAL/MOL
REMARK 923 INTER-LIGAND FREE ENERGY PREDICTED BY IDOCK:   -5.76 KCAL/MOL
REMARK 924 INTRA-LIGAND FREE ENERGY PREDICTED BY IDOCK:    0.59 KCAL/MOL
REMARK 927      BINDING AFFINITY PREDICTED BY RF-SCORE:    0.00 PKD
ROOT
HETATM    1  C   UNL     1      -8.703   9.060  67.723  1.00  0.00    -0.125 C  
HETATM    2  O   UNL     1     -10.096   9.135  68.008  1.00  0.00    -0.176 OA 
ENDROOT
BRANCH   2   3
HETATM    3  C   UNL     1     -10.663  10.371  67.850  1.00  0.00    -0.261 A  
HETATM    4  C   UNL     1     -10.975  10.948  66.622  1.00  0.00    -0.212 A  
HETATM    5  C   UNL     1     -11.543  12.238  66.535  1.00  0.00    -0.440 A  
HETATM    6  C   UNL     1     -11.807  12.934  67.728  1.00  0.00    -0.339 A  
HETATM    7  C   UNL     1     -11.534  12.332  68.965  1.00  0.00    -0.349 A  
HETATM    8  C   UNL     1     -10.964  11.058  69.019  1.00  0.00    -0.284 A  
BRANCH   5   9
HETATM    9  C   UNL     1     -11.862  12.849  65.179  1.00  0.00    -0.380 C  
HETATM   10  H   UNL     1     -13.386  12.852  63.912  1.00  0.00     0.000 HD 
HETATM   11  O   UNL     1     -13.186  12.470  64.758  1.00  0.00    -0.839 OA 
BRANCH   9  12
HETATM   12  C   UNL     1     -11.712  14.403  65.129  1.00  0.00    -0.372 C  
HETATM   13  C   UNL     1     -10.232  14.806  65.123  1.00  0.00    -0.410 C  
HETATM   14  N   UNL     1     -12.344  15.019  63.940  1.00  0.00    -1.059 NA 
HETATM   15  H1  UNL     1     -12.246  16.033  63.907  1.00  0.00     0.000 HD 
HETATM   16  H2  UNL     1     -13.325  14.749  63.871  1.00  0.00     0.000 HD 
ENDBRANCH   9  12
ENDBRANCH   5   9
BRANCH   6  17
HETATM   17  O   UNL     1     -12.372  14.178  67.608  1.00  0.00    -0.273 OA 
HETATM   18  C   UNL     1     -11.985  15.122  68.602  1.00  0.00    -0.240 C  
ENDBRANCH   6  17
ENDBRANCH   2   3
TORSDOF 4
ENDMDL
MODEL       68
REMARK 921   NORMALIZED FREE ENERGY PREDICTED BY IDOCK:   -4.07 KCAL/MOL
REMARK 922        TOTAL FREE ENERGY PREDICTED BY IDOCK:   -5.15 KCAL/MOL
REMARK 923 INTER-LIGAND FREE ENERGY PREDICTED BY IDOCK:   -4.86 KCAL/MOL
REMARK 924 INTRA-LIGAND FREE ENERGY PREDICTED BY IDOCK:   -0.29 KCAL/MOL
REMARK 927      BINDING AFFINITY PREDICTED BY RF-SCORE:    0.00 PKD
ROOT
HETATM    1  C   UNL     1     -10.341   6.165  66.832  1.00  0.00    -0.248 C  
HETATM    2  O   UNL     1     -10.154   5.801  68.196  1.00  0.00    -0.142 OA 
ENDROOT
BRANCH   2   3
HETATM    3  C   UNL     1     -10.612   6.708  69.114  1.00  0.00    -0.244 A  
HETATM    4  C   UNL     1     -10.405   8.083  69.040  1.00  0.00    -0.228 A  
HETATM    5  C   UNL     1     -10.893   8.957  70.036  1.00  0.00    -0.239 A  
HETATM    6  C   UNL     1     -11.614   8.411  71.111  1.00  0.00    -0.279 A  
HETATM    7  C   UNL     1     -11.860   7.031  71.160  1.00  0.00    -0.380 A  
HETATM    8  C   UNL     1     -11.357   6.189  70.164  1.00  0.00    -0.433 A  
BRANCH   5   9
HETATM    9  C   UNL     1     -10.641  10.455  69.936  1.00  0.00    -0.251 C  
HETATM   10  H   UNL     1      -9.272  11.646  69.140  1.00  0.00     0.000 HD 
HETATM   11  O   UNL     1      -9.429  10.711  69.202  1.00  0.00    -0.200 OA 
BRANCH   9  12
HETATM   12  C   UNL     1     -11.824  11.259  69.309  1.00  0.00    -0.354 C  
HETATM   13  C   UNL     1     -11.825  12.707  69.813  1.00  0.00    -0.379 C  
HETATM   14  N   UNL     1     -11.787  11.304  67.829  1.00  0.00    -0.638 NA 
HETATM   15  H1  UNL     1     -12.559  11.829  67.419  1.00  0.00     0.000 HD 
HETATM   16  H2  UNL     1     -11.744  10.363  67.439  1.00  0.00     0.000 HD 
ENDBRANCH   9  12
ENDBRANCH   5   9
BRANCH   6  17
HETATM   17  O   UNL     1     -12.086   9.290  72.053  1.00  0.00    -0.366 OA 
HETATM   18  C   UNL     1     -13.469   9.160  72.369  1.00  0.00    -0.476 C  
ENDBRANCH   6  17
ENDBRANCH   2   3
TORSDOF 4
ENDMDL
MODEL       69
REMARK 921   NORMALIZED FREE ENERGY PREDICTED BY IDOCK:   -4.06 KCAL/MOL
REMARK 922        TOTAL FREE ENERGY PREDICTED BY IDOCK:   -5.14 KCAL/MOL
REMARK 923 INTER-LIGAND FREE ENERGY PREDICTED BY IDOCK:   -5.04 KCAL/MOL
REMARK 924 INTRA-LIGAND FREE ENERGY PREDICTED BY IDOCK:   -0.10 KCAL/MOL
REMARK 927      BINDING AFFINITY PREDICTED BY RF-SCORE:    0.00 PKD
ROOT
HETATM    1  C   UNL     1     -13.396   9.113  72.427  1.00  0.00    -0.463 C  
HETATM    2  O   UNL     1     -13.273  10.498  72.124  1.00  0.00    -0.458 OA 
ENDROOT
BRANCH   2   3
HETATM    3  C   UNL     1     -12.401  10.804  71.113  1.00  0.00    -0.393 A  
HETATM    4  C   UNL     1     -12.330  12.040  70.475  1.00  0.00    -0.369 A  
HETATM    5  C   UNL     1     -11.417  12.277  69.425  1.00  0.00    -0.341 A  
HETATM    6  C   UNL     1     -10.556  11.235  69.039  1.00  0.00    -0.208 A  
HETATM    7  C   UNL     1     -10.598  10.006  69.712  1.00  0.00    -0.301 A  
HETATM    8  C   UNL     1     -11.520   9.797  70.743  1.00  0.00    -0.417 A  
BRANCH   5   9
HETATM    9  C   UNL     1     -11.369  13.634  68.738  1.00  0.00    -0.289 C  
HETATM   10  H   UNL     1     -12.295  14.531  67.234  1.00  0.00     0.000 HD 
HETATM   11  O   UNL     1     -12.325  13.684  67.663  1.00  0.00    -0.257 OA 
BRANCH   9  12
HETATM   12  C   UNL     1     -11.586  14.844  69.701  1.00  0.00    -0.303 C  
HETATM   13  C   UNL     1     -10.964  16.120  69.119  1.00  0.00    -0.309 C  
HETATM   14  N   UNL     1     -13.013  15.131  69.975  1.00  0.00    -0.632 NA 
HETATM   15  H1  UNL     1     -13.155  15.921  70.605  1.00  0.00     0.000 HD 
HETATM   16  H2  UNL     1     -13.487  14.300  70.328  1.00  0.00     0.000 HD 
ENDBRANCH   9  12
ENDBRANCH   5   9
BRANCH   6  17
HETATM   17  O   UNL     1      -9.671  11.504  68.026  1.00  0.00    -0.174 OA 
HETATM   18  C   UNL     1      -8.548  10.631  67.949  1.00  0.00    -0.124 C  
ENDBRANCH   6  17
ENDBRANCH   2   3
TORSDOF 4
ENDMDL
MODEL       70
REMARK 921   NORMALIZED FREE ENERGY PREDICTED BY IDOCK:   -4.04 KCAL/MOL
REMARK 922        TOTAL FREE ENERGY PREDICTED BY IDOCK:   -5.12 KCAL/MOL
REMARK 923 INTER-LIGAND FREE ENERGY PREDICTED BY IDOCK:   -4.88 KCAL/MOL
REMARK 924 INTRA-LIGAND FREE ENERGY PREDICTED BY IDOCK:   -0.24 KCAL/MOL
REMARK 927      BINDING AFFINITY PREDICTED BY RF-SCORE:    0.00 PKD
ROOT
HETATM    1  C   UNL     1      -8.116   8.008  66.977  1.00  0.00    -0.116 C  
HETATM    2  O   UNL     1      -8.738   8.094  65.699  1.00  0.00    -0.161 OA 
ENDROOT
BRANCH   2   3
HETATM    3  C   UNL     1      -9.313   9.301  65.405  1.00  0.00    -0.226 A  
HETATM    4  C   UNL     1     -10.018  10.085  66.314  1.00  0.00    -0.310 A  
HETATM    5  C   UNL     1     -10.600  11.314  65.934  1.00  0.00    -0.309 A  
HETATM    6  C   UNL     1     -10.441  11.747  64.606  1.00  0.00    -0.299 A  
HETATM    7  C   UNL     1      -9.692  10.978  63.704  1.00  0.00    -0.364 A  
HETATM    8  C   UNL     1      -9.134   9.761  64.107  1.00  0.00    -0.289 A  
BRANCH   5   9
HETATM    9  C   UNL     1     -11.376  12.144  66.946  1.00  0.00    -0.343 C  
HETATM   10  H   UNL     1     -12.612  11.806  68.457  1.00  0.00     0.000 HD 
HETATM   11  O   UNL     1     -12.128  11.287  67.825  1.00  0.00    -0.631 OA 
BRANCH   9  12
HETATM   12  C   UNL     1     -10.490  13.121  67.782  1.00  0.00    -0.228 C  
HETATM   13  C   UNL     1     -11.355  14.177  68.480  1.00  0.00    -0.312 C  
HETATM   14  N   UNL     1      -9.689  12.442  68.826  1.00  0.00    -0.416 NA 
HETATM   15  H1  UNL     1      -9.110  13.080  69.373  1.00  0.00     0.000 HD 
HETATM   16  H2  UNL     1      -9.121  11.698  68.420  1.00  0.00     0.000 HD 
ENDBRANCH   9  12
ENDBRANCH   5   9
BRANCH   6  17
HETATM   17  O   UNL     1     -11.007  12.951  64.274  1.00  0.00    -0.344 OA 
HETATM   18  C   UNL     1     -12.102  12.881  63.365  1.00  0.00    -0.530 C  
ENDBRANCH   6  17
ENDBRANCH   2   3
TORSDOF 4
ENDMDL
MODEL       71
REMARK 921   NORMALIZED FREE ENERGY PREDICTED BY IDOCK:   -4.04 KCAL/MOL
REMARK 922        TOTAL FREE ENERGY PREDICTED BY IDOCK:   -5.12 KCAL/MOL
REMARK 923 INTER-LIGAND FREE ENERGY PREDICTED BY IDOCK:   -4.73 KCAL/MOL
REMARK 924 INTRA-LIGAND FREE ENERGY PREDICTED BY IDOCK:   -0.39 KCAL/MOL
REMARK 927      BINDING AFFINITY PREDICTED BY RF-SCORE:    0.00 PKD
ROOT
HETATM    1  C   UNL     1     -10.469  18.735  66.472  1.00  0.00    -0.427 C  
HETATM    2  O   UNL     1     -10.094  17.545  67.158  1.00  0.00    -0.299 OA 
ENDROOT
BRANCH   2   3
HETATM    3  C   UNL     1     -10.275  16.381  66.459  1.00  0.00    -0.304 A  
HETATM    4  C   UNL     1      -9.851  15.126  66.887  1.00  0.00    -0.243 A  
HETATM    5  C   UNL     1     -10.056  13.970  66.102  1.00  0.00    -0.319 A  
HETATM    6  C   UNL     1     -10.720  14.107  64.870  1.00  0.00    -0.428 A  
HETATM    7  C   UNL     1     -11.187  15.365  64.463  1.00  0.00    -0.310 A  
HETATM    8  C   UNL     1     -10.961  16.493  65.256  1.00  0.00    -0.170 A  
BRANCH   5   9
HETATM    9  C   UNL     1      -9.570  12.613  66.588  1.00  0.00    -0.249 C  
HETATM   10  H   UNL     1      -7.966  11.887  67.497  1.00  0.00     0.000 HD 
HETATM   11  O   UNL     1      -8.269  12.734  67.193  1.00  0.00    -0.179 OA 
BRANCH   9  12
HETATM   12  C   UNL     1     -10.551  11.901  67.573  1.00  0.00    -0.219 C  
HETATM   13  C   UNL     1     -10.763  10.437  67.165  1.00  0.00    -0.316 C  
HETATM   14  N   UNL     1     -10.085  11.907  68.978  1.00  0.00    -0.419 NA 
HETATM   15  H1  UNL     1     -10.725  11.442  69.621  1.00  0.00     0.000 HD 
HETATM   16  H2  UNL     1      -9.888  12.858  69.290  1.00  0.00     0.000 HD 
ENDBRANCH   9  12
ENDBRANCH   5   9
BRANCH   6  17
HETATM   17  O   UNL     1     -10.915  12.963  64.140  1.00  0.00    -0.363 OA 
HETATM   18  C   UNL     1     -12.265  12.515  64.059  1.00  0.00    -0.480 C  
ENDBRANCH   6  17
ENDBRANCH   2   3
TORSDOF 4
ENDMDL
MODEL       72
REMARK 921   NORMALIZED FREE ENERGY PREDICTED BY IDOCK:   -4.04 KCAL/MOL
REMARK 922        TOTAL FREE ENERGY PREDICTED BY IDOCK:   -5.11 KCAL/MOL
REMARK 923 INTER-LIGAND FREE ENERGY PREDICTED BY IDOCK:   -4.79 KCAL/MOL
REMARK 924 INTRA-LIGAND FREE ENERGY PREDICTED BY IDOCK:   -0.32 KCAL/MOL
REMARK 927      BINDING AFFINITY PREDICTED BY RF-SCORE:    0.00 PKD
ROOT
HETATM    1  C   UNL     1     -12.687  14.341  65.663  1.00  0.00    -0.373 C  
HETATM    2  O   UNL     1     -12.939  13.192  64.861  1.00  0.00    -0.734 OA 
ENDROOT
BRANCH   2   3
HETATM    3  C   UNL     1     -11.918  12.281  64.802  1.00  0.00    -0.362 A  
HETATM    4  C   UNL     1     -11.377  11.625  65.905  1.00  0.00    -0.262 A  
HETATM    5  C   UNL     1     -10.311  10.710  65.769  1.00  0.00    -0.287 A  
HETATM    6  C   UNL     1      -9.808  10.455  64.481  1.00  0.00    -0.339 A  
HETATM    7  C   UNL     1     -10.385  11.082  63.368  1.00  0.00    -0.373 A  
HETATM    8  C   UNL     1     -11.434  11.991  63.533  1.00  0.00    -0.536 A  
BRANCH   5   9
HETATM    9  C   UNL     1      -9.730  10.017  66.993  1.00  0.00    -0.181 C  
HETATM   10  H   UNL     1      -9.029  10.553  68.767  1.00  0.00     0.000 HD 
HETATM   11  O   UNL     1      -9.391  10.986  68.003  1.00  0.00    -0.154 OA 
BRANCH   9  12
HETATM   12  C   UNL     1     -10.656   8.916  67.601  1.00  0.00    -0.224 C  
HETATM   13  C   UNL     1      -9.887   7.602  67.788  1.00  0.00    -0.196 C  
HETATM   14  N   UNL     1     -11.229   9.286  68.915  1.00  0.00    -0.444 NA 
HETATM   15  H1  UNL     1     -11.834   8.567  69.312  1.00  0.00     0.000 HD 
HETATM   16  H2  UNL     1     -11.720  10.179  68.857  1.00  0.00     0.000 HD 
ENDBRANCH   9  12
ENDBRANCH   5   9
BRANCH   6  17
HETATM   17  O   UNL     1      -8.782   9.549  64.384  1.00  0.00    -0.185 OA 
HETATM   18  C   UNL     1      -7.732   9.911  63.492  1.00  0.00    -0.143 C  
ENDBRANCH   6  17
ENDBRANCH   2   3
TORSDOF 4
ENDMDL
MODEL       73
REMARK 921   NORMALIZED FREE ENERGY PREDICTED BY IDOCK:   -4.02 KCAL/MOL
REMARK 922        TOTAL FREE ENERGY PREDICTED BY IDOCK:   -5.10 KCAL/MOL
REMARK 923 INTER-LIGAND FREE ENERGY PREDICTED BY IDOCK:   -4.78 KCAL/MOL
REMARK 924 INTRA-LIGAND FREE ENERGY PREDICTED BY IDOCK:   -0.31 KCAL/MOL
REMARK 927      BINDING AFFINITY PREDICTED BY RF-SCORE:    0.00 PKD
ROOT
HETATM    1  C   UNL     1     -11.553  15.060  68.708  1.00  0.00    -0.335 C  
HETATM    2  O   UNL     1     -12.157  15.013  67.420  1.00  0.00    -0.180 OA 
ENDROOT
BRANCH   2   3
HETATM    3  C   UNL     1     -11.768  13.968  66.625  1.00  0.00    -0.399 A  
HETATM    4  C   UNL     1     -11.102  12.833  67.080  1.00  0.00    -0.316 A  
HETATM    5  C   UNL     1     -10.715  11.802  66.197  1.00  0.00    -0.320 A  
HETATM    6  C   UNL     1     -11.032  11.933  64.834  1.00  0.00    -0.313 A  
HETATM    7  C   UNL     1     -11.743  13.056  64.386  1.00  0.00    -0.426 A  
HETATM    8  C   UNL     1     -12.106  14.066  65.282  1.00  0.00    -0.415 A  
BRANCH   5   9
HETATM    9  C   UNL     1      -9.976  10.577  66.720  1.00  0.00    -0.204 C  
HETATM   10  H   UNL     1      -8.537  10.201  68.028  1.00  0.00     0.000 HD 
HETATM   11  O   UNL     1      -8.998  10.965  67.702  1.00  0.00    -0.139 OA 
BRANCH   9  12
HETATM   12  C   UNL     1     -10.910   9.472  67.305  1.00  0.00    -0.118 C  
HETATM   13  C   UNL     1     -10.374   8.074  66.971  1.00  0.00    -0.414 C  
HETATM   14  N   UNL     1     -11.065   9.548  68.776  1.00  0.00    -0.456 NA 
HETATM   15  H1  UNL     1     -11.676   8.826  69.158  1.00  0.00     0.000 HD 
HETATM   16  H2  UNL     1     -11.383  10.475  69.059  1.00  0.00     0.000 HD 
ENDBRANCH   9  12
ENDBRANCH   5   9
BRANCH   6  17
HETATM   17  O   UNL     1     -10.654  10.906  64.007  1.00  0.00    -0.372 OA 
HETATM   18  C   UNL     1      -9.645  11.230  63.055  1.00  0.00    -0.377 C  
ENDBRANCH   6  17
ENDBRANCH   2   3
TORSDOF 4
ENDMDL
MODEL       74
REMARK 921   NORMALIZED FREE ENERGY PREDICTED BY IDOCK:   -3.98 KCAL/MOL
REMARK 922        TOTAL FREE ENERGY PREDICTED BY IDOCK:   -5.04 KCAL/MOL
REMARK 923 INTER-LIGAND FREE ENERGY PREDICTED BY IDOCK:   -4.64 KCAL/MOL
REMARK 924 INTRA-LIGAND FREE ENERGY PREDICTED BY IDOCK:   -0.40 KCAL/MOL
REMARK 927      BINDING AFFINITY PREDICTED BY RF-SCORE:    0.00 PKD
ROOT
HETATM    1  C   UNL     1      -7.172  16.684  68.893  1.00  0.00    -0.219 C  
HETATM    2  O   UNL     1      -7.965  16.515  67.723  1.00  0.00    -0.156 OA 
ENDROOT
BRANCH   2   3
HETATM    3  C   UNL     1      -8.511  15.271  67.557  1.00  0.00    -0.177 A  
HETATM    4  C   UNL     1      -9.605  14.988  66.742  1.00  0.00    -0.260 A  
HETATM    5  C   UNL     1     -10.126  13.680  66.634  1.00  0.00    -0.277 A  
HETATM    6  C   UNL     1      -9.504  12.650  67.361  1.00  0.00    -0.189 A  
HETATM    7  C   UNL     1      -8.375  12.929  68.144  1.00  0.00    -0.168 A  
HETATM    8  C   UNL     1      -7.886  14.235  68.239  1.00  0.00    -0.141 A  
BRANCH   5   9
HETATM    9  C   UNL     1     -11.330  13.402  65.746  1.00  0.00    -0.305 C  
HETATM   10  H   UNL     1     -13.191  14.060  65.578  1.00  0.00     0.000 HD 
HETATM   11  O   UNL     1     -12.440  14.234  66.133  1.00  0.00    -0.442 OA 
BRANCH   9  12
HETATM   12  C   UNL     1     -11.047  13.566  64.219  1.00  0.00    -0.351 C  
HETATM   13  C   UNL     1     -10.413  12.294  63.643  1.00  0.00    -0.483 C  
HETATM   14  N   UNL     1     -12.261  13.858  63.422  1.00  0.00    -1.102 NA 
HETATM   15  H1  UNL     1     -12.076  13.966  62.425  1.00  0.00     0.000 HD 
HETATM   16  H2  UNL     1     -12.747  14.676  63.789  1.00  0.00     0.000 HD 
ENDBRANCH   9  12
ENDBRANCH   5   9
BRANCH   6  17
HETATM   17  O   UNL     1     -10.026  11.389  67.221  1.00  0.00    -0.191 OA 
HETATM   18  C   UNL     1     -10.432  10.760  68.433  1.00  0.00    -0.183 C  
ENDBRANCH   6  17
ENDBRANCH   2   3
TORSDOF 4
ENDMDL
MODEL       75
REMARK 921   NORMALIZED FREE ENERGY PREDICTED BY IDOCK:   -3.96 KCAL/MOL
REMARK 922        TOTAL FREE ENERGY PREDICTED BY IDOCK:   -5.01 KCAL/MOL
REMARK 923 INTER-LIGAND FREE ENERGY PREDICTED BY IDOCK:   -4.77 KCAL/MOL
REMARK 924 INTRA-LIGAND FREE ENERGY PREDICTED BY IDOCK:   -0.25 KCAL/MOL
REMARK 927      BINDING AFFINITY PREDICTED BY RF-SCORE:    0.00 PKD
ROOT
HETATM    1  C   UNL     1     -10.018  17.583  66.962  1.00  0.00    -0.311 C  
HETATM    2  O   UNL     1      -9.795  17.051  65.661  1.00  0.00    -0.547 OA 
ENDROOT
BRANCH   2   3
HETATM    3  C   UNL     1     -10.387  15.842  65.411  1.00  0.00    -0.389 A  
HETATM    4  C   UNL     1      -9.890  14.614  65.839  1.00  0.00    -0.358 A  
HETATM    5  C   UNL     1     -10.545  13.403  65.527  1.00  0.00    -0.294 A  
HETATM    6  C   UNL     1     -11.734  13.459  64.779  1.00  0.00    -0.361 A  
HETATM    7  C   UNL     1     -12.257  14.700  64.388  1.00  0.00    -0.473 A  
HETATM    8  C   UNL     1     -11.582  15.882  64.704  1.00  0.00    -0.200 A  
BRANCH   5   9
HETATM    9  C   UNL     1      -9.973  12.073  65.997  1.00  0.00    -0.234 C  
HETATM   10  H   UNL     1      -9.099  10.498  65.173  1.00  0.00     0.000 HD 
HETATM   11  O   UNL     1      -9.456  11.327  64.879  1.00  0.00    -0.218 OA 
BRANCH   9  12
HETATM   12  C   UNL     1      -8.876  12.207  67.101  1.00  0.00    -0.191 C  
HETATM   13  C   UNL     1      -9.073  11.148  68.193  1.00  0.00    -0.159 C  
HETATM   14  N   UNL     1      -7.497  12.060  66.583  1.00  0.00    -0.375 NA 
HETATM   15  H1  UNL     1      -6.780  12.147  67.304  1.00  0.00     0.000 HD 
HETATM   16  H2  UNL     1      -7.324  12.717  65.822  1.00  0.00     0.000 HD 
ENDBRANCH   9  12
ENDBRANCH   5   9
BRANCH   6  17
HETATM   17  O   UNL     1     -12.353  12.266  64.506  1.00  0.00    -0.420 OA 
HETATM   18  C   UNL     1     -12.503  11.959  63.123  1.00  0.00    -0.237 C  
ENDBRANCH   6  17
ENDBRANCH   2   3
TORSDOF 4
ENDMDL
MODEL       76
REMARK 921   NORMALIZED FREE ENERGY PREDICTED BY IDOCK:   -3.96 KCAL/MOL
REMARK 922        TOTAL FREE ENERGY PREDICTED BY IDOCK:   -5.01 KCAL/MOL
REMARK 923 INTER-LIGAND FREE ENERGY PREDICTED BY IDOCK:   -4.62 KCAL/MOL
REMARK 924 INTRA-LIGAND FREE ENERGY PREDICTED BY IDOCK:   -0.40 KCAL/MOL
REMARK 927      BINDING AFFINITY PREDICTED BY RF-SCORE:    0.00 PKD
ROOT
HETATM    1  C   UNL     1      -9.774   9.208  70.720  1.00  0.00    -0.273 C  
HETATM    2  O   UNL     1     -11.016   9.871  70.506  1.00  0.00    -0.281 OA 
ENDROOT
BRANCH   2   3
HETATM    3  C   UNL     1     -11.026  10.785  69.486  1.00  0.00    -0.266 A  
HETATM    4  C   UNL     1     -10.289  10.668  68.310  1.00  0.00    -0.201 A  
HETATM    5  C   UNL     1     -10.336  11.661  67.308  1.00  0.00    -0.232 A  
HETATM    6  C   UNL     1     -11.162  12.780  67.513  1.00  0.00    -0.289 A  
HETATM    7  C   UNL     1     -11.937  12.874  68.678  1.00  0.00    -0.282 A  
HETATM    8  C   UNL     1     -11.864  11.879  69.657  1.00  0.00    -0.406 A  
BRANCH   5   9
HETATM    9  C   UNL     1      -9.511  11.513  66.038  1.00  0.00    -0.229 C  
HETATM   10  H   UNL     1      -7.741  10.778  65.536  1.00  0.00     0.000 HD 
HETATM   11  O   UNL     1      -8.256  10.870  66.329  1.00  0.00    -0.156 OA 
BRANCH   9  12
HETATM   12  C   UNL     1     -10.244  10.755  64.887  1.00  0.00    -0.320 C  
HETATM   13  C   UNL     1     -10.443  11.670  63.672  1.00  0.00    -0.483 C  
HETATM   14  N   UNL     1      -9.522   9.549  64.421  1.00  0.00    -0.416 NA 
HETATM   15  H1  UNL     1     -10.001   9.053  63.669  1.00  0.00     0.000 HD 
HETATM   16  H2  UNL     1      -9.327   8.920  65.200  1.00  0.00     0.000 HD 
ENDBRANCH   9  12
ENDBRANCH   5   9
BRANCH   6  17
HETATM   17  O   UNL     1     -11.195  13.719  66.514  1.00  0.00    -0.303 OA 
HETATM   18  C   UNL     1     -12.479  13.960  65.946  1.00  0.00    -0.481 C  
ENDBRANCH   6  17
ENDBRANCH   2   3
TORSDOF 4
ENDMDL
MODEL       77
REMARK 921   NORMALIZED FREE ENERGY PREDICTED BY IDOCK:   -3.94 KCAL/MOL
REMARK 922        TOTAL FREE ENERGY PREDICTED BY IDOCK:   -4.99 KCAL/MOL
REMARK 923 INTER-LIGAND FREE ENERGY PREDICTED BY IDOCK:   -4.88 KCAL/MOL
REMARK 924 INTRA-LIGAND FREE ENERGY PREDICTED BY IDOCK:   -0.11 KCAL/MOL
REMARK 927      BINDING AFFINITY PREDICTED BY RF-SCORE:    0.00 PKD
ROOT
HETATM    1  C   UNL     1     -13.838   9.052  72.336  1.00  0.00    -0.475 C  
HETATM    2  O   UNL     1     -13.376  10.380  72.111  1.00  0.00    -0.441 OA 
ENDROOT
BRANCH   2   3
HETATM    3  C   UNL     1     -12.361  10.503  71.201  1.00  0.00    -0.405 A  
HETATM    4  C   UNL     1     -12.275  11.509  70.241  1.00  0.00    -0.415 A  
HETATM    5  C   UNL     1     -11.206  11.562  69.321  1.00  0.00    -0.336 A  
HETATM    6  C   UNL     1     -10.206  10.578  69.400  1.00  0.00    -0.221 A  
HETATM    7  C   UNL     1     -10.270   9.593  70.396  1.00  0.00    -0.348 A  
HETATM    8  C   UNL     1     -11.346   9.560  71.288  1.00  0.00    -0.446 A  
BRANCH   5   9
HETATM    9  C   UNL     1     -11.144  12.666  68.275  1.00  0.00    -0.261 C  
HETATM   10  H   UNL     1     -10.018  14.254  67.908  1.00  0.00     0.000 HD 
HETATM   11  O   UNL     1     -10.057  13.566  68.561  1.00  0.00    -0.234 OA 
BRANCH   9  12
HETATM   12  C   UNL     1     -11.034  12.147  66.807  1.00  0.00    -0.280 C  
HETATM   13  C   UNL     1     -12.120  12.775  65.925  1.00  0.00    -0.485 C  
HETATM   14  N   UNL     1      -9.726  12.436  66.175  1.00  0.00    -0.245 NA 
HETATM   15  H1  UNL     1      -9.654  12.097  65.216  1.00  0.00     0.000 HD 
HETATM   16  H2  UNL     1      -8.961  12.074  66.744  1.00  0.00     0.000 HD 
ENDBRANCH   9  12
ENDBRANCH   5   9
BRANCH   6  17
HETATM   17  O   UNL     1      -9.174  10.667  68.501  1.00  0.00    -0.154 OA 
HETATM   18  C   UNL     1      -7.879  10.826  69.073  1.00  0.00    -0.138 C  
ENDBRANCH   6  17
ENDBRANCH   2   3
TORSDOF 4
ENDMDL
MODEL       78
REMARK 921   NORMALIZED FREE ENERGY PREDICTED BY IDOCK:   -3.94 KCAL/MOL
REMARK 922        TOTAL FREE ENERGY PREDICTED BY IDOCK:   -4.99 KCAL/MOL
REMARK 923 INTER-LIGAND FREE ENERGY PREDICTED BY IDOCK:   -5.02 KCAL/MOL
REMARK 924 INTRA-LIGAND FREE ENERGY PREDICTED BY IDOCK:    0.04 KCAL/MOL
REMARK 927      BINDING AFFINITY PREDICTED BY RF-SCORE:    0.00 PKD
ROOT
HETATM    1  C   UNL     1     -12.956  15.016  73.205  1.00  0.00    -0.525 C  
HETATM    2  O   UNL     1     -13.189  15.540  71.902  1.00  0.00    -0.406 OA 
ENDROOT
BRANCH   2   3
HETATM    3  C   UNL     1     -12.687  14.793  70.870  1.00  0.00    -0.342 A  
HETATM    4  C   UNL     1     -12.559  13.407  70.884  1.00  0.00    -0.406 A  
HETATM    5  C   UNL     1     -12.014  12.705  69.787  1.00  0.00    -0.365 A  
HETATM    6  C   UNL     1     -11.611  13.437  68.657  1.00  0.00    -0.327 A  
HETATM    7  C   UNL     1     -11.784  14.828  68.626  1.00  0.00    -0.356 A  
HETATM    8  C   UNL     1     -12.318  15.498  69.731  1.00  0.00    -0.261 A  
BRANCH   5   9
HETATM    9  C   UNL     1     -11.874  11.190  69.835  1.00  0.00    -0.363 C  
HETATM   10  H   UNL     1     -10.444   9.855  69.517  1.00  0.00     0.000 HD 
HETATM   11  O   UNL     1     -10.532  10.800  69.487  1.00  0.00    -0.220 OA 
BRANCH   9  12
HETATM   12  C   UNL     1     -12.274  10.556  71.205  1.00  0.00    -0.391 C  
HETATM   13  C   UNL     1     -13.617   9.823  71.092  1.00  0.00    -0.233 C  
HETATM   14  N   UNL     1     -11.280   9.587  71.720  1.00  0.00    -0.310 NA 
HETATM   15  H1  UNL     1     -11.542   9.173  72.614  1.00  0.00     0.000 HD 
HETATM   16  H2  UNL     1     -10.355  10.013  71.776  1.00  0.00     0.000 HD 
ENDBRANCH   9  12
ENDBRANCH   5   9
BRANCH   6  17
HETATM   17  O   UNL     1     -11.100  12.722  67.604  1.00  0.00    -0.238 OA 
HETATM   18  C   UNL     1     -10.605  13.503  66.520  1.00  0.00    -0.281 C  
ENDBRANCH   6  17
ENDBRANCH   2   3
TORSDOF 4
ENDMDL
MODEL       79
REMARK 921   NORMALIZED FREE ENERGY PREDICTED BY IDOCK:   -3.93 KCAL/MOL
REMARK 922        TOTAL FREE ENERGY PREDICTED BY IDOCK:   -4.98 KCAL/MOL
REMARK 923 INTER-LIGAND FREE ENERGY PREDICTED BY IDOCK:   -4.98 KCAL/MOL
REMARK 924 INTRA-LIGAND FREE ENERGY PREDICTED BY IDOCK:   -0.00 KCAL/MOL
REMARK 927      BINDING AFFINITY PREDICTED BY RF-SCORE:    0.00 PKD
ROOT
HETATM    1  C   UNL     1     -12.562  13.123  65.181  1.00  0.00    -0.465 C  
HETATM    2  O   UNL     1     -11.381  12.583  65.764  1.00  0.00    -0.306 OA 
ENDROOT
BRANCH   2   3
HETATM    3  C   UNL     1     -10.783  13.368  66.713  1.00  0.00    -0.277 A  
HETATM    4  C   UNL     1     -11.354  13.704  67.938  1.00  0.00    -0.325 A  
HETATM    5  C   UNL     1     -10.683  14.535  68.862  1.00  0.00    -0.259 A  
HETATM    6  C   UNL     1      -9.404  15.012  68.527  1.00  0.00    -0.196 A  
HETATM    7  C   UNL     1      -8.812  14.635  67.313  1.00  0.00    -0.220 A  
HETATM    8  C   UNL     1      -9.503  13.818  66.414  1.00  0.00    -0.259 A  
BRANCH   5   9
HETATM    9  C   UNL     1     -11.336  14.896  70.188  1.00  0.00    -0.260 C  
HETATM   10  H   UNL     1     -11.751  16.549  71.198  1.00  0.00     0.000 HD 
HETATM   11  O   UNL     1     -11.344  16.324  70.370  1.00  0.00    -0.371 OA 
BRANCH   9  12
HETATM   12  C   UNL     1     -12.781  14.329  70.362  1.00  0.00    -0.295 C  
HETATM   13  C   UNL     1     -12.840  13.343  71.535  1.00  0.00    -0.427 C  
HETATM   14  N   UNL     1     -13.799  15.376  70.610  1.00  0.00    -0.837 NA 
HETATM   15  H1  UNL     1     -14.743  15.006  70.724  1.00  0.00     0.000 HD 
HETATM   16  H2  UNL     1     -13.775  16.084  69.877  1.00  0.00     0.000 HD 
ENDBRANCH   9  12
ENDBRANCH   5   9
BRANCH   6  17
HETATM   17  O   UNL     1      -8.775  15.804  69.453  1.00  0.00    -0.252 OA 
HETATM   18  C   UNL     1      -7.602  16.467  68.992  1.00  0.00    -0.233 C  
ENDBRANCH   6  17
ENDBRANCH   2   3
TORSDOF 4
ENDMDL
MODEL       80
REMARK 921   NORMALIZED FREE ENERGY PREDICTED BY IDOCK:   -3.93 KCAL/MOL
REMARK 922        TOTAL FREE ENERGY PREDICTED BY IDOCK:   -4.98 KCAL/MOL
REMARK 923 INTER-LIGAND FREE ENERGY PREDICTED BY IDOCK:   -4.62 KCAL/MOL
REMARK 924 INTRA-LIGAND FREE ENERGY PREDICTED BY IDOCK:   -0.37 KCAL/MOL
REMARK 927      BINDING AFFINITY PREDICTED BY RF-SCORE:    0.00 PKD
ROOT
HETATM    1  C   UNL     1     -11.945  14.072  67.581  1.00  0.00    -0.368 C  
HETATM    2  O   UNL     1     -12.568  13.515  66.428  1.00  0.00    -0.333 OA 
ENDROOT
BRANCH   2   3
HETATM    3  C   UNL     1     -11.788  12.662  65.692  1.00  0.00    -0.437 A  
HETATM    4  C   UNL     1     -10.971  11.672  66.232  1.00  0.00    -0.338 A  
HETATM    5  C   UNL     1     -10.180  10.840  65.411  1.00  0.00    -0.341 A  
HETATM    6  C   UNL     1     -10.243  11.019  64.018  1.00  0.00    -0.358 A  
HETATM    7  C   UNL     1     -11.101  11.986  63.475  1.00  0.00    -0.519 A  
HETATM    8  C   UNL     1     -11.866  12.802  64.313  1.00  0.00    -0.460 A  
BRANCH   5   9
HETATM    9  C   UNL     1      -9.286   9.774  66.029  1.00  0.00    -0.196 C  
HETATM   10  H   UNL     1      -7.406   9.631  66.636  1.00  0.00     0.000 HD 
HETATM   11  O   UNL     1      -7.963  10.297  66.251  1.00  0.00    -0.115 OA 
BRANCH   9  12
HETATM   12  C   UNL     1      -9.846   9.162  67.352  1.00  0.00    -0.184 C  
HETATM   13  C   UNL     1     -10.737   7.949  67.055  1.00  0.00    -0.289 C  
HETATM   14  N   UNL     1      -8.790   8.718  68.290  1.00  0.00    -0.141 NA 
HETATM   15  H1  UNL     1      -9.155   8.318  69.154  1.00  0.00     0.000 HD 
HETATM   16  H2  UNL     1      -8.141   9.479  68.491  1.00  0.00     0.000 HD 
ENDBRANCH   9  12
ENDBRANCH   5   9
BRANCH   6  17
HETATM   17  O   UNL     1      -9.472  10.184  63.250  1.00  0.00    -0.292 OA 
HETATM   18  C   UNL     1      -8.475  10.828  62.462  1.00  0.00    -0.242 C  
ENDBRANCH   6  17
ENDBRANCH   2   3
TORSDOF 4
ENDMDL
MODEL       81
REMARK 921   NORMALIZED FREE ENERGY PREDICTED BY IDOCK:   -3.92 KCAL/MOL
REMARK 922        TOTAL FREE ENERGY PREDICTED BY IDOCK:   -4.97 KCAL/MOL
REMARK 923 INTER-LIGAND FREE ENERGY PREDICTED BY IDOCK:   -4.87 KCAL/MOL
REMARK 924 INTRA-LIGAND FREE ENERGY PREDICTED BY IDOCK:   -0.10 KCAL/MOL
REMARK 927      BINDING AFFINITY PREDICTED BY RF-SCORE:    0.00 PKD
ROOT
HETATM    1  C   UNL     1     -14.126  13.935  72.147  1.00  0.00    -0.536 C  
HETATM    2  O   UNL     1     -12.830  14.488  71.945  1.00  0.00    -0.313 OA 
ENDROOT
BRANCH   2   3
HETATM    3  C   UNL     1     -12.319  14.342  70.683  1.00  0.00    -0.351 A  
HETATM    4  C   UNL     1     -12.153  13.122  70.031  1.00  0.00    -0.375 A  
HETATM    5  C   UNL     1     -11.601  13.047  68.734  1.00  0.00    -0.350 A  
HETATM    6  C   UNL     1     -11.232  14.243  68.094  1.00  0.00    -0.275 A  
HETATM    7  C   UNL     1     -11.442  15.473  68.733  1.00  0.00    -0.363 A  
HETATM    8  C   UNL     1     -11.982  15.516  70.022  1.00  0.00    -0.385 A  
BRANCH   5   9
HETATM    9  C   UNL     1     -11.420  11.699  68.051  1.00  0.00    -0.315 C  
HETATM   10  H   UNL     1     -12.041  10.821  66.388  1.00  0.00     0.000 HD 
HETATM   11  O   UNL     1     -12.155  11.662  66.814  1.00  0.00    -0.472 OA 
BRANCH   9  12
HETATM   12  C   UNL     1      -9.929  11.309  67.797  1.00  0.00    -0.176 C  
HETATM   13  C   UNL     1      -9.678   9.845  68.180  1.00  0.00    -0.161 C  
HETATM   14  N   UNL     1      -9.506  11.479  66.388  1.00  0.00    -0.206 NA 
HETATM   15  H1  UNL     1      -8.533  11.225  66.222  1.00  0.00     0.000 HD 
HETATM   16  H2  UNL     1      -9.690  12.430  66.068  1.00  0.00     0.000 HD 
ENDBRANCH   9  12
ENDBRANCH   5   9
BRANCH   6  17
HETATM   17  O   UNL     1     -10.713  14.135  66.829  1.00  0.00    -0.283 OA 
HETATM   18  C   UNL     1     -11.364  14.919  65.834  1.00  0.00    -0.306 C  
ENDBRANCH   6  17
ENDBRANCH   2   3
TORSDOF 4
ENDMDL
MODEL       82
REMARK 921   NORMALIZED FREE ENERGY PREDICTED BY IDOCK:   -3.92 KCAL/MOL
REMARK 922        TOTAL FREE ENERGY PREDICTED BY IDOCK:   -4.96 KCAL/MOL
REMARK 923 INTER-LIGAND FREE ENERGY PREDICTED BY IDOCK:   -5.75 KCAL/MOL
REMARK 924 INTRA-LIGAND FREE ENERGY PREDICTED BY IDOCK:    0.79 KCAL/MOL
REMARK 927      BINDING AFFINITY PREDICTED BY RF-SCORE:    0.00 PKD
ROOT
HETATM    1  C   UNL     1      -7.275  19.283  65.706  1.00  0.00    -0.264 C  
HETATM    2  O   UNL     1      -7.175  17.906  66.053  1.00  0.00    -0.299 OA 
ENDROOT
BRANCH   2   3
HETATM    3  C   UNL     1      -8.284  17.367  66.648  1.00  0.00    -0.256 A  
HETATM    4  C   UNL     1      -9.038  16.322  66.120  1.00  0.00    -0.377 A  
HETATM    5  C   UNL     1     -10.183  15.829  66.783  1.00  0.00    -0.284 A  
HETATM    6  C   UNL     1     -10.546  16.408  68.011  1.00  0.00    -0.314 A  
HETATM    7  C   UNL     1      -9.759  17.428  68.564  1.00  0.00    -0.304 A  
HETATM    8  C   UNL     1      -8.635  17.902  67.880  1.00  0.00    -0.252 A  
BRANCH   5   9
HETATM    9  C   UNL     1     -10.996  14.695  66.175  1.00  0.00    -0.329 C  
HETATM   10  H   UNL     1     -12.840  13.989  66.329  1.00  0.00     0.000 HD 
HETATM   11  O   UNL     1     -12.333  14.697  66.708  1.00  0.00    -0.245 OA 
BRANCH   9  12
HETATM   12  C   UNL     1     -11.044  14.710  64.615  1.00  0.00    -0.334 C  
HETATM   13  C   UNL     1     -12.031  13.659  64.091  1.00  0.00    -0.488 C  
HETATM   14  N   UNL     1     -11.446  16.018  64.049  1.00  0.00    -1.266 NA 
HETATM   15  H1  UNL     1     -11.478  16.028  63.030  1.00  0.00     0.000 HD 
HETATM   16  H2  UNL     1     -10.845  16.764  64.399  1.00  0.00     0.000 HD 
ENDBRANCH   9  12
ENDBRANCH   5   9
BRANCH   6  17
HETATM   17  O   UNL     1     -11.654  15.895  68.635  1.00  0.00    -0.382 OA 
HETATM   18  C   UNL     1     -11.568  15.806  70.054  1.00  0.00    -0.357 C  
ENDBRANCH   6  17
ENDBRANCH   2   3
TORSDOF 4
ENDMDL
MODEL       83
REMARK 921   NORMALIZED FREE ENERGY PREDICTED BY IDOCK:   -3.89 KCAL/MOL
REMARK 922        TOTAL FREE ENERGY PREDICTED BY IDOCK:   -4.93 KCAL/MOL
REMARK 923 INTER-LIGAND FREE ENERGY PREDICTED BY IDOCK:   -4.55 KCAL/MOL
REMARK 924 INTRA-LIGAND FREE ENERGY PREDICTED BY IDOCK:   -0.37 KCAL/MOL
REMARK 927      BINDING AFFINITY PREDICTED BY RF-SCORE:    0.00 PKD
ROOT
HETATM    1  C   UNL     1      -7.293   9.820  67.516  1.00  0.00    -0.090 C  
HETATM    2  O   UNL     1      -7.324  10.975  66.683  1.00  0.00    -0.131 OA 
ENDROOT
BRANCH   2   3
HETATM    3  C   UNL     1      -8.573  11.417  66.337  1.00  0.00    -0.174 A  
HETATM    4  C   UNL     1      -9.139  12.613  66.771  1.00  0.00    -0.214 A  
HETATM    5  C   UNL     1     -10.443  12.995  66.386  1.00  0.00    -0.285 A  
HETATM    6  C   UNL     1     -11.165  12.144  65.532  1.00  0.00    -0.334 A  
HETATM    7  C   UNL     1     -10.575  10.962  65.059  1.00  0.00    -0.287 A  
HETATM    8  C   UNL     1      -9.286  10.605  65.464  1.00  0.00    -0.245 A  
BRANCH   5   9
HETATM    9  C   UNL     1     -11.041  14.302  66.886  1.00  0.00    -0.312 C  
HETATM   10  H   UNL     1     -10.970  15.390  68.540  1.00  0.00     0.000 HD 
HETATM   11  O   UNL     1     -10.596  14.575  68.228  1.00  0.00    -0.233 OA 
BRANCH   9  12
HETATM   12  C   UNL     1     -10.747  15.530  65.967  1.00  0.00    -0.326 C  
HETATM   13  C   UNL     1      -9.394  16.162  66.321  1.00  0.00    -0.351 C  
HETATM   14  N   UNL     1     -10.717  15.194  64.525  1.00  0.00    -0.597 NA 
HETATM   15  H1  UNL     1     -10.525  15.996  63.925  1.00  0.00     0.000 HD 
HETATM   16  H2  UNL     1     -11.581  14.732  64.243  1.00  0.00     0.000 HD 
ENDBRANCH   9  12
ENDBRANCH   5   9
BRANCH   6  17
HETATM   17  O   UNL     1     -12.422  12.553  65.166  1.00  0.00    -0.573 OA 
HETATM   18  C   UNL     1     -12.777  12.294  63.811  1.00  0.00    -0.405 C  
ENDBRANCH   6  17
ENDBRANCH   2   3
TORSDOF 4
ENDMDL
MODEL       84
REMARK 921   NORMALIZED FREE ENERGY PREDICTED BY IDOCK:   -3.88 KCAL/MOL
REMARK 922        TOTAL FREE ENERGY PREDICTED BY IDOCK:   -4.92 KCAL/MOL
REMARK 923 INTER-LIGAND FREE ENERGY PREDICTED BY IDOCK:   -4.63 KCAL/MOL
REMARK 924 INTRA-LIGAND FREE ENERGY PREDICTED BY IDOCK:   -0.29 KCAL/MOL
REMARK 927      BINDING AFFINITY PREDICTED BY RF-SCORE:    0.00 PKD
ROOT
HETATM    1  C   UNL     1     -11.107   4.900  73.414  1.00  0.00    -0.342 C  
HETATM    2  O   UNL     1     -12.069   5.649  72.679  1.00  0.00    -0.212 OA 
ENDROOT
BRANCH   2   3
HETATM    3  C   UNL     1     -11.567   6.687  71.940  1.00  0.00    -0.303 A  
HETATM    4  C   UNL     1     -10.950   6.551  70.700  1.00  0.00    -0.340 A  
HETATM    5  C   UNL     1     -10.438   7.667  70.003  1.00  0.00    -0.229 A  
HETATM    6  C   UNL     1     -10.579   8.940  70.583  1.00  0.00    -0.229 A  
HETATM    7  C   UNL     1     -11.242   9.080  71.811  1.00  0.00    -0.448 A  
HETATM    8  C   UNL     1     -11.730   7.955  72.482  1.00  0.00    -0.423 A  
BRANCH   5   9
HETATM    9  C   UNL     1      -9.757   7.487  68.654  1.00  0.00    -0.154 C  
HETATM   10  H   UNL     1      -8.849   6.025  67.672  1.00  0.00     0.000 HD 
HETATM   11  O   UNL     1      -9.275   6.137  68.513  1.00  0.00    -0.117 OA 
BRANCH   9  12
HETATM   12  C   UNL     1     -10.653   7.863  67.432  1.00  0.00    -0.272 C  
HETATM   13  C   UNL     1      -9.868   8.706  66.420  1.00  0.00    -0.341 C  
HETATM   14  N   UNL     1     -11.189   6.686  66.709  1.00  0.00    -0.761 NA 
HETATM   15  H1  UNL     1     -11.775   6.931  65.911  1.00  0.00     0.000 HD 
HETATM   16  H2  UNL     1     -11.689   6.066  67.347  1.00  0.00     0.000 HD 
ENDBRANCH   9  12
ENDBRANCH   5   9
BRANCH   6  17
HETATM   17  O   UNL     1     -10.085  10.004  69.872  1.00  0.00    -0.235 OA 
HETATM   18  C   UNL     1     -10.990  11.089  69.691  1.00  0.00    -0.225 C  
ENDBRANCH   6  17
ENDBRANCH   2   3
TORSDOF 4
ENDMDL
MODEL       85
REMARK 921   NORMALIZED FREE ENERGY PREDICTED BY IDOCK:   -3.87 KCAL/MOL
REMARK 922        TOTAL FREE ENERGY PREDICTED BY IDOCK:   -4.91 KCAL/MOL
REMARK 923 INTER-LIGAND FREE ENERGY PREDICTED BY IDOCK:   -4.59 KCAL/MOL
REMARK 924 INTRA-LIGAND FREE ENERGY PREDICTED BY IDOCK:   -0.32 KCAL/MOL
REMARK 927      BINDING AFFINITY PREDICTED BY RF-SCORE:    0.00 PKD
ROOT
HETATM    1  C   UNL     1     -12.018  12.675  63.398  1.00  0.00    -0.528 C  
HETATM    2  O   UNL     1     -10.977  12.999  64.313  1.00  0.00    -0.358 OA 
ENDROOT
BRANCH   2   3
HETATM    3  C   UNL     1     -10.982  12.291  65.485  1.00  0.00    -0.298 A  
HETATM    4  C   UNL     1     -10.428  11.023  65.647  1.00  0.00    -0.293 A  
HETATM    5  C   UNL     1     -10.488  10.345  66.883  1.00  0.00    -0.300 A  
HETATM    6  C   UNL     1     -11.109  10.985  67.969  1.00  0.00    -0.286 A  
HETATM    7  C   UNL     1     -11.625  12.280  67.816  1.00  0.00    -0.416 A  
HETATM    8  C   UNL     1     -11.560  12.924  66.577  1.00  0.00    -0.425 A  
BRANCH   5   9
HETATM    9  C   UNL     1      -9.886   8.954  67.028  1.00  0.00    -0.214 C  
HETATM   10  H   UNL     1     -10.530   7.082  66.969  1.00  0.00     0.000 HD 
HETATM   11  O   UNL     1     -10.906   7.949  66.879  1.00  0.00    -0.288 OA 
BRANCH   9  12
HETATM   12  C   UNL     1      -8.705   8.666  66.048  1.00  0.00    -0.170 C  
HETATM   13  C   UNL     1      -7.393   8.474  66.819  1.00  0.00    -0.082 C  
HETATM   14  N   UNL     1      -8.911   7.458  65.215  1.00  0.00    -0.360 NA 
HETATM   15  H1  UNL     1      -8.140   7.270  64.575  1.00  0.00     0.000 HD 
HETATM   16  H2  UNL     1      -9.795   7.515  64.709  1.00  0.00     0.000 HD 
ENDBRANCH   9  12
ENDBRANCH   5   9
BRANCH   6  17
HETATM   17  O   UNL     1     -11.136  10.304  69.159  1.00  0.00    -0.224 OA 
HETATM   18  C   UNL     1     -12.101  10.761  70.102  1.00  0.00    -0.346 C  
ENDBRANCH   6  17
ENDBRANCH   2   3
TORSDOF 4
ENDMDL
MODEL       86
REMARK 921   NORMALIZED FREE ENERGY PREDICTED BY IDOCK:   -3.87 KCAL/MOL
REMARK 922        TOTAL FREE ENERGY PREDICTED BY IDOCK:   -4.90 KCAL/MOL
REMARK 923 INTER-LIGAND FREE ENERGY PREDICTED BY IDOCK:   -4.70 KCAL/MOL
REMARK 924 INTRA-LIGAND FREE ENERGY PREDICTED BY IDOCK:   -0.20 KCAL/MOL
REMARK 927      BINDING AFFINITY PREDICTED BY RF-SCORE:    0.00 PKD
ROOT
HETATM    1  C   UNL     1     -11.464  11.694  67.679  1.00  0.00    -0.303 C  
HETATM    2  O   UNL     1     -11.963  12.510  66.624  1.00  0.00    -0.527 OA 
ENDROOT
BRANCH   2   3
HETATM    3  C   UNL     1     -11.322  13.708  66.455  1.00  0.00    -0.316 A  
HETATM    4  C   UNL     1     -10.401  14.247  67.349  1.00  0.00    -0.259 A  
HETATM    5  C   UNL     1      -9.793  15.500  67.117  1.00  0.00    -0.236 A  
HETATM    6  C   UNL     1     -10.126  16.198  65.943  1.00  0.00    -0.354 A  
HETATM    7  C   UNL     1     -11.019  15.632  65.022  1.00  0.00    -0.445 A  
HETATM    8  C   UNL     1     -11.613  14.394  65.283  1.00  0.00    -0.353 A  
BRANCH   5   9
HETATM    9  C   UNL     1      -8.798  16.071  68.117  1.00  0.00    -0.178 C  
HETATM   10  H   UNL     1      -8.492  15.976  70.072  1.00  0.00     0.000 HD 
HETATM   11  O   UNL     1      -9.113  15.620  69.448  1.00  0.00    -0.260 OA 
BRANCH   9  12
HETATM   12  C   UNL     1      -7.306  15.752  67.785  1.00  0.00    -0.148 C  
HETATM   13  C   UNL     1      -7.084  14.238  67.680  1.00  0.00    -0.200 C  
HETATM   14  N   UNL     1      -6.841  16.358  66.517  1.00  0.00    -0.200 NA 
HETATM   15  H1  UNL     1      -5.867  16.150  66.300  1.00  0.00     0.000 HD 
HETATM   16  H2  UNL     1      -7.004  17.365  66.516  1.00  0.00     0.000 HD 
ENDBRANCH   9  12
ENDBRANCH   5   9
BRANCH   6  17
HETATM   17  O   UNL     1      -9.506  17.405  65.741  1.00  0.00    -0.523 OA 
HETATM   18  C   UNL     1     -10.263  18.550  66.121  1.00  0.00    -0.398 C  
ENDBRANCH   6  17
ENDBRANCH   2   3
TORSDOF 4
ENDMDL
MODEL       87
REMARK 921   NORMALIZED FREE ENERGY PREDICTED BY IDOCK:   -3.86 KCAL/MOL
REMARK 922        TOTAL FREE ENERGY PREDICTED BY IDOCK:   -4.89 KCAL/MOL
REMARK 923 INTER-LIGAND FREE ENERGY PREDICTED BY IDOCK:   -4.65 KCAL/MOL
REMARK 924 INTRA-LIGAND FREE ENERGY PREDICTED BY IDOCK:   -0.24 KCAL/MOL
REMARK 927      BINDING AFFINITY PREDICTED BY RF-SCORE:    0.00 PKD
ROOT
HETATM    1  C   UNL     1     -11.442  15.316  70.206  1.00  0.00    -0.297 C  
HETATM    2  O   UNL     1     -12.402  14.264  70.182  1.00  0.00    -0.324 OA 
ENDROOT
BRANCH   2   3
HETATM    3  C   UNL     1     -12.010  13.125  69.531  1.00  0.00    -0.294 A  
HETATM    4  C   UNL     1     -11.745  11.908  70.153  1.00  0.00    -0.337 A  
HETATM    5  C   UNL     1     -11.326  10.778  69.417  1.00  0.00    -0.351 A  
HETATM    6  C   UNL     1     -11.196  10.899  68.022  1.00  0.00    -0.314 A  
HETATM    7  C   UNL     1     -11.508  12.113  67.393  1.00  0.00    -0.415 A  
HETATM    8  C   UNL     1     -11.911  13.217  68.149  1.00  0.00    -0.340 A  
BRANCH   5   9
HETATM    9  C   UNL     1     -11.031   9.464  70.124  1.00  0.00    -0.246 C  
HETATM   10  H   UNL     1      -9.435   8.362  70.530  1.00  0.00     0.000 HD 
HETATM   11  O   UNL     1      -9.619   9.183  70.089  1.00  0.00    -0.179 OA 
BRANCH   9  12
HETATM   12  C   UNL     1     -11.549   9.402  71.596  1.00  0.00    -0.396 C  
HETATM   13  C   UNL     1     -12.923   8.722  71.660  1.00  0.00    -0.390 C  
HETATM   14  N   UNL     1     -10.646   8.665  72.509  1.00  0.00    -0.240 NA 
HETATM   15  H1  UNL     1     -10.984   8.625  73.471  1.00  0.00     0.000 HD 
HETATM   16  H2  UNL     1      -9.703   9.052  72.475  1.00  0.00     0.000 HD 
ENDBRANCH   9  12
ENDBRANCH   5   9
BRANCH   6  17
HETATM   17  O   UNL     1     -10.802   9.779  67.336  1.00  0.00    -0.274 OA 
HETATM   18  C   UNL     1     -10.016  10.021  66.173  1.00  0.00    -0.256 C  
ENDBRANCH   6  17
ENDBRANCH   2   3
TORSDOF 4
ENDMDL
MODEL       88
REMARK 921   NORMALIZED FREE ENERGY PREDICTED BY IDOCK:   -3.84 KCAL/MOL
REMARK 922        TOTAL FREE ENERGY PREDICTED BY IDOCK:   -4.87 KCAL/MOL
REMARK 923 INTER-LIGAND FREE ENERGY PREDICTED BY IDOCK:   -4.53 KCAL/MOL
REMARK 924 INTRA-LIGAND FREE ENERGY PREDICTED BY IDOCK:   -0.34 KCAL/MOL
REMARK 927      BINDING AFFINITY PREDICTED BY RF-SCORE:    0.00 PKD
ROOT
HETATM    1  C   UNL     1     -13.203  12.300  71.614  1.00  0.00    -0.257 C  
HETATM    2  O   UNL     1     -12.573  12.559  70.363  1.00  0.00    -0.157 OA 
ENDROOT
BRANCH   2   3
HETATM    3  C   UNL     1     -11.863  11.514  69.835  1.00  0.00    -0.355 A  
HETATM    4  C   UNL     1     -11.330  10.463  70.578  1.00  0.00    -0.424 A  
HETATM    5  C   UNL     1     -10.591   9.428  69.965  1.00  0.00    -0.267 A  
HETATM    6  C   UNL     1     -10.413   9.467  68.572  1.00  0.00    -0.208 A  
HETATM    7  C   UNL     1     -10.989  10.501  67.821  1.00  0.00    -0.372 A  
HETATM    8  C   UNL     1     -11.708  11.518  68.455  1.00  0.00    -0.379 A  
BRANCH   5   9
HETATM    9  C   UNL     1     -10.009   8.298  70.803  1.00  0.00    -0.190 C  
HETATM   10  H   UNL     1      -9.123   8.107  72.565  1.00  0.00     0.000 HD 
HETATM   11  O   UNL     1      -9.486   8.812  72.042  1.00  0.00    -0.281 OA 
BRANCH   9  12
HETATM   12  C   UNL     1     -11.011   7.135  71.088  1.00  0.00    -0.248 C  
HETATM   13  C   UNL     1     -11.802   7.403  72.375  1.00  0.00    -0.273 C  
HETATM   14  N   UNL     1     -11.992   6.921  70.000  1.00  0.00    -0.644 NA 
HETATM   15  H1  UNL     1     -12.646   6.161  70.186  1.00  0.00     0.000 HD 
HETATM   16  H2  UNL     1     -11.518   6.778  69.108  1.00  0.00     0.000 HD 
ENDBRANCH   9  12
ENDBRANCH   5   9
BRANCH   6  17
HETATM   17  O   UNL     1      -9.703   8.437  68.008  1.00  0.00    -0.150 OA 
HETATM   18  C   UNL     1     -10.351   7.768  66.930  1.00  0.00    -0.326 C  
ENDBRANCH   6  17
ENDBRANCH   2   3
TORSDOF 4
ENDMDL
MODEL       89
REMARK 921   NORMALIZED FREE ENERGY PREDICTED BY IDOCK:   -3.84 KCAL/MOL
REMARK 922        TOTAL FREE ENERGY PREDICTED BY IDOCK:   -4.87 KCAL/MOL
REMARK 923 INTER-LIGAND FREE ENERGY PREDICTED BY IDOCK:   -5.07 KCAL/MOL
REMARK 924 INTRA-LIGAND FREE ENERGY PREDICTED BY IDOCK:    0.20 KCAL/MOL
REMARK 927      BINDING AFFINITY PREDICTED BY RF-SCORE:    0.00 PKD
ROOT
HETATM    1  C   UNL     1      -7.437  16.290  66.878  1.00  0.00    -0.236 C  
HETATM    2  O   UNL     1      -8.774  16.410  66.402  1.00  0.00    -0.260 OA 
ENDROOT
BRANCH   2   3
HETATM    3  C   UNL     1      -9.558  15.299  66.567  1.00  0.00    -0.271 A  
HETATM    4  C   UNL     1      -9.766  14.325  65.594  1.00  0.00    -0.238 A  
HETATM    5  C   UNL     1     -10.605  13.214  65.830  1.00  0.00    -0.293 A  
HETATM    6  C   UNL     1     -11.223  13.097  67.087  1.00  0.00    -0.294 A  
HETATM    7  C   UNL     1     -10.975  14.055  68.081  1.00  0.00    -0.268 A  
HETATM    8  C   UNL     1     -10.147  15.149  67.816  1.00  0.00    -0.230 A  
BRANCH   5   9
HETATM    9  C   UNL     1     -10.825  12.171  64.744  1.00  0.00    -0.307 C  
HETATM   10  H   UNL     1     -10.745  10.197  64.591  1.00  0.00     0.000 HD 
HETATM   11  O   UNL     1     -10.607  10.848  65.269  1.00  0.00    -0.261 OA 
BRANCH   9  12
HETATM   12  C   UNL     1     -12.227  12.249  64.060  1.00  0.00    -0.475 C  
HETATM   13  C   UNL     1     -12.524  13.679  63.591  1.00  0.00    -0.230 C  
HETATM   14  N   UNL     1     -12.360  11.359  62.884  1.00  0.00    -0.834 NA 
HETATM   15  H1  UNL     1     -13.275  11.410  62.437  1.00  0.00     0.000 HD 
HETATM   16  H2  UNL     1     -12.132  10.396  63.131  1.00  0.00     0.000 HD 
ENDBRANCH   9  12
ENDBRANCH   5   9
BRANCH   6  17
HETATM   17  O   UNL     1     -12.019  11.998  67.287  1.00  0.00    -0.591 OA 
HETATM   18  C   UNL     1     -11.843  11.338  68.537  1.00  0.00    -0.285 C  
ENDBRANCH   6  17
ENDBRANCH   2   3
TORSDOF 4
ENDMDL
MODEL       90
REMARK 921   NORMALIZED FREE ENERGY PREDICTED BY IDOCK:   -3.83 KCAL/MOL
REMARK 922        TOTAL FREE ENERGY PREDICTED BY IDOCK:   -4.86 KCAL/MOL
REMARK 923 INTER-LIGAND FREE ENERGY PREDICTED BY IDOCK:   -4.52 KCAL/MOL
REMARK 924 INTRA-LIGAND FREE ENERGY PREDICTED BY IDOCK:   -0.34 KCAL/MOL
REMARK 927      BINDING AFFINITY PREDICTED BY RF-SCORE:    0.00 PKD
ROOT
HETATM    1  C   UNL     1      -9.648   5.365  66.385  1.00  0.00    -0.159 C  
HETATM    2  O   UNL     1     -10.844   5.522  67.141  1.00  0.00    -0.234 OA 
ENDROOT
BRANCH   2   3
HETATM    3  C   UNL     1     -10.854   6.578  68.013  1.00  0.00    -0.295 A  
HETATM    4  C   UNL     1     -11.271   6.505  69.340  1.00  0.00    -0.418 A  
HETATM    5  C   UNL     1     -11.270   7.642  70.177  1.00  0.00    -0.193 A  
HETATM    6  C   UNL     1     -10.820   8.864  69.646  1.00  0.00    -0.178 A  
HETATM    7  C   UNL     1     -10.358   8.924  68.324  1.00  0.00    -0.250 A  
HETATM    8  C   UNL     1     -10.378   7.784  67.516  1.00  0.00    -0.333 A  
BRANCH   5   9
HETATM    9  C   UNL     1     -11.743   7.537  71.620  1.00  0.00    -0.282 C  
HETATM   10  H   UNL     1     -13.466   7.284  72.566  1.00  0.00     0.000 HD 
HETATM   11  O   UNL     1     -13.171   7.350  71.666  1.00  0.00    -0.356 OA 
BRANCH   9  12
HETATM   12  C   UNL     1     -11.033   6.417  72.443  1.00  0.00    -0.250 C  
HETATM   13  C   UNL     1     -10.290   7.013  73.645  1.00  0.00    -0.412 C  
HETATM   14  N   UNL     1     -11.961   5.386  72.961  1.00  0.00    -0.524 NA 
HETATM   15  H1  UNL     1     -11.497   4.654  73.499  1.00  0.00     0.000 HD 
HETATM   16  H2  UNL     1     -12.513   4.982  72.204  1.00  0.00     0.000 HD 
ENDBRANCH   9  12
ENDBRANCH   5   9
BRANCH   6  17
HETATM   17  O   UNL     1     -10.819   9.945  70.491  1.00  0.00    -0.287 OA 
HETATM   18  C   UNL     1     -11.790  10.946  70.201  1.00  0.00    -0.353 C  
ENDBRANCH   6  17
ENDBRANCH   2   3
TORSDOF 4
ENDMDL
MODEL       91
REMARK 921   NORMALIZED FREE ENERGY PREDICTED BY IDOCK:   -3.82 KCAL/MOL
REMARK 922        TOTAL FREE ENERGY PREDICTED BY IDOCK:   -4.84 KCAL/MOL
REMARK 923 INTER-LIGAND FREE ENERGY PREDICTED BY IDOCK:   -4.52 KCAL/MOL
REMARK 924 INTRA-LIGAND FREE ENERGY PREDICTED BY IDOCK:   -0.32 KCAL/MOL
REMARK 927      BINDING AFFINITY PREDICTED BY RF-SCORE:    0.00 PKD
ROOT
HETATM    1  C   UNL     1      -6.166  14.647  69.794  1.00  0.00    -0.140 C  
HETATM    2  O   UNL     1      -6.044  15.935  69.199  1.00  0.00    -0.118 OA 
ENDROOT
BRANCH   2   3
HETATM    3  C   UNL     1      -7.225  16.556  68.896  1.00  0.00    -0.208 A  
HETATM    4  C   UNL     1      -8.488  16.039  69.177  1.00  0.00    -0.247 A  
HETATM    5  C   UNL     1      -9.665  16.730  68.816  1.00  0.00    -0.261 A  
HETATM    6  C   UNL     1      -9.541  17.974  68.174  1.00  0.00    -0.301 A  
HETATM    7  C   UNL     1      -8.269  18.514  67.934  1.00  0.00    -0.277 A  
HETATM    8  C   UNL     1      -7.121  17.803  68.293  1.00  0.00    -0.230 A  
BRANCH   5   9
HETATM    9  C   UNL     1     -11.032  16.136  69.125  1.00  0.00    -0.309 C  
HETATM   10  H   UNL     1     -12.398  15.068  68.166  1.00  0.00     0.000 HD 
HETATM   11  O   UNL     1     -11.545  15.439  67.974  1.00  0.00    -0.344 OA 
BRANCH   9  12
HETATM   12  C   UNL     1     -11.050  15.194  70.370  1.00  0.00    -0.260 C  
HETATM   13  C   UNL     1     -12.148  15.615  71.354  1.00  0.00    -0.476 C  
HETATM   14  N   UNL     1     -11.282  13.771  70.030  1.00  0.00    -0.479 NA 
HETATM   15  H1  UNL     1     -11.294  13.155  70.843  1.00  0.00     0.000 HD 
HETATM   16  H2  UNL     1     -10.600  13.448  69.343  1.00  0.00     0.000 HD 
ENDBRANCH   9  12
ENDBRANCH   5   9
BRANCH   6  17
HETATM   17  O   UNL     1     -10.705  18.625  67.852  1.00  0.00    -0.383 OA 
HETATM   18  C   UNL     1     -10.582  19.636  66.855  1.00  0.00    -0.484 C  
ENDBRANCH   6  17
ENDBRANCH   2   3
TORSDOF 4
ENDMDL
MODEL       92
REMARK 921   NORMALIZED FREE ENERGY PREDICTED BY IDOCK:   -3.79 KCAL/MOL
REMARK 922        TOTAL FREE ENERGY PREDICTED BY IDOCK:   -4.81 KCAL/MOL
REMARK 923 INTER-LIGAND FREE ENERGY PREDICTED BY IDOCK:   -5.08 KCAL/MOL
REMARK 924 INTRA-LIGAND FREE ENERGY PREDICTED BY IDOCK:    0.27 KCAL/MOL
REMARK 927      BINDING AFFINITY PREDICTED BY RF-SCORE:    0.00 PKD
ROOT
HETATM    1  C   UNL     1     -13.569  13.326  72.096  1.00  0.00    -0.562 C  
HETATM    2  O   UNL     1     -12.752  13.189  70.938  1.00  0.00    -0.307 OA 
ENDROOT
BRANCH   2   3
HETATM    3  C   UNL     1     -12.308  11.920  70.680  1.00  0.00    -0.313 A  
HETATM    4  C   UNL     1     -12.587  10.806  71.468  1.00  0.00    -0.500 A  
HETATM    5  C   UNL     1     -12.078   9.529  71.148  1.00  0.00    -0.429 A  
HETATM    6  C   UNL     1     -11.286   9.394  69.995  1.00  0.00    -0.190 A  
HETATM    7  C   UNL     1     -11.044  10.507  69.178  1.00  0.00    -0.302 A  
HETATM    8  C   UNL     1     -11.553  11.762  69.524  1.00  0.00    -0.398 A  
BRANCH   5   9
HETATM    9  C   UNL     1     -12.390   8.332  72.035  1.00  0.00    -0.349 C  
HETATM   10  H   UNL     1     -13.109   6.501  71.799  1.00  0.00     0.000 HD 
HETATM   11  O   UNL     1     -12.914   7.248  71.246  1.00  0.00    -0.369 OA 
BRANCH   9  12
HETATM   12  C   UNL     1     -11.177   7.835  72.884  1.00  0.00    -0.376 C  
HETATM   13  C   UNL     1     -10.980   6.322  72.718  1.00  0.00    -0.291 C  
HETATM   14  N   UNL     1      -9.898   8.490  72.526  1.00  0.00    -0.284 NA 
HETATM   15  H1  UNL     1      -9.106   8.166  73.080  1.00  0.00     0.000 HD 
HETATM   16  H2  UNL     1      -9.984   9.505  72.580  1.00  0.00     0.000 HD 
ENDBRANCH   9  12
ENDBRANCH   5   9
BRANCH   6  17
HETATM   17  O   UNL     1     -10.820   8.136  69.706  1.00  0.00    -0.245 OA 
HETATM   18  C   UNL     1     -10.531   7.894  68.332  1.00  0.00    -0.166 C  
ENDBRANCH   6  17
ENDBRANCH   2   3
TORSDOF 4
ENDMDL
MODEL       93
REMARK 921   NORMALIZED FREE ENERGY PREDICTED BY IDOCK:   -3.77 KCAL/MOL
REMARK 922        TOTAL FREE ENERGY PREDICTED BY IDOCK:   -4.79 KCAL/MOL
REMARK 923 INTER-LIGAND FREE ENERGY PREDICTED BY IDOCK:   -4.49 KCAL/MOL
REMARK 924 INTRA-LIGAND FREE ENERGY PREDICTED BY IDOCK:   -0.30 KCAL/MOL
REMARK 927      BINDING AFFINITY PREDICTED BY RF-SCORE:    0.00 PKD
ROOT
HETATM    1  C   UNL     1     -11.017  16.074  67.901  1.00  0.00    -0.327 C  
HETATM    2  O   UNL     1     -11.408  14.857  67.274  1.00  0.00    -0.336 OA 
ENDROOT
BRANCH   2   3
HETATM    3  C   UNL     1     -11.525  13.777  68.107  1.00  0.00    -0.313 A  
HETATM    4  C   UNL     1     -11.154  12.477  67.776  1.00  0.00    -0.291 A  
HETATM    5  C   UNL     1     -11.322  11.408  68.682  1.00  0.00    -0.327 A  
HETATM    6  C   UNL     1     -11.863  11.684  69.950  1.00  0.00    -0.358 A  
HETATM    7  C   UNL     1     -12.193  13.001  70.298  1.00  0.00    -0.368 A  
HETATM    8  C   UNL     1     -12.025  14.039  69.376  1.00  0.00    -0.390 A  
BRANCH   5   9
HETATM    9  C   UNL     1     -10.918   9.994  68.289  1.00  0.00    -0.227 C  
HETATM   10  H   UNL     1     -10.779   8.938  66.618  1.00  0.00     0.000 HD 
HETATM   11  O   UNL     1     -11.031   9.820  66.864  1.00  0.00    -0.117 OA 
BRANCH   9  12
HETATM   12  C   UNL     1      -9.489   9.583  68.764  1.00  0.00    -0.147 C  
HETATM   13  C   UNL     1      -8.463   9.787  67.642  1.00  0.00    -0.122 C  
HETATM   14  N   UNL     1      -9.017  10.348  69.942  1.00  0.00    -0.376 NA 
HETATM   15  H1  UNL     1      -8.083  10.079  70.253  1.00  0.00     0.000 HD 
HETATM   16  H2  UNL     1      -9.685  10.280  70.709  1.00  0.00     0.000 HD 
ENDBRANCH   9  12
ENDBRANCH   5   9
BRANCH   6  17
HETATM   17  O   UNL     1     -11.998  10.625  70.811  1.00  0.00    -0.320 OA 
HETATM   18  C   UNL     1     -13.052  10.743  71.762  1.00  0.00    -0.468 C  
ENDBRANCH   6  17
ENDBRANCH   2   3
TORSDOF 4
ENDMDL
MODEL       94
REMARK 921   NORMALIZED FREE ENERGY PREDICTED BY IDOCK:   -3.74 KCAL/MOL
REMARK 922        TOTAL FREE ENERGY PREDICTED BY IDOCK:   -4.75 KCAL/MOL
REMARK 923 INTER-LIGAND FREE ENERGY PREDICTED BY IDOCK:   -4.82 KCAL/MOL
REMARK 924 INTRA-LIGAND FREE ENERGY PREDICTED BY IDOCK:    0.07 KCAL/MOL
REMARK 927      BINDING AFFINITY PREDICTED BY RF-SCORE:    0.00 PKD
ROOT
HETATM    1  C   UNL     1      -9.693  20.293  67.151  1.00  0.00    -0.452 C  
HETATM    2  O   UNL     1     -10.509  19.391  67.891  1.00  0.00    -0.410 OA 
ENDROOT
BRANCH   2   3
HETATM    3  C   UNL     1     -10.606  18.127  67.374  1.00  0.00    -0.388 A  
HETATM    4  C   UNL     1     -10.717  16.966  68.136  1.00  0.00    -0.375 A  
HETATM    5  C   UNL     1     -10.794  15.692  67.533  1.00  0.00    -0.316 A  
HETATM    6  C   UNL     1     -10.773  15.614  66.130  1.00  0.00    -0.303 A  
HETATM    7  C   UNL     1     -10.707  16.786  65.364  1.00  0.00    -0.201 A  
HETATM    8  C   UNL     1     -10.622  18.034  65.989  1.00  0.00    -0.258 A  
BRANCH   5   9
HETATM    9  C   UNL     1     -10.903  14.439  68.391  1.00  0.00    -0.248 C  
HETATM   10  H   UNL     1     -12.288  13.088  68.814  1.00  0.00     0.000 HD 
HETATM   11  O   UNL     1     -12.220  13.869  68.279  1.00  0.00    -0.332 OA 
BRANCH   9  12
HETATM   12  C   UNL     1      -9.825  13.355  68.075  1.00  0.00    -0.229 C  
HETATM   13  C   UNL     1      -8.419  13.875  68.401  1.00  0.00    -0.159 C  
HETATM   14  N   UNL     1     -10.017  12.094  68.827  1.00  0.00    -0.402 NA 
HETATM   15  H1  UNL     1      -9.313  11.386  68.620  1.00  0.00     0.000 HD 
HETATM   16  H2  UNL     1     -10.956  11.724  68.677  1.00  0.00     0.000 HD 
ENDBRANCH   9  12
ENDBRANCH   5   9
BRANCH   6  17
HETATM   17  O   UNL     1     -10.864  14.362  65.577  1.00  0.00    -0.303 OA 
HETATM   18  C   UNL     1     -11.939  14.177  64.660  1.00  0.00    -0.445 C  
ENDBRANCH   6  17
ENDBRANCH   2   3
TORSDOF 4
ENDMDL
MODEL       95
REMARK 921   NORMALIZED FREE ENERGY PREDICTED BY IDOCK:   -3.74 KCAL/MOL
REMARK 922        TOTAL FREE ENERGY PREDICTED BY IDOCK:   -4.74 KCAL/MOL
REMARK 923 INTER-LIGAND FREE ENERGY PREDICTED BY IDOCK:   -4.38 KCAL/MOL
REMARK 924 INTRA-LIGAND FREE ENERGY PREDICTED BY IDOCK:   -0.36 KCAL/MOL
REMARK 927      BINDING AFFINITY PREDICTED BY RF-SCORE:    0.00 PKD
ROOT
HETATM    1  C   UNL     1     -10.517  19.651  66.206  1.00  0.00    -0.519 C  
HETATM    2  O   UNL     1      -9.109  19.518  66.371  1.00  0.00    -0.342 OA 
ENDROOT
BRANCH   2   3
HETATM    3  C   UNL     1      -8.668  18.254  66.656  1.00  0.00    -0.277 A  
HETATM    4  C   UNL     1      -9.478  17.121  66.692  1.00  0.00    -0.279 A  
HETATM    5  C   UNL     1      -8.954  15.850  67.012  1.00  0.00    -0.239 A  
HETATM    6  C   UNL     1      -7.579  15.741  67.283  1.00  0.00    -0.210 A  
HETATM    7  C   UNL     1      -6.758  16.874  67.201  1.00  0.00    -0.221 A  
HETATM    8  C   UNL     1      -7.305  18.122  66.891  1.00  0.00    -0.228 A  
BRANCH   5   9
HETATM    9  C   UNL     1      -9.865  14.631  67.056  1.00  0.00    -0.244 C  
HETATM   10  H   UNL     1     -10.835  13.595  68.438  1.00  0.00     0.000 HD 
HETATM   11  O   UNL     1     -10.267  14.355  68.411  1.00  0.00    -0.229 OA 
BRANCH   9  12
HETATM   12  C   UNL     1     -11.124  14.743  66.139  1.00  0.00    -0.339 C  
HETATM   13  C   UNL     1     -10.896  14.010  64.811  1.00  0.00    -0.430 C  
HETATM   14  N   UNL     1     -12.351  14.183  66.750  1.00  0.00    -0.554 NA 
HETATM   15  H1  UNL     1     -13.173  14.256  66.151  1.00  0.00     0.000 HD 
HETATM   16  H2  UNL     1     -12.528  14.608  67.660  1.00  0.00     0.000 HD 
ENDBRANCH   9  12
ENDBRANCH   5   9
BRANCH   6  17
HETATM   17  O   UNL     1      -7.102  14.489  67.576  1.00  0.00    -0.175 OA 
HETATM   18  C   UNL     1      -6.571  14.330  68.888  1.00  0.00    -0.096 C  
ENDBRANCH   6  17
ENDBRANCH   2   3
TORSDOF 4
ENDMDL
MODEL       96
REMARK 921   NORMALIZED FREE ENERGY PREDICTED BY IDOCK:   -3.74 KCAL/MOL
REMARK 922        TOTAL FREE ENERGY PREDICTED BY IDOCK:   -4.74 KCAL/MOL
REMARK 923 INTER-LIGAND FREE ENERGY PREDICTED BY IDOCK:   -4.45 KCAL/MOL
REMARK 924 INTRA-LIGAND FREE ENERGY PREDICTED BY IDOCK:   -0.29 KCAL/MOL
REMARK 927      BINDING AFFINITY PREDICTED BY RF-SCORE:    0.00 PKD
ROOT
HETATM    1  C   UNL     1     -12.184  13.269  65.626  1.00  0.00    -0.462 C  
HETATM    2  O   UNL     1     -11.005  12.745  66.229  1.00  0.00    -0.271 OA 
ENDROOT
BRANCH   2   3
HETATM    3  C   UNL     1     -11.183  12.155  67.452  1.00  0.00    -0.302 A  
HETATM    4  C   UNL     1     -10.859  10.833  67.748  1.00  0.00    -0.320 A  
HETATM    5  C   UNL     1     -11.089  10.287  69.029  1.00  0.00    -0.277 A  
HETATM    6  C   UNL     1     -11.643  11.115  70.021  1.00  0.00    -0.338 A  
HETATM    7  C   UNL     1     -11.925  12.458  69.734  1.00  0.00    -0.359 A  
HETATM    8  C   UNL     1     -11.696  12.969  68.453  1.00  0.00    -0.386 A  
BRANCH   5   9
HETATM    9  C   UNL     1     -10.737   8.835  69.322  1.00  0.00    -0.151 C  
HETATM   10  H   UNL     1     -10.385   7.190  68.276  1.00  0.00     0.000 HD 
HETATM   11  O   UNL     1     -10.604   8.095  68.093  1.00  0.00    -0.190 OA 
BRANCH   9  12
HETATM   12  C   UNL     1      -9.454   8.654  70.194  1.00  0.00    -0.164 C  
HETATM   13  C   UNL     1      -8.482   9.820  69.980  1.00  0.00    -0.229 C  
HETATM   14  N   UNL     1      -9.735   8.570  71.645  1.00  0.00    -0.225 NA 
HETATM   15  H1  UNL     1      -8.897   8.451  72.215  1.00  0.00     0.000 HD 
HETATM   16  H2  UNL     1     -10.412   7.832  71.841  1.00  0.00     0.000 HD 
ENDBRANCH   9  12
ENDBRANCH   5   9
BRANCH   6  17
HETATM   17  O   UNL     1     -11.838  10.556  71.258  1.00  0.00    -0.328 OA 
HETATM   18  C   UNL     1     -13.096  10.841  71.864  1.00  0.00    -0.451 C  
ENDBRANCH   6  17
ENDBRANCH   2   3
TORSDOF 4
ENDMDL
MODEL       97
REMARK 921   NORMALIZED FREE ENERGY PREDICTED BY IDOCK:   -3.72 KCAL/MOL
REMARK 922        TOTAL FREE ENERGY PREDICTED BY IDOCK:   -4.72 KCAL/MOL
REMARK 923 INTER-LIGAND FREE ENERGY PREDICTED BY IDOCK:   -4.41 KCAL/MOL
REMARK 924 INTRA-LIGAND FREE ENERGY PREDICTED BY IDOCK:   -0.31 KCAL/MOL
REMARK 927      BINDING AFFINITY PREDICTED BY RF-SCORE:    0.00 PKD
ROOT
HETATM    1  C   UNL     1     -10.624  18.479  65.672  1.00  0.00    -0.111 C  
HETATM    2  O   UNL     1     -10.797  17.342  64.833  1.00  0.00    -0.773 OA 
ENDROOT
BRANCH   2   3
HETATM    3  C   UNL     1     -10.384  16.150  65.366  1.00  0.00    -0.330 A  
HETATM    4  C   UNL     1      -9.255  15.988  66.164  1.00  0.00    -0.388 A  
HETATM    5  C   UNL     1      -8.881  14.721  66.664  1.00  0.00    -0.262 A  
HETATM    6  C   UNL     1      -9.687  13.613  66.352  1.00  0.00    -0.292 A  
HETATM    7  C   UNL     1     -10.849  13.787  65.587  1.00  0.00    -0.287 A  
HETATM    8  C   UNL     1     -11.190  15.051  65.097  1.00  0.00    -0.391 A  
BRANCH   5   9
HETATM    9  C   UNL     1      -7.634  14.571  67.524  1.00  0.00    -0.190 C  
HETATM   10  H   UNL     1      -5.791  15.298  67.545  1.00  0.00     0.000 HD 
HETATM   11  O   UNL     1      -6.569  15.392  67.008  1.00  0.00    -0.268 OA 
BRANCH   9  12
HETATM   12  C   UNL     1      -7.862  14.883  69.037  1.00  0.00    -0.165 C  
HETATM   13  C   UNL     1      -7.485  16.335  69.355  1.00  0.00    -0.152 C  
HETATM   14  N   UNL     1      -9.261  14.680  69.477  1.00  0.00    -0.405 NA 
HETATM   15  H1  UNL     1      -9.411  14.884  70.465  1.00  0.00     0.000 HD 
HETATM   16  H2  UNL     1      -9.579  13.738  69.251  1.00  0.00     0.000 HD 
ENDBRANCH   9  12
ENDBRANCH   5   9
BRANCH   6  17
HETATM   17  O   UNL     1      -9.303  12.401  66.867  1.00  0.00    -0.200 OA 
HETATM   18  C   UNL     1     -10.262  11.763  67.705  1.00  0.00    -0.199 C  
ENDBRANCH   6  17
ENDBRANCH   2   3
TORSDOF 4
ENDMDL
MODEL       98
REMARK 921   NORMALIZED FREE ENERGY PREDICTED BY IDOCK:   -3.72 KCAL/MOL
REMARK 922        TOTAL FREE ENERGY PREDICTED BY IDOCK:   -4.72 KCAL/MOL
REMARK 923 INTER-LIGAND FREE ENERGY PREDICTED BY IDOCK:   -4.38 KCAL/MOL
REMARK 924 INTRA-LIGAND FREE ENERGY PREDICTED BY IDOCK:   -0.34 KCAL/MOL
REMARK 927      BINDING AFFINITY PREDICTED BY RF-SCORE:    0.00 PKD
ROOT
HETATM    1  C   UNL     1     -11.864  12.665  68.419  1.00  0.00    -0.301 C  
HETATM    2  O   UNL     1     -11.958  12.558  67.002  1.00  0.00    -0.498 OA 
ENDROOT
BRANCH   2   3
HETATM    3  C   UNL     1     -11.213  11.557  66.438  1.00  0.00    -0.243 A  
HETATM    4  C   UNL     1     -10.894  10.356  67.067  1.00  0.00    -0.269 A  
HETATM    5  C   UNL     1     -10.104   9.376  66.427  1.00  0.00    -0.332 A  
HETATM    6  C   UNL     1      -9.652   9.628  65.120  1.00  0.00    -0.254 A  
HETATM    7  C   UNL     1     -10.014  10.818  64.472  1.00  0.00    -0.395 A  
HETATM    8  C   UNL     1     -10.789  11.774  65.133  1.00  0.00    -0.351 A  
BRANCH   5   9
HETATM    9  C   UNL     1      -9.760   8.077  67.143  1.00  0.00    -0.195 C  
HETATM   10  H   UNL     1      -9.142   7.536  68.946  1.00  0.00     0.000 HD 
HETATM   11  O   UNL     1      -9.357   8.346  68.500  1.00  0.00    -0.139 OA 
BRANCH   9  12
HETATM   12  C   UNL     1     -10.906   7.018  67.127  1.00  0.00    -0.357 C  
HETATM   13  C   UNL     1     -10.437   5.719  66.460  1.00  0.00    -0.280 C  
HETATM   14  N   UNL     1     -11.405   6.668  68.477  1.00  0.00    -0.576 NA 
HETATM   15  H1  UNL     1     -12.154   5.976  68.467  1.00  0.00     0.000 HD 
HETATM   16  H2  UNL     1     -11.695   7.505  68.984  1.00  0.00     0.000 HD 
ENDBRANCH   9  12
ENDBRANCH   5   9
BRANCH   6  17
HETATM   17  O   UNL     1      -8.900   8.648  64.524  1.00  0.00    -0.075 OA 
HETATM   18  C   UNL     1      -7.658   9.081  63.977  1.00  0.00    -0.118 C  
ENDBRANCH   6  17
ENDBRANCH   2   3
TORSDOF 4
ENDMDL
MODEL       99
REMARK 921   NORMALIZED FREE ENERGY PREDICTED BY IDOCK:   -3.72 KCAL/MOL
REMARK 922        TOTAL FREE ENERGY PREDICTED BY IDOCK:   -4.72 KCAL/MOL
REMARK 923 INTER-LIGAND FREE ENERGY PREDICTED BY IDOCK:   -4.80 KCAL/MOL
REMARK 924 INTRA-LIGAND FREE ENERGY PREDICTED BY IDOCK:    0.09 KCAL/MOL
REMARK 927      BINDING AFFINITY PREDICTED BY RF-SCORE:    0.00 PKD
ROOT
HETATM    1  C   UNL     1      -6.872  12.215  67.000  1.00  0.00    -0.067 C  
HETATM    2  O   UNL     1      -6.957  13.340  67.868  1.00  0.00    -0.102 OA 
ENDROOT
BRANCH   2   3
HETATM    3  C   UNL     1      -7.611  14.429  67.358  1.00  0.00    -0.172 A  
HETATM    4  C   UNL     1      -8.911  14.411  66.860  1.00  0.00    -0.246 A  
HETATM    5  C   UNL     1      -9.515  15.573  66.331  1.00  0.00    -0.320 A  
HETATM    6  C   UNL     1      -8.777  16.769  66.329  1.00  0.00    -0.307 A  
HETATM    7  C   UNL     1      -7.485  16.795  66.873  1.00  0.00    -0.257 A  
HETATM    8  C   UNL     1      -6.909  15.628  67.382  1.00  0.00    -0.231 A  
BRANCH   5   9
HETATM    9  C   UNL     1     -10.933  15.521  65.782  1.00  0.00    -0.283 C  
HETATM   10  H   UNL     1     -11.826  15.830  64.040  1.00  0.00     0.000 HD 
HETATM   11  O   UNL     1     -10.941  15.862  64.383  1.00  0.00    -0.489 OA 
BRANCH   9  12
HETATM   12  C   UNL     1     -11.652  14.152  66.000  1.00  0.00    -0.361 C  
HETATM   13  C   UNL     1     -12.160  14.029  67.442  1.00  0.00    -0.384 C  
HETATM   14  N   UNL     1     -12.810  13.943  65.102  1.00  0.00    -0.748 NA 
HETATM   15  H1  UNL     1     -13.280  13.049  65.245  1.00  0.00     0.000 HD 
HETATM   16  H2  UNL     1     -12.536  14.055  64.126  1.00  0.00     0.000 HD 
ENDBRANCH   9  12
ENDBRANCH   5   9
BRANCH   6  17
HETATM   17  O   UNL     1      -9.399  17.881  65.822  1.00  0.00    -0.507 OA 
HETATM   18  C   UNL     1      -9.346  19.040  66.649  1.00  0.00    -0.332 C  
ENDBRANCH   6  17
ENDBRANCH   2   3
TORSDOF 4
ENDMDL
MODEL      100
REMARK 921   NORMALIZED FREE ENERGY PREDICTED BY IDOCK:   -3.71 KCAL/MOL
REMARK 922        TOTAL FREE ENERGY PREDICTED BY IDOCK:   -4.70 KCAL/MOL
REMARK 923 INTER-LIGAND FREE ENERGY PREDICTED BY IDOCK:   -4.30 KCAL/MOL
REMARK 924 INTRA-LIGAND FREE ENERGY PREDICTED BY IDOCK:   -0.40 KCAL/MOL
REMARK 927      BINDING AFFINITY PREDICTED BY RF-SCORE:    0.00 PKD
ROOT
HETATM    1  C   UNL     1      -8.455   9.750  67.256  1.00  0.00    -0.125 C  
HETATM    2  O   UNL     1      -9.623  10.138  67.972  1.00  0.00    -0.144 OA 
ENDROOT
BRANCH   2   3
HETATM    3  C   UNL     1      -9.696   9.692  69.264  1.00  0.00    -0.185 A  
HETATM    4  C   UNL     1     -10.881   9.507  69.973  1.00  0.00    -0.286 A  
HETATM    5  C   UNL     1     -10.877   9.061  71.312  1.00  0.00    -0.385 A  
HETATM    6  C   UNL     1      -9.641   8.787  71.923  1.00  0.00    -0.302 A  
HETATM    7  C   UNL     1      -8.453   8.930  71.193  1.00  0.00    -0.250 A  
HETATM    8  C   UNL     1      -8.486   9.382  69.871  1.00  0.00    -0.186 A  
BRANCH   5   9
HETATM    9  C   UNL     1     -12.187   8.880  72.067  1.00  0.00    -0.377 C  
HETATM   10  H   UNL     1     -13.782   9.977  72.487  1.00  0.00     0.000 HD 
HETATM   11  O   UNL     1     -12.965  10.090  72.016  1.00  0.00    -0.419 OA 
BRANCH   9  12
HETATM   12  C   UNL     1     -13.045   7.673  71.573  1.00  0.00    -0.338 C  
HETATM   13  C   UNL     1     -12.335   6.345  71.866  1.00  0.00    -0.279 C  
HETATM   14  N   UNL     1     -14.386   7.607  72.197  1.00  0.00    -0.617 NA 
HETATM   15  H1  UNL     1     -14.947   6.818  71.875  1.00  0.00     0.000 HD 
HETATM   16  H2  UNL     1     -14.889   8.485  72.067  1.00  0.00     0.000 HD 
ENDBRANCH   9  12
ENDBRANCH   5   9
BRANCH   6  17
HETATM   17  O   UNL     1      -9.675   8.341  73.220  1.00  0.00    -0.227 OA 
HETATM   18  C   UNL     1      -8.697   7.360  73.553  1.00  0.00    -0.177 C  
ENDBRANCH   6  17
ENDBRANCH   2   3
TORSDOF 4
ENDMDL
MODEL      101
REMARK 921   NORMALIZED FREE ENERGY PREDICTED BY IDOCK:   -3.68 KCAL/MOL
REMARK 922        TOTAL FREE ENERGY PREDICTED BY IDOCK:   -4.67 KCAL/MOL
REMARK 923 INTER-LIGAND FREE ENERGY PREDICTED BY IDOCK:   -4.83 KCAL/MOL
REMARK 924 INTRA-LIGAND FREE ENERGY PREDICTED BY IDOCK:    0.16 KCAL/MOL
REMARK 927      BINDING AFFINITY PREDICTED BY RF-SCORE:    0.00 PKD
ROOT
HETATM    1  C   UNL     1      -6.117  14.162  67.991  1.00  0.00    -0.145 C  
HETATM    2  O   UNL     1      -6.801  15.172  67.256  1.00  0.00    -0.233 OA 
ENDROOT
BRANCH   2   3
HETATM    3  C   UNL     1      -8.149  14.981  67.109  1.00  0.00    -0.214 A  
HETATM    4  C   UNL     1      -8.916  14.116  67.886  1.00  0.00    -0.185 A  
HETATM    5  C   UNL     1     -10.301  13.957  67.665  1.00  0.00    -0.242 A  
HETATM    6  C   UNL     1     -10.906  14.710  66.644  1.00  0.00    -0.312 A  
HETATM    7  C   UNL     1     -10.141  15.615  65.894  1.00  0.00    -0.378 A  
HETATM    8  C   UNL     1      -8.769  15.744  66.129  1.00  0.00    -0.293 A  
BRANCH   5   9
HETATM    9  C   UNL     1     -11.112  12.995  68.520  1.00  0.00    -0.266 C  
HETATM   10  H   UNL     1     -12.729  13.080  69.663  1.00  0.00     0.000 HD 
HETATM   11  O   UNL     1     -12.223  13.681  69.129  1.00  0.00    -0.326 OA 
BRANCH   9  12
HETATM   12  C   UNL     1     -11.620  11.733  67.753  1.00  0.00    -0.304 C  
HETATM   13  C   UNL     1     -10.454  11.005  67.073  1.00  0.00    -0.284 C  
HETATM   14  N   UNL     1     -12.311  10.753  68.622  1.00  0.00    -0.786 NA 
HETATM   15  H1  UNL     1     -12.643   9.929  68.121  1.00  0.00     0.000 HD 
HETATM   16  H2  UNL     1     -13.074  11.197  69.132  1.00  0.00     0.000 HD 
ENDBRANCH   9  12
ENDBRANCH   5   9
BRANCH   6  17
HETATM   17  O   UNL     1     -12.256  14.543  66.466  1.00  0.00    -0.381 OA 
HETATM   18  C   UNL     1     -12.639  13.948  65.229  1.00  0.00    -0.478 C  
ENDBRANCH   6  17
ENDBRANCH   2   3
TORSDOF 4
ENDMDL
MODEL      102
REMARK 921   NORMALIZED FREE ENERGY PREDICTED BY IDOCK:   -3.65 KCAL/MOL
REMARK 922        TOTAL FREE ENERGY PREDICTED BY IDOCK:   -4.63 KCAL/MOL
REMARK 923 INTER-LIGAND FREE ENERGY PREDICTED BY IDOCK:   -4.58 KCAL/MOL
REMARK 924 INTRA-LIGAND FREE ENERGY PREDICTED BY IDOCK:   -0.05 KCAL/MOL
REMARK 927      BINDING AFFINITY PREDICTED BY RF-SCORE:    0.00 PKD
ROOT
HETATM    1  C   UNL     1     -11.162   5.034  73.423  1.00  0.00    -0.319 C  
HETATM    2  O   UNL     1     -10.986   6.440  73.284  1.00  0.00    -0.253 OA 
ENDROOT
BRANCH   2   3
HETATM    3  C   UNL     1     -10.911   6.899  71.996  1.00  0.00    -0.225 A  
HETATM    4  C   UNL     1     -10.728   8.233  71.640  1.00  0.00    -0.320 A  
HETATM    5  C   UNL     1     -10.679   8.636  70.288  1.00  0.00    -0.243 A  
HETATM    6  C   UNL     1     -10.803   7.652  69.292  1.00  0.00    -0.099 A  
HETATM    7  C   UNL     1     -10.941   6.304  69.652  1.00  0.00    -0.440 A  
HETATM    8  C   UNL     1     -10.995   5.935  71.000  1.00  0.00    -0.335 A  
BRANCH   5   9
HETATM    9  C   UNL     1     -10.491  10.103  69.927  1.00  0.00    -0.275 C  
HETATM   10  H   UNL     1      -9.335  11.161  68.716  1.00  0.00     0.000 HD 
HETATM   11  O   UNL     1      -9.453  10.246  68.940  1.00  0.00    -0.168 OA 
BRANCH   9  12
HETATM   12  C   UNL     1     -11.794  10.810  69.437  1.00  0.00    -0.298 C  
HETATM   13  C   UNL     1     -11.847  12.259  69.938  1.00  0.00    -0.383 C  
HETATM   14  N   UNL     1     -11.927  10.845  67.962  1.00  0.00    -0.777 NA 
HETATM   15  H1  UNL     1     -12.778  11.307  67.642  1.00  0.00     0.000 HD 
HETATM   16  H2  UNL     1     -11.857   9.906  67.570  1.00  0.00     0.000 HD 
ENDBRANCH   9  12
ENDBRANCH   5   9
BRANCH   6  17
HETATM   17  O   UNL     1     -10.736   8.076  67.989  1.00  0.00    -0.158 OA 
HETATM   18  C   UNL     1     -10.937   7.063  67.007  1.00  0.00    -0.287 C  
ENDBRANCH   6  17
ENDBRANCH   2   3
TORSDOF 4
ENDMDL
MODEL      103
REMARK 921   NORMALIZED FREE ENERGY PREDICTED BY IDOCK:   -3.62 KCAL/MOL
REMARK 922        TOTAL FREE ENERGY PREDICTED BY IDOCK:   -4.60 KCAL/MOL
REMARK 923 INTER-LIGAND FREE ENERGY PREDICTED BY IDOCK:   -4.30 KCAL/MOL
REMARK 924 INTRA-LIGAND FREE ENERGY PREDICTED BY IDOCK:   -0.30 KCAL/MOL
REMARK 927      BINDING AFFINITY PREDICTED BY RF-SCORE:    0.00 PKD
ROOT
HETATM    1  C   UNL     1      -7.098  14.774  69.557  1.00  0.00    -0.172 C  
HETATM    2  O   UNL     1      -8.177  15.581  69.096  1.00  0.00    -0.209 OA 
ENDROOT
BRANCH   2   3
HETATM    3  C   UNL     1      -8.794  15.142  67.955  1.00  0.00    -0.170 A  
HETATM    4  C   UNL     1      -8.934  13.804  67.595  1.00  0.00    -0.194 A  
HETATM    5  C   UNL     1      -9.567  13.426  66.391  1.00  0.00    -0.265 A  
HETATM    6  C   UNL     1     -10.076  14.436  65.557  1.00  0.00    -0.356 A  
HETATM    7  C   UNL     1      -9.974  15.780  65.944  1.00  0.00    -0.380 A  
HETATM    8  C   UNL     1      -9.334  16.125  67.137  1.00  0.00    -0.225 A  
BRANCH   5   9
HETATM    9  C   UNL     1      -9.695  11.956  66.017  1.00  0.00    -0.237 C  
HETATM   10  H   UNL     1      -8.556  10.336  66.091  1.00  0.00     0.000 HD 
HETATM   11  O   UNL     1      -8.476  11.253  66.324  1.00  0.00    -0.170 OA 
BRANCH   9  12
HETATM   12  C   UNL     1     -10.909  11.233  66.680  1.00  0.00    -0.273 C  
HETATM   13  C   UNL     1     -10.444  10.337  67.835  1.00  0.00    -0.253 C  
HETATM   14  N   UNL     1     -11.926  12.163  67.222  1.00  0.00    -0.578 NA 
HETATM   15  H1  UNL     1     -12.719  11.691  67.656  1.00  0.00     0.000 HD 
HETATM   16  H2  UNL     1     -12.242  12.813  66.502  1.00  0.00     0.000 HD 
ENDBRANCH   9  12
ENDBRANCH   5   9
BRANCH   6  17
HETATM   17  O   UNL     1     -10.698  14.033  64.403  1.00  0.00    -0.377 OA 
HETATM   18  C   UNL     1     -12.070  14.398  64.291  1.00  0.00    -0.436 C  
ENDBRANCH   6  17
ENDBRANCH   2   3
TORSDOF 4
ENDMDL
MODEL      104
REMARK 921   NORMALIZED FREE ENERGY PREDICTED BY IDOCK:   -3.62 KCAL/MOL
REMARK 922        TOTAL FREE ENERGY PREDICTED BY IDOCK:   -4.59 KCAL/MOL
REMARK 923 INTER-LIGAND FREE ENERGY PREDICTED BY IDOCK:   -4.64 KCAL/MOL
REMARK 924 INTRA-LIGAND FREE ENERGY PREDICTED BY IDOCK:    0.05 KCAL/MOL
REMARK 927      BINDING AFFINITY PREDICTED BY RF-SCORE:    0.00 PKD
ROOT
HETATM    1  C   UNL     1      -7.897  10.439  68.505  1.00  0.00    -0.107 C  
HETATM    2  O   UNL     1      -7.472   9.287  69.226  1.00  0.00    -0.071 OA 
ENDROOT
BRANCH   2   3
HETATM    3  C   UNL     1      -8.291   8.901  70.253  1.00  0.00    -0.147 A  
HETATM    4  C   UNL     1      -9.683   8.917  70.205  1.00  0.00    -0.199 A  
HETATM    5  C   UNL     1     -10.464   8.520  71.312  1.00  0.00    -0.289 A  
HETATM    6  C   UNL     1      -9.805   8.088  72.476  1.00  0.00    -0.263 A  
HETATM    7  C   UNL     1      -8.404   8.029  72.506  1.00  0.00    -0.211 A  
HETATM    8  C   UNL     1      -7.656   8.437  71.397  1.00  0.00    -0.109 A  
BRANCH   5   9
HETATM    9  C   UNL     1     -11.984   8.559  71.236  1.00  0.00    -0.294 C  
HETATM   10  H   UNL     1     -13.470   7.249  71.245  1.00  0.00     0.000 HD 
HETATM   11  O   UNL     1     -12.522   7.225  71.293  1.00  0.00    -0.344 OA 
BRANCH   9  12
HETATM   12  C   UNL     1     -12.654   9.451  72.328  1.00  0.00    -0.306 C  
HETATM   13  C   UNL     1     -13.138  10.776  71.726  1.00  0.00    -0.573 C  
HETATM   14  N   UNL     1     -13.817   8.809  72.983  1.00  0.00    -1.065 NA 
HETATM   15  H1  UNL     1     -14.254   9.392  73.696  1.00  0.00     0.000 HD 
HETATM   16  H2  UNL     1     -13.559   7.900  73.367  1.00  0.00     0.000 HD 
ENDBRANCH   9  12
ENDBRANCH   5   9
BRANCH   6  17
HETATM   17  O   UNL     1     -10.594   7.696  73.527  1.00  0.00    -0.343 OA 
HETATM   18  C   UNL     1     -10.403   6.353  73.964  1.00  0.00    -0.323 C  
ENDBRANCH   6  17
ENDBRANCH   2   3
TORSDOF 4
ENDMDL
MODEL      105
REMARK 921   NORMALIZED FREE ENERGY PREDICTED BY IDOCK:   -3.60 KCAL/MOL
REMARK 922        TOTAL FREE ENERGY PREDICTED BY IDOCK:   -4.57 KCAL/MOL
REMARK 923 INTER-LIGAND FREE ENERGY PREDICTED BY IDOCK:   -4.19 KCAL/MOL
REMARK 924 INTRA-LIGAND FREE ENERGY PREDICTED BY IDOCK:   -0.38 KCAL/MOL
REMARK 927      BINDING AFFINITY PREDICTED BY RF-SCORE:    0.00 PKD
ROOT
HETATM    1  C   UNL     1      -6.553  11.216  67.235  1.00  0.00    -0.083 C  
HETATM    2  O   UNL     1      -7.592  10.280  66.970  1.00  0.00    -0.097 OA 
ENDROOT
BRANCH   2   3
HETATM    3  C   UNL     1      -8.828  10.824  66.738  1.00  0.00    -0.142 A  
HETATM    4  C   UNL     1      -9.654  11.360  67.722  1.00  0.00    -0.177 A  
HETATM    5  C   UNL     1     -10.926  11.888  67.411  1.00  0.00    -0.315 A  
HETATM    6  C   UNL     1     -11.344  11.878  66.069  1.00  0.00    -0.316 A  
HETATM    7  C   UNL     1     -10.492  11.379  65.074  1.00  0.00    -0.361 A  
HETATM    8  C   UNL     1      -9.241  10.855  65.413  1.00  0.00    -0.231 A  
BRANCH   5   9
HETATM    9  C   UNL     1     -11.814  12.457  68.509  1.00  0.00    -0.304 C  
HETATM   10  H   UNL     1     -12.627  11.811  70.196  1.00  0.00     0.000 HD 
HETATM   11  O   UNL     1     -12.073  11.456  69.511  1.00  0.00    -0.315 OA 
BRANCH   9  12
HETATM   12  C   UNL     1     -11.250  13.749  69.179  1.00  0.00    -0.262 C  
HETATM   13  C   UNL     1     -11.427  14.962  68.256  1.00  0.00    -0.343 C  
HETATM   14  N   UNL     1     -11.898  14.076  70.470  1.00  0.00    -0.453 NA 
HETATM   15  H1  UNL     1     -11.529  14.920  70.908  1.00  0.00     0.000 HD 
HETATM   16  H2  UNL     1     -11.845  13.284  71.111  1.00  0.00     0.000 HD 
ENDBRANCH   9  12
ENDBRANCH   5   9
BRANCH   6  17
HETATM   17  O   UNL     1     -12.579  12.412  65.800  1.00  0.00    -0.532 OA 
HETATM   18  C   UNL     1     -12.867  12.614  64.419  1.00  0.00    -0.257 C  
ENDBRANCH   6  17
ENDBRANCH   2   3
TORSDOF 4
ENDMDL
MODEL      106
REMARK 921   NORMALIZED FREE ENERGY PREDICTED BY IDOCK:   -3.60 KCAL/MOL
REMARK 922        TOTAL FREE ENERGY PREDICTED BY IDOCK:   -4.57 KCAL/MOL
REMARK 923 INTER-LIGAND FREE ENERGY PREDICTED BY IDOCK:   -4.32 KCAL/MOL
REMARK 924 INTRA-LIGAND FREE ENERGY PREDICTED BY IDOCK:   -0.25 KCAL/MOL
REMARK 927      BINDING AFFINITY PREDICTED BY RF-SCORE:    0.00 PKD
ROOT
HETATM    1  C   UNL     1      -8.901   8.986  69.508  1.00  0.00    -0.146 C  
HETATM    2  O   UNL     1     -10.301   9.203  69.371  1.00  0.00    -0.203 OA 
ENDROOT
BRANCH   2   3
HETATM    3  C   UNL     1     -10.658  10.235  68.545  1.00  0.00    -0.213 A  
HETATM    4  C   UNL     1     -11.119  11.475  68.980  1.00  0.00    -0.302 A  
HETATM    5  C   UNL     1     -11.487  12.487  68.067  1.00  0.00    -0.368 A  
HETATM    6  C   UNL     1     -11.364  12.225  66.691  1.00  0.00    -0.343 A  
HETATM    7  C   UNL     1     -10.857  10.992  66.256  1.00  0.00    -0.234 A  
HETATM    8  C   UNL     1     -10.509  10.005  67.183  1.00  0.00    -0.305 A  
BRANCH   5   9
HETATM    9  C   UNL     1     -11.999  13.829  68.570  1.00  0.00    -0.367 C  
HETATM   10  H   UNL     1     -12.931  14.515  70.178  1.00  0.00     0.000 HD 
HETATM   11  O   UNL     1     -12.612  13.677  69.864  1.00  0.00    -0.221 OA 
BRANCH   9  12
HETATM   12  C   UNL     1     -10.910  14.947  68.624  1.00  0.00    -0.251 C  
HETATM   13  C   UNL     1     -11.559  16.333  68.728  1.00  0.00    -0.223 C  
HETATM   14  N   UNL     1      -9.976  14.806  69.764  1.00  0.00    -0.438 NA 
HETATM   15  H1  UNL     1      -9.264  15.536  69.799  1.00  0.00     0.000 HD 
HETATM   16  H2  UNL     1      -9.544  13.882  69.766  1.00  0.00     0.000 HD 
ENDBRANCH   9  12
ENDBRANCH   5   9
BRANCH   6  17
HETATM   17  O   UNL     1     -11.716  13.235  65.833  1.00  0.00    -0.334 OA 
HETATM   18  C   UNL     1     -11.661  12.905  64.448  1.00  0.00    -0.372 C  
ENDBRANCH   6  17
ENDBRANCH   2   3
TORSDOF 4
ENDMDL
MODEL      107
REMARK 921   NORMALIZED FREE ENERGY PREDICTED BY IDOCK:   -3.60 KCAL/MOL
REMARK 922        TOTAL FREE ENERGY PREDICTED BY IDOCK:   -4.57 KCAL/MOL
REMARK 923 INTER-LIGAND FREE ENERGY PREDICTED BY IDOCK:   -4.30 KCAL/MOL
REMARK 924 INTRA-LIGAND FREE ENERGY PREDICTED BY IDOCK:   -0.26 KCAL/MOL
REMARK 927      BINDING AFFINITY PREDICTED BY RF-SCORE:    0.00 PKD
ROOT
HETATM    1  C   UNL     1      -8.945  10.198  64.222  1.00  0.00    -0.237 C  
HETATM    2  O   UNL     1      -9.901   9.690  65.146  1.00  0.00    -0.295 OA 
ENDROOT
BRANCH   2   3
HETATM    3  C   UNL     1     -10.197  10.514  66.199  1.00  0.00    -0.236 A  
HETATM    4  C   UNL     1     -10.444  10.080  67.499  1.00  0.00    -0.307 A  
HETATM    5  C   UNL     1     -10.761  10.989  68.532  1.00  0.00    -0.236 A  
HETATM    6  C   UNL     1     -10.809  12.360  68.227  1.00  0.00    -0.237 A  
HETATM    7  C   UNL     1     -10.515  12.798  66.928  1.00  0.00    -0.250 A  
HETATM    8  C   UNL     1     -10.212  11.875  65.922  1.00  0.00    -0.270 A  
BRANCH   5   9
HETATM    9  C   UNL     1     -11.039  10.485  69.942  1.00  0.00    -0.307 C  
HETATM   10  H   UNL     1     -12.622  10.229  71.104  1.00  0.00     0.000 HD 
HETATM   11  O   UNL     1     -12.449  10.543  70.225  1.00  0.00    -0.305 OA 
BRANCH   9  12
HETATM   12  C   UNL     1     -10.497   9.048  70.223  1.00  0.00    -0.215 C  
HETATM   13  C   UNL     1      -9.922   8.952  71.642  1.00  0.00    -0.397 C  
HETATM   14  N   UNL     1     -11.527   7.993  70.090  1.00  0.00    -0.466 NA 
HETATM   15  H1  UNL     1     -11.174   7.054  70.273  1.00  0.00     0.000 HD 
HETATM   16  H2  UNL     1     -11.974   8.037  69.174  1.00  0.00     0.000 HD 
ENDBRANCH   9  12
ENDBRANCH   5   9
BRANCH   6  17
HETATM   17  O   UNL     1     -11.105  13.215  69.257  1.00  0.00    -0.226 OA 
HETATM   18  C   UNL     1     -11.989  14.283  68.928  1.00  0.00    -0.320 C  
ENDBRANCH   6  17
ENDBRANCH   2   3
TORSDOF 4
ENDMDL
MODEL      108
REMARK 921   NORMALIZED FREE ENERGY PREDICTED BY IDOCK:   -3.58 KCAL/MOL
REMARK 922        TOTAL FREE ENERGY PREDICTED BY IDOCK:   -4.55 KCAL/MOL
REMARK 923 INTER-LIGAND FREE ENERGY PREDICTED BY IDOCK:   -4.13 KCAL/MOL
REMARK 924 INTRA-LIGAND FREE ENERGY PREDICTED BY IDOCK:   -0.41 KCAL/MOL
REMARK 927      BINDING AFFINITY PREDICTED BY RF-SCORE:    0.00 PKD
ROOT
HETATM    1  C   UNL     1     -10.798   8.420  70.570  1.00  0.00    -0.232 C  
HETATM    2  O   UNL     1     -10.784   8.400  69.147  1.00  0.00    -0.200 OA 
ENDROOT
BRANCH   2   3
HETATM    3  C   UNL     1     -10.241   9.505  68.548  1.00  0.00    -0.199 A  
HETATM    4  C   UNL     1     -10.749  10.117  67.405  1.00  0.00    -0.336 A  
HETATM    5  C   UNL     1     -10.124  11.246  66.833  1.00  0.00    -0.246 A  
HETATM    6  C   UNL     1      -8.972  11.760  67.454  1.00  0.00    -0.173 A  
HETATM    7  C   UNL     1      -8.489  11.170  68.631  1.00  0.00    -0.153 A  
HETATM    8  C   UNL     1      -9.123  10.048  69.170  1.00  0.00    -0.188 A  
BRANCH   5   9
HETATM    9  C   UNL     1     -10.694  11.887  65.576  1.00  0.00    -0.283 C  
HETATM   10  H   UNL     1     -11.175  11.308  63.743  1.00  0.00     0.000 HD 
HETATM   11  O   UNL     1     -10.819  10.908  64.528  1.00  0.00    -0.279 OA 
BRANCH   9  12
HETATM   12  C   UNL     1     -12.059  12.613  65.793  1.00  0.00    -0.423 C  
HETATM   13  C   UNL     1     -11.927  13.711  66.856  1.00  0.00    -0.454 C  
HETATM   14  N   UNL     1     -12.594  13.245  64.565  1.00  0.00    -0.646 NA 
HETATM   15  H1  UNL     1     -13.485  13.719  64.707  1.00  0.00     0.000 HD 
HETATM   16  H2  UNL     1     -12.663  12.564  63.809  1.00  0.00     0.000 HD 
ENDBRANCH   9  12
ENDBRANCH   5   9
BRANCH   6  17
HETATM   17  O   UNL     1      -8.399  12.866  66.880  1.00  0.00    -0.145 OA 
HETATM   18  C   UNL     1      -8.118  13.940  67.773  1.00  0.00    -0.172 C  
ENDBRANCH   6  17
ENDBRANCH   2   3
TORSDOF 4
ENDMDL
MODEL      109
REMARK 921   NORMALIZED FREE ENERGY PREDICTED BY IDOCK:   -3.57 KCAL/MOL
REMARK 922        TOTAL FREE ENERGY PREDICTED BY IDOCK:   -4.53 KCAL/MOL
REMARK 923 INTER-LIGAND FREE ENERGY PREDICTED BY IDOCK:   -4.29 KCAL/MOL
REMARK 924 INTRA-LIGAND FREE ENERGY PREDICTED BY IDOCK:   -0.25 KCAL/MOL
REMARK 927      BINDING AFFINITY PREDICTED BY RF-SCORE:    0.00 PKD
ROOT
HETATM    1  C   UNL     1     -13.677   8.910  72.312  1.00  0.00    -0.471 C  
HETATM    2  O   UNL     1     -13.231  10.224  71.994  1.00  0.00    -0.450 OA 
ENDROOT
BRANCH   2   3
HETATM    3  C   UNL     1     -12.152  10.292  71.154  1.00  0.00    -0.395 A  
HETATM    4  C   UNL     1     -10.988   9.543  71.297  1.00  0.00    -0.440 A  
HETATM    5  C   UNL     1      -9.907   9.680  70.400  1.00  0.00    -0.315 A  
HETATM    6  C   UNL     1     -10.033  10.587  69.333  1.00  0.00    -0.196 A  
HETATM    7  C   UNL     1     -11.224  11.307  69.164  1.00  0.00    -0.337 A  
HETATM    8  C   UNL     1     -12.275  11.157  70.074  1.00  0.00    -0.402 A  
BRANCH   5   9
HETATM    9  C   UNL     1      -8.640   8.857  70.588  1.00  0.00    -0.194 C  
HETATM   10  H   UNL     1      -7.471   8.320  72.094  1.00  0.00     0.000 HD 
HETATM   11  O   UNL     1      -8.261   8.833  71.977  1.00  0.00    -0.323 OA 
BRANCH   9  12
HETATM   12  C   UNL     1      -8.740   7.399  70.038  1.00  0.00    -0.140 C  
HETATM   13  C   UNL     1      -9.190   6.432  71.140  1.00  0.00    -0.159 C  
HETATM   14  N   UNL     1      -9.689   7.258  68.909  1.00  0.00    -0.147 NA 
HETATM   15  H1  UNL     1      -9.754   6.305  68.550  1.00  0.00     0.000 HD 
HETATM   16  H2  UNL     1      -9.460   7.911  68.160  1.00  0.00     0.000 HD 
ENDBRANCH   9  12
ENDBRANCH   5   9
BRANCH   6  17
HETATM   17  O   UNL     1      -8.970  10.684  68.472  1.00  0.00    -0.141 OA 
HETATM   18  C   UNL     1      -8.688  11.998  67.998  1.00  0.00    -0.175 C  
ENDBRANCH   6  17
ENDBRANCH   2   3
TORSDOF 4
ENDMDL
MODEL      110
REMARK 921   NORMALIZED FREE ENERGY PREDICTED BY IDOCK:   -3.56 KCAL/MOL
REMARK 922        TOTAL FREE ENERGY PREDICTED BY IDOCK:   -4.53 KCAL/MOL
REMARK 923 INTER-LIGAND FREE ENERGY PREDICTED BY IDOCK:   -4.18 KCAL/MOL
REMARK 924 INTRA-LIGAND FREE ENERGY PREDICTED BY IDOCK:   -0.35 KCAL/MOL
REMARK 927      BINDING AFFINITY PREDICTED BY RF-SCORE:    0.00 PKD
ROOT
HETATM    1  C   UNL     1     -11.811  12.494  68.153  1.00  0.00    -0.317 C  
HETATM    2  O   UNL     1     -11.598  11.464  67.193  1.00  0.00    -0.519 OA 
ENDROOT
BRANCH   2   3
HETATM    3  C   UNL     1     -11.152  10.273  67.699  1.00  0.00    -0.251 A  
HETATM    4  C   UNL     1     -11.219   9.907  69.041  1.00  0.00    -0.131 A  
HETATM    5  C   UNL     1     -10.720   8.666  69.493  1.00  0.00    -0.189 A  
HETATM    6  C   UNL     1     -10.161   7.786  68.551  1.00  0.00    -0.199 A  
HETATM    7  C   UNL     1     -10.136   8.137  67.194  1.00  0.00    -0.334 A  
HETATM    8  C   UNL     1     -10.629   9.377  66.776  1.00  0.00    -0.210 A  
BRANCH   5   9
HETATM    9  C   UNL     1     -10.796   8.297  70.968  1.00  0.00    -0.233 C  
HETATM   10  H   UNL     1     -10.535   9.211  72.706  1.00  0.00     0.000 HD 
HETATM   11  O   UNL     1     -10.488   9.441  71.786  1.00  0.00    -0.282 OA 
BRANCH   9  12
HETATM   12  C   UNL     1     -12.164   7.684  71.402  1.00  0.00    -0.326 C  
HETATM   13  C   UNL     1     -11.960   6.322  72.079  1.00  0.00    -0.353 C  
HETATM   14  N   UNL     1     -12.922   8.539  72.345  1.00  0.00    -0.542 NA 
HETATM   15  H1  UNL     1     -13.816   8.139  72.628  1.00  0.00     0.000 HD 
HETATM   16  H2  UNL     1     -13.051   9.475  71.960  1.00  0.00     0.000 HD 
ENDBRANCH   9  12
ENDBRANCH   5   9
BRANCH   6  17
HETATM   17  O   UNL     1      -9.700   6.583  69.022  1.00  0.00    -0.135 OA 
HETATM   18  C   UNL     1      -9.974   5.458  68.193  1.00  0.00    -0.158 C  
ENDBRANCH   6  17
ENDBRANCH   2   3
TORSDOF 4
ENDMDL
MODEL      111
REMARK 921   NORMALIZED FREE ENERGY PREDICTED BY IDOCK:   -3.56 KCAL/MOL
REMARK 922        TOTAL FREE ENERGY PREDICTED BY IDOCK:   -4.52 KCAL/MOL
REMARK 923 INTER-LIGAND FREE ENERGY PREDICTED BY IDOCK:   -4.31 KCAL/MOL
REMARK 924 INTRA-LIGAND FREE ENERGY PREDICTED BY IDOCK:   -0.21 KCAL/MOL
REMARK 927      BINDING AFFINITY PREDICTED BY RF-SCORE:    0.00 PKD
ROOT
HETATM    1  C   UNL     1     -13.063  15.243  70.620  1.00  0.00    -0.358 C  
HETATM    2  O   UNL     1     -11.718  14.819  70.426  1.00  0.00    -0.267 OA 
ENDROOT
BRANCH   2   3
HETATM    3  C   UNL     1     -11.474  14.153  69.254  1.00  0.00    -0.292 A  
HETATM    4  C   UNL     1     -10.819  12.928  69.161  1.00  0.00    -0.126 A  
HETATM    5  C   UNL     1     -10.586  12.308  67.914  1.00  0.00    -0.232 A  
HETATM    6  C   UNL     1     -11.049  12.949  66.752  1.00  0.00    -0.281 A  
HETATM    7  C   UNL     1     -11.749  14.160  66.852  1.00  0.00    -0.437 A  
HETATM    8  C   UNL     1     -11.956  14.755  68.099  1.00  0.00    -0.265 A  
BRANCH   5   9
HETATM    9  C   UNL     1      -9.856  10.975  67.842  1.00  0.00    -0.171 C  
HETATM   10  H   UNL     1      -8.653   9.915  69.005  1.00  0.00     0.000 HD 
HETATM   11  O   UNL     1      -9.108  10.747  69.051  1.00  0.00    -0.179 OA 
BRANCH   9  12
HETATM   12  C   UNL     1     -10.785   9.754  67.552  1.00  0.00    -0.264 C  
HETATM   13  C   UNL     1     -10.152   8.824  66.510  1.00  0.00    -0.349 C  
HETATM   14  N   UNL     1     -11.082   8.940  68.753  1.00  0.00    -0.433 NA 
HETATM   15  H1  UNL     1     -11.689   8.142  68.564  1.00  0.00     0.000 HD 
HETATM   16  H2  UNL     1     -11.469   9.520  69.497  1.00  0.00     0.000 HD 
ENDBRANCH   9  12
ENDBRANCH   5   9
BRANCH   6  17
HETATM   17  O   UNL     1     -10.819  12.312  65.559  1.00  0.00    -0.266 OA 
HETATM   18  C   UNL     1     -10.938  13.130  64.399  1.00  0.00    -0.390 C  
ENDBRANCH   6  17
ENDBRANCH   2   3
TORSDOF 4
ENDMDL
MODEL      112
REMARK 921   NORMALIZED FREE ENERGY PREDICTED BY IDOCK:   -3.56 KCAL/MOL
REMARK 922        TOTAL FREE ENERGY PREDICTED BY IDOCK:   -4.52 KCAL/MOL
REMARK 923 INTER-LIGAND FREE ENERGY PREDICTED BY IDOCK:   -4.59 KCAL/MOL
REMARK 924 INTRA-LIGAND FREE ENERGY PREDICTED BY IDOCK:    0.07 KCAL/MOL
REMARK 927      BINDING AFFINITY PREDICTED BY RF-SCORE:    0.00 PKD
ROOT
HETATM    1  C   UNL     1      -9.894   8.532  69.535  1.00  0.00    -0.187 C  
HETATM    2  O   UNL     1     -10.780   8.741  70.630  1.00  0.00    -0.209 OA 
ENDROOT
BRANCH   2   3
HETATM    3  C   UNL     1     -11.347   9.985  70.699  1.00  0.00    -0.348 A  
HETATM    4  C   UNL     1     -11.112  11.014  69.790  1.00  0.00    -0.303 A  
HETATM    5  C   UNL     1     -11.720  12.280  69.935  1.00  0.00    -0.346 A  
HETATM    6  C   UNL     1     -12.592  12.483  71.019  1.00  0.00    -0.256 A  
HETATM    7  C   UNL     1     -12.862  11.432  71.906  1.00  0.00    -0.381 A  
HETATM    8  C   UNL     1     -12.239  10.191  71.743  1.00  0.00    -0.338 A  
BRANCH   5   9
HETATM    9  C   UNL     1     -11.435  13.390  68.934  1.00  0.00    -0.304 C  
HETATM   10  H   UNL     1     -12.334  14.189  67.360  1.00  0.00     0.000 HD 
HETATM   11  O   UNL     1     -12.512  13.496  67.984  1.00  0.00    -0.062 OA 
BRANCH   9  12
HETATM   12  C   UNL     1     -11.162  14.782  69.587  1.00  0.00    -0.275 C  
HETATM   13  C   UNL     1      -9.775  15.305  69.193  1.00  0.00    -0.243 C  
HETATM   14  N   UNL     1     -12.151  15.817  69.206  1.00  0.00    -0.512 NA 
HETATM   15  H1  UNL     1     -11.973  16.726  69.633  1.00  0.00     0.000 HD 
HETATM   16  H2  UNL     1     -13.100  15.502  69.410  1.00  0.00     0.000 HD 
ENDBRANCH   9  12
ENDBRANCH   5   9
BRANCH   6  17
HETATM   17  O   UNL     1     -13.177  13.720  71.122  1.00  0.00    -0.289 OA 
HETATM   18  C   UNL     1     -14.138  13.855  72.164  1.00  0.00    -0.536 C  
ENDBRANCH   6  17
ENDBRANCH   2   3
TORSDOF 4
ENDMDL
MODEL      113
REMARK 921   NORMALIZED FREE ENERGY PREDICTED BY IDOCK:   -3.55 KCAL/MOL
REMARK 922        TOTAL FREE ENERGY PREDICTED BY IDOCK:   -4.50 KCAL/MOL
REMARK 923 INTER-LIGAND FREE ENERGY PREDICTED BY IDOCK:   -4.13 KCAL/MOL
REMARK 924 INTRA-LIGAND FREE ENERGY PREDICTED BY IDOCK:   -0.38 KCAL/MOL
REMARK 927      BINDING AFFINITY PREDICTED BY RF-SCORE:    0.00 PKD
ROOT
HETATM    1  C   UNL     1      -9.978  10.138  65.509  1.00  0.00    -0.293 C  
HETATM    2  O   UNL     1     -10.218   8.985  66.311  1.00  0.00    -0.284 OA 
ENDROOT
BRANCH   2   3
HETATM    3  C   UNL     1     -10.605   9.236  67.600  1.00  0.00    -0.261 A  
HETATM    4  C   UNL     1     -10.527   8.317  68.644  1.00  0.00    -0.199 A  
HETATM    5  C   UNL     1     -10.964   8.642  69.946  1.00  0.00    -0.169 A  
HETATM    6  C   UNL     1     -11.471   9.931  70.181  1.00  0.00    -0.248 A  
HETATM    7  C   UNL     1     -11.506  10.870  69.139  1.00  0.00    -0.373 A  
HETATM    8  C   UNL     1     -11.075  10.518  67.857  1.00  0.00    -0.367 A  
BRANCH   5   9
HETATM    9  C   UNL     1     -10.878   7.613  71.065  1.00  0.00    -0.242 C  
HETATM   10  H   UNL     1     -11.395   5.720  71.337  1.00  0.00     0.000 HD 
HETATM   11  O   UNL     1     -11.448   6.362  70.639  1.00  0.00    -0.334 OA 
BRANCH   9  12
HETATM   12  C   UNL     1      -9.434   7.383  71.610  1.00  0.00    -0.150 C  
HETATM   13  C   UNL     1      -9.217   8.151  72.920  1.00  0.00    -0.343 C  
HETATM   14  N   UNL     1      -9.122   5.959  71.874  1.00  0.00    -0.138 NA 
HETATM   15  H1  UNL     1      -8.179   5.808  72.229  1.00  0.00     0.000 HD 
HETATM   16  H2  UNL     1      -9.289   5.392  71.042  1.00  0.00     0.000 HD 
ENDBRANCH   9  12
ENDBRANCH   5   9
BRANCH   6  17
HETATM   17  O   UNL     1     -11.872  10.218  71.461  1.00  0.00    -0.336 OA 
HETATM   18  C   UNL     1     -13.262  10.488  71.618  1.00  0.00    -0.391 C  
ENDBRANCH   6  17
ENDBRANCH   2   3
TORSDOF 4
ENDMDL
MODEL      114
REMARK 921   NORMALIZED FREE ENERGY PREDICTED BY IDOCK:   -3.52 KCAL/MOL
REMARK 922        TOTAL FREE ENERGY PREDICTED BY IDOCK:   -4.48 KCAL/MOL
REMARK 923 INTER-LIGAND FREE ENERGY PREDICTED BY IDOCK:   -4.07 KCAL/MOL
REMARK 924 INTRA-LIGAND FREE ENERGY PREDICTED BY IDOCK:   -0.41 KCAL/MOL
REMARK 927      BINDING AFFINITY PREDICTED BY RF-SCORE:    0.00 PKD
ROOT
HETATM    1  C   UNL     1     -10.239  10.871  64.753  1.00  0.00    -0.333 C  
HETATM    2  O   UNL     1     -11.176  11.916  64.992  1.00  0.00    -0.313 OA 
ENDROOT
BRANCH   2   3
HETATM    3  C   UNL     1     -10.885  12.737  66.049  1.00  0.00    -0.276 A  
HETATM    4  C   UNL     1      -9.773  13.572  66.120  1.00  0.00    -0.264 A  
HETATM    5  C   UNL     1      -9.527  14.379  67.253  1.00  0.00    -0.215 A  
HETATM    6  C   UNL     1     -10.445  14.336  68.317  1.00  0.00    -0.247 A  
HETATM    7  C   UNL     1     -11.588  13.529  68.223  1.00  0.00    -0.381 A  
HETATM    8  C   UNL     1     -11.801  12.734  67.093  1.00  0.00    -0.415 A  
BRANCH   5   9
HETATM    9  C   UNL     1      -8.297  15.273  67.309  1.00  0.00    -0.200 C  
HETATM   10  H   UNL     1      -6.346  15.076  67.025  1.00  0.00     0.000 HD 
HETATM   11  O   UNL     1      -7.114  14.517  66.990  1.00  0.00    -0.095 OA 
BRANCH   9  12
HETATM   12  C   UNL     1      -8.386  16.536  66.395  1.00  0.00    -0.322 C  
HETATM   13  C   UNL     1      -9.185  17.650  67.083  1.00  0.00    -0.245 C  
HETATM   14  N   UNL     1      -7.063  17.097  66.034  1.00  0.00    -0.188 NA 
HETATM   15  H1  UNL     1      -7.121  17.921  65.437  1.00  0.00     0.000 HD 
HETATM   16  H2  UNL     1      -6.472  16.383  65.607  1.00  0.00     0.000 HD 
ENDBRANCH   9  12
ENDBRANCH   5   9
BRANCH   6  17
HETATM   17  O   UNL     1     -10.184  15.143  69.395  1.00  0.00    -0.228 OA 
HETATM   18  C   UNL     1     -11.260  15.984  69.801  1.00  0.00    -0.344 C  
ENDBRANCH   6  17
ENDBRANCH   2   3
TORSDOF 4
ENDMDL
MODEL      115
REMARK 921   NORMALIZED FREE ENERGY PREDICTED BY IDOCK:   -3.52 KCAL/MOL
REMARK 922        TOTAL FREE ENERGY PREDICTED BY IDOCK:   -4.48 KCAL/MOL
REMARK 923 INTER-LIGAND FREE ENERGY PREDICTED BY IDOCK:   -4.44 KCAL/MOL
REMARK 924 INTRA-LIGAND FREE ENERGY PREDICTED BY IDOCK:   -0.04 KCAL/MOL
REMARK 927      BINDING AFFINITY PREDICTED BY RF-SCORE:    0.00 PKD
ROOT
HETATM    1  C   UNL     1     -12.462  10.806  71.236  1.00  0.00    -0.399 C  
HETATM    2  O   UNL     1     -12.440  12.007  70.471  1.00  0.00    -0.286 OA 
ENDROOT
BRANCH   2   3
HETATM    3  C   UNL     1     -11.890  11.900  69.222  1.00  0.00    -0.318 A  
HETATM    4  C   UNL     1     -11.519  12.979  68.424  1.00  0.00    -0.345 A  
HETATM    5  C   UNL     1     -10.973  12.791  67.136  1.00  0.00    -0.295 A  
HETATM    6  C   UNL     1     -10.792  11.477  66.671  1.00  0.00    -0.287 A  
HETATM    7  C   UNL     1     -11.123  10.391  67.494  1.00  0.00    -0.336 A  
HETATM    8  C   UNL     1     -11.670  10.608  68.762  1.00  0.00    -0.259 A  
BRANCH   5   9
HETATM    9  C   UNL     1     -10.589  13.989  66.280  1.00  0.00    -0.281 C  
HETATM   10  H   UNL     1     -11.368  15.751  65.818  1.00  0.00     0.000 HD 
HETATM   11  O   UNL     1     -11.608  15.004  66.352  1.00  0.00    -0.294 OA 
BRANCH   9  12
HETATM   12  C   UNL     1      -9.198  14.605  66.634  1.00  0.00    -0.267 C  
HETATM   13  C   UNL     1      -9.027  15.979  65.973  1.00  0.00    -0.345 C  
HETATM   14  N   UNL     1      -8.985  14.784  68.089  1.00  0.00    -0.173 NA 
HETATM   15  H1  UNL     1      -8.077  15.186  68.321  1.00  0.00     0.000 HD 
HETATM   16  H2  UNL     1      -9.127  13.904  68.586  1.00  0.00     0.000 HD 
ENDBRANCH   9  12
ENDBRANCH   5   9
BRANCH   6  17
HETATM   17  O   UNL     1     -10.245  11.330  65.421  1.00  0.00    -0.247 OA 
HETATM   18  C   UNL     1      -9.871  10.001  65.072  1.00  0.00    -0.304 C  
ENDBRANCH   6  17
ENDBRANCH   2   3
TORSDOF 4
ENDMDL
MODEL      116
REMARK 921   NORMALIZED FREE ENERGY PREDICTED BY IDOCK:   -3.51 KCAL/MOL
REMARK 922        TOTAL FREE ENERGY PREDICTED BY IDOCK:   -4.46 KCAL/MOL
REMARK 923 INTER-LIGAND FREE ENERGY PREDICTED BY IDOCK:   -4.59 KCAL/MOL
REMARK 924 INTRA-LIGAND FREE ENERGY PREDICTED BY IDOCK:    0.13 KCAL/MOL
REMARK 927      BINDING AFFINITY PREDICTED BY RF-SCORE:    0.00 PKD
ROOT
HETATM    1  C   UNL     1     -10.355   8.732  66.754  1.00  0.00    -0.258 C  
HETATM    2  O   UNL     1     -10.110   9.668  65.709  1.00  0.00    -0.290 OA 
ENDROOT
BRANCH   2   3
HETATM    3  C   UNL     1     -10.474  10.960  65.980  1.00  0.00    -0.225 A  
HETATM    4  C   UNL     1     -10.389  11.560  67.234  1.00  0.00    -0.236 A  
HETATM    5  C   UNL     1     -10.801  12.894  67.443  1.00  0.00    -0.272 A  
HETATM    6  C   UNL     1     -11.289  13.623  66.345  1.00  0.00    -0.316 A  
HETATM    7  C   UNL     1     -11.330  13.032  65.075  1.00  0.00    -0.325 A  
HETATM    8  C   UNL     1     -10.925  11.706  64.899  1.00  0.00    -0.345 A  
BRANCH   5   9
HETATM    9  C   UNL     1     -10.709  13.520  68.827  1.00  0.00    -0.238 C  
HETATM   10  H   UNL     1      -9.647  14.942  69.708  1.00  0.00     0.000 HD 
HETATM   11  O   UNL     1      -9.704  14.551  68.845  1.00  0.00    -0.213 OA 
BRANCH   9  12
HETATM   12  C   UNL     1     -12.063  14.087  69.361  1.00  0.00    -0.340 C  
HETATM   13  C   UNL     1     -12.410  13.473  70.724  1.00  0.00    -0.440 C  
HETATM   14  N   UNL     1     -12.063  15.558  69.525  1.00  0.00    -0.493 NA 
HETATM   15  H1  UNL     1     -12.947  15.929  69.873  1.00  0.00     0.000 HD 
HETATM   16  H2  UNL     1     -11.798  16.019  68.654  1.00  0.00     0.000 HD 
ENDBRANCH   9  12
ENDBRANCH   5   9
BRANCH   6  17
HETATM   17  O   UNL     1     -11.666  14.921  66.581  1.00  0.00    -0.325 OA 
HETATM   18  C   UNL     1     -10.719  15.911  66.191  1.00  0.00    -0.271 C  
ENDBRANCH   6  17
ENDBRANCH   2   3
TORSDOF 4
ENDMDL
MODEL      117
REMARK 921   NORMALIZED FREE ENERGY PREDICTED BY IDOCK:   -3.48 KCAL/MOL
REMARK 922        TOTAL FREE ENERGY PREDICTED BY IDOCK:   -4.43 KCAL/MOL
REMARK 923 INTER-LIGAND FREE ENERGY PREDICTED BY IDOCK:   -4.12 KCAL/MOL
REMARK 924 INTRA-LIGAND FREE ENERGY PREDICTED BY IDOCK:   -0.31 KCAL/MOL
REMARK 927      BINDING AFFINITY PREDICTED BY RF-SCORE:    0.00 PKD
ROOT
HETATM    1  C   UNL     1     -11.641  15.500  64.279  1.00  0.00    -0.194 C  
HETATM    2  O   UNL     1     -12.401  14.297  64.331  1.00  0.00    -0.570 OA 
ENDROOT
BRANCH   2   3
HETATM    3  C   UNL     1     -11.737  13.202  64.817  1.00  0.00    -0.347 A  
HETATM    4  C   UNL     1     -10.939  12.355  64.052  1.00  0.00    -0.442 A  
HETATM    5  C   UNL     1     -10.299  11.232  64.621  1.00  0.00    -0.373 A  
HETATM    6  C   UNL     1     -10.468  10.989  65.995  1.00  0.00    -0.245 A  
HETATM    7  C   UNL     1     -11.234  11.870  66.772  1.00  0.00    -0.384 A  
HETATM    8  C   UNL     1     -11.864  12.969  66.180  1.00  0.00    -0.466 A  
BRANCH   5   9
HETATM    9  C   UNL     1      -9.443  10.315  63.758  1.00  0.00    -0.300 C  
HETATM   10  H   UNL     1      -9.499   9.589  61.916  1.00  0.00     0.000 HD 
HETATM   11  O   UNL     1     -10.033  10.161  62.454  1.00  0.00     0.006 OA 
BRANCH   9  12
HETATM   12  C   UNL     1      -7.957  10.774  63.620  1.00  0.00     0.177 C  
HETATM   13  C   UNL     1      -7.006   9.575  63.716  1.00  0.00    -0.105 C  
HETATM   14  N   UNL     1      -7.670  11.468  62.343  1.00  0.00    -0.515 NA 
HETATM   15  H1  UNL     1      -6.700  11.768  62.253  1.00  0.00     0.000 HD 
HETATM   16  H2  UNL     1      -8.305  12.255  62.208  1.00  0.00     0.000 HD 
ENDBRANCH   9  12
ENDBRANCH   5   9
BRANCH   6  17
HETATM   17  O   UNL     1      -9.820   9.899  66.517  1.00  0.00    -0.190 OA 
HETATM   18  C   UNL     1      -9.969   9.717  67.922  1.00  0.00    -0.166 C  
ENDBRANCH   6  17
ENDBRANCH   2   3
TORSDOF 4
ENDMDL
MODEL      118
REMARK 921   NORMALIZED FREE ENERGY PREDICTED BY IDOCK:   -3.48 KCAL/MOL
REMARK 922        TOTAL FREE ENERGY PREDICTED BY IDOCK:   -4.42 KCAL/MOL
REMARK 923 INTER-LIGAND FREE ENERGY PREDICTED BY IDOCK:   -4.23 KCAL/MOL
REMARK 924 INTRA-LIGAND FREE ENERGY PREDICTED BY IDOCK:   -0.19 KCAL/MOL
REMARK 927      BINDING AFFINITY PREDICTED BY RF-SCORE:    0.00 PKD
ROOT
HETATM    1  C   UNL     1      -9.965  20.199  68.181  1.00  0.00    -0.350 C  
HETATM    2  O   UNL     1     -10.370  19.116  67.351  1.00  0.00    -0.374 OA 
ENDROOT
BRANCH   2   3
HETATM    3  C   UNL     1     -10.033  17.869  67.805  1.00  0.00    -0.331 A  
HETATM    4  C   UNL     1     -10.713  17.182  68.807  1.00  0.00    -0.289 A  
HETATM    5  C   UNL     1     -10.296  15.903  69.238  1.00  0.00    -0.249 A  
HETATM    6  C   UNL     1      -9.178  15.320  68.618  1.00  0.00    -0.201 A  
HETATM    7  C   UNL     1      -8.523  15.994  67.578  1.00  0.00    -0.178 A  
HETATM    8  C   UNL     1      -8.952  17.263  67.178  1.00  0.00    -0.236 A  
BRANCH   5   9
HETATM    9  C   UNL     1     -11.050  15.180  70.345  1.00  0.00    -0.260 C  
HETATM   10  H   UNL     1     -12.285  15.666  71.815  1.00  0.00     0.000 HD 
HETATM   11  O   UNL     1     -11.815  16.118  71.125  1.00  0.00    -0.422 OA 
BRANCH   9  12
HETATM   12  C   UNL     1     -11.976  14.029  69.838  1.00  0.00    -0.336 C  
HETATM   13  C   UNL     1     -12.138  14.092  68.314  1.00  0.00    -0.297 C  
HETATM   14  N   UNL     1     -11.475  12.677  70.175  1.00  0.00    -0.526 NA 
HETATM   15  H1  UNL     1     -12.080  11.925  69.844  1.00  0.00     0.000 HD 
HETATM   16  H2  UNL     1     -11.310  12.592  71.178  1.00  0.00     0.000 HD 
ENDBRANCH   9  12
ENDBRANCH   5   9
BRANCH   6  17
HETATM   17  O   UNL     1      -8.809  14.071  69.050  1.00  0.00    -0.001 OA 
HETATM   18  C   UNL     1      -8.582  13.113  68.022  1.00  0.00    -0.182 C  
ENDBRANCH   6  17
ENDBRANCH   2   3
TORSDOF 4
ENDMDL
MODEL      119
REMARK 921   NORMALIZED FREE ENERGY PREDICTED BY IDOCK:   -3.48 KCAL/MOL
REMARK 922        TOTAL FREE ENERGY PREDICTED BY IDOCK:   -4.42 KCAL/MOL
REMARK 923 INTER-LIGAND FREE ENERGY PREDICTED BY IDOCK:   -4.24 KCAL/MOL
REMARK 924 INTRA-LIGAND FREE ENERGY PREDICTED BY IDOCK:   -0.18 KCAL/MOL
REMARK 927      BINDING AFFINITY PREDICTED BY RF-SCORE:    0.00 PKD
ROOT
HETATM    1  C   UNL     1      -7.113  11.271  66.777  1.00  0.00    -0.143 C  
HETATM    2  O   UNL     1      -7.320  10.984  68.156  1.00  0.00    -0.081 OA 
ENDROOT
BRANCH   2   3
HETATM    3  C   UNL     1      -8.614  11.089  68.591  1.00  0.00    -0.157 A  
HETATM    4  C   UNL     1      -9.454  12.167  68.325  1.00  0.00    -0.204 A  
HETATM    5  C   UNL     1     -10.774  12.215  68.823  1.00  0.00    -0.252 A  
HETATM    6  C   UNL     1     -11.240  11.132  69.589  1.00  0.00    -0.264 A  
HETATM    7  C   UNL     1     -10.408  10.027  69.817  1.00  0.00    -0.290 A  
HETATM    8  C   UNL     1      -9.101  10.011  69.319  1.00  0.00    -0.208 A  
BRANCH   5   9
HETATM    9  C   UNL     1     -11.666  13.412  68.528  1.00  0.00    -0.357 C  
HETATM   10  H   UNL     1     -11.561  15.381  68.720  1.00  0.00     0.000 HD 
HETATM   11  O   UNL     1     -11.005  14.634  68.904  1.00  0.00    -0.235 OA 
BRANCH   9  12
HETATM   12  C   UNL     1     -12.144  13.500  67.043  1.00  0.00    -0.354 C  
HETATM   13  C   UNL     1     -11.336  14.552  66.274  1.00  0.00    -0.352 C  
HETATM   14  N   UNL     1     -12.021  12.221  66.307  1.00  0.00    -0.626 NA 
HETATM   15  H1  UNL     1     -12.333  12.278  65.338  1.00  0.00     0.000 HD 
HETATM   16  H2  UNL     1     -12.509  11.472  66.799  1.00  0.00     0.000 HD 
ENDBRANCH   9  12
ENDBRANCH   5   9
BRANCH   6  17
HETATM   17  O   UNL     1     -12.532  11.204  70.045  1.00  0.00    -0.285 OA 
HETATM   18  C   UNL     1     -12.704  10.935  71.433  1.00  0.00    -0.434 C  
ENDBRANCH   6  17
ENDBRANCH   2   3
TORSDOF 4
ENDMDL
MODEL      120
REMARK 921   NORMALIZED FREE ENERGY PREDICTED BY IDOCK:   -3.47 KCAL/MOL
REMARK 922        TOTAL FREE ENERGY PREDICTED BY IDOCK:   -4.41 KCAL/MOL
REMARK 923 INTER-LIGAND FREE ENERGY PREDICTED BY IDOCK:   -4.35 KCAL/MOL
REMARK 924 INTRA-LIGAND FREE ENERGY PREDICTED BY IDOCK:   -0.06 KCAL/MOL
REMARK 927      BINDING AFFINITY PREDICTED BY RF-SCORE:    0.00 PKD
ROOT
HETATM    1  C   UNL     1     -11.237  12.536  67.039  1.00  0.00    -0.302 C  
HETATM    2  O   UNL     1     -12.083  12.313  68.161  1.00  0.00    -0.407 OA 
ENDROOT
BRANCH   2   3
HETATM    3  C   UNL     1     -11.805  11.189  68.893  1.00  0.00    -0.337 A  
HETATM    4  C   UNL     1     -11.050  10.112  68.434  1.00  0.00    -0.273 A  
HETATM    5  C   UNL     1     -10.820   8.976  69.241  1.00  0.00    -0.131 A  
HETATM    6  C   UNL     1     -11.358   8.957  70.539  1.00  0.00    -0.234 A  
HETATM    7  C   UNL     1     -12.078  10.061  71.015  1.00  0.00    -0.469 A  
HETATM    8  C   UNL     1     -12.299  11.169  70.191  1.00  0.00    -0.373 A  
BRANCH   5   9
HETATM    9  C   UNL     1     -10.002   7.808  68.709  1.00  0.00    -0.176 C  
HETATM   10  H   UNL     1      -8.444   6.738  69.305  1.00  0.00     0.000 HD 
HETATM   11  O   UNL     1      -8.955   7.467  69.637  1.00  0.00    -0.141 OA 
BRANCH   9  12
HETATM   12  C   UNL     1     -10.847   6.540  68.370  1.00  0.00    -0.289 C  
HETATM   13  C   UNL     1     -10.454   5.974  67.000  1.00  0.00    -0.334 C  
HETATM   14  N   UNL     1     -10.698   5.449  69.361  1.00  0.00    -0.238 NA 
HETATM   15  H1  UNL     1     -11.250   4.621  69.140  1.00  0.00     0.000 HD 
HETATM   16  H2  UNL     1     -10.909   5.783  70.301  1.00  0.00     0.000 HD 
ENDBRANCH   9  12
ENDBRANCH   5   9
BRANCH   6  17
HETATM   17  O   UNL     1     -11.102   7.844  71.300  1.00  0.00    -0.243 OA 
HETATM   18  C   UNL     1     -11.375   7.982  72.691  1.00  0.00    -0.405 C  
ENDBRANCH   6  17
ENDBRANCH   2   3
TORSDOF 4
ENDMDL
MODEL      121
REMARK 921   NORMALIZED FREE ENERGY PREDICTED BY IDOCK:   -3.44 KCAL/MOL
REMARK 922        TOTAL FREE ENERGY PREDICTED BY IDOCK:   -4.38 KCAL/MOL
REMARK 923 INTER-LIGAND FREE ENERGY PREDICTED BY IDOCK:   -4.37 KCAL/MOL
REMARK 924 INTRA-LIGAND FREE ENERGY PREDICTED BY IDOCK:   -0.01 KCAL/MOL
REMARK 927      BINDING AFFINITY PREDICTED BY RF-SCORE:    0.00 PKD
ROOT
HETATM    1  C   UNL     1     -11.937   6.271  72.039  1.00  0.00    -0.300 C  
HETATM    2  O   UNL     1     -11.192   5.864  70.896  1.00  0.00    -0.280 OA 
ENDROOT
BRANCH   2   3
HETATM    3  C   UNL     1     -11.003   6.829  69.943  1.00  0.00    -0.291 A  
HETATM    4  C   UNL     1     -10.895   8.192  70.207  1.00  0.00    -0.244 A  
HETATM    5  C   UNL     1     -10.719   9.133  69.169  1.00  0.00    -0.190 A  
HETATM    6  C   UNL     1     -10.637   8.663  67.847  1.00  0.00    -0.161 A  
HETATM    7  C   UNL     1     -10.699   7.287  67.588  1.00  0.00    -0.294 A  
HETATM    8  C   UNL     1     -10.883   6.379  68.635  1.00  0.00    -0.379 A  
BRANCH   5   9
HETATM    9  C   UNL     1     -10.618  10.618  69.485  1.00  0.00    -0.230 C  
HETATM   10  H   UNL     1      -9.417  12.122  69.015  1.00  0.00     0.000 HD 
HETATM   11  O   UNL     1      -9.480  11.195  68.817  1.00  0.00    -0.191 OA 
BRANCH   9  12
HETATM   12  C   UNL     1     -11.906  11.432  69.144  1.00  0.00    -0.345 C  
HETATM   13  C   UNL     1     -12.030  12.660  70.054  1.00  0.00    -0.377 C  
HETATM   14  N   UNL     1     -11.947  11.911  67.743  1.00  0.00    -0.573 NA 
HETATM   15  H1  UNL     1     -12.788  12.443  67.520  1.00  0.00     0.000 HD 
HETATM   16  H2  UNL     1     -11.827  11.136  67.092  1.00  0.00     0.000 HD 
ENDBRANCH   9  12
ENDBRANCH   5   9
BRANCH   6  17
HETATM   17  O   UNL     1     -10.451   9.603  66.865  1.00  0.00    -0.242 OA 
HETATM   18  C   UNL     1      -9.540   9.234  65.833  1.00  0.00    -0.275 C  
ENDBRANCH   6  17
ENDBRANCH   2   3
TORSDOF 4
ENDMDL
MODEL      122
REMARK 921   NORMALIZED FREE ENERGY PREDICTED BY IDOCK:   -3.43 KCAL/MOL
REMARK 922        TOTAL FREE ENERGY PREDICTED BY IDOCK:   -4.37 KCAL/MOL
REMARK 923 INTER-LIGAND FREE ENERGY PREDICTED BY IDOCK:   -4.16 KCAL/MOL
REMARK 924 INTRA-LIGAND FREE ENERGY PREDICTED BY IDOCK:   -0.20 KCAL/MOL
REMARK 927      BINDING AFFINITY PREDICTED BY RF-SCORE:    0.00 PKD
ROOT
HETATM    1  C   UNL     1     -11.330  16.034  64.529  1.00  0.00    -0.295 C  
HETATM    2  O   UNL     1     -11.576  14.632  64.500  1.00  0.00    -0.397 OA 
ENDROOT
BRANCH   2   3
HETATM    3  C   UNL     1     -11.141  13.936  65.597  1.00  0.00    -0.298 A  
HETATM    4  C   UNL     1     -10.017  14.266  66.350  1.00  0.00    -0.302 A  
HETATM    5  C   UNL     1      -9.618  13.489  67.459  1.00  0.00    -0.221 A  
HETATM    6  C   UNL     1     -10.394  12.370  67.806  1.00  0.00    -0.216 A  
HETATM    7  C   UNL     1     -11.551  12.067  67.074  1.00  0.00    -0.387 A  
HETATM    8  C   UNL     1     -11.917  12.849  65.975  1.00  0.00    -0.505 A  
BRANCH   5   9
HETATM    9  C   UNL     1      -8.377  13.866  68.256  1.00  0.00    -0.163 C  
HETATM   10  H   UNL     1      -6.507  14.391  67.867  1.00  0.00     0.000 HD 
HETATM   11  O   UNL     1      -7.281  14.156  67.369  1.00  0.00    -0.180 OA 
BRANCH   9  12
HETATM   12  C   UNL     1      -8.592  15.055  69.245  1.00  0.00    -0.167 C  
HETATM   13  C   UNL     1      -8.446  16.398  68.520  1.00  0.00    -0.211 C  
HETATM   14  N   UNL     1      -9.921  15.046  69.899  1.00  0.00    -0.477 NA 
HETATM   15  H1  UNL     1     -10.062  15.822  70.545  1.00  0.00     0.000 HD 
HETATM   16  H2  UNL     1     -10.089  14.154  70.365  1.00  0.00     0.000 HD 
ENDBRANCH   9  12
ENDBRANCH   5   9
BRANCH   6  17
HETATM   17  O   UNL     1      -9.987  11.646  68.898  1.00  0.00    -0.168 OA 
HETATM   18  C   UNL     1      -9.856  10.244  68.685  1.00  0.00    -0.173 C  
ENDBRANCH   6  17
ENDBRANCH   2   3
TORSDOF 4
ENDMDL
MODEL      123
REMARK 921   NORMALIZED FREE ENERGY PREDICTED BY IDOCK:   -3.43 KCAL/MOL
REMARK 922        TOTAL FREE ENERGY PREDICTED BY IDOCK:   -4.36 KCAL/MOL
REMARK 923 INTER-LIGAND FREE ENERGY PREDICTED BY IDOCK:   -4.56 KCAL/MOL
REMARK 924 INTRA-LIGAND FREE ENERGY PREDICTED BY IDOCK:    0.19 KCAL/MOL
REMARK 927      BINDING AFFINITY PREDICTED BY RF-SCORE:    0.00 PKD
ROOT
HETATM    1  C   UNL     1     -10.255  19.776  65.899  1.00  0.00    -0.459 C  
HETATM    2  O   UNL     1      -9.442  18.621  66.078  1.00  0.00    -0.486 OA 
ENDROOT
BRANCH   2   3
HETATM    3  C   UNL     1      -9.802  17.805  67.118  1.00  0.00    -0.311 A  
HETATM    4  C   UNL     1     -10.502  16.609  66.980  1.00  0.00    -0.283 A  
HETATM    5  C   UNL     1     -10.855  15.828  68.102  1.00  0.00    -0.307 A  
HETATM    6  C   UNL     1     -10.469  16.275  69.377  1.00  0.00    -0.292 A  
HETATM    7  C   UNL     1      -9.724  17.456  69.509  1.00  0.00     0.243 A  
HETATM    8  C   UNL     1      -9.397  18.214  68.382  1.00  0.00    -0.319 A  
BRANCH   5   9
HETATM    9  C   UNL     1     -11.631  14.531  67.923  1.00  0.00    -0.344 C  
HETATM   10  H   UNL     1     -12.653  13.640  66.478  1.00  0.00     0.000 HD 
HETATM   11  O   UNL     1     -12.168  14.449  66.590  1.00  0.00    -0.424 OA 
BRANCH   9  12
HETATM   12  C   UNL     1     -10.806  13.245  68.245  1.00  0.00    -0.256 C  
HETATM   13  C   UNL     1     -11.403  12.024  67.535  1.00  0.00    -0.387 C  
HETATM   14  N   UNL     1      -9.384  13.340  67.843  1.00  0.00    -0.206 NA 
HETATM   15  H1  UNL     1      -8.844  12.501  68.054  1.00  0.00     0.000 HD 
HETATM   16  H2  UNL     1      -8.945  14.163  68.257  1.00  0.00     0.000 HD 
ENDBRANCH   9  12
ENDBRANCH   5   9
BRANCH   6  17
HETATM   17  O   UNL     1     -10.815  15.484  70.443  1.00  0.00    -0.305 OA 
HETATM   18  C   UNL     1     -12.161  15.618  70.890  1.00  0.00    -0.419 C  
ENDBRANCH   6  17
ENDBRANCH   2   3
TORSDOF 4
ENDMDL
MODEL      124
REMARK 921   NORMALIZED FREE ENERGY PREDICTED BY IDOCK:   -3.43 KCAL/MOL
REMARK 922        TOTAL FREE ENERGY PREDICTED BY IDOCK:   -4.36 KCAL/MOL
REMARK 923 INTER-LIGAND FREE ENERGY PREDICTED BY IDOCK:   -4.07 KCAL/MOL
REMARK 924 INTRA-LIGAND FREE ENERGY PREDICTED BY IDOCK:   -0.29 KCAL/MOL
REMARK 927      BINDING AFFINITY PREDICTED BY RF-SCORE:    0.00 PKD
ROOT
HETATM    1  C   UNL     1     -10.760  12.043  67.292  1.00  0.00    -0.232 C  
HETATM    2  O   UNL     1     -11.639  11.870  68.399  1.00  0.00    -0.271 OA 
ENDROOT
BRANCH   2   3
HETATM    3  C   UNL     1     -11.430  10.741  69.145  1.00  0.00    -0.298 A  
HETATM    4  C   UNL     1     -10.839   9.574  68.666  1.00  0.00    -0.177 A  
HETATM    5  C   UNL     1     -10.672   8.440  69.491  1.00  0.00    -0.181 A  
HETATM    6  C   UNL     1     -11.103   8.514  70.827  1.00  0.00    -0.254 A  
HETATM    7  C   UNL     1     -11.655   9.705  71.318  1.00  0.00    -0.466 A  
HETATM    8  C   UNL     1     -11.817  10.810  70.477  1.00  0.00    -0.453 A  
BRANCH   5   9
HETATM    9  C   UNL     1     -10.035   7.173  68.938  1.00  0.00    -0.163 C  
HETATM   10  H   UNL     1     -10.651   5.411  68.273  1.00  0.00     0.000 HD 
HETATM   11  O   UNL     1     -11.048   6.202  68.618  1.00  0.00    -0.339 OA 
BRANCH   9  12
HETATM   12  C   UNL     1      -9.115   7.411  67.699  1.00  0.00    -0.125 C  
HETATM   13  C   UNL     1      -7.792   6.649  67.850  1.00  0.00    -0.112 C  
HETATM   14  N   UNL     1      -9.727   6.988  66.419  1.00  0.00    -0.376 NA 
HETATM   15  H1  UNL     1      -9.126   7.144  65.610  1.00  0.00     0.000 HD 
HETATM   16  H2  UNL     1     -10.634   7.436  66.286  1.00  0.00     0.000 HD 
ENDBRANCH   9  12
ENDBRANCH   5   9
BRANCH   6  17
HETATM   17  O   UNL     1     -10.912   7.400  71.603  1.00  0.00    -0.224 OA 
HETATM   18  C   UNL     1     -10.853   7.638  73.006  1.00  0.00    -0.400 C  
ENDBRANCH   6  17
ENDBRANCH   2   3
TORSDOF 4
ENDMDL
MODEL      125
REMARK 921   NORMALIZED FREE ENERGY PREDICTED BY IDOCK:   -3.40 KCAL/MOL
REMARK 922        TOTAL FREE ENERGY PREDICTED BY IDOCK:   -4.33 KCAL/MOL
REMARK 923 INTER-LIGAND FREE ENERGY PREDICTED BY IDOCK:   -4.01 KCAL/MOL
REMARK 924 INTRA-LIGAND FREE ENERGY PREDICTED BY IDOCK:   -0.32 KCAL/MOL
REMARK 927      BINDING AFFINITY PREDICTED BY RF-SCORE:    0.00 PKD
ROOT
HETATM    1  C   UNL     1     -12.108  15.409  70.136  1.00  0.00    -0.369 C  
HETATM    2  O   UNL     1     -12.741  14.134  70.106  1.00  0.00    -0.320 OA 
ENDROOT
BRANCH   2   3
HETATM    3  C   UNL     1     -11.944  13.091  69.715  1.00  0.00    -0.308 A  
HETATM    4  C   UNL     1     -10.921  13.184  68.775  1.00  0.00    -0.298 A  
HETATM    5  C   UNL     1     -10.151  12.059  68.408  1.00  0.00    -0.211 A  
HETATM    6  C   UNL     1     -10.427  10.828  69.027  1.00  0.00    -0.215 A  
HETATM    7  C   UNL     1     -11.428  10.746  70.007  1.00  0.00    -0.412 A  
HETATM    8  C   UNL     1     -12.180  11.875  70.344  1.00  0.00    -0.399 A  
BRANCH   5   9
HETATM    9  C   UNL     1      -9.046  12.188  67.369  1.00  0.00    -0.181 C  
HETATM   10  H   UNL     1      -8.923  12.391  65.402  1.00  0.00     0.000 HD 
HETATM   11  O   UNL     1      -9.612  12.310  66.050  1.00  0.00    -0.240 OA 
BRANCH   9  12
HETATM   12  C   UNL     1      -8.055  13.364  67.635  1.00  0.00    -0.175 C  
HETATM   13  C   UNL     1      -6.602  12.880  67.553  1.00  0.00    -0.160 C  
HETATM   14  N   UNL     1      -8.203  14.488  66.681  1.00  0.00    -0.350 NA 
HETATM   15  H1  UNL     1      -7.555  15.256  66.855  1.00  0.00     0.000 HD 
HETATM   16  H2  UNL     1      -9.166  14.824  66.665  1.00  0.00     0.000 HD 
ENDBRANCH   9  12
ENDBRANCH   5   9
BRANCH   6  17
HETATM   17  O   UNL     1      -9.651   9.759  68.658  1.00  0.00    -0.146 OA 
HETATM   18  C   UNL     1     -10.316   8.757  67.895  1.00  0.00    -0.224 C  
ENDBRANCH   6  17
ENDBRANCH   2   3
TORSDOF 4
ENDMDL
MODEL      126
REMARK 921   NORMALIZED FREE ENERGY PREDICTED BY IDOCK:   -3.40 KCAL/MOL
REMARK 922        TOTAL FREE ENERGY PREDICTED BY IDOCK:   -4.32 KCAL/MOL
REMARK 923 INTER-LIGAND FREE ENERGY PREDICTED BY IDOCK:   -4.24 KCAL/MOL
REMARK 924 INTRA-LIGAND FREE ENERGY PREDICTED BY IDOCK:   -0.08 KCAL/MOL
REMARK 927      BINDING AFFINITY PREDICTED BY RF-SCORE:    0.00 PKD
ROOT
HETATM    1  C   UNL     1     -12.090  13.552  70.356  1.00  0.00    -0.345 C  
HETATM    2  O   UNL     1     -12.477  14.146  69.121  1.00  0.00    -0.231 OA 
ENDROOT
BRANCH   2   3
HETATM    3  C   UNL     1     -11.884  13.620  68.004  1.00  0.00    -0.362 A  
HETATM    4  C   UNL     1     -11.078  12.485  67.996  1.00  0.00    -0.285 A  
HETATM    5  C   UNL     1     -10.484  12.010  66.806  1.00  0.00    -0.243 A  
HETATM    6  C   UNL     1     -10.736  12.703  65.609  1.00  0.00    -0.269 A  
HETATM    7  C   UNL     1     -11.585  13.819  65.613  1.00  0.00    -0.339 A  
HETATM    8  C   UNL     1     -12.152  14.272  66.807  1.00  0.00    -0.446 A  
BRANCH   5   9
HETATM    9  C   UNL     1      -9.597  10.774  66.828  1.00  0.00    -0.172 C  
HETATM   10  H   UNL     1      -9.552   9.005  65.937  1.00  0.00     0.000 HD 
HETATM   11  O   UNL     1     -10.106   9.776  65.923  1.00  0.00    -0.282 OA 
BRANCH   9  12
HETATM   12  C   UNL     1      -8.095  11.061  66.514  1.00  0.00    -0.161 C  
HETATM   13  C   UNL     1      -7.181  10.261  67.451  1.00  0.00    -0.092 C  
HETATM   14  N   UNL     1      -7.708  10.727  65.124  1.00  0.00    -0.353 NA 
HETATM   15  H1  UNL     1      -6.727  10.915  64.919  1.00  0.00     0.000 HD 
HETATM   16  H2  UNL     1      -8.314  11.203  64.456  1.00  0.00     0.000 HD 
ENDBRANCH   9  12
ENDBRANCH   5   9
BRANCH   6  17
HETATM   17  O   UNL     1     -10.156  12.207  64.470  1.00  0.00    -0.279 OA 
HETATM   18  C   UNL     1     -11.059  11.884  63.417  1.00  0.00    -0.383 C  
ENDBRANCH   6  17
ENDBRANCH   2   3
TORSDOF 4
ENDMDL
MODEL      127
REMARK 921   NORMALIZED FREE ENERGY PREDICTED BY IDOCK:   -3.37 KCAL/MOL
REMARK 922        TOTAL FREE ENERGY PREDICTED BY IDOCK:   -4.29 KCAL/MOL
REMARK 923 INTER-LIGAND FREE ENERGY PREDICTED BY IDOCK:   -4.04 KCAL/MOL
REMARK 924 INTRA-LIGAND FREE ENERGY PREDICTED BY IDOCK:   -0.25 KCAL/MOL
REMARK 927      BINDING AFFINITY PREDICTED BY RF-SCORE:    0.00 PKD
ROOT
HETATM    1  C   UNL     1     -12.431  12.577  63.814  1.00  0.00    -0.455 C  
HETATM    2  O   UNL     1     -12.746  12.509  65.201  1.00  0.00    -0.659 OA 
ENDROOT
BRANCH   2   3
HETATM    3  C   UNL     1     -11.674  12.575  66.051  1.00  0.00    -0.417 A  
HETATM    4  C   UNL     1     -11.300  11.564  66.933  1.00  0.00    -0.324 A  
HETATM    5  C   UNL     1     -10.191  11.709  67.795  1.00  0.00    -0.202 A  
HETATM    6  C   UNL     1      -9.449  12.902  67.736  1.00  0.00    -0.202 A  
HETATM    7  C   UNL     1      -9.800  13.900  66.815  1.00  0.00    -0.274 A  
HETATM    8  C   UNL     1     -10.909  13.732  65.980  1.00  0.00    -0.282 A  
BRANCH   5   9
HETATM    9  C   UNL     1      -9.812  10.593  68.758  1.00  0.00    -0.191 C  
HETATM   10  H   UNL     1     -10.713   9.515  70.155  1.00  0.00     0.000 HD 
HETATM   11  O   UNL     1     -10.950  10.212  69.554  1.00  0.00    -0.228 OA 
BRANCH   9  12
HETATM   12  C   UNL     1      -9.200   9.335  68.065  1.00  0.00    -0.130 C  
HETATM   13  C   UNL     1     -10.273   8.261  67.843  1.00  0.00    -0.276 C  
HETATM   14  N   UNL     1      -8.584   9.626  66.750  1.00  0.00    -0.133 NA 
HETATM   15  H1  UNL     1      -8.184   8.804  66.298  1.00  0.00     0.000 HD 
HETATM   16  H2  UNL     1      -7.888  10.366  66.832  1.00  0.00     0.000 HD 
ENDBRANCH   9  12
ENDBRANCH   5   9
BRANCH   6  17
HETATM   17  O   UNL     1      -8.370  13.004  68.576  1.00  0.00    -0.139 OA 
HETATM   18  C   UNL     1      -7.096  12.971  67.938  1.00  0.00    -0.128 C  
ENDBRANCH   6  17
ENDBRANCH   2   3
TORSDOF 4
ENDMDL
MODEL      128
REMARK 921   NORMALIZED FREE ENERGY PREDICTED BY IDOCK:   -3.33 KCAL/MOL
REMARK 922        TOTAL FREE ENERGY PREDICTED BY IDOCK:   -4.24 KCAL/MOL
REMARK 923 INTER-LIGAND FREE ENERGY PREDICTED BY IDOCK:   -4.04 KCAL/MOL
REMARK 924 INTRA-LIGAND FREE ENERGY PREDICTED BY IDOCK:   -0.20 KCAL/MOL
REMARK 927      BINDING AFFINITY PREDICTED BY RF-SCORE:    0.00 PKD
ROOT
HETATM    1  C   UNL     1      -6.725  11.813  67.323  1.00  0.00    -0.133 C  
HETATM    2  O   UNL     1      -8.061  12.104  67.718  1.00  0.00    -0.132 OA 
ENDROOT
BRANCH   2   3
HETATM    3  C   UNL     1      -8.632  13.188  67.107  1.00  0.00    -0.192 A  
HETATM    4  C   UNL     1      -8.218  14.506  67.283  1.00  0.00    -0.230 A  
HETATM    5  C   UNL     1      -8.868  15.577  66.632  1.00  0.00    -0.325 A  
HETATM    6  C   UNL     1      -9.947  15.286  65.780  1.00  0.00    -0.360 A  
HETATM    7  C   UNL     1     -10.334  13.955  65.569  1.00  0.00    -0.347 A  
HETATM    8  C   UNL     1      -9.677  12.915  66.234  1.00  0.00    -0.268 A  
BRANCH   5   9
HETATM    9  C   UNL     1      -8.401  17.009  66.852  1.00  0.00    -0.218 C  
HETATM   10  H   UNL     1      -7.868  18.141  68.388  1.00  0.00     0.000 HD 
HETATM   11  O   UNL     1      -8.159  17.247  68.251  1.00  0.00    -0.227 OA 
BRANCH   9  12
HETATM   12  C   UNL     1      -7.141  17.403  66.018  1.00  0.00    -0.224 C  
HETATM   13  C   UNL     1      -6.996  18.928  65.940  1.00  0.00    -0.304 C  
HETATM   14  N   UNL     1      -5.877  16.865  66.570  1.00  0.00    -0.327 NA 
HETATM   15  H1  UNL     1      -5.053  17.122  66.026  1.00  0.00     0.000 HD 
HETATM   16  H2  UNL     1      -5.933  15.853  66.682  1.00  0.00     0.000 HD 
ENDBRANCH   9  12
ENDBRANCH   5   9
BRANCH   6  17
HETATM   17  O   UNL     1     -10.547  16.349  65.153  1.00  0.00    -0.610 OA 
HETATM   18  C   UNL     1     -11.573  16.009  64.225  1.00  0.00    -0.138 C  
ENDBRANCH   6  17
ENDBRANCH   2   3
TORSDOF 4
ENDMDL
MODEL      129
REMARK 921   NORMALIZED FREE ENERGY PREDICTED BY IDOCK:   -3.33 KCAL/MOL
REMARK 922        TOTAL FREE ENERGY PREDICTED BY IDOCK:   -4.23 KCAL/MOL
REMARK 923 INTER-LIGAND FREE ENERGY PREDICTED BY IDOCK:   -4.27 KCAL/MOL
REMARK 924 INTRA-LIGAND FREE ENERGY PREDICTED BY IDOCK:    0.04 KCAL/MOL
REMARK 927      BINDING AFFINITY PREDICTED BY RF-SCORE:    0.00 PKD
ROOT
HETATM    1  C   UNL     1      -6.373  15.096  69.037  1.00  0.00    -0.100 C  
HETATM    2  O   UNL     1      -7.196  16.072  68.406  1.00  0.00    -0.120 OA 
ENDROOT
BRANCH   2   3
HETATM    3  C   UNL     1      -8.443  15.642  68.039  1.00  0.00    -0.146 A  
HETATM    4  C   UNL     1      -9.451  15.282  68.930  1.00  0.00    -0.218 A  
HETATM    5  C   UNL     1     -10.709  14.829  68.478  1.00  0.00    -0.247 A  
HETATM    6  C   UNL     1     -10.937  14.761  67.093  1.00  0.00    -0.320 A  
HETATM    7  C   UNL     1      -9.937  15.167  66.198  1.00  0.00    -0.317 A  
HETATM    8  C   UNL     1      -8.697  15.603  66.674  1.00  0.00    -0.333 A  
BRANCH   5   9
HETATM    9  C   UNL     1     -11.788  14.430  69.475  1.00  0.00    -0.329 C  
HETATM   10  H   UNL     1     -12.142  12.914  70.699  1.00  0.00     0.000 HD 
HETATM   11  O   UNL     1     -11.469  13.162  70.077  1.00  0.00    -0.170 OA 
BRANCH   9  12
HETATM   12  C   UNL     1     -12.055  15.496  70.585  1.00  0.00    -0.389 C  
HETATM   13  C   UNL     1     -13.365  15.196  71.323  1.00  0.00    -0.551 C  
HETATM   14  N   UNL     1     -10.980  15.571  71.601  1.00  0.00    -0.304 NA 
HETATM   15  H1  UNL     1     -11.154  16.267  72.326  1.00  0.00     0.000 HD 
HETATM   16  H2  UNL     1     -10.074  15.729  71.159  1.00  0.00     0.000 HD 
ENDBRANCH   9  12
ENDBRANCH   5   9
BRANCH   6  17
HETATM   17  O   UNL     1     -12.175  14.331  66.688  1.00  0.00    -0.449 OA 
HETATM   18  C   UNL     1     -12.469  14.530  65.308  1.00  0.00    -0.279 C  
ENDBRANCH   6  17
ENDBRANCH   2   3
TORSDOF 4
ENDMDL
MODEL      130
REMARK 921   NORMALIZED FREE ENERGY PREDICTED BY IDOCK:   -3.32 KCAL/MOL
REMARK 922        TOTAL FREE ENERGY PREDICTED BY IDOCK:   -4.23 KCAL/MOL
REMARK 923 INTER-LIGAND FREE ENERGY PREDICTED BY IDOCK:   -4.63 KCAL/MOL
REMARK 924 INTRA-LIGAND FREE ENERGY PREDICTED BY IDOCK:    0.40 KCAL/MOL
REMARK 927      BINDING AFFINITY PREDICTED BY RF-SCORE:    0.00 PKD
ROOT
HETATM    1  C   UNL     1      -9.872  19.007  67.552  1.00  0.00    -0.324 C  
HETATM    2  O   UNL     1     -10.284  18.378  68.762  1.00  0.00    -0.379 OA 
ENDROOT
BRANCH   2   3
HETATM    3  C   UNL     1     -10.613  17.054  68.654  1.00  0.00    -0.362 A  
HETATM    4  C   UNL     1     -10.419  16.280  67.512  1.00  0.00    -0.302 A  
HETATM    5  C   UNL     1     -10.801  14.921  67.468  1.00  0.00    -0.292 A  
HETATM    6  C   UNL     1     -11.373  14.349  68.617  1.00  0.00    -0.273 A  
HETATM    7  C   UNL     1     -11.524  15.118  69.780  1.00  0.00    -0.321 A  
HETATM    8  C   UNL     1     -11.146  16.463  69.792  1.00  0.00    -0.305 A  
BRANCH   5   9
HETATM    9  C   UNL     1     -10.589  14.103  66.202  1.00  0.00    -0.293 C  
HETATM   10  H   UNL     1      -9.732  12.386  65.712  1.00  0.00     0.000 HD 
HETATM   11  O   UNL     1      -9.864  12.896  66.502  1.00  0.00    -0.242 OA 
BRANCH   9  12
HETATM   12  C   UNL     1     -11.907  13.757  65.439  1.00  0.00    -0.358 C  
HETATM   13  C   UNL     1     -11.851  12.332  64.875  1.00  0.00    -0.417 C  
HETATM   14  N   UNL     1     -13.120  13.853  66.284  1.00  0.00    -0.290 NA 
HETATM   15  H1  UNL     1     -13.981  13.627  65.786  1.00  0.00     0.000 HD 
HETATM   16  H2  UNL     1     -13.186  14.773  66.719  1.00  0.00     0.000 HD 
ENDBRANCH   9  12
ENDBRANCH   5   9
BRANCH   6  17
HETATM   17  O   UNL     1     -11.718  13.024  68.544  1.00  0.00    -0.302 OA 
HETATM   18  C   UNL     1     -11.448  12.258  69.715  1.00  0.00    -0.166 C  
ENDBRANCH   6  17
ENDBRANCH   2   3
TORSDOF 4
ENDMDL
MODEL      131
REMARK 921   NORMALIZED FREE ENERGY PREDICTED BY IDOCK:   -3.32 KCAL/MOL
REMARK 922        TOTAL FREE ENERGY PREDICTED BY IDOCK:   -4.23 KCAL/MOL
REMARK 923 INTER-LIGAND FREE ENERGY PREDICTED BY IDOCK:   -4.45 KCAL/MOL
REMARK 924 INTRA-LIGAND FREE ENERGY PREDICTED BY IDOCK:    0.22 KCAL/MOL
REMARK 927      BINDING AFFINITY PREDICTED BY RF-SCORE:    0.00 PKD
ROOT
HETATM    1  C   UNL     1     -12.949  11.844  63.364  1.00  0.00    -0.115 C  
HETATM    2  O   UNL     1     -12.264  13.084  63.221  1.00  0.00    -0.631 OA 
ENDROOT
BRANCH   2   3
HETATM    3  C   UNL     1     -11.606  13.525  64.338  1.00  0.00    -0.396 A  
HETATM    4  C   UNL     1     -10.803  12.728  65.150  1.00  0.00    -0.318 A  
HETATM    5  C   UNL     1     -10.169  13.249  66.300  1.00  0.00    -0.296 A  
HETATM    6  C   UNL     1     -10.352  14.608  66.607  1.00  0.00    -0.273 A  
HETATM    7  C   UNL     1     -11.124  15.419  65.762  1.00  0.00    -0.260 A  
HETATM    8  C   UNL     1     -11.747  14.874  64.636  1.00  0.00    -0.406 A  
BRANCH   5   9
HETATM    9  C   UNL     1      -9.307  12.352  67.176  1.00  0.00    -0.199 C  
HETATM   10  H   UNL     1      -7.455  12.361  67.882  1.00  0.00     0.000 HD 
HETATM   11  O   UNL     1      -7.993  12.921  67.335  1.00  0.00    -0.167 OA 
BRANCH   9  12
HETATM   12  C   UNL     1      -9.926  12.044  68.576  1.00  0.00    -0.184 C  
HETATM   13  C   UNL     1     -11.440  11.827  68.465  1.00  0.00    -0.353 C  
HETATM   14  N   UNL     1      -9.352  10.842  69.223  1.00  0.00    -0.388 NA 
HETATM   15  H1  UNL     1      -9.756  10.640  70.138  1.00  0.00     0.000 HD 
HETATM   16  H2  UNL     1      -8.336  10.915  69.286  1.00  0.00     0.000 HD 
ENDBRANCH   9  12
ENDBRANCH   5   9
BRANCH   6  17
HETATM   17  O   UNL     1      -9.710  15.085  67.722  1.00  0.00    -0.213 OA 
HETATM   18  C   UNL     1     -10.112  16.383  68.148  1.00  0.00    -0.251 C  
ENDBRANCH   6  17
ENDBRANCH   2   3
TORSDOF 4
ENDMDL
MODEL      132
REMARK 921   NORMALIZED FREE ENERGY PREDICTED BY IDOCK:   -3.32 KCAL/MOL
REMARK 922        TOTAL FREE ENERGY PREDICTED BY IDOCK:   -4.23 KCAL/MOL
REMARK 923 INTER-LIGAND FREE ENERGY PREDICTED BY IDOCK:   -4.40 KCAL/MOL
REMARK 924 INTRA-LIGAND FREE ENERGY PREDICTED BY IDOCK:    0.17 KCAL/MOL
REMARK 927      BINDING AFFINITY PREDICTED BY RF-SCORE:    0.00 PKD
ROOT
HETATM    1  C   UNL     1      -7.523  15.065  68.462  1.00  0.00    -0.119 C  
HETATM    2  O   UNL     1      -8.396  15.613  67.480  1.00  0.00    -0.155 OA 
ENDROOT
BRANCH   2   3
HETATM    3  C   UNL     1      -9.114  14.699  66.756  1.00  0.00    -0.264 A  
HETATM    4  C   UNL     1      -9.278  13.362  67.108  1.00  0.00    -0.240 A  
HETATM    5  C   UNL     1     -10.018  12.472  66.301  1.00  0.00    -0.263 A  
HETATM    6  C   UNL     1     -10.611  12.968  65.127  1.00  0.00    -0.312 A  
HETATM    7  C   UNL     1     -10.484  14.325  64.798  1.00  0.00    -0.421 A  
HETATM    8  C   UNL     1      -9.737  15.182  65.612  1.00  0.00    -0.351 A  
BRANCH   5   9
HETATM    9  C   UNL     1     -10.170  11.012  66.704  1.00  0.00    -0.235 C  
HETATM   10  H   UNL     1     -11.583   9.861  67.482  1.00  0.00     0.000 HD 
HETATM   11  O   UNL     1     -11.488  10.772  67.231  1.00  0.00    -0.436 OA 
BRANCH   9  12
HETATM   12  C   UNL     1      -9.863   9.999  65.556  1.00  0.00    -0.303 C  
HETATM   13  C   UNL     1      -8.427  10.174  65.046  1.00  0.00    -0.169 C  
HETATM   14  N   UNL     1     -10.022   8.583  65.960  1.00  0.00    -0.465 NA 
HETATM   15  H1  UNL     1      -9.821   7.921  65.210  1.00  0.00     0.000 HD 
HETATM   16  H2  UNL     1     -10.951   8.419  66.347  1.00  0.00     0.000 HD 
ENDBRANCH   9  12
ENDBRANCH   5   9
BRANCH   6  17
HETATM   17  O   UNL     1     -11.336  12.079  64.374  1.00  0.00    -0.323 OA 
HETATM   18  C   UNL     1     -12.722  12.379  64.245  1.00  0.00    -0.342 C  
ENDBRANCH   6  17
ENDBRANCH   2   3
TORSDOF 4
ENDMDL
MODEL      133
REMARK 921   NORMALIZED FREE ENERGY PREDICTED BY IDOCK:   -3.27 KCAL/MOL
REMARK 922        TOTAL FREE ENERGY PREDICTED BY IDOCK:   -4.16 KCAL/MOL
REMARK 923 INTER-LIGAND FREE ENERGY PREDICTED BY IDOCK:   -4.65 KCAL/MOL
REMARK 924 INTRA-LIGAND FREE ENERGY PREDICTED BY IDOCK:    0.49 KCAL/MOL
REMARK 927      BINDING AFFINITY PREDICTED BY RF-SCORE:    0.00 PKD
ROOT
HETATM    1  C   UNL     1     -10.494   7.769  67.011  1.00  0.00    -0.349 C  
HETATM    2  O   UNL     1     -11.045   6.538  67.469  1.00  0.00    -0.341 OA 
ENDROOT
BRANCH   2   3
HETATM    3  C   UNL     1     -10.872   6.277  68.802  1.00  0.00    -0.333 A  
HETATM    4  C   UNL     1     -11.365   7.071  69.835  1.00  0.00    -0.260 A  
HETATM    5  C   UNL     1     -11.132   6.748  71.189  1.00  0.00    -0.313 A  
HETATM    6  C   UNL     1     -10.396   5.587  71.483  1.00  0.00    -0.222 A  
HETATM    7  C   UNL     1      -9.940   4.765  70.443  1.00  0.00    -0.315 A  
HETATM    8  C   UNL     1     -10.179   5.114  69.110  1.00  0.00    -0.259 A  
BRANCH   5   9
HETATM    9  C   UNL     1     -11.672   7.640  72.298  1.00  0.00    -0.324 C  
HETATM   10  H   UNL     1     -11.022   9.172  73.372  1.00  0.00     0.000 HD 
HETATM   11  O   UNL     1     -10.685   8.616  72.680  1.00  0.00    -0.241 OA 
BRANCH   9  12
HETATM   12  C   UNL     1     -13.016   8.352  71.944  1.00  0.00    -0.355 C  
HETATM   13  C   UNL     1     -12.762   9.598  71.086  1.00  0.00    -0.407 C  
HETATM   14  N   UNL     1     -13.964   7.489  71.204  1.00  0.00    -0.642 NA 
HETATM   15  H1  UNL     1     -14.843   7.953  70.973  1.00  0.00     0.000 HD 
HETATM   16  H2  UNL     1     -14.138   6.622  71.714  1.00  0.00     0.000 HD 
ENDBRANCH   9  12
ENDBRANCH   5   9
BRANCH   6  17
HETATM   17  O   UNL     1     -10.201   5.295  72.809  1.00  0.00    -0.176 OA 
HETATM   18  C   UNL     1      -8.958   4.670  73.119  1.00  0.00    -0.116 C  
ENDBRANCH   6  17
ENDBRANCH   2   3
TORSDOF 4
ENDMDL
MODEL      134
REMARK 921   NORMALIZED FREE ENERGY PREDICTED BY IDOCK:   -3.26 KCAL/MOL
REMARK 922        TOTAL FREE ENERGY PREDICTED BY IDOCK:   -4.15 KCAL/MOL
REMARK 923 INTER-LIGAND FREE ENERGY PREDICTED BY IDOCK:   -4.04 KCAL/MOL
REMARK 924 INTRA-LIGAND FREE ENERGY PREDICTED BY IDOCK:   -0.12 KCAL/MOL
REMARK 927      BINDING AFFINITY PREDICTED BY RF-SCORE:    0.00 PKD
ROOT
HETATM    1  C   UNL     1     -12.275  14.612  64.489  1.00  0.00    -0.456 C  
HETATM    2  O   UNL     1     -10.983  14.400  65.047  1.00  0.00    -0.345 OA 
ENDROOT
BRANCH   2   3
HETATM    3  C   UNL     1     -10.949  13.615  66.169  1.00  0.00    -0.284 A  
HETATM    4  C   UNL     1     -10.072  12.551  66.365  1.00  0.00    -0.255 A  
HETATM    5  C   UNL     1     -10.107  11.773  67.542  1.00  0.00    -0.207 A  
HETATM    6  C   UNL     1     -11.045  12.104  68.535  1.00  0.00    -0.252 A  
HETATM    7  C   UNL     1     -11.896  13.203  68.356  1.00  0.00    -0.386 A  
HETATM    8  C   UNL     1     -11.845  13.951  67.175  1.00  0.00    -0.445 A  
BRANCH   5   9
HETATM    9  C   UNL     1      -9.145  10.608  67.725  1.00  0.00    -0.143 C  
HETATM   10  H   UNL     1      -7.677  10.120  68.962  1.00  0.00     0.000 HD 
HETATM   11  O   UNL     1      -8.277  10.847  68.849  1.00  0.00    -0.140 OA 
BRANCH   9  12
HETATM   12  C   UNL     1      -9.845   9.221  67.877  1.00  0.00    -0.167 C  
HETATM   13  C   UNL     1      -9.310   8.225  66.841  1.00  0.00    -0.222 C  
HETATM   14  N   UNL     1      -9.662   8.611  69.214  1.00  0.00    -0.170 NA 
HETATM   15  H1  UNL     1     -10.120   7.705  69.314  1.00  0.00     0.000 HD 
HETATM   16  H2  UNL     1      -9.966   9.251  69.948  1.00  0.00     0.000 HD 
ENDBRANCH   9  12
ENDBRANCH   5   9
BRANCH   6  17
HETATM   17  O   UNL     1     -11.042  11.336  69.672  1.00  0.00    -0.249 OA 
HETATM   18  C   UNL     1     -12.318  11.133  70.274  1.00  0.00    -0.315 C  
ENDBRANCH   6  17
ENDBRANCH   2   3
TORSDOF 4
ENDMDL
MODEL      135
REMARK 921   NORMALIZED FREE ENERGY PREDICTED BY IDOCK:   -3.26 KCAL/MOL
REMARK 922        TOTAL FREE ENERGY PREDICTED BY IDOCK:   -4.15 KCAL/MOL
REMARK 923 INTER-LIGAND FREE ENERGY PREDICTED BY IDOCK:   -4.08 KCAL/MOL
REMARK 924 INTRA-LIGAND FREE ENERGY PREDICTED BY IDOCK:   -0.07 KCAL/MOL
REMARK 927      BINDING AFFINITY PREDICTED BY RF-SCORE:    0.00 PKD
ROOT
HETATM    1  C   UNL     1     -10.498  20.286  65.349  1.00  0.00     0.086 C  
HETATM    2  O   UNL     1     -10.566  20.184  66.767  1.00  0.00    -0.397 OA 
ENDROOT
BRANCH   2   3
HETATM    3  C   UNL     1     -10.291  18.946  67.282  1.00  0.00    -0.418 A  
HETATM    4  C   UNL     1     -10.472  17.746  66.598  1.00  0.00    -0.300 A  
HETATM    5  C   UNL     1     -10.184  16.502  67.201  1.00  0.00    -0.284 A  
HETATM    6  C   UNL     1      -9.689  16.495  68.517  1.00  0.00    -0.239 A  
HETATM    7  C   UNL     1      -9.464  17.706  69.187  1.00  0.00    -0.000 A  
HETATM    8  C   UNL     1      -9.767  18.923  68.568  1.00  0.00    -0.441 A  
BRANCH   5   9
HETATM    9  C   UNL     1     -10.403  15.206  66.435  1.00  0.00    -0.286 C  
HETATM   10  H   UNL     1      -9.324  13.625  65.921  1.00  0.00     0.000 HD 
HETATM   11  O   UNL     1      -9.187  14.434  66.399  1.00  0.00    -0.267 OA 
BRANCH   9  12
HETATM   12  C   UNL     1     -11.573  14.331  66.985  1.00  0.00    -0.386 C  
HETATM   13  C   UNL     1     -12.472  13.844  65.841  1.00  0.00    -0.519 C  
HETATM   14  N   UNL     1     -11.117  13.135  67.730  1.00  0.00    -0.253 NA 
HETATM   15  H1  UNL     1     -11.881  12.563  68.089  1.00  0.00     0.000 HD 
HETATM   16  H2  UNL     1     -10.479  13.399  68.481  1.00  0.00     0.000 HD 
ENDBRANCH   9  12
ENDBRANCH   5   9
BRANCH   6  17
HETATM   17  O   UNL     1      -9.405  15.271  69.067  1.00  0.00    -0.205 OA 
HETATM   18  C   UNL     1      -8.067  15.104  69.524  1.00  0.00    -0.167 C  
ENDBRANCH   6  17
ENDBRANCH   2   3
TORSDOF 4
ENDMDL
MODEL      136
REMARK 921   NORMALIZED FREE ENERGY PREDICTED BY IDOCK:   -3.25 KCAL/MOL
REMARK 922        TOTAL FREE ENERGY PREDICTED BY IDOCK:   -4.14 KCAL/MOL
REMARK 923 INTER-LIGAND FREE ENERGY PREDICTED BY IDOCK:   -4.56 KCAL/MOL
REMARK 924 INTRA-LIGAND FREE ENERGY PREDICTED BY IDOCK:    0.41 KCAL/MOL
REMARK 927      BINDING AFFINITY PREDICTED BY RF-SCORE:    0.00 PKD
ROOT
HETATM    1  C   UNL     1     -10.538  19.134  66.013  1.00  0.00    -0.442 C  
HETATM    2  O   UNL     1     -10.785  17.935  65.286  1.00  0.00    -0.640 OA 
ENDROOT
BRANCH   2   3
HETATM    3  C   UNL     1     -10.322  16.786  65.870  1.00  0.00    -0.328 A  
HETATM    4  C   UNL     1     -11.043  15.598  65.961  1.00  0.00    -0.136 A  
HETATM    5  C   UNL     1     -10.507  14.457  66.596  1.00  0.00    -0.274 A  
HETATM    6  C   UNL     1      -9.208  14.535  67.127  1.00  0.00    -0.223 A  
HETATM    7  C   UNL     1      -8.467  15.718  66.993  1.00  0.00    -0.251 A  
HETATM    8  C   UNL     1      -9.027  16.835  66.368  1.00  0.00    -0.325 A  
BRANCH   5   9
HETATM    9  C   UNL     1     -11.322  13.175  66.692  1.00  0.00    -0.325 C  
HETATM   10  H   UNL     1     -10.997  11.231  66.489  1.00  0.00     0.000 HD 
HETATM   11  O   UNL     1     -10.488  12.031  66.429  1.00  0.00    -0.224 OA 
BRANCH   9  12
HETATM   12  C   UNL     1     -12.063  12.992  68.054  1.00  0.00    -0.174 C  
HETATM   13  C   UNL     1     -11.336  11.969  68.936  1.00  0.00    -0.333 C  
HETATM   14  N   UNL     1     -12.182  14.246  68.834  1.00  0.00    -0.548 NA 
HETATM   15  H1  UNL     1     -12.666  14.127  69.724  1.00  0.00     0.000 HD 
HETATM   16  H2  UNL     1     -12.624  14.977  68.278  1.00  0.00     0.000 HD 
ENDBRANCH   9  12
ENDBRANCH   5   9
BRANCH   6  17
HETATM   17  O   UNL     1      -8.712  13.403  67.723  1.00  0.00    -0.172 OA 
HETATM   18  C   UNL     1      -7.298  13.243  67.646  1.00  0.00    -0.161 C  
ENDBRANCH   6  17
ENDBRANCH   2   3
TORSDOF 4
ENDMDL
MODEL      137
REMARK 921   NORMALIZED FREE ENERGY PREDICTED BY IDOCK:   -3.23 KCAL/MOL
REMARK 922        TOTAL FREE ENERGY PREDICTED BY IDOCK:   -4.11 KCAL/MOL
REMARK 923 INTER-LIGAND FREE ENERGY PREDICTED BY IDOCK:   -4.65 KCAL/MOL
REMARK 924 INTRA-LIGAND FREE ENERGY PREDICTED BY IDOCK:    0.53 KCAL/MOL
REMARK 927      BINDING AFFINITY PREDICTED BY RF-SCORE:    0.00 PKD
ROOT
HETATM    1  C   UNL     1     -12.318  11.833  63.483  1.00  0.00    -0.383 C  
HETATM    2  O   UNL     1     -11.681  13.103  63.579  1.00  0.00    -0.473 OA 
ENDROOT
BRANCH   2   3
HETATM    3  C   UNL     1     -11.452  13.551  64.852  1.00  0.00    -0.334 A  
HETATM    4  C   UNL     1     -10.264  14.137  65.284  1.00  0.00    -0.400 A  
HETATM    5  C   UNL     1     -10.093  14.559  66.620  1.00  0.00    -0.275 A  
HETATM    6  C   UNL     1     -11.162  14.391  67.517  1.00  0.00    -0.315 A  
HETATM    7  C   UNL     1     -12.372  13.842  67.069  1.00  0.00    -0.289 A  
HETATM    8  C   UNL     1     -12.510  13.424  65.743  1.00  0.00    -0.496 A  
BRANCH   5   9
HETATM    9  C   UNL     1      -8.780  15.186  67.067  1.00  0.00    -0.238 C  
HETATM   10  H   UNL     1      -8.211  16.691  68.223  1.00  0.00     0.000 HD 
HETATM   11  O   UNL     1      -9.030  16.300  67.945  1.00  0.00    -0.186 OA 
BRANCH   9  12
HETATM   12  C   UNL     1      -7.794  14.183  67.746  1.00  0.00    -0.170 C  
HETATM   13  C   UNL     1      -8.319  12.746  67.636  1.00  0.00    -0.175 C  
HETATM   14  N   UNL     1      -6.434  14.205  67.161  1.00  0.00    -0.340 NA 
HETATM   15  H1  UNL     1      -5.790  13.551  67.605  1.00  0.00     0.000 HD 
HETATM   16  H2  UNL     1      -6.051  15.151  67.171  1.00  0.00     0.000 HD 
ENDBRANCH   9  12
ENDBRANCH   5   9
BRANCH   6  17
HETATM   17  O   UNL     1     -10.966  14.825  68.804  1.00  0.00    -0.240 OA 
HETATM   18  C   UNL     1     -11.950  14.406  69.745  1.00  0.00    -0.332 C  
ENDBRANCH   6  17
ENDBRANCH   2   3
TORSDOF 4
ENDMDL
MODEL      138
REMARK 921   NORMALIZED FREE ENERGY PREDICTED BY IDOCK:   -3.21 KCAL/MOL
REMARK 922        TOTAL FREE ENERGY PREDICTED BY IDOCK:   -4.10 KCAL/MOL
REMARK 923 INTER-LIGAND FREE ENERGY PREDICTED BY IDOCK:   -4.66 KCAL/MOL
REMARK 924 INTRA-LIGAND FREE ENERGY PREDICTED BY IDOCK:    0.57 KCAL/MOL
REMARK 927      BINDING AFFINITY PREDICTED BY RF-SCORE:    0.00 PKD
ROOT
HETATM    1  C   UNL     1     -11.739  11.151  70.354  1.00  0.00    -0.320 C  
HETATM    2  O   UNL     1     -11.719  10.503  69.087  1.00  0.00    -0.252 OA 
ENDROOT
BRANCH   2   3
HETATM    3  C   UNL     1     -11.329  11.286  68.033  1.00  0.00    -0.304 A  
HETATM    4  C   UNL     1     -11.254  10.854  66.711  1.00  0.00    -0.109 A  
HETATM    5  C   UNL     1     -10.824  11.714  65.677  1.00  0.00    -0.330 A  
HETATM    6  C   UNL     1     -10.485  13.038  66.006  1.00  0.00    -0.279 A  
HETATM    7  C   UNL     1     -10.606  13.484  67.330  1.00  0.00    -0.263 A  
HETATM    8  C   UNL     1     -11.025  12.607  68.334  1.00  0.00    -0.284 A  
BRANCH   5   9
HETATM    9  C   UNL     1     -10.740  11.212  64.243  1.00  0.00    -0.333 C  
HETATM   10  H   UNL     1     -10.968  11.968  62.426  1.00  0.00     0.000 HD 
HETATM   11  O   UNL     1     -11.021  12.282  63.321  1.00  0.00    -0.432 OA 
BRANCH   9  12
HETATM   12  C   UNL     1      -9.376  10.543  63.882  1.00  0.00    -0.275 C  
HETATM   13  C   UNL     1      -8.895  11.001  62.499  1.00  0.00    -0.358 C  
HETATM   14  N   UNL     1      -8.296  10.844  64.850  1.00  0.00    -0.370 NA 
HETATM   15  H1  UNL     1      -7.405  10.407  64.614  1.00  0.00     0.000 HD 
HETATM   16  H2  UNL     1      -8.580  10.595  65.797  1.00  0.00     0.000 HD 
ENDBRANCH   9  12
ENDBRANCH   5   9
BRANCH   6  17
HETATM   17  O   UNL     1     -10.086  13.851  64.975  1.00  0.00    -0.356 OA 
HETATM   18  C   UNL     1     -10.692  15.140  64.946  1.00  0.00    -0.398 C  
ENDBRANCH   6  17
ENDBRANCH   2   3
TORSDOF 4
ENDMDL
MODEL      139
REMARK 921   NORMALIZED FREE ENERGY PREDICTED BY IDOCK:   -3.21 KCAL/MOL
REMARK 922        TOTAL FREE ENERGY PREDICTED BY IDOCK:   -4.09 KCAL/MOL
REMARK 923 INTER-LIGAND FREE ENERGY PREDICTED BY IDOCK:   -3.79 KCAL/MOL
REMARK 924 INTRA-LIGAND FREE ENERGY PREDICTED BY IDOCK:   -0.30 KCAL/MOL
REMARK 927      BINDING AFFINITY PREDICTED BY RF-SCORE:    0.00 PKD
ROOT
HETATM    1  C   UNL     1     -10.117   5.074  68.115  1.00  0.00    -0.103 C  
HETATM    2  O   UNL     1     -10.555   5.327  69.446  1.00  0.00    -0.252 OA 
ENDROOT
BRANCH   2   3
HETATM    3  C   UNL     1     -10.790   6.642  69.748  1.00  0.00    -0.286 A  
HETATM    4  C   UNL     1     -10.323   7.722  69.002  1.00  0.00    -0.219 A  
HETATM    5  C   UNL     1     -10.590   9.054  69.385  1.00  0.00    -0.231 A  
HETATM    6  C   UNL     1     -11.359   9.277  70.541  1.00  0.00    -0.258 A  
HETATM    7  C   UNL     1     -11.866   8.188  71.265  1.00  0.00    -0.317 A  
HETATM    8  C   UNL     1     -11.578   6.880  70.867  1.00  0.00    -0.384 A  
BRANCH   5   9
HETATM    9  C   UNL     1     -10.057  10.215  68.558  1.00  0.00    -0.169 C  
HETATM   10  H   UNL     1      -8.495  11.432  68.604  1.00  0.00     0.000 HD 
HETATM   11  O   UNL     1      -8.827  10.708  69.121  1.00  0.00    -0.164 OA 
BRANCH   9  12
HETATM   12  C   UNL     1      -9.856   9.880  67.046  1.00  0.00    -0.191 C  
HETATM   13  C   UNL     1     -10.394  11.012  66.162  1.00  0.00    -0.306 C  
HETATM   14  N   UNL     1      -8.439   9.662  66.674  1.00  0.00    -0.123 NA 
HETATM   15  H1  UNL     1      -8.307   9.442  65.687  1.00  0.00     0.000 HD 
HETATM   16  H2  UNL     1      -8.017   8.943  67.263  1.00  0.00     0.000 HD 
ENDBRANCH   9  12
ENDBRANCH   5   9
BRANCH   6  17
HETATM   17  O   UNL     1     -11.612  10.583  70.876  1.00  0.00    -0.338 OA 
HETATM   18  C   UNL     1     -12.827  10.805  71.586  1.00  0.00    -0.457 C  
ENDBRANCH   6  17
ENDBRANCH   2   3
TORSDOF 4
ENDMDL
MODEL      140
REMARK 921   NORMALIZED FREE ENERGY PREDICTED BY IDOCK:   -3.20 KCAL/MOL
REMARK 922        TOTAL FREE ENERGY PREDICTED BY IDOCK:   -4.07 KCAL/MOL
REMARK 923 INTER-LIGAND FREE ENERGY PREDICTED BY IDOCK:   -4.03 KCAL/MOL
REMARK 924 INTRA-LIGAND FREE ENERGY PREDICTED BY IDOCK:   -0.04 KCAL/MOL
REMARK 927      BINDING AFFINITY PREDICTED BY RF-SCORE:    0.00 PKD
ROOT
HETATM    1  C   UNL     1     -11.451  14.500  64.781  1.00  0.00    -0.408 C  
HETATM    2  O   UNL     1     -10.798  15.723  64.457  1.00  0.00    -0.467 OA 
ENDROOT
BRANCH   2   3
HETATM    3  C   UNL     1     -10.405  16.482  65.528  1.00  0.00    -0.284 A  
HETATM    4  C   UNL     1      -9.650  16.009  66.598  1.00  0.00    -0.258 A  
HETATM    5  C   UNL     1      -9.297  16.847  67.679  1.00  0.00    -0.233 A  
HETATM    6  C   UNL     1      -9.712  18.189  67.648  1.00  0.00    -0.292 A  
HETATM    7  C   UNL     1     -10.433  18.674  66.548  1.00  0.00    -0.465 A  
HETATM    8  C   UNL     1     -10.777  17.820  65.496  1.00  0.00    -0.009 A  
BRANCH   5   9
HETATM    9  C   UNL     1      -8.481  16.301  68.842  1.00  0.00    -0.253 C  
HETATM   10  H   UNL     1      -8.360  14.604  69.857  1.00  0.00     0.000 HD 
HETATM   11  O   UNL     1      -8.869  14.945  69.131  1.00  0.00    -0.193 OA 
BRANCH   9  12
HETATM   12  C   UNL     1      -6.937  16.380  68.630  1.00  0.00    -0.159 C  
HETATM   13  C   UNL     1      -6.606  17.023  67.277  1.00  0.00    -0.195 C  
HETATM   14  N   UNL     1      -6.236  17.160  69.676  1.00  0.00    -0.243 NA 
HETATM   15  H1  UNL     1      -5.227  17.212  69.537  1.00  0.00     0.000 HD 
HETATM   16  H2  UNL     1      -6.455  16.799  70.604  1.00  0.00     0.000 HD 
ENDBRANCH   9  12
ENDBRANCH   5   9
BRANCH   6  17
HETATM   17  O   UNL     1      -9.340  18.979  68.706  1.00  0.00    -0.355 OA 
HETATM   18  C   UNL     1     -10.048  20.209  68.829  1.00  0.00    -0.215 C  
ENDBRANCH   6  17
ENDBRANCH   2   3
TORSDOF 4
ENDMDL
MODEL      141
REMARK 921   NORMALIZED FREE ENERGY PREDICTED BY IDOCK:   -3.18 KCAL/MOL
REMARK 922        TOTAL FREE ENERGY PREDICTED BY IDOCK:   -4.05 KCAL/MOL
REMARK 923 INTER-LIGAND FREE ENERGY PREDICTED BY IDOCK:   -3.87 KCAL/MOL
REMARK 924 INTRA-LIGAND FREE ENERGY PREDICTED BY IDOCK:   -0.19 KCAL/MOL
REMARK 927      BINDING AFFINITY PREDICTED BY RF-SCORE:    0.00 PKD
ROOT
HETATM    1  C   UNL     1      -9.154   5.629  65.928  1.00  0.00    -0.148 C  
HETATM    2  O   UNL     1     -10.184   6.195  66.731  1.00  0.00    -0.181 OA 
ENDROOT
BRANCH   2   3
HETATM    3  C   UNL     1     -10.102   7.548  66.924  1.00  0.00    -0.266 A  
HETATM    4  C   UNL     1     -10.678   8.233  67.991  1.00  0.00    -0.111 A  
HETATM    5  C   UNL     1     -10.567   9.635  68.115  1.00  0.00    -0.273 A  
HETATM    6  C   UNL     1      -9.841  10.337  67.137  1.00  0.00    -0.185 A  
HETATM    7  C   UNL     1      -9.224   9.641  66.089  1.00  0.00    -0.222 A  
HETATM    8  C   UNL     1      -9.358   8.253  65.987  1.00  0.00    -0.217 A  
BRANCH   5   9
HETATM    9  C   UNL     1     -11.218  10.359  69.285  1.00  0.00    -0.248 C  
HETATM   10  H   UNL     1     -12.638  11.716  69.542  1.00  0.00     0.000 HD 
HETATM   11  O   UNL     1     -12.232  11.265  68.812  1.00  0.00    -0.532 OA 
BRANCH   9  12
HETATM   12  C   UNL     1     -11.817   9.408  70.369  1.00  0.00    -0.090 C  
HETATM   13  C   UNL     1     -10.975   9.445  71.651  1.00  0.00    -0.382 C  
HETATM   14  N   UNL     1     -13.210   9.742  70.742  1.00  0.00    -0.600 NA 
HETATM   15  H1  UNL     1     -13.602   9.121  71.450  1.00  0.00     0.000 HD 
HETATM   16  H2  UNL     1     -13.809   9.771  69.917  1.00  0.00     0.000 HD 
ENDBRANCH   9  12
ENDBRANCH   5   9
BRANCH   6  17
HETATM   17  O   UNL     1      -9.741  11.696  67.296  1.00  0.00    -0.179 OA 
HETATM   18  C   UNL     1      -9.616  12.443  66.090  1.00  0.00    -0.233 C  
ENDBRANCH   6  17
ENDBRANCH   2   3
TORSDOF 4
ENDMDL
MODEL      142
REMARK 921   NORMALIZED FREE ENERGY PREDICTED BY IDOCK:   -3.17 KCAL/MOL
REMARK 922        TOTAL FREE ENERGY PREDICTED BY IDOCK:   -4.04 KCAL/MOL
REMARK 923 INTER-LIGAND FREE ENERGY PREDICTED BY IDOCK:   -3.77 KCAL/MOL
REMARK 924 INTRA-LIGAND FREE ENERGY PREDICTED BY IDOCK:   -0.27 KCAL/MOL
REMARK 927      BINDING AFFINITY PREDICTED BY RF-SCORE:    0.00 PKD
ROOT
HETATM    1  C   UNL     1     -10.285  11.291  63.444  1.00  0.00    -0.403 C  
HETATM    2  O   UNL     1      -9.618  10.226  64.115  1.00  0.00    -0.289 OA 
ENDROOT
BRANCH   2   3
HETATM    3  C   UNL     1     -10.005  10.014  65.411  1.00  0.00    -0.294 A  
HETATM    4  C   UNL     1      -9.909   8.795  66.077  1.00  0.00    -0.234 A  
HETATM    5  C   UNL     1     -10.346   8.646  67.411  1.00  0.00    -0.353 A  
HETATM    6  C   UNL     1     -10.873   9.770  68.072  1.00  0.00    -0.223 A  
HETATM    7  C   UNL     1     -10.925  11.007  67.415  1.00  0.00    -0.349 A  
HETATM    8  C   UNL     1     -10.494  11.123  66.090  1.00  0.00    -0.307 A  
BRANCH   5   9
HETATM    9  C   UNL     1     -10.242   7.298  68.110  1.00  0.00    -0.187 C  
HETATM   10  H   UNL     1     -11.215   5.573  68.086  1.00  0.00     0.000 HD 
HETATM   11  O   UNL     1     -11.280   6.414  67.650  1.00  0.00    -0.337 OA 
BRANCH   9  12
HETATM   12  C   UNL     1      -8.849   6.609  67.959  1.00  0.00    -0.115 C  
HETATM   13  C   UNL     1      -8.161   6.468  69.323  1.00  0.00    -0.123 C  
HETATM   14  N   UNL     1      -8.921   5.258  67.356  1.00  0.00    -0.109 NA 
HETATM   15  H1  UNL     1      -8.012   4.808  67.257  1.00  0.00     0.000 HD 
HETATM   16  H2  UNL     1      -9.409   5.287  66.461  1.00  0.00     0.000 HD 
ENDBRANCH   9  12
ENDBRANCH   5   9
BRANCH   6  17
HETATM   17  O   UNL     1     -11.274   9.594  69.372  1.00  0.00    -0.187 OA 
HETATM   18  C   UNL     1     -10.315   9.959  70.360  1.00  0.00    -0.260 C  
ENDBRANCH   6  17
ENDBRANCH   2   3
TORSDOF 4
ENDMDL
MODEL      143
REMARK 921   NORMALIZED FREE ENERGY PREDICTED BY IDOCK:   -3.15 KCAL/MOL
REMARK 922        TOTAL FREE ENERGY PREDICTED BY IDOCK:   -4.02 KCAL/MOL
REMARK 923 INTER-LIGAND FREE ENERGY PREDICTED BY IDOCK:   -4.30 KCAL/MOL
REMARK 924 INTRA-LIGAND FREE ENERGY PREDICTED BY IDOCK:    0.28 KCAL/MOL
REMARK 927      BINDING AFFINITY PREDICTED BY RF-SCORE:    0.00 PKD
ROOT
HETATM    1  C   UNL     1     -12.091  13.162  63.544  1.00  0.00    -0.514 C  
HETATM    2  O   UNL     1     -12.186  13.311  64.957  1.00  0.00    -0.384 OA 
ENDROOT
BRANCH   2   3
HETATM    3  C   UNL     1     -11.323  12.540  65.689  1.00  0.00    -0.335 A  
HETATM    4  C   UNL     1     -11.587  12.050  66.966  1.00  0.00    -0.387 A  
HETATM    5  C   UNL     1     -10.639  11.275  67.669  1.00  0.00    -0.252 A  
HETATM    6  C   UNL     1      -9.414  10.987  67.044  1.00  0.00    -0.173 A  
HETATM    7  C   UNL     1      -9.169  11.442  65.740  1.00  0.00    -0.223 A  
HETATM    8  C   UNL     1     -10.122  12.216  65.072  1.00  0.00    -0.289 A  
BRANCH   5   9
HETATM    9  C   UNL     1     -10.949  10.763  69.068  1.00  0.00    -0.240 C  
HETATM   10  H   UNL     1     -12.536  10.638  70.248  1.00  0.00     0.000 HD 
HETATM   11  O   UNL     1     -12.343  10.957  69.375  1.00  0.00    -0.349 OA 
BRANCH   9  12
HETATM   12  C   UNL     1     -10.555   9.271  69.303  1.00  0.00    -0.222 C  
HETATM   13  C   UNL     1     -11.214   8.728  70.578  1.00  0.00    -0.278 C  
HETATM   14  N   UNL     1     -10.941   8.376  68.188  1.00  0.00    -0.449 NA 
HETATM   15  H1  UNL     1     -10.683   7.401  68.341  1.00  0.00     0.000 HD 
HETATM   16  H2  UNL     1     -10.561   8.715  67.304  1.00  0.00     0.000 HD 
ENDBRANCH   9  12
ENDBRANCH   5   9
BRANCH   6  17
HETATM   17  O   UNL     1      -8.523  10.219  67.749  1.00  0.00    -0.114 OA 
HETATM   18  C   UNL     1      -7.182  10.242  67.267  1.00  0.00    -0.089 C  
ENDBRANCH   6  17
ENDBRANCH   2   3
TORSDOF 4
ENDMDL
MODEL      144
REMARK 921   NORMALIZED FREE ENERGY PREDICTED BY IDOCK:   -3.14 KCAL/MOL
REMARK 922        TOTAL FREE ENERGY PREDICTED BY IDOCK:   -4.00 KCAL/MOL
REMARK 923 INTER-LIGAND FREE ENERGY PREDICTED BY IDOCK:   -4.12 KCAL/MOL
REMARK 924 INTRA-LIGAND FREE ENERGY PREDICTED BY IDOCK:    0.12 KCAL/MOL
REMARK 927      BINDING AFFINITY PREDICTED BY RF-SCORE:    0.00 PKD
ROOT
HETATM    1  C   UNL     1     -10.522   4.819  66.264  1.00  0.00    -0.269 C  
HETATM    2  O   UNL     1      -9.559   4.405  67.228  1.00  0.00    -0.165 OA 
ENDROOT
BRANCH   2   3
HETATM    3  C   UNL     1      -9.871   4.688  68.530  1.00  0.00    -0.111 A  
HETATM    4  C   UNL     1     -10.685   5.741  68.939  1.00  0.00    -0.334 A  
HETATM    5  C   UNL     1     -10.949   5.984  70.305  1.00  0.00    -0.412 A  
HETATM    6  C   UNL     1     -10.380   5.122  71.259  1.00  0.00    -0.205 A  
HETATM    7  C   UNL     1      -9.598   4.035  70.843  1.00  0.00    -0.253 A  
HETATM    8  C   UNL     1      -9.347   3.825  69.484  1.00  0.00    -0.249 A  
BRANCH   5   9
HETATM    9  C   UNL     1     -11.832   7.150  70.723  1.00  0.00    -0.325 C  
HETATM   10  H   UNL     1     -13.212   7.503  72.101  1.00  0.00     0.000 HD 
HETATM   11  O   UNL     1     -12.660   6.775  71.840  1.00  0.00    -0.345 OA 
BRANCH   9  12
HETATM   12  C   UNL     1     -11.046   8.457  71.058  1.00  0.00    -0.258 C  
HETATM   13  C   UNL     1     -11.981   9.673  71.044  1.00  0.00    -0.427 C  
HETATM   14  N   UNL     1     -10.382   8.423  72.382  1.00  0.00    -0.326 NA 
HETATM   15  H1  UNL     1      -9.868   9.276  72.601  1.00  0.00     0.000 HD 
HETATM   16  H2  UNL     1      -9.775   7.607  72.462  1.00  0.00     0.000 HD 
ENDBRANCH   9  12
ENDBRANCH   5   9
BRANCH   6  17
HETATM   17  O   UNL     1     -10.668   5.378  72.575  1.00  0.00    -0.216 OA 
HETATM   18  C   UNL     1     -10.725   4.232  73.420  1.00  0.00    -0.231 C  
ENDBRANCH   6  17
ENDBRANCH   2   3
TORSDOF 4
ENDMDL
MODEL      145
REMARK 921   NORMALIZED FREE ENERGY PREDICTED BY IDOCK:   -3.13 KCAL/MOL
REMARK 922        TOTAL FREE ENERGY PREDICTED BY IDOCK:   -3.99 KCAL/MOL
REMARK 923 INTER-LIGAND FREE ENERGY PREDICTED BY IDOCK:   -3.72 KCAL/MOL
REMARK 924 INTRA-LIGAND FREE ENERGY PREDICTED BY IDOCK:   -0.27 KCAL/MOL
REMARK 927      BINDING AFFINITY PREDICTED BY RF-SCORE:    0.00 PKD
ROOT
HETATM    1  C   UNL     1     -10.387  19.019  65.866  1.00  0.00    -0.371 C  
HETATM    2  O   UNL     1      -9.555  17.962  65.399  1.00  0.00    -0.019 OA 
ENDROOT
BRANCH   2   3
HETATM    3  C   UNL     1      -9.892  16.710  65.839  1.00  0.00    -0.273 A  
HETATM    4  C   UNL     1      -9.610  16.214  67.110  1.00  0.00    -0.235 A  
HETATM    5  C   UNL     1      -9.973  14.903  67.488  1.00  0.00    -0.219 A  
HETATM    6  C   UNL     1     -10.649  14.100  66.553  1.00  0.00    -0.282 A  
HETATM    7  C   UNL     1     -10.973  14.617  65.291  1.00  0.00    -0.374 A  
HETATM    8  C   UNL     1     -10.593  15.916  64.941  1.00  0.00    -0.281 A  
BRANCH   5   9
HETATM    9  C   UNL     1      -9.640  14.383  68.879  1.00  0.00    -0.123 C  
HETATM   10  H   UNL     1      -8.298  14.762  70.286  1.00  0.00     0.000 HD 
HETATM   11  O   UNL     1      -8.506  15.087  69.418  1.00  0.00    -0.191 OA 
BRANCH   9  12
HETATM   12  C   UNL     1     -10.833  14.444  69.885  1.00  0.00     0.009 C  
HETATM   13  C   UNL     1     -11.898  15.439  69.404  1.00  0.00    -0.372 C  
HETATM   14  N   UNL     1     -11.503  13.139  70.086  1.00  0.00    -0.516 NA 
HETATM   15  H1  UNL     1     -12.282  13.179  70.743  1.00  0.00     0.000 HD 
HETATM   16  H2  UNL     1     -10.830  12.427  70.369  1.00  0.00     0.000 HD 
ENDBRANCH   9  12
ENDBRANCH   5   9
BRANCH   6  17
HETATM   17  O   UNL     1     -11.000  12.837  66.958  1.00  0.00    -0.252 OA 
HETATM   18  C   UNL     1     -10.393  11.773  66.232  1.00  0.00    -0.224 C  
ENDBRANCH   6  17
ENDBRANCH   2   3
TORSDOF 4
ENDMDL
MODEL      146
REMARK 921   NORMALIZED FREE ENERGY PREDICTED BY IDOCK:   -3.11 KCAL/MOL
REMARK 922        TOTAL FREE ENERGY PREDICTED BY IDOCK:   -3.97 KCAL/MOL
REMARK 923 INTER-LIGAND FREE ENERGY PREDICTED BY IDOCK:   -3.88 KCAL/MOL
REMARK 924 INTRA-LIGAND FREE ENERGY PREDICTED BY IDOCK:   -0.09 KCAL/MOL
REMARK 927      BINDING AFFINITY PREDICTED BY RF-SCORE:    0.00 PKD
ROOT
HETATM    1  C   UNL     1      -8.248   8.077  64.686  1.00  0.00    -0.106 C  
HETATM    2  O   UNL     1      -8.594   7.489  65.936  1.00  0.00    -0.144 OA 
ENDROOT
BRANCH   2   3
HETATM    3  C   UNL     1      -9.314   8.289  66.783  1.00  0.00    -0.182 A  
HETATM    4  C   UNL     1      -9.638   9.619  66.531  1.00  0.00    -0.252 A  
HETATM    5  C   UNL     1     -10.370  10.389  67.462  1.00  0.00    -0.268 A  
HETATM    6  C   UNL     1     -10.784   9.778  68.657  1.00  0.00    -0.216 A  
HETATM    7  C   UNL     1     -10.496   8.425  68.888  1.00  0.00    -0.208 A  
HETATM    8  C   UNL     1      -9.762   7.690  67.953  1.00  0.00    -0.174 A  
BRANCH   5   9
HETATM    9  C   UNL     1     -10.700  11.845  67.166  1.00  0.00    -0.240 C  
HETATM   10  H   UNL     1     -12.326  12.974  67.074  1.00  0.00     0.000 HD 
HETATM   11  O   UNL     1     -12.120  12.065  67.259  1.00  0.00    -0.572 OA 
BRANCH   9  12
HETATM   12  C   UNL     1      -9.942  12.867  68.071  1.00  0.00    -0.236 C  
HETATM   13  C   UNL     1      -9.475  14.077  67.251  1.00  0.00    -0.231 C  
HETATM   14  N   UNL     1     -10.759  13.380  69.194  1.00  0.00    -0.428 NA 
HETATM   15  H1  UNL     1     -10.264  14.048  69.785  1.00  0.00     0.000 HD 
HETATM   16  H2  UNL     1     -11.131  12.611  69.752  1.00  0.00     0.000 HD 
ENDBRANCH   9  12
ENDBRANCH   5   9
BRANCH   6  17
HETATM   17  O   UNL     1     -11.505  10.550  69.532  1.00  0.00    -0.246 OA 
HETATM   18  C   UNL     1     -11.582  10.052  70.865  1.00  0.00    -0.378 C  
ENDBRANCH   6  17
ENDBRANCH   2   3
TORSDOF 4
ENDMDL
MODEL      147
REMARK 921   NORMALIZED FREE ENERGY PREDICTED BY IDOCK:   -3.08 KCAL/MOL
REMARK 922        TOTAL FREE ENERGY PREDICTED BY IDOCK:   -3.92 KCAL/MOL
REMARK 923 INTER-LIGAND FREE ENERGY PREDICTED BY IDOCK:   -3.56 KCAL/MOL
REMARK 924 INTRA-LIGAND FREE ENERGY PREDICTED BY IDOCK:   -0.36 KCAL/MOL
REMARK 927      BINDING AFFINITY PREDICTED BY RF-SCORE:    0.00 PKD
ROOT
HETATM    1  C   UNL     1      -9.243   2.309  69.344  1.00  0.00    -0.120 C  
HETATM    2  O   UNL     1      -9.395   3.637  68.852  1.00  0.00    -0.148 OA 
ENDROOT
BRANCH   2   3
HETATM    3  C   UNL     1      -9.884   4.545  69.753  1.00  0.00    -0.225 A  
HETATM    4  C   UNL     1      -9.660   4.497  71.126  1.00  0.00    -0.245 A  
HETATM    5  C   UNL     1     -10.212   5.461  71.998  1.00  0.00    -0.256 A  
HETATM    6  C   UNL     1     -10.990   6.494  71.447  1.00  0.00    -0.258 A  
HETATM    7  C   UNL     1     -11.177   6.566  70.059  1.00  0.00    -0.453 A  
HETATM    8  C   UNL     1     -10.625   5.592  69.221  1.00  0.00    -0.359 A  
BRANCH   5   9
HETATM    9  C   UNL     1      -9.961   5.377  73.497  1.00  0.00    -0.175 C  
HETATM   10  H   UNL     1      -9.530   3.965  74.818  1.00  0.00     0.000 HD 
HETATM   11  O   UNL     1      -9.687   4.017  73.883  1.00  0.00    -0.111 OA 
BRANCH   9  12
HETATM   12  C   UNL     1      -8.821   6.315  74.005  1.00  0.00    -0.126 C  
HETATM   13  C   UNL     1      -7.741   6.491  72.930  1.00  0.00    -0.101 C  
HETATM   14  N   UNL     1      -9.294   7.667  74.384  1.00  0.00    -0.362 NA 
HETATM   15  H1  UNL     1      -8.550   8.280  74.717  1.00  0.00     0.000 HD 
HETATM   16  H2  UNL     1     -10.046   7.607  75.071  1.00  0.00     0.000 HD 
ENDBRANCH   9  12
ENDBRANCH   5   9
BRANCH   6  17
HETATM   17  O   UNL     1     -11.499   7.421  72.321  1.00  0.00    -0.265 OA 
HETATM   18  C   UNL     1     -11.548   8.757  71.831  1.00  0.00    -0.361 C  
ENDBRANCH   6  17
ENDBRANCH   2   3
TORSDOF 4
ENDMDL
MODEL      148
REMARK 921   NORMALIZED FREE ENERGY PREDICTED BY IDOCK:   -3.05 KCAL/MOL
REMARK 922        TOTAL FREE ENERGY PREDICTED BY IDOCK:   -3.89 KCAL/MOL
REMARK 923 INTER-LIGAND FREE ENERGY PREDICTED BY IDOCK:   -4.01 KCAL/MOL
REMARK 924 INTRA-LIGAND FREE ENERGY PREDICTED BY IDOCK:    0.11 KCAL/MOL
REMARK 927      BINDING AFFINITY PREDICTED BY RF-SCORE:    0.00 PKD
ROOT
HETATM    1  C   UNL     1     -12.037  12.429  65.192  1.00  0.00    -0.405 C  
HETATM    2  O   UNL     1     -12.247  12.676  66.579  1.00  0.00    -0.538 OA 
ENDROOT
BRANCH   2   3
HETATM    3  C   UNL     1     -11.612  11.814  67.432  1.00  0.00    -0.280 A  
HETATM    4  C   UNL     1     -10.621  10.911  67.054  1.00  0.00    -0.307 A  
HETATM    5  C   UNL     1     -10.022  10.039  67.989  1.00  0.00    -0.176 A  
HETATM    6  C   UNL     1     -10.436  10.109  69.331  1.00  0.00    -0.233 A  
HETATM    7  C   UNL     1     -11.400  11.051  69.717  1.00  0.00    -0.366 A  
HETATM    8  C   UNL     1     -11.983  11.896  68.768  1.00  0.00    -0.307 A  
BRANCH   5   9
HETATM    9  C   UNL     1      -8.951   9.053  67.546  1.00  0.00    -0.122 C  
HETATM   10  H   UNL     1      -7.016   8.773  67.866  1.00  0.00     0.000 HD 
HETATM   11  O   UNL     1      -7.684   9.389  68.143  1.00  0.00    -0.083 OA 
BRANCH   9  12
HETATM   12  C   UNL     1      -9.299   7.560  67.838  1.00  0.00    -0.138 C  
HETATM   13  C   UNL     1     -10.649   7.183  67.214  1.00  0.00    -0.398 C  
HETATM   14  N   UNL     1      -8.290   6.606  67.323  1.00  0.00    -0.120 NA 
HETATM   15  H1  UNL     1      -8.517   5.630  67.514  1.00  0.00     0.000 HD 
HETATM   16  H2  UNL     1      -7.361   6.836  67.676  1.00  0.00     0.000 HD 
ENDBRANCH   9  12
ENDBRANCH   5   9
BRANCH   6  17
HETATM   17  O   UNL     1      -9.823   9.258  70.215  1.00  0.00    -0.190 OA 
HETATM   18  C   UNL     1     -10.399   9.214  71.517  1.00  0.00    -0.344 C  
ENDBRANCH   6  17
ENDBRANCH   2   3
TORSDOF 4
ENDMDL
MODEL      149
REMARK 921   NORMALIZED FREE ENERGY PREDICTED BY IDOCK:   -3.05 KCAL/MOL
REMARK 922        TOTAL FREE ENERGY PREDICTED BY IDOCK:   -3.89 KCAL/MOL
REMARK 923 INTER-LIGAND FREE ENERGY PREDICTED BY IDOCK:   -3.59 KCAL/MOL
REMARK 924 INTRA-LIGAND FREE ENERGY PREDICTED BY IDOCK:   -0.30 KCAL/MOL
REMARK 927      BINDING AFFINITY PREDICTED BY RF-SCORE:    0.00 PKD
ROOT
HETATM    1  C   UNL     1      -9.830  17.076  66.466  1.00  0.00    -0.294 C  
HETATM    2  O   UNL     1     -10.930  16.172  66.449  1.00  0.00    -0.196 OA 
ENDROOT
BRANCH   2   3
HETATM    3  C   UNL     1     -10.668  14.917  66.929  1.00  0.00    -0.308 A  
HETATM    4  C   UNL     1      -9.394  14.419  67.189  1.00  0.00    -0.226 A  
HETATM    5  C   UNL     1      -9.198  13.105  67.667  1.00  0.00    -0.207 A  
HETATM    6  C   UNL     1     -10.329  12.300  67.894  1.00  0.00    -0.208 A  
HETATM    7  C   UNL     1     -11.612  12.819  67.674  1.00  0.00    -0.412 A  
HETATM    8  C   UNL     1     -11.775  14.122  67.193  1.00  0.00    -0.430 A  
BRANCH   5   9
HETATM    9  C   UNL     1      -7.793  12.582  67.931  1.00  0.00    -0.144 C  
HETATM   10  H   UNL     1      -6.509  11.364  67.043  1.00  0.00     0.000 HD 
HETATM   11  O   UNL     1      -7.385  11.689  66.878  1.00  0.00    -0.143 OA 
BRANCH   9  12
HETATM   12  C   UNL     1      -6.723  13.703  68.125  1.00  0.00    -0.122 C  
HETATM   13  C   UNL     1      -6.396  13.890  69.612  1.00  0.00    -0.123 C  
HETATM   14  N   UNL     1      -5.449  13.430  67.421  1.00  0.00    -0.355 NA 
HETATM   15  H1  UNL     1      -4.750  14.161  67.547  1.00  0.00     0.000 HD 
HETATM   16  H2  UNL     1      -5.614  13.256  66.429  1.00  0.00     0.000 HD 
ENDBRANCH   9  12
ENDBRANCH   5   9
BRANCH   6  17
HETATM   17  O   UNL     1     -10.103  11.035  68.372  1.00  0.00    -0.170 OA 
HETATM   18  C   UNL     1     -10.993  10.033  67.887  1.00  0.00    -0.252 C  
ENDBRANCH   6  17
ENDBRANCH   2   3
TORSDOF 4
ENDMDL
MODEL      150
REMARK 921   NORMALIZED FREE ENERGY PREDICTED BY IDOCK:   -3.04 KCAL/MOL
REMARK 922        TOTAL FREE ENERGY PREDICTED BY IDOCK:   -3.89 KCAL/MOL
REMARK 923 INTER-LIGAND FREE ENERGY PREDICTED BY IDOCK:   -4.21 KCAL/MOL
REMARK 924 INTRA-LIGAND FREE ENERGY PREDICTED BY IDOCK:    0.33 KCAL/MOL
REMARK 927      BINDING AFFINITY PREDICTED BY RF-SCORE:    0.00 PKD
ROOT
HETATM    1  C   UNL     1      -7.558  10.008  67.961  1.00  0.00    -0.088 C  
HETATM    2  O   UNL     1      -8.934   9.831  67.639  1.00  0.00    -0.128 OA 
ENDROOT
BRANCH   2   3
HETATM    3  C   UNL     1      -9.583  10.953  67.196  1.00  0.00    -0.165 A  
HETATM    4  C   UNL     1      -9.476  12.212  67.781  1.00  0.00    -0.192 A  
HETATM    5  C   UNL     1     -10.191  13.322  67.280  1.00  0.00    -0.240 A  
HETATM    6  C   UNL     1     -11.013  13.136  66.155  1.00  0.00    -0.283 A  
HETATM    7  C   UNL     1     -11.083  11.877  65.540  1.00  0.00    -0.356 A  
HETATM    8  C   UNL     1     -10.370  10.795  66.063  1.00  0.00    -0.300 A  
BRANCH   5   9
HETATM    9  C   UNL     1     -10.065  14.684  67.947  1.00  0.00    -0.225 C  
HETATM   10  H   UNL     1     -10.159  16.584  67.393  1.00  0.00     0.000 HD 
HETATM   11  O   UNL     1     -10.238  15.734  66.976  1.00  0.00    -0.267 OA 
BRANCH   9  12
HETATM   12  C   UNL     1     -11.043  14.900  69.145  1.00  0.00    -0.269 C  
HETATM   13  C   UNL     1     -10.945  16.336  69.675  1.00  0.00    -0.346 C  
HETATM   14  N   UNL     1     -12.462  14.650  68.801  1.00  0.00    -0.567 NA 
HETATM   15  H1  UNL     1     -13.101  14.790  69.583  1.00  0.00     0.000 HD 
HETATM   16  H2  UNL     1     -12.579  13.717  68.403  1.00  0.00     0.000 HD 
ENDBRANCH   9  12
ENDBRANCH   5   9
BRANCH   6  17
HETATM   17  O   UNL     1     -11.681  14.237  65.685  1.00  0.00    -0.343 OA 
HETATM   18  C   UNL     1     -12.068  14.178  64.315  1.00  0.00    -0.444 C  
ENDBRANCH   6  17
ENDBRANCH   2   3
TORSDOF 4
ENDMDL
MODEL      151
REMARK 921   NORMALIZED FREE ENERGY PREDICTED BY IDOCK:   -3.03 KCAL/MOL
REMARK 922        TOTAL FREE ENERGY PREDICTED BY IDOCK:   -3.86 KCAL/MOL
REMARK 923 INTER-LIGAND FREE ENERGY PREDICTED BY IDOCK:   -4.09 KCAL/MOL
REMARK 924 INTRA-LIGAND FREE ENERGY PREDICTED BY IDOCK:    0.22 KCAL/MOL
REMARK 927      BINDING AFFINITY PREDICTED BY RF-SCORE:    0.00 PKD
ROOT
HETATM    1  C   UNL     1      -9.857  11.438  66.714  1.00  0.00    -0.206 C  
HETATM    2  O   UNL     1     -10.517  12.032  67.828  1.00  0.00    -0.196 OA 
ENDROOT
BRANCH   2   3
HETATM    3  C   UNL     1     -10.675  11.219  68.919  1.00  0.00    -0.207 A  
HETATM    4  C   UNL     1      -9.707  10.341  69.400  1.00  0.00    -0.242 A  
HETATM    5  C   UNL     1      -9.948   9.519  70.522  1.00  0.00    -0.335 A  
HETATM    6  C   UNL     1     -11.194   9.615  71.166  1.00  0.00    -0.384 A  
HETATM    7  C   UNL     1     -12.150  10.532  70.708  1.00  0.00    -0.470 A  
HETATM    8  C   UNL     1     -11.887  11.327  69.588  1.00  0.00    -0.430 A  
BRANCH   5   9
HETATM    9  C   UNL     1      -8.877   8.560  71.019  1.00  0.00    -0.175 C  
HETATM   10  H   UNL     1      -7.988   8.143  72.740  1.00  0.00     0.000 HD 
HETATM   11  O   UNL     1      -8.657   8.741  72.430  1.00  0.00    -0.395 OA 
BRANCH   9  12
HETATM   12  C   UNL     1      -9.176   7.058  70.715  1.00  0.00    -0.157 C  
HETATM   13  C   UNL     1      -9.545   6.865  69.239  1.00  0.00    -0.149 C  
HETATM   14  N   UNL     1      -8.037   6.158  71.009  1.00  0.00    -0.119 NA 
HETATM   15  H1  UNL     1      -8.233   5.176  70.811  1.00  0.00     0.000 HD 
HETATM   16  H2  UNL     1      -7.723   6.275  71.973  1.00  0.00     0.000 HD 
ENDBRANCH   9  12
ENDBRANCH   5   9
BRANCH   6  17
HETATM   17  O   UNL     1     -11.390   8.813  72.261  1.00  0.00    -0.355 OA 
HETATM   18  C   UNL     1     -12.325   7.753  72.082  1.00  0.00    -0.265 C  
ENDBRANCH   6  17
ENDBRANCH   2   3
TORSDOF 4
ENDMDL
MODEL      152
REMARK 921   NORMALIZED FREE ENERGY PREDICTED BY IDOCK:   -3.02 KCAL/MOL
REMARK 922        TOTAL FREE ENERGY PREDICTED BY IDOCK:   -3.86 KCAL/MOL
REMARK 923 INTER-LIGAND FREE ENERGY PREDICTED BY IDOCK:   -3.52 KCAL/MOL
REMARK 924 INTRA-LIGAND FREE ENERGY PREDICTED BY IDOCK:   -0.33 KCAL/MOL
REMARK 927      BINDING AFFINITY PREDICTED BY RF-SCORE:    0.00 PKD
ROOT
HETATM    1  C   UNL     1      -9.702   3.610  72.366  1.00  0.00    -0.152 C  
HETATM    2  O   UNL     1     -10.165   4.637  73.236  1.00  0.00    -0.153 OA 
ENDROOT
BRANCH   2   3
HETATM    3  C   UNL     1     -10.516   5.811  72.625  1.00  0.00    -0.208 A  
HETATM    4  C   UNL     1      -9.614   6.783  72.199  1.00  0.00    -0.152 A  
HETATM    5  C   UNL     1     -10.052   7.980  71.591  1.00  0.00    -0.238 A  
HETATM    6  C   UNL     1     -11.432   8.171  71.407  1.00  0.00    -0.263 A  
HETATM    7  C   UNL     1     -12.335   7.172  71.795  1.00  0.00    -0.385 A  
HETATM    8  C   UNL     1     -11.874   6.000  72.403  1.00  0.00    -0.283 A  
BRANCH   5   9
HETATM    9  C   UNL     1      -9.044   9.030  71.146  1.00  0.00    -0.246 C  
HETATM   10  H   UNL     1      -7.311   9.742  71.790  1.00  0.00     0.000 HD 
HETATM   11  O   UNL     1      -7.940   9.086  72.068  1.00  0.00    -0.356 OA 
BRANCH   9  12
HETATM   12  C   UNL     1      -8.515   8.829  69.691  1.00  0.00    -0.129 C  
HETATM   13  C   UNL     1      -7.305   7.886  69.679  1.00  0.00    -0.090 C  
HETATM   14  N   UNL     1      -9.526   8.265  68.768  1.00  0.00    -0.147 NA 
HETATM   15  H1  UNL     1      -9.180   8.134  67.817  1.00  0.00     0.000 HD 
HETATM   16  H2  UNL     1     -10.373   8.834  68.768  1.00  0.00     0.000 HD 
ENDBRANCH   9  12
ENDBRANCH   5   9
BRANCH   6  17
HETATM   17  O   UNL     1     -11.821   9.338  70.801  1.00  0.00    -0.281 OA 
HETATM   18  C   UNL     1     -12.795  10.099  71.510  1.00  0.00    -0.443 C  
ENDBRANCH   6  17
ENDBRANCH   2   3
TORSDOF 4
ENDMDL
MODEL      153
REMARK 921   NORMALIZED FREE ENERGY PREDICTED BY IDOCK:   -3.01 KCAL/MOL
REMARK 922        TOTAL FREE ENERGY PREDICTED BY IDOCK:   -3.84 KCAL/MOL
REMARK 923 INTER-LIGAND FREE ENERGY PREDICTED BY IDOCK:   -4.09 KCAL/MOL
REMARK 924 INTRA-LIGAND FREE ENERGY PREDICTED BY IDOCK:    0.25 KCAL/MOL
REMARK 927      BINDING AFFINITY PREDICTED BY RF-SCORE:    0.00 PKD
ROOT
HETATM    1  C   UNL     1      -9.539  12.204  67.052  1.00  0.00    -0.205 C  
HETATM    2  O   UNL     1      -9.390  12.843  68.315  1.00  0.00    -0.209 OA 
ENDROOT
BRANCH   2   3
HETATM    3  C   UNL     1      -9.028  14.162  68.269  1.00  0.00    -0.188 A  
HETATM    4  C   UNL     1      -9.922  15.228  68.208  1.00  0.00    -0.222 A  
HETATM    5  C   UNL     1      -9.474  16.565  68.144  1.00  0.00    -0.222 A  
HETATM    6  C   UNL     1      -8.090  16.808  68.158  1.00  0.00    -0.197 A  
HETATM    7  C   UNL     1      -7.192  15.737  68.266  1.00  0.00    -0.118 A  
HETATM    8  C   UNL     1      -7.664  14.422  68.319  1.00  0.00    -0.129 A  
BRANCH   5   9
HETATM    9  C   UNL     1     -10.474  17.710  68.065  1.00  0.00    -0.394 C  
HETATM   10  H   UNL     1     -10.736  19.469  68.937  1.00  0.00     0.000 HD 
HETATM   11  O   UNL     1     -10.111  18.755  68.986  1.00  0.00    -0.393 OA 
BRANCH   9  12
HETATM   12  C   UNL     1     -10.654  18.302  66.632  1.00  0.00    -0.298 C  
HETATM   13  C   UNL     1     -10.401  19.814  66.632  1.00  0.00    -0.614 C  
HETATM   14  N   UNL     1      -9.747  17.700  65.627  1.00  0.00    -0.445 NA 
HETATM   15  H1  UNL     1      -9.865  18.087  64.690  1.00  0.00     0.000 HD 
HETATM   16  H2  UNL     1      -9.845  16.685  65.613  1.00  0.00     0.000 HD 
ENDBRANCH   9  12
ENDBRANCH   5   9
BRANCH   6  17
HETATM   17  O   UNL     1      -7.689  18.119  68.109  1.00  0.00    -0.256 OA 
HETATM   18  C   UNL     1      -6.310  18.346  68.384  1.00  0.00    -0.201 C  
ENDBRANCH   6  17
ENDBRANCH   2   3
TORSDOF 4
ENDMDL
MODEL      154
REMARK 921   NORMALIZED FREE ENERGY PREDICTED BY IDOCK:   -3.01 KCAL/MOL
REMARK 922        TOTAL FREE ENERGY PREDICTED BY IDOCK:   -3.84 KCAL/MOL
REMARK 923 INTER-LIGAND FREE ENERGY PREDICTED BY IDOCK:   -3.47 KCAL/MOL
REMARK 924 INTRA-LIGAND FREE ENERGY PREDICTED BY IDOCK:   -0.37 KCAL/MOL
REMARK 927      BINDING AFFINITY PREDICTED BY RF-SCORE:    0.00 PKD
ROOT
HETATM    1  C   UNL     1     -11.127  11.783  64.122  1.00  0.00    -0.374 C  
HETATM    2  O   UNL     1     -11.128  11.689  65.543  1.00  0.00    -0.292 OA 
ENDROOT
BRANCH   2   3
HETATM    3  C   UNL     1     -10.472  10.605  66.061  1.00  0.00    -0.183 A  
HETATM    4  C   UNL     1     -10.570  10.178  67.383  1.00  0.00    -0.329 A  
HETATM    5  C   UNL     1      -9.848   9.058  67.852  1.00  0.00    -0.207 A  
HETATM    6  C   UNL     1      -9.030   8.362  66.946  1.00  0.00    -0.145 A  
HETATM    7  C   UNL     1      -8.970   8.766  65.605  1.00  0.00    -0.248 A  
HETATM    8  C   UNL     1      -9.688   9.883  65.170  1.00  0.00    -0.376 A  
BRANCH   5   9
HETATM    9  C   UNL     1      -9.964   8.622  69.306  1.00  0.00    -0.195 C  
HETATM   10  H   UNL     1      -9.904   9.484  71.088  1.00  0.00     0.000 HD 
HETATM   11  O   UNL     1      -9.832   9.757  70.181  1.00  0.00    -0.240 OA 
BRANCH   9  12
HETATM   12  C   UNL     1     -11.278   7.845  69.635  1.00  0.00     0.074 C  
HETATM   13  C   UNL     1     -11.092   6.340  69.404  1.00  0.00    -0.477 C  
HETATM   14  N   UNL     1     -11.737   8.027  71.031  1.00  0.00    -0.286 NA 
HETATM   15  H1  UNL     1     -12.595   7.519  71.246  1.00  0.00     0.000 HD 
HETATM   16  H2  UNL     1     -11.838   9.017  71.252  1.00  0.00     0.000 HD 
ENDBRANCH   9  12
ENDBRANCH   5   9
BRANCH   6  17
HETATM   17  O   UNL     1      -8.355   7.271  67.431  1.00  0.00    -0.118 OA 
HETATM   18  C   UNL     1      -7.360   6.734  66.564  1.00  0.00    -0.074 C  
ENDBRANCH   6  17
ENDBRANCH   2   3
TORSDOF 4
ENDMDL
MODEL      155
REMARK 921   NORMALIZED FREE ENERGY PREDICTED BY IDOCK:   -2.99 KCAL/MOL
REMARK 922        TOTAL FREE ENERGY PREDICTED BY IDOCK:   -3.82 KCAL/MOL
REMARK 923 INTER-LIGAND FREE ENERGY PREDICTED BY IDOCK:   -3.47 KCAL/MOL
REMARK 924 INTRA-LIGAND FREE ENERGY PREDICTED BY IDOCK:   -0.35 KCAL/MOL
REMARK 927      BINDING AFFINITY PREDICTED BY RF-SCORE:    0.00 PKD
ROOT
HETATM    1  C   UNL     1     -10.166   5.773  67.125  1.00  0.00    -0.207 C  
HETATM    2  O   UNL     1     -10.851   6.970  66.771  1.00  0.00    -0.318 OA 
ENDROOT
BRANCH   2   3
HETATM    3  C   UNL     1     -10.217   8.134  67.117  1.00  0.00    -0.296 A  
HETATM    4  C   UNL     1     -10.711   9.410  66.862  1.00  0.00    -0.174 A  
HETATM    5  C   UNL     1      -9.992  10.567  67.232  1.00  0.00    -0.224 A  
HETATM    6  C   UNL     1      -8.758  10.408  67.887  1.00  0.00    -0.118 A  
HETATM    7  C   UNL     1      -8.285   9.122  68.183  1.00  0.00    -0.116 A  
HETATM    8  C   UNL     1      -9.014   7.994  67.796  1.00  0.00    -0.133 A  
BRANCH   5   9
HETATM    9  C   UNL     1     -10.550  11.951  66.930  1.00  0.00    -0.230 C  
HETATM   10  H   UNL     1     -11.778  12.761  65.603  1.00  0.00     0.000 HD 
HETATM   11  O   UNL     1     -11.430  11.898  65.791  1.00  0.00    -0.329 OA 
BRANCH   9  12
HETATM   12  C   UNL     1     -11.281  12.620  68.137  1.00  0.00    -0.269 C  
HETATM   13  C   UNL     1     -11.944  11.561  69.027  1.00  0.00    -0.377 C  
HETATM   14  N   UNL     1     -10.383  13.425  68.998  1.00  0.00    -0.430 NA 
HETATM   15  H1  UNL     1     -10.860  13.862  69.786  1.00  0.00     0.000 HD 
HETATM   16  H2  UNL     1      -9.883  14.122  68.447  1.00  0.00     0.000 HD 
ENDBRANCH   9  12
ENDBRANCH   5   9
BRANCH   6  17
HETATM   17  O   UNL     1      -8.093  11.552  68.246  1.00  0.00    -0.133 OA 
HETATM   18  C   UNL     1      -6.913  11.832  67.498  1.00  0.00    -0.113 C  
ENDBRANCH   6  17
ENDBRANCH   2   3
TORSDOF 4
ENDMDL
MODEL      156
REMARK 921   NORMALIZED FREE ENERGY PREDICTED BY IDOCK:   -2.98 KCAL/MOL
REMARK 922        TOTAL FREE ENERGY PREDICTED BY IDOCK:   -3.81 KCAL/MOL
REMARK 923 INTER-LIGAND FREE ENERGY PREDICTED BY IDOCK:   -3.97 KCAL/MOL
REMARK 924 INTRA-LIGAND FREE ENERGY PREDICTED BY IDOCK:    0.17 KCAL/MOL
REMARK 927      BINDING AFFINITY PREDICTED BY RF-SCORE:    0.00 PKD
ROOT
HETATM    1  C   UNL     1      -9.510   1.872  71.969  1.00  0.00    -0.102 C  
HETATM    2  O   UNL     1     -10.393   2.859  72.492  1.00  0.00    -0.160 OA 
ENDROOT
BRANCH   2   3
HETATM    3  C   UNL     1     -10.314   4.091  71.899  1.00  0.00    -0.018 A  
HETATM    4  C   UNL     1     -10.746   5.279  72.483  1.00  0.00    -0.290 A  
HETATM    5  C   UNL     1     -10.650   6.513  71.803  1.00  0.00    -0.245 A  
HETATM    6  C   UNL     1     -10.088   6.525  70.515  1.00  0.00    -0.185 A  
HETATM    7  C   UNL     1      -9.612   5.334  69.948  1.00  0.00    -0.241 A  
HETATM    8  C   UNL     1      -9.729   4.126  70.641  1.00  0.00    -0.273 A  
BRANCH   5   9
HETATM    9  C   UNL     1     -11.141   7.795  72.461  1.00  0.00    -0.346 C  
HETATM   10  H   UNL     1     -10.461   9.635  72.738  1.00  0.00     0.000 HD 
HETATM   11  O   UNL     1     -10.154   8.835  72.328  1.00  0.00    -0.311 OA 
BRANCH   9  12
HETATM   12  C   UNL     1     -12.519   8.297  71.926  1.00  0.00    -0.337 C  
HETATM   13  C   UNL     1     -12.404   9.727  71.383  1.00  0.00    -0.480 C  
HETATM   14  N   UNL     1     -13.075   7.454  70.843  1.00  0.00    -0.603 NA 
HETATM   15  H1  UNL     1     -13.976   7.782  70.494  1.00  0.00     0.000 HD 
HETATM   16  H2  UNL     1     -13.135   6.479  71.138  1.00  0.00     0.000 HD 
ENDBRANCH   9  12
ENDBRANCH   5   9
BRANCH   6  17
HETATM   17  O   UNL     1      -9.996   7.742  69.889  1.00  0.00    -0.186 OA 
HETATM   18  C   UNL     1     -10.395   7.756  68.522  1.00  0.00    -0.197 C  
ENDBRANCH   6  17
ENDBRANCH   2   3
TORSDOF 4
ENDMDL
MODEL      157
REMARK 921   NORMALIZED FREE ENERGY PREDICTED BY IDOCK:   -2.97 KCAL/MOL
REMARK 922        TOTAL FREE ENERGY PREDICTED BY IDOCK:   -3.80 KCAL/MOL
REMARK 923 INTER-LIGAND FREE ENERGY PREDICTED BY IDOCK:   -3.73 KCAL/MOL
REMARK 924 INTRA-LIGAND FREE ENERGY PREDICTED BY IDOCK:   -0.07 KCAL/MOL
REMARK 927      BINDING AFFINITY PREDICTED BY RF-SCORE:    0.00 PKD
ROOT
HETATM    1  C   UNL     1      -6.610  11.112  69.726  1.00  0.00    -0.138 C  
HETATM    2  O   UNL     1      -6.787  10.280  70.868  1.00  0.00    -0.339 OA 
ENDROOT
BRANCH   2   3
HETATM    3  C   UNL     1      -7.699   9.269  70.724  1.00  0.00    -0.139 A  
HETATM    4  C   UNL     1      -8.811   9.083  71.542  1.00  0.00    -0.167 A  
HETATM    5  C   UNL     1      -9.700   8.005  71.344  1.00  0.00    -0.205 A  
HETATM    6  C   UNL     1      -9.452   7.118  70.282  1.00  0.00    -0.162 A  
HETATM    7  C   UNL     1      -8.358   7.334  69.432  1.00  0.00    -0.133 A  
HETATM    8  C   UNL     1      -7.488   8.405  69.658  1.00  0.00    -0.073 A  
BRANCH   5   9
HETATM    9  C   UNL     1     -10.901   7.818  72.262  1.00  0.00    -0.283 C  
HETATM   10  H   UNL     1     -11.214   7.397  74.172  1.00  0.00     0.000 HD 
HETATM   11  O   UNL     1     -10.465   7.513  73.600  1.00  0.00    -0.349 OA 
BRANCH   9  12
HETATM   12  C   UNL     1     -11.880   9.034  72.284  1.00  0.00    -0.236 C  
HETATM   13  C   UNL     1     -11.866   9.769  70.938  1.00  0.00    -0.420 C  
HETATM   14  N   UNL     1     -13.284   8.656  72.569  1.00  0.00    -0.607 NA 
HETATM   15  H1  UNL     1     -13.924   9.450  72.584  1.00  0.00     0.000 HD 
HETATM   16  H2  UNL     1     -13.346   8.126  73.438  1.00  0.00     0.000 HD 
ENDBRANCH   9  12
ENDBRANCH   5   9
BRANCH   6  17
HETATM   17  O   UNL     1     -10.344   6.091  70.109  1.00  0.00    -0.193 OA 
HETATM   18  C   UNL     1     -10.853   5.942  68.787  1.00  0.00    -0.283 C  
ENDBRANCH   6  17
ENDBRANCH   2   3
TORSDOF 4
ENDMDL
MODEL      158
REMARK 921   NORMALIZED FREE ENERGY PREDICTED BY IDOCK:   -2.96 KCAL/MOL
REMARK 922        TOTAL FREE ENERGY PREDICTED BY IDOCK:   -3.78 KCAL/MOL
REMARK 923 INTER-LIGAND FREE ENERGY PREDICTED BY IDOCK:   -3.46 KCAL/MOL
REMARK 924 INTRA-LIGAND FREE ENERGY PREDICTED BY IDOCK:   -0.32 KCAL/MOL
REMARK 927      BINDING AFFINITY PREDICTED BY RF-SCORE:    0.00 PKD
ROOT
HETATM    1  C   UNL     1      -9.510   4.267  68.229  1.00  0.00    -0.154 C  
HETATM    2  O   UNL     1      -9.937   4.182  69.584  1.00  0.00    -0.195 OA 
ENDROOT
BRANCH   2   3
HETATM    3  C   UNL     1      -9.612   5.254  70.372  1.00  0.00    -0.179 A  
HETATM    4  C   UNL     1     -10.329   6.446  70.422  1.00  0.00    -0.251 A  
HETATM    5  C   UNL     1      -9.923   7.518  71.247  1.00  0.00    -0.196 A  
HETATM    6  C   UNL     1      -8.775   7.353  72.040  1.00  0.00    -0.110 A  
HETATM    7  C   UNL     1      -8.080   6.135  72.023  1.00  0.00    -0.110 A  
HETATM    8  C   UNL     1      -8.501   5.095  71.190  1.00  0.00    -0.123 A  
BRANCH   5   9
HETATM    9  C   UNL     1     -10.719   8.815  71.272  1.00  0.00    -0.269 C  
HETATM   10  H   UNL     1     -11.730   9.921  69.976  1.00  0.00     0.000 HD 
HETATM   11  O   UNL     1     -11.233   9.112  69.960  1.00  0.00    -0.231 OA 
BRANCH   9  12
HETATM   12  C   UNL     1     -11.881   8.829  72.315  1.00  0.00    -0.333 C  
HETATM   13  C   UNL     1     -13.235   8.622  71.624  1.00  0.00    -0.381 C  
HETATM   14  N   UNL     1     -11.751   7.785  73.357  1.00  0.00    -0.425 NA 
HETATM   15  H1  UNL     1     -12.510   7.794  74.039  1.00  0.00     0.000 HD 
HETATM   16  H2  UNL     1     -10.846   7.851  73.824  1.00  0.00     0.000 HD 
ENDBRANCH   9  12
ENDBRANCH   5   9
BRANCH   6  17
HETATM   17  O   UNL     1      -8.417   8.409  72.840  1.00  0.00    -0.268 OA 
HETATM   18  C   UNL     1      -8.246   8.097  74.220  1.00  0.00    -0.231 C  
ENDBRANCH   6  17
ENDBRANCH   2   3
TORSDOF 4
ENDMDL
MODEL      159
REMARK 921   NORMALIZED FREE ENERGY PREDICTED BY IDOCK:   -2.93 KCAL/MOL
REMARK 922        TOTAL FREE ENERGY PREDICTED BY IDOCK:   -3.74 KCAL/MOL
REMARK 923 INTER-LIGAND FREE ENERGY PREDICTED BY IDOCK:   -3.42 KCAL/MOL
REMARK 924 INTRA-LIGAND FREE ENERGY PREDICTED BY IDOCK:   -0.32 KCAL/MOL
REMARK 927      BINDING AFFINITY PREDICTED BY RF-SCORE:    0.00 PKD
ROOT
HETATM    1  C   UNL     1      -7.831   4.606  72.697  1.00  0.00    -0.088 C  
HETATM    2  O   UNL     1      -8.799   5.308  73.470  1.00  0.00    -0.117 OA 
ENDROOT
BRANCH   2   3
HETATM    3  C   UNL     1      -9.565   6.207  72.776  1.00  0.00    -0.155 A  
HETATM    4  C   UNL     1      -9.490   6.416  71.401  1.00  0.00    -0.164 A  
HETATM    5  C   UNL     1     -10.301   7.375  70.756  1.00  0.00    -0.208 A  
HETATM    6  C   UNL     1     -11.210   8.115  71.533  1.00  0.00    -0.259 A  
HETATM    7  C   UNL     1     -11.316   7.869  72.909  1.00  0.00    -0.399 A  
HETATM    8  C   UNL     1     -10.494   6.920  73.523  1.00  0.00    -0.382 A  
BRANCH   5   9
HETATM    9  C   UNL     1     -10.190   7.592  69.254  1.00  0.00    -0.210 C  
HETATM   10  H   UNL     1      -9.107   8.709  68.026  1.00  0.00     0.000 HD 
HETATM   11  O   UNL     1      -9.177   8.573  68.964  1.00  0.00    -0.146 OA 
BRANCH   9  12
HETATM   12  C   UNL     1      -9.917   6.288  68.440  1.00  0.00    -0.140 C  
HETATM   13  C   UNL     1     -10.798   6.235  67.186  1.00  0.00    -0.460 C  
HETATM   14  N   UNL     1      -8.509   6.151  68.000  1.00  0.00    -0.116 NA 
HETATM   15  H1  UNL     1      -8.331   5.299  67.468  1.00  0.00     0.000 HD 
HETATM   16  H2  UNL     1      -7.873   6.220  68.794  1.00  0.00     0.000 HD 
ENDBRANCH   9  12
ENDBRANCH   5   9
BRANCH   6  17
HETATM   17  O   UNL     1     -11.993   9.027  70.871  1.00  0.00    -0.282 OA 
HETATM   18  C   UNL     1     -11.708  10.393  71.156  1.00  0.00    -0.296 C  
ENDBRANCH   6  17
ENDBRANCH   2   3
TORSDOF 4
ENDMDL
MODEL      160
REMARK 921   NORMALIZED FREE ENERGY PREDICTED BY IDOCK:   -2.92 KCAL/MOL
REMARK 922        TOTAL FREE ENERGY PREDICTED BY IDOCK:   -3.74 KCAL/MOL
REMARK 923 INTER-LIGAND FREE ENERGY PREDICTED BY IDOCK:   -3.34 KCAL/MOL
REMARK 924 INTRA-LIGAND FREE ENERGY PREDICTED BY IDOCK:   -0.39 KCAL/MOL
REMARK 927      BINDING AFFINITY PREDICTED BY RF-SCORE:    0.00 PKD
ROOT
HETATM    1  C   UNL     1     -10.217  13.501  67.325  1.00  0.00    -0.242 C  
HETATM    2  O   UNL     1     -11.081  13.361  68.448  1.00  0.00    -0.249 OA 
ENDROOT
BRANCH   2   3
HETATM    3  C   UNL     1     -11.053  12.137  69.061  1.00  0.00    -0.237 A  
HETATM    4  C   UNL     1     -10.220  11.084  68.691  1.00  0.00    -0.211 A  
HETATM    5  C   UNL     1     -10.260   9.841  69.360  1.00  0.00    -0.223 A  
HETATM    6  C   UNL     1     -11.156   9.687  70.432  1.00  0.00    -0.290 A  
HETATM    7  C   UNL     1     -11.961  10.763  70.833  1.00  0.00    -0.438 A  
HETATM    8  C   UNL     1     -11.907  11.979  70.146  1.00  0.00    -0.383 A  
BRANCH   5   9
HETATM    9  C   UNL     1      -9.347   8.704  68.926  1.00  0.00    -0.145 C  
HETATM   10  H   UNL     1      -8.712   7.925  67.219  1.00  0.00     0.000 HD 
HETATM   11  O   UNL     1      -9.282   8.635  67.490  1.00  0.00    -0.132 OA 
BRANCH   9  12
HETATM   12  C   UNL     1      -7.906   8.781  69.522  1.00  0.00    -0.091 C  
HETATM   13  C   UNL     1      -7.561   7.493  70.280  1.00  0.00    -0.090 C  
HETATM   14  N   UNL     1      -6.855   8.990  68.500  1.00  0.00    -0.063 NA 
HETATM   15  H1  UNL     1      -5.913   9.040  68.889  1.00  0.00     0.000 HD 
HETATM   16  H2  UNL     1      -7.057   9.816  67.936  1.00  0.00     0.000 HD 
ENDBRANCH   9  12
ENDBRANCH   5   9
BRANCH   6  17
HETATM   17  O   UNL     1     -11.158   8.472  71.069  1.00  0.00    -0.244 OA 
HETATM   18  C   UNL     1     -10.783   8.504  72.444  1.00  0.00    -0.306 C  
ENDBRANCH   6  17
ENDBRANCH   2   3
TORSDOF 4
ENDMDL
MODEL      161
REMARK 921   NORMALIZED FREE ENERGY PREDICTED BY IDOCK:   -2.92 KCAL/MOL
REMARK 922        TOTAL FREE ENERGY PREDICTED BY IDOCK:   -3.74 KCAL/MOL
REMARK 923 INTER-LIGAND FREE ENERGY PREDICTED BY IDOCK:   -4.01 KCAL/MOL
REMARK 924 INTRA-LIGAND FREE ENERGY PREDICTED BY IDOCK:    0.28 KCAL/MOL
REMARK 927      BINDING AFFINITY PREDICTED BY RF-SCORE:    0.00 PKD
ROOT
HETATM    1  C   UNL     1      -5.513  21.176  65.701  1.00  0.00    -0.219 C  
HETATM    2  O   UNL     1      -5.375  19.760  65.675  1.00  0.00    -0.159 OA 
ENDROOT
BRANCH   2   3
HETATM    3  C   UNL     1      -6.331  19.062  66.364  1.00  0.00    -0.189 A  
HETATM    4  C   UNL     1      -7.091  18.023  65.832  1.00  0.00    -0.302 A  
HETATM    5  C   UNL     1      -8.074  17.361  66.599  1.00  0.00    -0.294 A  
HETATM    6  C   UNL     1      -8.265  17.762  67.932  1.00  0.00    -0.237 A  
HETATM    7  C   UNL     1      -7.467  18.777  68.479  1.00  0.00    -0.328 A  
HETATM    8  C   UNL     1      -6.508  19.422  67.693  1.00  0.00    -0.232 A  
BRANCH   5   9
HETATM    9  C   UNL     1      -8.899  16.237  65.988  1.00  0.00    -0.273 C  
HETATM   10  H   UNL     1      -9.310  14.346  66.411  1.00  0.00     0.000 HD 
HETATM   11  O   UNL     1      -8.796  15.047  66.792  1.00  0.00    -0.239 OA 
BRANCH   9  12
HETATM   12  C   UNL     1     -10.401  16.599  65.762  1.00  0.00    -0.321 C  
HETATM   13  C   UNL     1     -10.576  18.114  65.596  1.00  0.00    -0.104 C  
HETATM   14  N   UNL     1     -10.991  15.950  64.569  1.00  0.00    -0.871 NA 
HETATM   15  H1  UNL     1     -11.972  16.186  64.421  1.00  0.00     0.000 HD 
HETATM   16  H2  UNL     1     -10.866  14.939  64.608  1.00  0.00     0.000 HD 
ENDBRANCH   9  12
ENDBRANCH   5   9
BRANCH   6  17
HETATM   17  O   UNL     1      -9.218  17.087  68.653  1.00  0.00    -0.254 OA 
HETATM   18  C   UNL     1     -10.151  17.909  69.348  1.00  0.00     0.009 C  
ENDBRANCH   6  17
ENDBRANCH   2   3
TORSDOF 4
ENDMDL
MODEL      162
REMARK 921   NORMALIZED FREE ENERGY PREDICTED BY IDOCK:   -2.89 KCAL/MOL
REMARK 922        TOTAL FREE ENERGY PREDICTED BY IDOCK:   -3.69 KCAL/MOL
REMARK 923 INTER-LIGAND FREE ENERGY PREDICTED BY IDOCK:   -3.35 KCAL/MOL
REMARK 924 INTRA-LIGAND FREE ENERGY PREDICTED BY IDOCK:   -0.34 KCAL/MOL
REMARK 927      BINDING AFFINITY PREDICTED BY RF-SCORE:    0.00 PKD
ROOT
HETATM    1  C   UNL     1     -10.218   1.649  72.042  1.00  0.00    -0.155 C  
HETATM    2  O   UNL     1     -10.461   2.567  73.103  1.00  0.00    -0.131 OA 
ENDROOT
BRANCH   2   3
HETATM    3  C   UNL     1     -10.101   3.864  72.852  1.00  0.00    -0.156 A  
HETATM    4  C   UNL     1     -10.841   4.756  72.080  1.00  0.00    -0.043 A  
HETATM    5  C   UNL     1     -10.397   6.076  71.849  1.00  0.00    -0.251 A  
HETATM    6  C   UNL     1      -9.187   6.487  72.433  1.00  0.00    -0.136 A  
HETATM    7  C   UNL     1      -8.467   5.602  73.248  1.00  0.00    -0.117 A  
HETATM    8  C   UNL     1      -8.926   4.297  73.452  1.00  0.00    -0.104 A  
BRANCH   5   9
HETATM    9  C   UNL     1     -11.220   7.026  70.990  1.00  0.00    -0.274 C  
HETATM   10  H   UNL     1     -12.286   6.919  69.323  1.00  0.00     0.000 HD 
HETATM   11  O   UNL     1     -11.772   6.327  69.859  1.00  0.00    -0.408 OA 
BRANCH   9  12
HETATM   12  C   UNL     1     -12.356   7.765  71.766  1.00  0.00    -0.317 C  
HETATM   13  C   UNL     1     -12.227   9.284  71.602  1.00  0.00    -0.445 C  
HETATM   14  N   UNL     1     -13.717   7.384  71.324  1.00  0.00    -0.585 NA 
HETATM   15  H1  UNL     1     -14.459   7.866  71.831  1.00  0.00     0.000 HD 
HETATM   16  H2  UNL     1     -13.844   6.373  71.374  1.00  0.00     0.000 HD 
ENDBRANCH   9  12
ENDBRANCH   5   9
BRANCH   6  17
HETATM   17  O   UNL     1      -8.793   7.780  72.200  1.00  0.00    -0.119 OA 
HETATM   18  C   UNL     1      -8.183   8.440  73.306  1.00  0.00    -0.109 C  
ENDBRANCH   6  17
ENDBRANCH   2   3
TORSDOF 4
ENDMDL
MODEL      163
REMARK 921   NORMALIZED FREE ENERGY PREDICTED BY IDOCK:   -2.87 KCAL/MOL
REMARK 922        TOTAL FREE ENERGY PREDICTED BY IDOCK:   -3.67 KCAL/MOL
REMARK 923 INTER-LIGAND FREE ENERGY PREDICTED BY IDOCK:   -3.31 KCAL/MOL
REMARK 924 INTRA-LIGAND FREE ENERGY PREDICTED BY IDOCK:   -0.37 KCAL/MOL
REMARK 927      BINDING AFFINITY PREDICTED BY RF-SCORE:    0.00 PKD
ROOT
HETATM    1  C   UNL     1     -12.837   6.984  71.725  1.00  0.00    -0.324 C  
HETATM    2  O   UNL     1     -12.127   6.695  70.525  1.00  0.00    -0.390 OA 
ENDROOT
BRANCH   2   3
HETATM    3  C   UNL     1     -11.051   7.502  70.270  1.00  0.00    -0.248 A  
HETATM    4  C   UNL     1     -10.275   7.446  69.114  1.00  0.00    -0.196 A  
HETATM    5  C   UNL     1      -9.166   8.300  68.928  1.00  0.00    -0.147 A  
HETATM    6  C   UNL     1      -8.863   9.233  69.935  1.00  0.00    -0.185 A  
HETATM    7  C   UNL     1      -9.673   9.318  71.077  1.00  0.00    -0.341 A  
HETATM    8  C   UNL     1     -10.759   8.454  71.239  1.00  0.00    -0.286 A  
BRANCH   5   9
HETATM    9  C   UNL     1      -8.328   8.209  67.661  1.00  0.00    -0.127 C  
HETATM   10  H   UNL     1      -6.869   7.062  66.967  1.00  0.00     0.000 HD 
HETATM   11  O   UNL     1      -7.392   7.119  67.758  1.00  0.00    -0.091 OA 
BRANCH   9  12
HETATM   12  C   UNL     1      -9.167   8.076  66.351  1.00  0.00    -0.194 C  
HETATM   13  C   UNL     1      -9.306   9.436  65.654  1.00  0.00    -0.309 C  
HETATM   14  N   UNL     1      -8.583   7.133  65.370  1.00  0.00    -0.313 NA 
HETATM   15  H1  UNL     1      -9.131   7.046  64.514  1.00  0.00     0.000 HD 
HETATM   16  H2  UNL     1      -8.430   6.218  65.794  1.00  0.00     0.000 HD 
ENDBRANCH   9  12
ENDBRANCH   5   9
BRANCH   6  17
HETATM   17  O   UNL     1      -7.788  10.057  69.716  1.00  0.00    -0.147 OA 
HETATM   18  C   UNL     1      -6.784  10.030  70.725  1.00  0.00    -0.008 C  
ENDBRANCH   6  17
ENDBRANCH   2   3
TORSDOF 4
ENDMDL
MODEL      164
REMARK 921   NORMALIZED FREE ENERGY PREDICTED BY IDOCK:   -2.87 KCAL/MOL
REMARK 922        TOTAL FREE ENERGY PREDICTED BY IDOCK:   -3.67 KCAL/MOL
REMARK 923 INTER-LIGAND FREE ENERGY PREDICTED BY IDOCK:   -3.37 KCAL/MOL
REMARK 924 INTRA-LIGAND FREE ENERGY PREDICTED BY IDOCK:   -0.30 KCAL/MOL
REMARK 927      BINDING AFFINITY PREDICTED BY RF-SCORE:    0.00 PKD
ROOT
HETATM    1  C   UNL     1      -7.477   8.639  66.556  1.00  0.00    -0.088 C  
HETATM    2  O   UNL     1      -8.600   9.045  67.331  1.00  0.00    -0.115 OA 
ENDROOT
BRANCH   2   3
HETATM    3  C   UNL     1      -8.988   8.168  68.308  1.00  0.00    -0.136 A  
HETATM    4  C   UNL     1      -9.083   8.481  69.662  1.00  0.00    -0.149 A  
HETATM    5  C   UNL     1      -9.474   7.517  70.617  1.00  0.00    -0.164 A  
HETATM    6  C   UNL     1      -9.786   6.221  70.170  1.00  0.00    -0.163 A  
HETATM    7  C   UNL     1      -9.734   5.921  68.802  1.00  0.00    -0.161 A  
HETATM    8  C   UNL     1      -9.335   6.893  67.880  1.00  0.00    -0.118 A  
BRANCH   5   9
HETATM    9  C   UNL     1      -9.556   7.884  72.091  1.00  0.00    -0.197 C  
HETATM   10  H   UNL     1      -8.658   9.148  73.324  1.00  0.00     0.000 HD 
HETATM   11  O   UNL     1      -8.606   8.920  72.404  1.00  0.00    -0.399 OA 
BRANCH   9  12
HETATM   12  C   UNL     1     -10.983   8.310  72.563  1.00  0.00    -0.354 C  
HETATM   13  C   UNL     1     -11.589   9.338  71.600  1.00  0.00    -0.463 C  
HETATM   14  N   UNL     1     -11.934   7.179  72.662  1.00  0.00    -0.517 NA 
HETATM   15  H1  UNL     1     -12.865   7.457  72.970  1.00  0.00     0.000 HD 
HETATM   16  H2  UNL     1     -11.560   6.443  73.261  1.00  0.00     0.000 HD 
ENDBRANCH   9  12
ENDBRANCH   5   9
BRANCH   6  17
HETATM   17  O   UNL     1     -10.176   5.314  71.122  1.00  0.00    -0.205 OA 
HETATM   18  C   UNL     1      -9.880   3.953  70.824  1.00  0.00    -0.141 C  
ENDBRANCH   6  17
ENDBRANCH   2   3
TORSDOF 4
ENDMDL
MODEL      165
REMARK 921   NORMALIZED FREE ENERGY PREDICTED BY IDOCK:   -2.86 KCAL/MOL
REMARK 922        TOTAL FREE ENERGY PREDICTED BY IDOCK:   -3.66 KCAL/MOL
REMARK 923 INTER-LIGAND FREE ENERGY PREDICTED BY IDOCK:   -3.56 KCAL/MOL
REMARK 924 INTRA-LIGAND FREE ENERGY PREDICTED BY IDOCK:   -0.09 KCAL/MOL
REMARK 927      BINDING AFFINITY PREDICTED BY RF-SCORE:    0.00 PKD
ROOT
HETATM    1  C   UNL     1     -10.431   4.488  65.663  1.00  0.00    -0.229 C  
HETATM    2  O   UNL     1      -9.715   4.071  66.821  1.00  0.00    -0.207 OA 
ENDROOT
BRANCH   2   3
HETATM    3  C   UNL     1     -10.030   4.734  67.977  1.00  0.00    -0.091 A  
HETATM    4  C   UNL     1      -9.685   4.304  69.256  1.00  0.00    -0.240 A  
HETATM    5  C   UNL     1     -10.061   5.031  70.406  1.00  0.00    -0.330 A  
HETATM    6  C   UNL     1     -10.787   6.222  70.236  1.00  0.00    -0.304 A  
HETATM    7  C   UNL     1     -11.095   6.677  68.946  1.00  0.00    -0.312 A  
HETATM    8  C   UNL     1     -10.717   5.931  67.826  1.00  0.00    -0.346 A  
BRANCH   5   9
HETATM    9  C   UNL     1      -9.680   4.531  71.792  1.00  0.00    -0.171 C  
HETATM   10  H   UNL     1      -8.605   5.182  73.323  1.00  0.00     0.000 HD 
HETATM   11  O   UNL     1      -8.842   5.494  72.459  1.00  0.00    -0.130 OA 
BRANCH   9  12
HETATM   12  C   UNL     1     -10.901   4.170  72.697  1.00  0.00    -0.017 C  
HETATM   13  C   UNL     1     -10.652   2.855  73.447  1.00  0.00    -0.265 C  
HETATM   14  N   UNL     1     -11.212   5.206  73.708  1.00  0.00    -0.429 NA 
HETATM   15  H1  UNL     1     -12.010   4.970  74.299  1.00  0.00     0.000 HD 
HETATM   16  H2  UNL     1     -11.348   6.115  73.265  1.00  0.00     0.000 HD 
ENDBRANCH   9  12
ENDBRANCH   5   9
BRANCH   6  17
HETATM   17  O   UNL     1     -11.124   6.911  71.374  1.00  0.00    -0.240 OA 
HETATM   18  C   UNL     1     -11.145   8.330  71.243  1.00  0.00    -0.251 C  
ENDBRANCH   6  17
ENDBRANCH   2   3
TORSDOF 4
ENDMDL
MODEL      166
REMARK 921   NORMALIZED FREE ENERGY PREDICTED BY IDOCK:   -2.86 KCAL/MOL
REMARK 922        TOTAL FREE ENERGY PREDICTED BY IDOCK:   -3.65 KCAL/MOL
REMARK 923 INTER-LIGAND FREE ENERGY PREDICTED BY IDOCK:   -3.46 KCAL/MOL
REMARK 924 INTRA-LIGAND FREE ENERGY PREDICTED BY IDOCK:   -0.20 KCAL/MOL
REMARK 927      BINDING AFFINITY PREDICTED BY RF-SCORE:    0.00 PKD
ROOT
HETATM    1  C   UNL     1      -9.182  10.607  66.061  1.00  0.00    -0.182 C  
HETATM    2  O   UNL     1      -9.919  10.801  67.264  1.00  0.00    -0.178 OA 
ENDROOT
BRANCH   2   3
HETATM    3  C   UNL     1      -9.637   9.920  68.274  1.00  0.00    -0.140 A  
HETATM    4  C   UNL     1     -10.526   9.565  69.285  1.00  0.00    -0.226 A  
HETATM    5  C   UNL     1     -10.159   8.662  70.307  1.00  0.00    -0.206 A  
HETATM    6  C   UNL     1      -8.868   8.108  70.278  1.00  0.00    -0.141 A  
HETATM    7  C   UNL     1      -7.990   8.432  69.233  1.00  0.00    -0.113 A  
HETATM    8  C   UNL     1      -8.378   9.336  68.240  1.00  0.00    -0.120 A  
BRANCH   5   9
HETATM    9  C   UNL     1     -11.147   8.300  71.407  1.00  0.00    -0.251 C  
HETATM   10  H   UNL     1     -12.615   9.197  72.389  1.00  0.00     0.000 HD 
HETATM   11  O   UNL     1     -11.999   9.423  71.703  1.00  0.00    -0.347 OA 
BRANCH   9  12
HETATM   12  C   UNL     1     -12.015   7.041  71.095  1.00  0.00    -0.356 C  
HETATM   13  C   UNL     1     -13.502   7.333  71.331  1.00  0.00    -0.400 C  
HETATM   14  N   UNL     1     -11.874   6.557  69.702  1.00  0.00    -0.610 NA 
HETATM   15  H1  UNL     1     -12.440   5.734  69.498  1.00  0.00     0.000 HD 
HETATM   16  H2  UNL     1     -10.894   6.385  69.477  1.00  0.00     0.000 HD 
ENDBRANCH   9  12
ENDBRANCH   5   9
BRANCH   6  17
HETATM   17  O   UNL     1      -8.549   7.223  71.277  1.00  0.00    -0.119 OA 
HETATM   18  C   UNL     1      -7.329   7.490  71.961  1.00  0.00    -0.069 C  
ENDBRANCH   6  17
ENDBRANCH   2   3
TORSDOF 4
ENDMDL
MODEL      167
REMARK 921   NORMALIZED FREE ENERGY PREDICTED BY IDOCK:   -2.85 KCAL/MOL
REMARK 922        TOTAL FREE ENERGY PREDICTED BY IDOCK:   -3.64 KCAL/MOL
REMARK 923 INTER-LIGAND FREE ENERGY PREDICTED BY IDOCK:   -3.28 KCAL/MOL
REMARK 924 INTRA-LIGAND FREE ENERGY PREDICTED BY IDOCK:   -0.36 KCAL/MOL
REMARK 927      BINDING AFFINITY PREDICTED BY RF-SCORE:    0.00 PKD
ROOT
HETATM    1  C   UNL     1      -6.824  10.147  67.778  1.00  0.00    -0.075 C  
HETATM    2  O   UNL     1      -8.186  10.511  67.975  1.00  0.00    -0.109 OA 
ENDROOT
BRANCH   2   3
HETATM    3  C   UNL     1      -8.961   9.573  68.602  1.00  0.00    -0.132 A  
HETATM    4  C   UNL     1      -9.413   8.395  68.012  1.00  0.00    -0.157 A  
HETATM    5  C   UNL     1     -10.226   7.481  68.717  1.00  0.00    -0.206 A  
HETATM    6  C   UNL     1     -10.563   7.775  70.050  1.00  0.00    -0.238 A  
HETATM    7  C   UNL     1     -10.068   8.938  70.657  1.00  0.00    -0.262 A  
HETATM    8  C   UNL     1      -9.273   9.830  69.931  1.00  0.00    -0.263 A  
BRANCH   5   9
HETATM    9  C   UNL     1     -10.717   6.208  68.043  1.00  0.00    -0.295 C  
HETATM   10  H   UNL     1     -11.550   5.711  66.315  1.00  0.00     0.000 HD 
HETATM   11  O   UNL     1     -11.244   6.505  66.736  1.00  0.00    -0.334 OA 
BRANCH   9  12
HETATM   12  C   UNL     1      -9.637   5.085  67.939  1.00  0.00    -0.140 C  
HETATM   13  C   UNL     1      -9.598   4.248  69.224  1.00  0.00    -0.261 C  
HETATM   14  N   UNL     1      -9.861   4.154  66.809  1.00  0.00    -0.270 NA 
HETATM   15  H1  UNL     1      -9.155   3.420  66.741  1.00  0.00     0.000 HD 
HETATM   16  H2  UNL     1      -9.936   4.664  65.929  1.00  0.00     0.000 HD 
ENDBRANCH   9  12
ENDBRANCH   5   9
BRANCH   6  17
HETATM   17  O   UNL     1     -11.341   6.858  70.710  1.00  0.00    -0.274 OA 
HETATM   18  C   UNL     1     -11.301   6.936  72.132  1.00  0.00    -0.265 C  
ENDBRANCH   6  17
ENDBRANCH   2   3
TORSDOF 4
ENDMDL
MODEL      168
REMARK 921   NORMALIZED FREE ENERGY PREDICTED BY IDOCK:   -2.85 KCAL/MOL
REMARK 922        TOTAL FREE ENERGY PREDICTED BY IDOCK:   -3.64 KCAL/MOL
REMARK 923 INTER-LIGAND FREE ENERGY PREDICTED BY IDOCK:   -3.23 KCAL/MOL
REMARK 924 INTRA-LIGAND FREE ENERGY PREDICTED BY IDOCK:   -0.41 KCAL/MOL
REMARK 927      BINDING AFFINITY PREDICTED BY RF-SCORE:    0.00 PKD
ROOT
HETATM    1  C   UNL     1     -10.478   3.339  63.384  1.00  0.00    -0.233 C  
HETATM    2  O   UNL     1     -11.140   3.807  64.555  1.00  0.00    -0.248 OA 
ENDROOT
BRANCH   2   3
HETATM    3  C   UNL     1     -10.320   4.272  65.548  1.00  0.00    -0.188 A  
HETATM    4  C   UNL     1     -10.674   5.247  66.477  1.00  0.00    -0.290 A  
HETATM    5  C   UNL     1      -9.767   5.690  67.464  1.00  0.00    -0.134 A  
HETATM    6  C   UNL     1      -8.487   5.111  67.505  1.00  0.00    -0.105 A  
HETATM    7  C   UNL     1      -8.148   4.097  66.598  1.00  0.00    -0.101 A  
HETATM    8  C   UNL     1      -9.064   3.684  65.625  1.00  0.00    -0.150 A  
BRANCH   5   9
HETATM    9  C   UNL     1     -10.177   6.767  68.458  1.00  0.00    -0.175 C  
HETATM   10  H   UNL     1     -10.900   8.610  68.384  1.00  0.00     0.000 HD 
HETATM   11  O   UNL     1     -10.644   7.938  67.763  1.00  0.00    -0.223 OA 
BRANCH   9  12
HETATM   12  C   UNL     1     -11.245   6.301  69.497  1.00  0.00    -0.430 C  
HETATM   13  C   UNL     1     -10.621   5.361  70.536  1.00  0.00    -0.312 C  
HETATM   14  N   UNL     1     -11.878   7.419  70.234  1.00  0.00    -0.517 NA 
HETATM   15  H1  UNL     1     -12.577   7.115  70.912  1.00  0.00     0.000 HD 
HETATM   16  H2  UNL     1     -12.277   8.099  69.587  1.00  0.00     0.000 HD 
ENDBRANCH   9  12
ENDBRANCH   5   9
BRANCH   6  17
HETATM   17  O   UNL     1      -7.636   5.554  68.486  1.00  0.00    -0.082 OA 
HETATM   18  C   UNL     1      -6.734   4.577  68.996  1.00  0.00    -0.046 C  
ENDBRANCH   6  17
ENDBRANCH   2   3
TORSDOF 4
ENDMDL
MODEL      169
REMARK 921   NORMALIZED FREE ENERGY PREDICTED BY IDOCK:   -2.84 KCAL/MOL
REMARK 922        TOTAL FREE ENERGY PREDICTED BY IDOCK:   -3.64 KCAL/MOL
REMARK 923 INTER-LIGAND FREE ENERGY PREDICTED BY IDOCK:   -3.50 KCAL/MOL
REMARK 924 INTRA-LIGAND FREE ENERGY PREDICTED BY IDOCK:   -0.13 KCAL/MOL
REMARK 927      BINDING AFFINITY PREDICTED BY RF-SCORE:    0.00 PKD
ROOT
HETATM    1  C   UNL     1     -12.157  14.604  69.886  1.00  0.00    -0.335 C  
HETATM    2  O   UNL     1     -12.149  15.821  69.146  1.00  0.00    -0.353 OA 
ENDROOT
BRANCH   2   3
HETATM    3  C   UNL     1     -10.911  16.283  68.789  1.00  0.00    -0.317 A  
HETATM    4  C   UNL     1      -9.734  15.544  68.876  1.00  0.00    -0.223 A  
HETATM    5  C   UNL     1      -8.487  16.095  68.506  1.00  0.00    -0.197 A  
HETATM    6  C   UNL     1      -8.456  17.416  68.025  1.00  0.00    -0.235 A  
HETATM    7  C   UNL     1      -9.648  18.142  67.895  1.00  0.00    -0.290 A  
HETATM    8  C   UNL     1     -10.866  17.574  68.278  1.00  0.00    -0.223 A  
BRANCH   5   9
HETATM    9  C   UNL     1      -7.215  15.269  68.624  1.00  0.00    -0.121 C  
HETATM   10  H   UNL     1      -5.984  14.700  70.068  1.00  0.00     0.000 HD 
HETATM   11  O   UNL     1      -6.778  15.216  69.994  1.00  0.00    -0.177 OA 
BRANCH   9  12
HETATM   12  C   UNL     1      -7.339  13.823  68.048  1.00  0.00    -0.134 C  
HETATM   13  C   UNL     1      -5.966  13.288  67.621  1.00  0.00    -0.124 C  
HETATM   14  N   UNL     1      -7.914  12.852  69.008  1.00  0.00    -0.319 NA 
HETATM   15  H1  UNL     1      -7.995  11.908  68.632  1.00  0.00     0.000 HD 
HETATM   16  H2  UNL     1      -8.815  13.180  69.357  1.00  0.00     0.000 HD 
ENDBRANCH   9  12
ENDBRANCH   5   9
BRANCH   6  17
HETATM   17  O   UNL     1      -7.231  17.914  67.661  1.00  0.00    -0.195 OA 
HETATM   18  C   UNL     1      -6.795  19.056  68.392  1.00  0.00    -0.256 C  
ENDBRANCH   6  17
ENDBRANCH   2   3
TORSDOF 4
ENDMDL
MODEL      170
REMARK 921   NORMALIZED FREE ENERGY PREDICTED BY IDOCK:   -2.77 KCAL/MOL
REMARK 922        TOTAL FREE ENERGY PREDICTED BY IDOCK:   -3.55 KCAL/MOL
REMARK 923 INTER-LIGAND FREE ENERGY PREDICTED BY IDOCK:   -3.70 KCAL/MOL
REMARK 924 INTRA-LIGAND FREE ENERGY PREDICTED BY IDOCK:    0.15 KCAL/MOL
REMARK 927      BINDING AFFINITY PREDICTED BY RF-SCORE:    0.00 PKD
ROOT
HETATM    1  C   UNL     1     -12.295  12.500  63.436  1.00  0.00    -0.477 C  
HETATM    2  O   UNL     1     -12.183  12.398  64.851  1.00  0.00    -0.436 OA 
ENDROOT
BRANCH   2   3
HETATM    3  C   UNL     1     -11.132  11.649  65.306  1.00  0.00    -0.236 A  
HETATM    4  C   UNL     1     -10.790  11.496  66.648  1.00  0.00    -0.335 A  
HETATM    5  C   UNL     1      -9.678  10.720  67.042  1.00  0.00    -0.205 A  
HETATM    6  C   UNL     1      -8.920  10.082  66.045  1.00  0.00    -0.148 A  
HETATM    7  C   UNL     1      -9.294  10.199  64.699  1.00  0.00    -0.334 A  
HETATM    8  C   UNL     1     -10.394  10.982  64.337  1.00  0.00    -0.424 A  
BRANCH   5   9
HETATM    9  C   UNL     1      -9.319  10.580  68.514  1.00  0.00    -0.168 C  
HETATM   10  H   UNL     1      -9.398   9.165  69.898  1.00  0.00     0.000 HD 
HETATM   11  O   UNL     1      -9.621   9.251  68.979  1.00  0.00    -0.155 OA 
BRANCH   9  12
HETATM   12  C   UNL     1      -7.836  10.937  68.846  1.00  0.00    -0.142 C  
HETATM   13  C   UNL     1      -7.490  12.345  68.345  1.00  0.00    -0.123 C  
HETATM   14  N   UNL     1      -7.527  10.891  70.293  1.00  0.00    -0.347 NA 
HETATM   15  H1  UNL     1      -6.558  11.124  70.510  1.00  0.00     0.000 HD 
HETATM   16  H2  UNL     1      -7.777   9.985  70.688  1.00  0.00     0.000 HD 
ENDBRANCH   9  12
ENDBRANCH   5   9
BRANCH   6  17
HETATM   17  O   UNL     1      -7.856   9.324  66.464  1.00  0.00    -0.099 OA 
HETATM   18  C   UNL     1      -6.865   9.065  65.474  1.00  0.00    -0.073 C  
ENDBRANCH   6  17
ENDBRANCH   2   3
TORSDOF 4
ENDMDL
MODEL      171
REMARK 921   NORMALIZED FREE ENERGY PREDICTED BY IDOCK:   -2.77 KCAL/MOL
REMARK 922        TOTAL FREE ENERGY PREDICTED BY IDOCK:   -3.54 KCAL/MOL
REMARK 923 INTER-LIGAND FREE ENERGY PREDICTED BY IDOCK:   -3.53 KCAL/MOL
REMARK 924 INTRA-LIGAND FREE ENERGY PREDICTED BY IDOCK:   -0.02 KCAL/MOL
REMARK 927      BINDING AFFINITY PREDICTED BY RF-SCORE:    0.00 PKD
ROOT
HETATM    1  C   UNL     1     -10.697   9.557  67.542  1.00  0.00    -0.245 C  
HETATM    2  O   UNL     1     -11.132  10.582  68.429  1.00  0.00    -0.247 OA 
ENDROOT
BRANCH   2   3
HETATM    3  C   UNL     1     -10.973  11.863  67.971  1.00  0.00    -0.224 A  
HETATM    4  C   UNL     1     -10.050  12.776  68.477  1.00  0.00    -0.189 A  
HETATM    5  C   UNL     1      -9.955  14.088  67.966  1.00  0.00    -0.235 A  
HETATM    6  C   UNL     1     -10.809  14.460  66.912  1.00  0.00    -0.301 A  
HETATM    7  C   UNL     1     -11.705  13.525  66.375  1.00  0.00    -0.405 A  
HETATM    8  C   UNL     1     -11.783  12.235  66.907  1.00  0.00    -0.404 A  
BRANCH   5   9
HETATM    9  C   UNL     1      -8.946  15.069  68.546  1.00  0.00    -0.186 C  
HETATM   10  H   UNL     1      -8.323  15.614  70.346  1.00  0.00     0.000 HD 
HETATM   11  O   UNL     1      -8.953  15.002  69.984  1.00  0.00     0.093 OA 
BRANCH   9  12
HETATM   12  C   UNL     1      -7.492  14.879  68.010  1.00  0.00    -0.126 C  
HETATM   13  C   UNL     1      -6.464  15.195  69.103  1.00  0.00    -0.116 C  
HETATM   14  N   UNL     1      -7.217  13.507  67.524  1.00  0.00    -0.223 NA 
HETATM   15  H1  UNL     1      -6.267  13.383  67.174  1.00  0.00     0.000 HD 
HETATM   16  H2  UNL     1      -7.901  13.229  66.820  1.00  0.00     0.000 HD 
ENDBRANCH   9  12
ENDBRANCH   5   9
BRANCH   6  17
HETATM   17  O   UNL     1     -10.680  15.738  66.430  1.00  0.00    -0.309 OA 
HETATM   18  C   UNL     1     -10.914  15.888  65.033  1.00  0.00    -0.412 C  
ENDBRANCH   6  17
ENDBRANCH   2   3
TORSDOF 4
ENDMDL
MODEL      172
REMARK 921   NORMALIZED FREE ENERGY PREDICTED BY IDOCK:   -2.77 KCAL/MOL
REMARK 922        TOTAL FREE ENERGY PREDICTED BY IDOCK:   -3.54 KCAL/MOL
REMARK 923 INTER-LIGAND FREE ENERGY PREDICTED BY IDOCK:   -3.57 KCAL/MOL
REMARK 924 INTRA-LIGAND FREE ENERGY PREDICTED BY IDOCK:    0.02 KCAL/MOL
REMARK 927      BINDING AFFINITY PREDICTED BY RF-SCORE:    0.00 PKD
ROOT
HETATM    1  C   UNL     1      -6.184  10.347  67.324  1.00  0.00    -0.058 C  
HETATM    2  O   UNL     1      -6.963  10.775  66.212  1.00  0.00    -0.125 OA 
ENDROOT
BRANCH   2   3
HETATM    3  C   UNL     1      -8.179  11.323  66.522  1.00  0.00    -0.165 A  
HETATM    4  C   UNL     1      -9.049  11.896  65.598  1.00  0.00     0.017 A  
HETATM    5  C   UNL     1     -10.281  12.459  65.994  1.00  0.00    -0.267 A  
HETATM    6  C   UNL     1     -10.628  12.418  67.356  1.00  0.00    -0.216 A  
HETATM    7  C   UNL     1      -9.772  11.800  68.278  1.00  0.00    -0.199 A  
HETATM    8  C   UNL     1      -8.553  11.258  67.858  1.00  0.00    -0.134 A  
BRANCH   5   9
HETATM    9  C   UNL     1     -11.206  13.090  64.964  1.00  0.00    -0.297 C  
HETATM   10  H   UNL     1     -12.861  12.584  63.999  1.00  0.00     0.000 HD 
HETATM   11  O   UNL     1     -12.284  12.190  64.642  1.00  0.00    -0.369 OA 
BRANCH   9  12
HETATM   12  C   UNL     1     -11.781  14.478  65.388  1.00  0.00    -0.354 C  
HETATM   13  C   UNL     1     -11.349  15.570  64.401  1.00  0.00    -0.260 C  
HETATM   14  N   UNL     1     -13.260  14.507  65.464  1.00  0.00    -0.440 NA 
HETATM   15  H1  UNL     1     -13.635  15.414  65.741  1.00  0.00     0.000 HD 
HETATM   16  H2  UNL     1     -13.605  13.770  66.079  1.00  0.00     0.000 HD 
ENDBRANCH   9  12
ENDBRANCH   5   9
BRANCH   6  17
HETATM   17  O   UNL     1     -11.839  12.961  67.704  1.00  0.00    -0.356 OA 
HETATM   18  C   UNL     1     -11.880  13.587  68.983  1.00  0.00    -0.343 C  
ENDBRANCH   6  17
ENDBRANCH   2   3
TORSDOF 4
ENDMDL
MODEL      173
REMARK 921   NORMALIZED FREE ENERGY PREDICTED BY IDOCK:   -2.76 KCAL/MOL
REMARK 922        TOTAL FREE ENERGY PREDICTED BY IDOCK:   -3.54 KCAL/MOL
REMARK 923 INTER-LIGAND FREE ENERGY PREDICTED BY IDOCK:   -3.89 KCAL/MOL
REMARK 924 INTRA-LIGAND FREE ENERGY PREDICTED BY IDOCK:    0.35 KCAL/MOL
REMARK 927      BINDING AFFINITY PREDICTED BY RF-SCORE:    0.00 PKD
ROOT
HETATM    1  C   UNL     1     -10.749  13.721  64.615  1.00  0.00    -0.414 C  
HETATM    2  O   UNL     1     -11.464  13.807  65.843  1.00  0.00    -0.311 OA 
ENDROOT
BRANCH   2   3
HETATM    3  C   UNL     1     -11.015  12.988  66.844  1.00  0.00    -0.265 A  
HETATM    4  C   UNL     1     -11.832  12.353  67.775  1.00  0.00    -0.362 A  
HETATM    5  C   UNL     1     -11.295  11.536  68.793  1.00  0.00    -0.327 A  
HETATM    6  C   UNL     1      -9.902  11.358  68.843  1.00  0.00    -0.112 A  
HETATM    7  C   UNL     1      -9.084  11.961  67.877  1.00  0.00    -0.183 A  
HETATM    8  C   UNL     1      -9.643  12.772  66.885  1.00  0.00    -0.235 A  
BRANCH   5   9
HETATM    9  C   UNL     1     -12.212  10.864  69.806  1.00  0.00    -0.311 C  
HETATM   10  H   UNL     1     -12.400   9.070  70.625  1.00  0.00     0.000 HD 
HETATM   11  O   UNL     1     -11.827   9.489  69.994  1.00  0.00    -0.079 OA 
BRANCH   9  12
HETATM   12  C   UNL     1     -12.279  11.592  71.186  1.00  0.00    -0.144 C  
HETATM   13  C   UNL     1     -12.576  13.085  70.999  1.00  0.00    -0.386 C  
HETATM   14  N   UNL     1     -13.314  11.044  72.092  1.00  0.00    -0.585 NA 
HETATM   15  H1  UNL     1     -13.358  11.519  72.994  1.00  0.00     0.000 HD 
HETATM   16  H2  UNL     1     -13.188  10.040  72.220  1.00  0.00     0.000 HD 
ENDBRANCH   9  12
ENDBRANCH   5   9
BRANCH   6  17
HETATM   17  O   UNL     1      -9.415  10.546  69.836  1.00  0.00    -0.028 OA 
HETATM   18  C   UNL     1      -8.532   9.516  69.402  1.00  0.00    -0.146 C  
ENDBRANCH   6  17
ENDBRANCH   2   3
TORSDOF 4
ENDMDL
MODEL      174
REMARK 921   NORMALIZED FREE ENERGY PREDICTED BY IDOCK:   -2.75 KCAL/MOL
REMARK 922        TOTAL FREE ENERGY PREDICTED BY IDOCK:   -3.53 KCAL/MOL
REMARK 923 INTER-LIGAND FREE ENERGY PREDICTED BY IDOCK:   -3.82 KCAL/MOL
REMARK 924 INTRA-LIGAND FREE ENERGY PREDICTED BY IDOCK:    0.29 KCAL/MOL
REMARK 927      BINDING AFFINITY PREDICTED BY RF-SCORE:    0.00 PKD
ROOT
HETATM    1  C   UNL     1      -8.648  19.368  66.201  1.00  0.00    -0.284 C  
HETATM    2  O   UNL     1      -7.906  18.307  65.609  1.00  0.00    -0.515 OA 
ENDROOT
BRANCH   2   3
HETATM    3  C   UNL     1      -7.790  17.174  66.370  1.00  0.00    -0.317 A  
HETATM    4  C   UNL     1      -8.650  16.081  66.300  1.00  0.00    -0.363 A  
HETATM    5  C   UNL     1      -8.479  14.953  67.131  1.00  0.00    -0.244 A  
HETATM    6  C   UNL     1      -7.401  14.943  68.033  1.00  0.00    -0.130 A  
HETATM    7  C   UNL     1      -6.510  16.025  68.069  1.00  0.00    -0.148 A  
HETATM    8  C   UNL     1      -6.709  17.133  67.241  1.00  0.00    -0.190 A  
BRANCH   5   9
HETATM    9  C   UNL     1      -9.442  13.777  67.041  1.00  0.00    -0.255 C  
HETATM   10  H   UNL     1      -9.315  11.802  66.961  1.00  0.00     0.000 HD 
HETATM   11  O   UNL     1      -8.714  12.535  67.017  1.00  0.00    -0.199 OA 
BRANCH   9  12
HETATM   12  C   UNL     1     -10.514  13.744  68.175  1.00  0.00    -0.249 C  
HETATM   13  C   UNL     1     -10.823  12.300  68.591  1.00  0.00    -0.268 C  
HETATM   14  N   UNL     1     -10.107  14.480  69.395  1.00  0.00    -0.419 NA 
HETATM   15  H1  UNL     1     -10.808  14.458  70.136  1.00  0.00     0.000 HD 
HETATM   16  H2  UNL     1      -9.850  15.441  69.169  1.00  0.00     0.000 HD 
ENDBRANCH   9  12
ENDBRANCH   5   9
BRANCH   6  17
HETATM   17  O   UNL     1      -7.256  13.826  68.814  1.00  0.00    -0.102 OA 
HETATM   18  C   UNL     1      -6.258  13.916  69.827  1.00  0.00    -0.136 C  
ENDBRANCH   6  17
ENDBRANCH   2   3
TORSDOF 4
ENDMDL
MODEL      175
REMARK 921   NORMALIZED FREE ENERGY PREDICTED BY IDOCK:   -2.75 KCAL/MOL
REMARK 922        TOTAL FREE ENERGY PREDICTED BY IDOCK:   -3.52 KCAL/MOL
REMARK 923 INTER-LIGAND FREE ENERGY PREDICTED BY IDOCK:   -3.36 KCAL/MOL
REMARK 924 INTRA-LIGAND FREE ENERGY PREDICTED BY IDOCK:   -0.17 KCAL/MOL
REMARK 927      BINDING AFFINITY PREDICTED BY RF-SCORE:    0.00 PKD
ROOT
HETATM    1  C   UNL     1      -6.527  15.519  67.335  1.00  0.00    -0.109 C  
HETATM    2  O   UNL     1      -7.807  15.697  66.738  1.00  0.00    -0.228 OA 
ENDROOT
BRANCH   2   3
HETATM    3  C   UNL     1      -8.804  14.903  67.237  1.00  0.00    -0.201 A  
HETATM    4  C   UNL     1      -9.252  13.726  66.642  1.00  0.00    -0.238 A  
HETATM    5  C   UNL     1     -10.299  12.966  67.205  1.00  0.00    -0.234 A  
HETATM    6  C   UNL     1     -10.882  13.415  68.404  1.00  0.00    -0.264 A  
HETATM    7  C   UNL     1     -10.398  14.575  69.025  1.00  0.00    -0.227 A  
HETATM    8  C   UNL     1      -9.365  15.312  68.439  1.00  0.00    -0.194 A  
BRANCH   5   9
HETATM    9  C   UNL     1     -10.777  11.690  66.527  1.00  0.00    -0.272 C  
HETATM   10  H   UNL     1     -10.931  11.003  64.675  1.00  0.00     0.000 HD 
HETATM   11  O   UNL     1     -10.632  11.799  65.098  1.00  0.00    -0.264 OA 
BRANCH   9  12
HETATM   12  C   UNL     1     -10.071  10.394  67.036  1.00  0.00    -0.215 C  
HETATM   13  C   UNL     1      -9.750   9.454  65.868  1.00  0.00    -0.355 C  
HETATM   14  N   UNL     1      -8.803  10.657  67.755  1.00  0.00    -0.132 NA 
HETATM   15  H1  UNL     1      -8.341   9.811  68.088  1.00  0.00     0.000 HD 
HETATM   16  H2  UNL     1      -8.951  11.313  68.522  1.00  0.00     0.000 HD 
ENDBRANCH   9  12
ENDBRANCH   5   9
BRANCH   6  17
HETATM   17  O   UNL     1     -11.887  12.645  68.932  1.00  0.00    -0.302 OA 
HETATM   18  C   UNL     1     -12.499  13.165  70.107  1.00  0.00    -0.122 C  
ENDBRANCH   6  17
ENDBRANCH   2   3
TORSDOF 4
ENDMDL
MODEL      176
REMARK 921   NORMALIZED FREE ENERGY PREDICTED BY IDOCK:   -2.74 KCAL/MOL
REMARK 922        TOTAL FREE ENERGY PREDICTED BY IDOCK:   -3.51 KCAL/MOL
REMARK 923 INTER-LIGAND FREE ENERGY PREDICTED BY IDOCK:   -3.38 KCAL/MOL
REMARK 924 INTRA-LIGAND FREE ENERGY PREDICTED BY IDOCK:   -0.13 KCAL/MOL
REMARK 927      BINDING AFFINITY PREDICTED BY RF-SCORE:    0.00 PKD
ROOT
HETATM    1  C   UNL     1      -5.893  13.887  70.670  1.00  0.00    -0.193 C  
HETATM    2  O   UNL     1      -6.321  14.738  69.612  1.00  0.00    -0.119 OA 
ENDROOT
BRANCH   2   3
HETATM    3  C   UNL     1      -7.382  14.276  68.880  1.00  0.00    -0.126 A  
HETATM    4  C   UNL     1      -8.711  14.629  69.101  1.00  0.00    -0.029 A  
HETATM    5  C   UNL     1      -9.757  14.097  68.315  1.00  0.00    -0.227 A  
HETATM    6  C   UNL     1      -9.428  13.204  67.280  1.00  0.00    -0.225 A  
HETATM    7  C   UNL     1      -8.086  12.886  67.030  1.00  0.00    -0.057 A  
HETATM    8  C   UNL     1      -7.072  13.421  67.830  1.00  0.00    -0.158 A  
BRANCH   5   9
HETATM    9  C   UNL     1     -11.201  14.490  68.588  1.00  0.00    -0.261 C  
HETATM   10  H   UNL     1     -12.779  13.689  69.479  1.00  0.00     0.000 HD 
HETATM   11  O   UNL     1     -11.878  13.443  69.309  1.00  0.00    -0.299 OA 
BRANCH   9  12
HETATM   12  C   UNL     1     -11.360  15.847  69.344  1.00  0.00    -0.349 C  
HETATM   13  C   UNL     1     -10.991  17.024  68.432  1.00  0.00    -0.263 C  
HETATM   14  N   UNL     1     -12.734  16.086  69.844  1.00  0.00    -0.573 NA 
HETATM   15  H1  UNL     1     -12.838  16.973  70.338  1.00  0.00     0.000 HD 
HETATM   16  H2  UNL     1     -13.048  15.310  70.426  1.00  0.00     0.000 HD 
ENDBRANCH   9  12
ENDBRANCH   5   9
BRANCH   6  17
HETATM   17  O   UNL     1     -10.467  12.718  66.527  1.00  0.00    -0.257 OA 
HETATM   18  C   UNL     1     -10.094  11.832  65.475  1.00  0.00    -0.249 C  
ENDBRANCH   6  17
ENDBRANCH   2   3
TORSDOF 4
ENDMDL
MODEL      177
REMARK 921   NORMALIZED FREE ENERGY PREDICTED BY IDOCK:   -2.71 KCAL/MOL
REMARK 922        TOTAL FREE ENERGY PREDICTED BY IDOCK:   -3.48 KCAL/MOL
REMARK 923 INTER-LIGAND FREE ENERGY PREDICTED BY IDOCK:   -3.25 KCAL/MOL
REMARK 924 INTRA-LIGAND FREE ENERGY PREDICTED BY IDOCK:   -0.22 KCAL/MOL
REMARK 927      BINDING AFFINITY PREDICTED BY RF-SCORE:    0.00 PKD
ROOT
HETATM    1  C   UNL     1     -10.401   2.578  73.924  1.00  0.00    -0.132 C  
HETATM    2  O   UNL     1     -11.048   3.832  73.735  1.00  0.00    -0.231 OA 
ENDROOT
BRANCH   2   3
HETATM    3  C   UNL     1     -10.348   4.751  73.000  1.00  0.00    -0.184 A  
HETATM    4  C   UNL     1     -10.256   4.750  71.610  1.00  0.00    -0.249 A  
HETATM    5  C   UNL     1      -9.498   5.720  70.920  1.00  0.00    -0.196 A  
HETATM    6  C   UNL     1      -8.841   6.713  71.668  1.00  0.00    -0.134 A  
HETATM    7  C   UNL     1      -8.972   6.739  73.064  1.00  0.00    -0.142 A  
HETATM    8  C   UNL     1      -9.722   5.759  73.721  1.00  0.00    -0.163 A  
BRANCH   5   9
HETATM    9  C   UNL     1      -9.405   5.688  69.401  1.00  0.00    -0.125 C  
HETATM   10  H   UNL     1      -9.504   4.320  67.971  1.00  0.00     0.000 HD 
HETATM   11  O   UNL     1      -9.562   4.340  68.919  1.00  0.00    -0.160 OA 
BRANCH   9  12
HETATM   12  C   UNL     1     -10.418   6.633  68.680  1.00  0.00    -0.211 C  
HETATM   13  C   UNL     1     -10.713   6.132  67.261  1.00  0.00    -0.414 C  
HETATM   14  N   UNL     1     -11.713   6.758  69.386  1.00  0.00    -0.631 NA 
HETATM   15  H1  UNL     1     -12.375   7.375  68.916  1.00  0.00     0.000 HD 
HETATM   16  H2  UNL     1     -11.572   7.051  70.353  1.00  0.00     0.000 HD 
ENDBRANCH   9  12
ENDBRANCH   5   9
BRANCH   6  17
HETATM   17  O   UNL     1      -8.126   7.649  70.965  1.00  0.00    -0.093 OA 
HETATM   18  C   UNL     1      -8.583   8.991  71.099  1.00  0.00    -0.190 C  
ENDBRANCH   6  17
ENDBRANCH   2   3
TORSDOF 4
ENDMDL
MODEL      178
REMARK 921   NORMALIZED FREE ENERGY PREDICTED BY IDOCK:   -2.71 KCAL/MOL
REMARK 922        TOTAL FREE ENERGY PREDICTED BY IDOCK:   -3.48 KCAL/MOL
REMARK 923 INTER-LIGAND FREE ENERGY PREDICTED BY IDOCK:   -3.08 KCAL/MOL
REMARK 924 INTRA-LIGAND FREE ENERGY PREDICTED BY IDOCK:   -0.40 KCAL/MOL
REMARK 927      BINDING AFFINITY PREDICTED BY RF-SCORE:    0.00 PKD
ROOT
HETATM    1  C   UNL     1      -9.971  10.364  67.112  1.00  0.00    -0.195 C  
HETATM    2  O   UNL     1     -11.114   9.876  67.807  1.00  0.00    -0.269 OA 
ENDROOT
BRANCH   2   3
HETATM    3  C   UNL     1     -10.858   9.270  69.007  1.00  0.00    -0.111 A  
HETATM    4  C   UNL     1     -10.381   7.970  69.153  1.00  0.00    -0.226 A  
HETATM    5  C   UNL     1     -10.157   7.404  70.426  1.00  0.00    -0.193 A  
HETATM    6  C   UNL     1     -10.412   8.191  71.563  1.00  0.00    -0.221 A  
HETATM    7  C   UNL     1     -10.848   9.515  71.413  1.00  0.00    -0.382 A  
HETATM    8  C   UNL     1     -11.070  10.046  70.139  1.00  0.00    -0.371 A  
BRANCH   5   9
HETATM    9  C   UNL     1      -9.648   5.975  70.556  1.00  0.00    -0.169 C  
HETATM   10  H   UNL     1     -10.151   4.188  69.864  1.00  0.00     0.000 HD 
HETATM   11  O   UNL     1     -10.469   5.080  69.783  1.00  0.00    -0.263 OA 
BRANCH   9  12
HETATM   12  C   UNL     1      -8.147   5.796  70.163  1.00  0.00    -0.108 C  
HETATM   13  C   UNL     1      -7.270   5.662  71.414  1.00  0.00    -0.077 C  
HETATM   14  N   UNL     1      -7.897   4.608  69.315  1.00  0.00    -0.063 NA 
HETATM   15  H1  UNL     1      -6.917   4.490  69.058  1.00  0.00     0.000 HD 
HETATM   16  H2  UNL     1      -8.488   4.625  68.484  1.00  0.00     0.000 HD 
ENDBRANCH   9  12
ENDBRANCH   5   9
BRANCH   6  17
HETATM   17  O   UNL     1     -10.170   7.615  72.784  1.00  0.00    -0.227 OA 
HETATM   18  C   UNL     1      -9.094   8.185  73.524  1.00  0.00    -0.207 C  
ENDBRANCH   6  17
ENDBRANCH   2   3
TORSDOF 4
ENDMDL
MODEL      179
REMARK 921   NORMALIZED FREE ENERGY PREDICTED BY IDOCK:   -2.71 KCAL/MOL
REMARK 922        TOTAL FREE ENERGY PREDICTED BY IDOCK:   -3.47 KCAL/MOL
REMARK 923 INTER-LIGAND FREE ENERGY PREDICTED BY IDOCK:   -3.65 KCAL/MOL
REMARK 924 INTRA-LIGAND FREE ENERGY PREDICTED BY IDOCK:    0.18 KCAL/MOL
REMARK 927      BINDING AFFINITY PREDICTED BY RF-SCORE:    0.00 PKD
ROOT
HETATM    1  C   UNL     1      -8.925   9.675  68.296  1.00  0.00    -0.123 C  
HETATM    2  O   UNL     1     -10.243  10.129  68.587  1.00  0.00    -0.162 OA 
ENDROOT
BRANCH   2   3
HETATM    3  C   UNL     1     -10.452  11.472  68.425  1.00  0.00    -0.207 A  
HETATM    4  C   UNL     1      -9.649  12.312  67.657  1.00  0.00    -0.191 A  
HETATM    5  C   UNL     1      -9.915  13.694  67.551  1.00  0.00    -0.230 A  
HETATM    6  C   UNL     1     -11.030  14.215  68.231  1.00  0.00    -0.251 A  
HETATM    7  C   UNL     1     -11.863  13.360  68.967  1.00  0.00    -0.378 A  
HETATM    8  C   UNL     1     -11.570  11.997  69.061  1.00  0.00    -0.370 A  
BRANCH   5   9
HETATM    9  C   UNL     1      -9.013  14.590  66.715  1.00  0.00    -0.246 C  
HETATM   10  H   UNL     1      -9.225  15.857  65.206  1.00  0.00     0.000 HD 
HETATM   11  O   UNL     1      -9.788  15.298  65.728  1.00  0.00    -0.319 OA 
BRANCH   9  12
HETATM   12  C   UNL     1      -8.166  15.600  67.551  1.00  0.00    -0.166 C  
HETATM   13  C   UNL     1      -7.649  14.943  68.837  1.00  0.00    -0.144 C  
HETATM   14  N   UNL     1      -6.992  16.132  66.821  1.00  0.00    -0.233 NA 
HETATM   15  H1  UNL     1      -6.438  16.792  67.367  1.00  0.00     0.000 HD 
HETATM   16  H2  UNL     1      -7.275  16.547  65.933  1.00  0.00     0.000 HD 
ENDBRANCH   9  12
ENDBRANCH   5   9
BRANCH   6  17
HETATM   17  O   UNL     1     -11.268  15.559  68.095  1.00  0.00    -0.316 OA 
HETATM   18  C   UNL     1     -11.217  16.312  69.302  1.00  0.00    -0.312 C  
ENDBRANCH   6  17
ENDBRANCH   2   3
TORSDOF 4
ENDMDL
MODEL      180
REMARK 921   NORMALIZED FREE ENERGY PREDICTED BY IDOCK:   -2.69 KCAL/MOL
REMARK 922        TOTAL FREE ENERGY PREDICTED BY IDOCK:   -3.45 KCAL/MOL
REMARK 923 INTER-LIGAND FREE ENERGY PREDICTED BY IDOCK:   -3.22 KCAL/MOL
REMARK 924 INTRA-LIGAND FREE ENERGY PREDICTED BY IDOCK:   -0.23 KCAL/MOL
REMARK 927      BINDING AFFINITY PREDICTED BY RF-SCORE:    0.00 PKD
ROOT
HETATM    1  C   UNL     1     -11.357  12.435  63.667  1.00  0.00    -0.482 C  
HETATM    2  O   UNL     1     -10.360  11.428  63.533  1.00  0.00    -0.350 OA 
ENDROOT
BRANCH   2   3
HETATM    3  C   UNL     1     -10.073  10.728  64.675  1.00  0.00    -0.344 A  
HETATM    4  C   UNL     1      -9.236   9.617  64.734  1.00  0.00    -0.298 A  
HETATM    5  C   UNL     1      -9.001   8.934  65.947  1.00  0.00    -0.244 A  
HETATM    6  C   UNL     1      -9.622   9.411  67.115  1.00  0.00    -0.154 A  
HETATM    7  C   UNL     1     -10.427  10.557  67.061  1.00  0.00    -0.304 A  
HETATM    8  C   UNL     1     -10.649  11.208  65.844  1.00  0.00    -0.294 A  
BRANCH   5   9
HETATM    9  C   UNL     1      -8.092   7.714  65.980  1.00  0.00    -0.118 C  
HETATM   10  H   UNL     1      -7.495   6.315  64.711  1.00  0.00     0.000 HD 
HETATM   11  O   UNL     1      -8.063   7.076  64.690  1.00  0.00    -0.130 OA 
BRANCH   9  12
HETATM   12  C   UNL     1      -6.636   8.017  66.458  1.00  0.00    -0.055 C  
HETATM   13  C   UNL     1      -5.784   8.550  65.299  1.00  0.00    -0.044 C  
HETATM   14  N   UNL     1      -6.569   9.013  67.552  1.00  0.00    -0.064 NA 
HETATM   15  H1  UNL     1      -5.619   9.211  67.864  1.00  0.00     0.000 HD 
HETATM   16  H2  UNL     1      -7.154   8.727  68.337  1.00  0.00     0.000 HD 
ENDBRANCH   9  12
ENDBRANCH   5   9
BRANCH   6  17
HETATM   17  O   UNL     1      -9.360   8.733  68.278  1.00  0.00    -0.137 OA 
HETATM   18  C   UNL     1     -10.478   8.548  69.141  1.00  0.00    -0.205 C  
ENDBRANCH   6  17
ENDBRANCH   2   3
TORSDOF 4
ENDMDL
MODEL      181
REMARK 921   NORMALIZED FREE ENERGY PREDICTED BY IDOCK:   -2.69 KCAL/MOL
REMARK 922        TOTAL FREE ENERGY PREDICTED BY IDOCK:   -3.45 KCAL/MOL
REMARK 923 INTER-LIGAND FREE ENERGY PREDICTED BY IDOCK:   -3.08 KCAL/MOL
REMARK 924 INTRA-LIGAND FREE ENERGY PREDICTED BY IDOCK:   -0.37 KCAL/MOL
REMARK 927      BINDING AFFINITY PREDICTED BY RF-SCORE:    0.00 PKD
ROOT
HETATM    1  C   UNL     1      -6.647  10.322  68.296  1.00  0.00    -0.057 C  
HETATM    2  O   UNL     1      -6.225  11.574  68.824  1.00  0.00    -0.048 OA 
ENDROOT
BRANCH   2   3
HETATM    3  C   UNL     1      -6.810  12.677  68.262  1.00  0.00    -0.084 A  
HETATM    4  C   UNL     1      -8.096  12.706  67.728  1.00  0.00    -0.166 A  
HETATM    5  C   UNL     1      -8.627  13.878  67.146  1.00  0.00    -0.217 A  
HETATM    6  C   UNL     1      -7.831  15.037  67.129  1.00  0.00    -0.190 A  
HETATM    7  C   UNL     1      -6.554  15.017  67.708  1.00  0.00    -0.189 A  
HETATM    8  C   UNL     1      -6.051  13.840  68.269  1.00  0.00    -0.111 A  
BRANCH   5   9
HETATM    9  C   UNL     1     -10.031  13.878  66.559  1.00  0.00    -0.285 C  
HETATM   10  H   UNL     1     -11.075  12.763  65.297  1.00  0.00     0.000 HD 
HETATM   11  O   UNL     1     -10.199  12.763  65.663  1.00  0.00    -0.273 OA 
BRANCH   9  12
HETATM   12  C   UNL     1     -11.169  13.877  67.628  1.00  0.00    -0.295 C  
HETATM   13  C   UNL     1     -11.111  15.149  68.484  1.00  0.00    -0.281 C  
HETATM   14  N   UNL     1     -12.528  13.796  67.044  1.00  0.00    -0.424 NA 
HETATM   15  H1  UNL     1     -13.271  13.796  67.743  1.00  0.00     0.000 HD 
HETATM   16  H2  UNL     1     -12.610  12.986  66.430  1.00  0.00     0.000 HD 
ENDBRANCH   9  12
ENDBRANCH   5   9
BRANCH   6  17
HETATM   17  O   UNL     1      -8.384  16.161  66.570  1.00  0.00    -0.261 OA 
HETATM   18  C   UNL     1      -8.147  17.373  67.278  1.00  0.00    -0.201 C  
ENDBRANCH   6  17
ENDBRANCH   2   3
TORSDOF 4
ENDMDL
MODEL      182
REMARK 921   NORMALIZED FREE ENERGY PREDICTED BY IDOCK:   -2.69 KCAL/MOL
REMARK 922        TOTAL FREE ENERGY PREDICTED BY IDOCK:   -3.45 KCAL/MOL
REMARK 923 INTER-LIGAND FREE ENERGY PREDICTED BY IDOCK:   -3.21 KCAL/MOL
REMARK 924 INTRA-LIGAND FREE ENERGY PREDICTED BY IDOCK:   -0.24 KCAL/MOL
REMARK 927      BINDING AFFINITY PREDICTED BY RF-SCORE:    0.00 PKD
ROOT
HETATM    1  C   UNL     1      -7.049   2.676  70.901  1.00  0.00    -0.033 C  
HETATM    2  O   UNL     1      -7.684   3.833  71.435  1.00  0.00    -0.054 OA 
ENDROOT
BRANCH   2   3
HETATM    3  C   UNL     1      -8.605   4.430  70.616  1.00  0.00    -0.082 A  
HETATM    4  C   UNL     1      -9.540   5.375  71.031  1.00  0.00    -0.224 A  
HETATM    5  C   UNL     1     -10.472   5.935  70.131  1.00  0.00    -0.329 A  
HETATM    6  C   UNL     1     -10.431   5.529  68.786  1.00  0.00    -0.191 A  
HETATM    7  C   UNL     1      -9.460   4.612  68.361  1.00  0.00    -0.201 A  
HETATM    8  C   UNL     1      -8.554   4.067  69.277  1.00  0.00    -0.111 A  
BRANCH   5   9
HETATM    9  C   UNL     1     -11.491   6.957  70.615  1.00  0.00    -0.336 C  
HETATM   10  H   UNL     1     -12.706   7.171  72.166  1.00  0.00     0.000 HD 
HETATM   11  O   UNL     1     -12.070   6.533  71.864  1.00  0.00    -0.334 OA 
BRANCH   9  12
HETATM   12  C   UNL     1     -10.924   8.405  70.755  1.00  0.00    -0.247 C  
HETATM   13  C   UNL     1     -10.532   8.698  72.208  1.00  0.00    -0.376 C  
HETATM   14  N   UNL     1      -9.732   8.655  69.914  1.00  0.00    -0.171 NA 
HETATM   15  H1  UNL     1      -9.361   9.601  70.004  1.00  0.00     0.000 HD 
HETATM   16  H2  UNL     1      -9.926   8.436  68.936  1.00  0.00     0.000 HD 
ENDBRANCH   9  12
ENDBRANCH   5   9
BRANCH   6  17
HETATM   17  O   UNL     1     -11.342   6.104  67.937  1.00  0.00    -0.208 OA 
HETATM   18  C   UNL     1     -10.817   7.101  67.065  1.00  0.00    -0.312 C  
ENDBRANCH   6  17
ENDBRANCH   2   3
TORSDOF 4
ENDMDL
MODEL      183
REMARK 921   NORMALIZED FREE ENERGY PREDICTED BY IDOCK:   -2.69 KCAL/MOL
REMARK 922        TOTAL FREE ENERGY PREDICTED BY IDOCK:   -3.44 KCAL/MOL
REMARK 923 INTER-LIGAND FREE ENERGY PREDICTED BY IDOCK:   -3.80 KCAL/MOL
REMARK 924 INTRA-LIGAND FREE ENERGY PREDICTED BY IDOCK:    0.35 KCAL/MOL
REMARK 927      BINDING AFFINITY PREDICTED BY RF-SCORE:    0.00 PKD
ROOT
HETATM    1  C   UNL     1     -10.636  17.529  66.021  1.00  0.00    -0.217 C  
HETATM    2  O   UNL     1      -9.751  16.468  66.365  1.00  0.00    -0.253 OA 
ENDROOT
BRANCH   2   3
HETATM    3  C   UNL     1     -10.295  15.475  67.135  1.00  0.00    -0.272 A  
HETATM    4  C   UNL     1      -9.862  14.151  67.142  1.00  0.00    -0.253 A  
HETATM    5  C   UNL     1     -10.485  13.176  67.951  1.00  0.00    -0.245 A  
HETATM    6  C   UNL     1     -11.553  13.572  68.774  1.00  0.00    -0.325 A  
HETATM    7  C   UNL     1     -11.957  14.914  68.800  1.00  0.00    -0.284 A  
HETATM    8  C   UNL     1     -11.328  15.857  67.981  1.00  0.00    -0.284 A  
BRANCH   5   9
HETATM    9  C   UNL     1      -9.999  11.734  67.929  1.00  0.00    -0.181 C  
HETATM   10  H   UNL     1     -10.716   9.971  67.378  1.00  0.00     0.000 HD 
HETATM   11  O   UNL     1     -11.019  10.871  67.392  1.00  0.00    -0.260 OA 
BRANCH   9  12
HETATM   12  C   UNL     1      -8.661  11.524  67.152  1.00  0.00    -0.155 C  
HETATM   13  C   UNL     1      -8.198  10.064  67.251  1.00  0.00    -0.117 C  
HETATM   14  N   UNL     1      -8.753  11.864  65.714  1.00  0.00    -0.393 NA 
HETATM   15  H1  UNL     1      -7.879  11.727  65.207  1.00  0.00     0.000 HD 
HETATM   16  H2  UNL     1      -9.097  12.816  65.589  1.00  0.00     0.000 HD 
ENDBRANCH   9  12
ENDBRANCH   5   9
BRANCH   6  17
HETATM   17  O   UNL     1     -12.125  12.602  69.558  1.00  0.00    -0.271 OA 
HETATM   18  C   UNL     1     -12.367  12.976  70.910  1.00  0.00    -0.288 C  
ENDBRANCH   6  17
ENDBRANCH   2   3
TORSDOF 4
ENDMDL
MODEL      184
REMARK 921   NORMALIZED FREE ENERGY PREDICTED BY IDOCK:   -2.68 KCAL/MOL
REMARK 922        TOTAL FREE ENERGY PREDICTED BY IDOCK:   -3.44 KCAL/MOL
REMARK 923 INTER-LIGAND FREE ENERGY PREDICTED BY IDOCK:   -3.42 KCAL/MOL
REMARK 924 INTRA-LIGAND FREE ENERGY PREDICTED BY IDOCK:   -0.02 KCAL/MOL
REMARK 927      BINDING AFFINITY PREDICTED BY RF-SCORE:    0.00 PKD
ROOT
HETATM    1  C   UNL     1      -9.538  11.587  62.948  1.00  0.00    -0.283 C  
HETATM    2  O   UNL     1     -10.929  11.726  63.217  1.00  0.00    -0.367 OA 
ENDROOT
BRANCH   2   3
HETATM    3  C   UNL     1     -11.241  12.325  64.408  1.00  0.00    -0.334 A  
HETATM    4  C   UNL     1     -11.348  11.659  65.626  1.00  0.00    -0.233 A  
HETATM    5  C   UNL     1     -11.692  12.342  66.813  1.00  0.00    -0.411 A  
HETATM    6  C   UNL     1     -11.912  13.728  66.747  1.00  0.00    -0.426 A  
HETATM    7  C   UNL     1     -11.759  14.404  65.529  1.00  0.00    -0.352 A  
HETATM    8  C   UNL     1     -11.427  13.701  64.367  1.00  0.00    -0.410 A  
BRANCH   5   9
HETATM    9  C   UNL     1     -11.814  11.586  68.128  1.00  0.00    -0.236 C  
HETATM   10  H   UNL     1     -11.887   9.694  68.712  1.00  0.00     0.000 HD 
HETATM   11  O   UNL     1     -11.810  10.165  67.891  1.00  0.00    -0.010 OA 
BRANCH   9  12
HETATM   12  C   UNL     1     -10.718  11.954  69.178  1.00  0.00    -0.097 C  
HETATM   13  C   UNL     1     -11.358  12.349  70.515  1.00  0.00     0.773 C  
HETATM   14  N   UNL     1      -9.767  10.851  69.450  1.00  0.00    -0.425 NA 
HETATM   15  H1  UNL     1      -9.051  11.091  70.136  1.00  0.00     0.000 HD 
HETATM   16  H2  UNL     1      -9.341  10.520  68.584  1.00  0.00     0.000 HD 
ENDBRANCH   9  12
ENDBRANCH   5   9
BRANCH   6  17
HETATM   17  O   UNL     1     -12.230  14.362  67.921  1.00  0.00    -0.299 OA 
HETATM   18  C   UNL     1     -11.269  15.307  68.383  1.00  0.00    -0.309 C  
ENDBRANCH   6  17
ENDBRANCH   2   3
TORSDOF 4
ENDMDL
MODEL      185
REMARK 921   NORMALIZED FREE ENERGY PREDICTED BY IDOCK:   -2.68 KCAL/MOL
REMARK 922        TOTAL FREE ENERGY PREDICTED BY IDOCK:   -3.44 KCAL/MOL
REMARK 923 INTER-LIGAND FREE ENERGY PREDICTED BY IDOCK:   -3.13 KCAL/MOL
REMARK 924 INTRA-LIGAND FREE ENERGY PREDICTED BY IDOCK:   -0.31 KCAL/MOL
REMARK 927      BINDING AFFINITY PREDICTED BY RF-SCORE:    0.00 PKD
ROOT
HETATM    1  C   UNL     1     -10.866  10.302  67.479  1.00  0.00    -0.298 C  
HETATM    2  O   UNL     1     -10.729   8.905  67.237  1.00  0.00    -0.273 OA 
ENDROOT
BRANCH   2   3
HETATM    3  C   UNL     1      -9.912   8.235  68.108  1.00  0.00    -0.191 A  
HETATM    4  C   UNL     1     -10.087   8.197  69.489  1.00  0.00    -0.193 A  
HETATM    5  C   UNL     1      -9.191   7.500  70.328  1.00  0.00    -0.157 A  
HETATM    6  C   UNL     1      -8.112   6.820  69.737  1.00  0.00    -0.126 A  
HETATM    7  C   UNL     1      -7.964   6.822  68.343  1.00  0.00    -0.115 A  
HETATM    8  C   UNL     1      -8.861   7.529  67.537  1.00  0.00    -0.127 A  
BRANCH   5   9
HETATM    9  C   UNL     1      -9.400   7.485  71.836  1.00  0.00    -0.143 C  
HETATM   10  H   UNL     1      -9.121   8.732  73.350  1.00  0.00     0.000 HD 
HETATM   11  O   UNL     1      -8.991   8.741  72.409  1.00  0.00    -0.379 OA 
BRANCH   9  12
HETATM   12  C   UNL     1     -10.862   7.151  72.273  1.00  0.00    -0.232 C  
HETATM   13  C   UNL     1     -11.275   5.762  71.771  1.00  0.00    -0.275 C  
HETATM   14  N   UNL     1     -11.057   7.170  73.741  1.00  0.00    -0.492 NA 
HETATM   15  H1  UNL     1     -12.011   6.952  74.027  1.00  0.00     0.000 HD 
HETATM   16  H2  UNL     1     -10.757   8.062  74.135  1.00  0.00     0.000 HD 
ENDBRANCH   9  12
ENDBRANCH   5   9
BRANCH   6  17
HETATM   17  O   UNL     1      -7.270   6.140  70.579  1.00  0.00    -0.078 OA 
HETATM   18  C   UNL     1      -7.020   4.783  70.227  1.00  0.00    -0.048 C  
ENDBRANCH   6  17
ENDBRANCH   2   3
TORSDOF 4
ENDMDL
MODEL      186
REMARK 921   NORMALIZED FREE ENERGY PREDICTED BY IDOCK:   -2.65 KCAL/MOL
REMARK 922        TOTAL FREE ENERGY PREDICTED BY IDOCK:   -3.39 KCAL/MOL
REMARK 923 INTER-LIGAND FREE ENERGY PREDICTED BY IDOCK:   -3.24 KCAL/MOL
REMARK 924 INTRA-LIGAND FREE ENERGY PREDICTED BY IDOCK:   -0.15 KCAL/MOL
REMARK 927      BINDING AFFINITY PREDICTED BY RF-SCORE:    0.00 PKD
ROOT
HETATM    1  C   UNL     1     -12.306  13.147  70.624  1.00  0.00    -0.326 C  
HETATM    2  O   UNL     1     -12.098  14.523  70.324  1.00  0.00    -0.283 OA 
ENDROOT
BRANCH   2   3
HETATM    3  C   UNL     1     -11.044  14.791  69.492  1.00  0.00    -0.279 A  
HETATM    4  C   UNL     1     -10.400  13.844  68.699  1.00  0.00    -0.237 A  
HETATM    5  C   UNL     1      -9.305  14.191  67.878  1.00  0.00    -0.204 A  
HETATM    6  C   UNL     1      -8.879  15.530  67.861  1.00  0.00    -0.171 A  
HETATM    7  C   UNL     1      -9.558  16.490  68.625  1.00  0.00    -0.241 A  
HETATM    8  C   UNL     1     -10.633  16.116  69.436  1.00  0.00    -0.300 A  
BRANCH   5   9
HETATM    9  C   UNL     1      -8.613  13.132  67.031  1.00  0.00    -0.162 C  
HETATM   10  H   UNL     1      -7.430  11.573  67.341  1.00  0.00     0.000 HD 
HETATM   11  O   UNL     1      -7.862  12.233  67.869  1.00  0.00    -0.124 OA 
BRANCH   9  12
HETATM   12  C   UNL     1      -9.578  12.322  66.110  1.00  0.00    -0.240 C  
HETATM   13  C   UNL     1     -10.640  13.240  65.493  1.00  0.00    -0.295 C  
HETATM   14  N   UNL     1      -8.888  11.630  64.996  1.00  0.00    -0.359 NA 
HETATM   15  H1  UNL     1      -9.518  11.101  64.394  1.00  0.00     0.000 HD 
HETATM   16  H2  UNL     1      -8.140  11.034  65.349  1.00  0.00     0.000 HD 
ENDBRANCH   9  12
ENDBRANCH   5   9
BRANCH   6  17
HETATM   17  O   UNL     1      -7.823  15.835  67.041  1.00  0.00    -0.195 OA 
HETATM   18  C   UNL     1      -8.140  16.649  65.916  1.00  0.00     0.175 C  
ENDBRANCH   6  17
ENDBRANCH   2   3
TORSDOF 4
ENDMDL
MODEL      187
REMARK 921   NORMALIZED FREE ENERGY PREDICTED BY IDOCK:   -2.64 KCAL/MOL
REMARK 922        TOTAL FREE ENERGY PREDICTED BY IDOCK:   -3.38 KCAL/MOL
REMARK 923 INTER-LIGAND FREE ENERGY PREDICTED BY IDOCK:   -4.02 KCAL/MOL
REMARK 924 INTRA-LIGAND FREE ENERGY PREDICTED BY IDOCK:    0.63 KCAL/MOL
REMARK 927      BINDING AFFINITY PREDICTED BY RF-SCORE:    0.00 PKD
ROOT
HETATM    1  C   UNL     1      -9.445   8.846  70.127  1.00  0.00    -0.180 C  
HETATM    2  O   UNL     1     -10.753   9.282  69.775  1.00  0.00    -0.222 OA 
ENDROOT
BRANCH   2   3
HETATM    3  C   UNL     1     -10.841   9.995  68.609  1.00  0.00    -0.229 A  
HETATM    4  C   UNL     1     -10.241   9.626  67.407  1.00  0.00    -0.283 A  
HETATM    5  C   UNL     1     -10.360  10.422  66.248  1.00  0.00    -0.270 A  
HETATM    6  C   UNL     1     -11.118  11.603  66.322  1.00  0.00    -0.290 A  
HETATM    7  C   UNL     1     -11.759  11.949  67.520  1.00  0.00    -0.335 A  
HETATM    8  C   UNL     1     -11.617  11.146  68.655  1.00  0.00    -0.383 A  
BRANCH   5   9
HETATM    9  C   UNL     1      -9.683  10.000  64.951  1.00  0.00    -0.307 C  
HETATM   10  H   UNL     1      -9.185  10.851  63.233  1.00  0.00     0.000 HD 
HETATM   11  O   UNL     1      -9.607  11.114  64.042  1.00  0.00    -0.231 OA 
BRANCH   9  12
HETATM   12  C   UNL     1      -8.266   9.374  65.147  1.00  0.00    -0.135 C  
HETATM   13  C   UNL     1      -8.153   8.041  64.397  1.00  0.00    -0.123 C  
HETATM   14  N   UNL     1      -7.166  10.244  64.673  1.00  0.00    -0.253 NA 
HETATM   15  H1  UNL     1      -6.240   9.835  64.801  1.00  0.00     0.000 HD 
HETATM   16  H2  UNL     1      -7.217  11.164  65.112  1.00  0.00     0.000 HD 
ENDBRANCH   9  12
ENDBRANCH   5   9
BRANCH   6  17
HETATM   17  O   UNL     1     -11.226  12.345  65.173  1.00  0.00    -0.298 OA 
HETATM   18  C   UNL     1     -12.480  12.992  64.980  1.00  0.00    -0.477 C  
ENDBRANCH   6  17
ENDBRANCH   2   3
TORSDOF 4
ENDMDL
MODEL      188
REMARK 921   NORMALIZED FREE ENERGY PREDICTED BY IDOCK:   -2.63 KCAL/MOL
REMARK 922        TOTAL FREE ENERGY PREDICTED BY IDOCK:   -3.38 KCAL/MOL
REMARK 923 INTER-LIGAND FREE ENERGY PREDICTED BY IDOCK:   -3.58 KCAL/MOL
REMARK 924 INTRA-LIGAND FREE ENERGY PREDICTED BY IDOCK:    0.21 KCAL/MOL
REMARK 927      BINDING AFFINITY PREDICTED BY RF-SCORE:    0.00 PKD
ROOT
HETATM    1  C   UNL     1      -9.164  17.745  67.857  1.00  0.00    -0.265 C  
HETATM    2  O   UNL     1      -8.487  17.080  66.796  1.00  0.00    -0.202 OA 
ENDROOT
BRANCH   2   3
HETATM    3  C   UNL     1      -8.391  15.719  66.922  1.00  0.00    -0.248 A  
HETATM    4  C   UNL     1      -9.323  14.811  66.426  1.00  0.00    -0.320 A  
HETATM    5  C   UNL     1      -9.167  13.420  66.610  1.00  0.00    -0.223 A  
HETATM    6  C   UNL     1      -8.031  12.959  67.297  1.00  0.00    -0.149 A  
HETATM    7  C   UNL     1      -7.071  13.873  67.755  1.00  0.00    -0.181 A  
HETATM    8  C   UNL     1      -7.256  15.245  67.567  1.00  0.00    -0.224 A  
BRANCH   5   9
HETATM    9  C   UNL     1     -10.208  12.450  66.069  1.00  0.00    -0.245 C  
HETATM   10  H   UNL     1     -11.240  10.902  66.750  1.00  0.00     0.000 HD 
HETATM   11  O   UNL     1     -10.591  11.507  67.088  1.00  0.00    -0.217 OA 
BRANCH   9  12
HETATM   12  C   UNL     1     -11.478  13.142  65.480  1.00  0.00    -0.315 C  
HETATM   13  C   UNL     1     -12.251  12.177  64.572  1.00  0.00    -0.404 C  
HETATM   14  N   UNL     1     -12.419  13.628  66.515  1.00  0.00    -0.346 NA 
HETATM   15  H1  UNL     1     -13.249  14.080  66.130  1.00  0.00     0.000 HD 
HETATM   16  H2  UNL     1     -11.945  14.245  67.174  1.00  0.00     0.000 HD 
ENDBRANCH   9  12
ENDBRANCH   5   9
BRANCH   6  17
HETATM   17  O   UNL     1      -7.904  11.601  67.445  1.00  0.00    -0.131 OA 
HETATM   18  C   UNL     1      -7.379  11.171  68.697  1.00  0.00    -0.110 C  
ENDBRANCH   6  17
ENDBRANCH   2   3
TORSDOF 4
ENDMDL
MODEL      189
REMARK 921   NORMALIZED FREE ENERGY PREDICTED BY IDOCK:   -2.62 KCAL/MOL
REMARK 922        TOTAL FREE ENERGY PREDICTED BY IDOCK:   -3.36 KCAL/MOL
REMARK 923 INTER-LIGAND FREE ENERGY PREDICTED BY IDOCK:   -3.01 KCAL/MOL
REMARK 924 INTRA-LIGAND FREE ENERGY PREDICTED BY IDOCK:   -0.35 KCAL/MOL
REMARK 927      BINDING AFFINITY PREDICTED BY RF-SCORE:    0.00 PKD
ROOT
HETATM    1  C   UNL     1      -7.650   2.881  70.487  1.00  0.00    -0.043 C  
HETATM    2  O   UNL     1      -7.831   3.702  71.636  1.00  0.00    -0.059 OA 
ENDROOT
BRANCH   2   3
HETATM    3  C   UNL     1      -8.676   4.767  71.470  1.00  0.00    -0.121 A  
HETATM    4  C   UNL     1      -8.309   6.101  71.626  1.00  0.00    -0.126 A  
HETATM    5  C   UNL     1      -9.242   7.148  71.457  1.00  0.00    -0.148 A  
HETATM    6  C   UNL     1     -10.562   6.817  71.107  1.00  0.00    -0.224 A  
HETATM    7  C   UNL     1     -10.918   5.476  70.906  1.00  0.00    -0.194 A  
HETATM    8  C   UNL     1      -9.976   4.460  71.089  1.00  0.00    -0.243 A  
BRANCH   5   9
HETATM    9  C   UNL     1      -8.816   8.597  71.646  1.00  0.00    -0.223 C  
HETATM   10  H   UNL     1      -8.117   9.722  73.119  1.00  0.00     0.000 HD 
HETATM   11  O   UNL     1      -8.383   8.818  73.001  1.00  0.00    -0.412 OA 
BRANCH   9  12
HETATM   12  C   UNL     1      -7.711   9.071  70.649  1.00  0.00    -0.121 C  
HETATM   13  C   UNL     1      -8.333   9.824  69.466  1.00  0.00    -0.165 C  
HETATM   14  N   UNL     1      -6.705   9.966  71.266  1.00  0.00    -0.322 NA 
HETATM   15  H1  UNL     1      -5.983  10.276  70.616  1.00  0.00     0.000 HD 
HETATM   16  H2  UNL     1      -6.287   9.529  72.087  1.00  0.00     0.000 HD 
ENDBRANCH   9  12
ENDBRANCH   5   9
BRANCH   6  17
HETATM   17  O   UNL     1     -11.438   7.859  70.936  1.00  0.00    -0.280 OA 
HETATM   18  C   UNL     1     -12.437   7.987  71.944  1.00  0.00    -0.330 C  
ENDBRANCH   6  17
ENDBRANCH   2   3
TORSDOF 4
ENDMDL
MODEL      190
REMARK 921   NORMALIZED FREE ENERGY PREDICTED BY IDOCK:   -2.59 KCAL/MOL
REMARK 922        TOTAL FREE ENERGY PREDICTED BY IDOCK:   -3.33 KCAL/MOL
REMARK 923 INTER-LIGAND FREE ENERGY PREDICTED BY IDOCK:   -3.05 KCAL/MOL
REMARK 924 INTRA-LIGAND FREE ENERGY PREDICTED BY IDOCK:   -0.28 KCAL/MOL
REMARK 927      BINDING AFFINITY PREDICTED BY RF-SCORE:    0.00 PKD
ROOT
HETATM    1  C   UNL     1     -11.257  12.004  63.829  1.00  0.00    -0.440 C  
HETATM    2  O   UNL     1     -11.311  11.693  65.218  1.00  0.00    -0.257 OA 
ENDROOT
BRANCH   2   3
HETATM    3  C   UNL     1     -10.256  10.963  65.698  1.00  0.00    -0.263 A  
HETATM    4  C   UNL     1     -10.376   9.841  66.513  1.00  0.00    -0.262 A  
HETATM    5  C   UNL     1      -9.240   9.148  66.986  1.00  0.00    -0.167 A  
HETATM    6  C   UNL     1      -7.968   9.607  66.602  1.00  0.00    -0.109 A  
HETATM    7  C   UNL     1      -7.852  10.710  65.744  1.00  0.00    -0.141 A  
HETATM    8  C   UNL     1      -8.994  11.382  65.298  1.00  0.00    -0.017 A  
BRANCH   5   9
HETATM    9  C   UNL     1      -9.400   7.931  67.886  1.00  0.00    -0.141 C  
HETATM   10  H   UNL     1     -10.613   7.354  69.342  1.00  0.00     0.000 HD 
HETATM   11  O   UNL     1     -10.513   8.113  68.781  1.00  0.00    -0.211 OA 
BRANCH   9  12
HETATM   12  C   UNL     1      -9.552   6.583  67.114  1.00  0.00    -0.136 C  
HETATM   13  C   UNL     1     -11.014   6.118  67.113  1.00  0.00    -0.420 C  
HETATM   14  N   UNL     1      -9.109   6.658  65.703  1.00  0.00    -0.370 NA 
HETATM   15  H1  UNL     1      -9.208   5.777  65.198  1.00  0.00     0.000 HD 
HETATM   16  H2  UNL     1      -8.151   7.002  65.642  1.00  0.00     0.000 HD 
ENDBRANCH   9  12
ENDBRANCH   5   9
BRANCH   6  17
HETATM   17  O   UNL     1      -6.887   8.902  67.067  1.00  0.00    -0.072 OA 
HETATM   18  C   UNL     1      -5.620   9.517  66.853  1.00  0.00    -0.047 C  
ENDBRANCH   6  17
ENDBRANCH   2   3
TORSDOF 4
ENDMDL
MODEL      191
REMARK 921   NORMALIZED FREE ENERGY PREDICTED BY IDOCK:   -2.59 KCAL/MOL
REMARK 922        TOTAL FREE ENERGY PREDICTED BY IDOCK:   -3.32 KCAL/MOL
REMARK 923 INTER-LIGAND FREE ENERGY PREDICTED BY IDOCK:   -3.12 KCAL/MOL
REMARK 924 INTRA-LIGAND FREE ENERGY PREDICTED BY IDOCK:   -0.20 KCAL/MOL
REMARK 927      BINDING AFFINITY PREDICTED BY RF-SCORE:    0.00 PKD
ROOT
HETATM    1  C   UNL     1     -12.271  15.411  70.279  1.00  0.00    -0.380 C  
HETATM    2  O   UNL     1     -11.684  16.272  69.310  1.00  0.00    -0.263 OA 
ENDROOT
BRANCH   2   3
HETATM    3  C   UNL     1     -10.499  15.838  68.778  1.00  0.00    -0.228 A  
HETATM    4  C   UNL     1      -9.691  16.587  67.926  1.00  0.00    -0.236 A  
HETATM    5  C   UNL     1      -8.489  16.065  67.401  1.00  0.00    -0.187 A  
HETATM    6  C   UNL     1      -8.106  14.764  67.771  1.00  0.00    -0.152 A  
HETATM    7  C   UNL     1      -8.898  14.029  68.665  1.00  0.00    -0.104 A  
HETATM    8  C   UNL     1     -10.088  14.568  69.162  1.00  0.00    -0.145 A  
BRANCH   5   9
HETATM    9  C   UNL     1      -7.632  16.902  66.462  1.00  0.00    -0.293 C  
HETATM   10  H   UNL     1      -7.931  18.227  65.020  1.00  0.00     0.000 HD 
HETATM   11  O   UNL     1      -8.466  17.705  65.606  1.00  0.00    -0.438 OA 
BRANCH   9  12
HETATM   12  C   UNL     1      -6.587  17.807  67.189  1.00  0.00    -0.166 C  
HETATM   13  C   UNL     1      -6.792  19.281  66.817  1.00  0.00    -0.207 C  
HETATM   14  N   UNL     1      -6.647  17.708  68.665  1.00  0.00    -0.200 NA 
HETATM   15  H1  UNL     1      -5.964  18.299  69.140  1.00  0.00     0.000 HD 
HETATM   16  H2  UNL     1      -6.556  16.738  68.967  1.00  0.00     0.000 HD 
ENDBRANCH   9  12
ENDBRANCH   5   9
BRANCH   6  17
HETATM   17  O   UNL     1      -6.926  14.295  67.255  1.00  0.00    -0.199 OA 
HETATM   18  C   UNL     1      -6.819  12.877  67.168  1.00  0.00     0.077 C  
ENDBRANCH   6  17
ENDBRANCH   2   3
TORSDOF 4
ENDMDL
MODEL      192
REMARK 921   NORMALIZED FREE ENERGY PREDICTED BY IDOCK:   -2.59 KCAL/MOL
REMARK 922        TOTAL FREE ENERGY PREDICTED BY IDOCK:   -3.32 KCAL/MOL
REMARK 923 INTER-LIGAND FREE ENERGY PREDICTED BY IDOCK:   -4.08 KCAL/MOL
REMARK 924 INTRA-LIGAND FREE ENERGY PREDICTED BY IDOCK:    0.76 KCAL/MOL
REMARK 927      BINDING AFFINITY PREDICTED BY RF-SCORE:    0.00 PKD
ROOT
HETATM    1  C   UNL     1     -11.863   7.068  72.102  1.00  0.00    -0.275 C  
HETATM    2  O   UNL     1     -12.861   8.048  71.840  1.00  0.00    -0.316 OA 
ENDROOT
BRANCH   2   3
HETATM    3  C   UNL     1     -12.418   9.191  71.230  1.00  0.00    -0.300 A  
HETATM    4  C   UNL     1     -11.368   9.245  70.317  1.00  0.00    -0.238 A  
HETATM    5  C   UNL     1     -10.953  10.466  69.741  1.00  0.00    -0.345 A  
HETATM    6  C   UNL     1     -11.637  11.641  70.098  1.00  0.00    -0.217 A  
HETATM    7  C   UNL     1     -12.723  11.577  70.982  1.00  0.00    -0.426 A  
HETATM    8  C   UNL     1     -13.106  10.356  71.544  1.00  0.00    -0.532 A  
BRANCH   5   9
HETATM    9  C   UNL     1      -9.794  10.497  68.755  1.00  0.00    -0.186 C  
HETATM   10  H   UNL     1      -8.756  11.875  67.781  1.00  0.00     0.000 HD 
HETATM   11  O   UNL     1      -9.479  11.855  68.396  1.00  0.00    -0.200 OA 
BRANCH   9  12
HETATM   12  C   UNL     1      -8.509   9.768  69.259  1.00  0.00    -0.152 C  
HETATM   13  C   UNL     1      -7.553   9.483  68.094  1.00  0.00    -0.079 C  
HETATM   14  N   UNL     1      -7.754  10.537  70.275  1.00  0.00    -0.417 NA 
HETATM   15  H1  UNL     1      -6.914  10.060  70.604  1.00  0.00     0.000 HD 
HETATM   16  H2  UNL     1      -8.356  10.789  71.059  1.00  0.00     0.000 HD 
ENDBRANCH   9  12
ENDBRANCH   5   9
BRANCH   6  17
HETATM   17  O   UNL     1     -11.218  12.806  69.508  1.00  0.00    -0.188 OA 
HETATM   18  C   UNL     1     -12.257  13.670  69.058  1.00  0.00    -0.208 C  
ENDBRANCH   6  17
ENDBRANCH   2   3
TORSDOF 4
ENDMDL
MODEL      193
REMARK 921   NORMALIZED FREE ENERGY PREDICTED BY IDOCK:   -2.58 KCAL/MOL
REMARK 922        TOTAL FREE ENERGY PREDICTED BY IDOCK:   -3.32 KCAL/MOL
REMARK 923 INTER-LIGAND FREE ENERGY PREDICTED BY IDOCK:   -3.72 KCAL/MOL
REMARK 924 INTRA-LIGAND FREE ENERGY PREDICTED BY IDOCK:    0.40 KCAL/MOL
REMARK 927      BINDING AFFINITY PREDICTED BY RF-SCORE:    0.00 PKD
ROOT
HETATM    1  C   UNL     1      -7.888   9.740  63.934  1.00  0.00    -0.144 C  
HETATM    2  O   UNL     1      -8.552   8.705  64.652  1.00  0.00    -0.165 OA 
ENDROOT
BRANCH   2   3
HETATM    3  C   UNL     1      -9.222   9.106  65.777  1.00  0.00    -0.234 A  
HETATM    4  C   UNL     1      -9.060   8.540  67.040  1.00  0.00    -0.170 A  
HETATM    5  C   UNL     1      -9.800   8.994  68.152  1.00  0.00    -0.191 A  
HETATM    6  C   UNL     1     -10.705  10.054  67.967  1.00  0.00    -0.256 A  
HETATM    7  C   UNL     1     -10.833  10.652  66.705  1.00  0.00    -0.233 A  
HETATM    8  C   UNL     1     -10.094  10.175  65.619  1.00  0.00    -0.324 A  
BRANCH   5   9
HETATM    9  C   UNL     1      -9.612   8.349  69.518  1.00  0.00    -0.170 C  
HETATM   10  H   UNL     1      -9.568   8.941  71.408  1.00  0.00     0.000 HD 
HETATM   11  O   UNL     1      -9.685   9.344  70.556  1.00  0.00    -0.236 OA 
BRANCH   9  12
HETATM   12  C   UNL     1     -10.615   7.191  69.819  1.00  0.00    -0.234 C  
HETATM   13  C   UNL     1     -11.506   7.540  71.017  1.00  0.00    -0.299 C  
HETATM   14  N   UNL     1     -11.507   6.871  68.680  1.00  0.00    -0.481 NA 
HETATM   15  H1  UNL     1     -12.162   6.114  68.876  1.00  0.00     0.000 HD 
HETATM   16  H2  UNL     1     -10.963   6.669  67.841  1.00  0.00     0.000 HD 
ENDBRANCH   9  12
ENDBRANCH   5   9
BRANCH   6  17
HETATM   17  O   UNL     1     -11.397  10.480  69.072  1.00  0.00    -0.249 OA 
HETATM   18  C   UNL     1     -11.741  11.862  69.080  1.00  0.00    -0.331 C  
ENDBRANCH   6  17
ENDBRANCH   2   3
TORSDOF 4
ENDMDL
MODEL      194
REMARK 921   NORMALIZED FREE ENERGY PREDICTED BY IDOCK:   -2.57 KCAL/MOL
REMARK 922        TOTAL FREE ENERGY PREDICTED BY IDOCK:   -3.30 KCAL/MOL
REMARK 923 INTER-LIGAND FREE ENERGY PREDICTED BY IDOCK:   -2.96 KCAL/MOL
REMARK 924 INTRA-LIGAND FREE ENERGY PREDICTED BY IDOCK:   -0.34 KCAL/MOL
REMARK 927      BINDING AFFINITY PREDICTED BY RF-SCORE:    0.00 PKD
ROOT
HETATM    1  C   UNL     1      -5.887  10.242  68.301  1.00  0.00    -0.041 C  
HETATM    2  O   UNL     1      -6.204  11.630  68.293  1.00  0.00    -0.049 OA 
ENDROOT
BRANCH   2   3
HETATM    3  C   UNL     1      -7.526  11.930  68.094  1.00  0.00    -0.100 A  
HETATM    4  C   UNL     1      -8.582  11.055  68.335  1.00  0.00    -0.149 A  
HETATM    5  C   UNL     1      -9.921  11.428  68.089  1.00  0.00    -0.196 A  
HETATM    6  C   UNL     1     -10.176  12.722  67.603  1.00  0.00    -0.219 A  
HETATM    7  C   UNL     1      -9.115  13.617  67.404  1.00  0.00    -0.222 A  
HETATM    8  C   UNL     1      -7.798  13.217  67.648  1.00  0.00    -0.169 A  
BRANCH   5   9
HETATM    9  C   UNL     1     -11.054  10.447  68.350  1.00  0.00    -0.268 C  
HETATM   10  H   UNL     1     -12.038   9.063  67.330  1.00  0.00     0.000 HD 
HETATM   11  O   UNL     1     -11.331   9.675  67.166  1.00  0.00     0.151 OA 
BRANCH   9  12
HETATM   12  C   UNL     1     -10.805   9.494  69.562  1.00  0.00    -0.222 C  
HETATM   13  C   UNL     1     -11.527  10.007  70.814  1.00  0.00    -0.438 C  
HETATM   14  N   UNL     1     -11.262   8.105  69.324  1.00  0.00    -0.412 NA 
HETATM   15  H1  UNL     1     -11.099   7.483  70.115  1.00  0.00     0.000 HD 
HETATM   16  H2  UNL     1     -10.842   7.727  68.475  1.00  0.00     0.000 HD 
ENDBRANCH   9  12
ENDBRANCH   5   9
BRANCH   6  17
HETATM   17  O   UNL     1     -11.489  13.057  67.389  1.00  0.00    -0.294 OA 
HETATM   18  C   UNL     1     -11.992  14.106  68.211  1.00  0.00    -0.332 C  
ENDBRANCH   6  17
ENDBRANCH   2   3
TORSDOF 4
ENDMDL
MODEL      195
REMARK 921   NORMALIZED FREE ENERGY PREDICTED BY IDOCK:   -2.56 KCAL/MOL
REMARK 922        TOTAL FREE ENERGY PREDICTED BY IDOCK:   -3.28 KCAL/MOL
REMARK 923 INTER-LIGAND FREE ENERGY PREDICTED BY IDOCK:   -2.95 KCAL/MOL
REMARK 924 INTRA-LIGAND FREE ENERGY PREDICTED BY IDOCK:   -0.33 KCAL/MOL
REMARK 927      BINDING AFFINITY PREDICTED BY RF-SCORE:    0.00 PKD
ROOT
HETATM    1  C   UNL     1      -5.399   9.301  69.834  1.00  0.00    -0.032 C  
HETATM    2  O   UNL     1      -6.142   8.235  70.417  1.00  0.00    -0.032 OA 
ENDROOT
BRANCH   2   3
HETATM    3  C   UNL     1      -7.343   7.962  69.820  1.00  0.00    -0.078 A  
HETATM    4  C   UNL     1      -8.485   7.540  70.496  1.00  0.00    -0.133 A  
HETATM    5  C   UNL     1      -9.687   7.258  69.810  1.00  0.00    -0.166 A  
HETATM    6  C   UNL     1      -9.717   7.428  68.415  1.00  0.00    -0.153 A  
HETATM    7  C   UNL     1      -8.580   7.897  67.743  1.00  0.00    -0.128 A  
HETATM    8  C   UNL     1      -7.401   8.160  68.446  1.00  0.00    -0.094 A  
BRANCH   5   9
HETATM    9  C   UNL     1     -10.916   6.786  70.573  1.00  0.00    -0.280 C  
HETATM   10  H   UNL     1     -11.296   5.652  72.153  1.00  0.00     0.000 HD 
HETATM   11  O   UNL     1     -10.529   5.946  71.677  1.00  0.00    -0.218 OA 
BRANCH   9  12
HETATM   12  C   UNL     1     -11.834   7.943  71.080  1.00  0.00    -0.287 C  
HETATM   13  C   UNL     1     -11.259   8.575  72.354  1.00  0.00    -0.399 C  
HETATM   14  N   UNL     1     -12.017   9.029  70.090  1.00  0.00    -0.410 NA 
HETATM   15  H1  UNL     1     -12.617   9.784  70.421  1.00  0.00     0.000 HD 
HETATM   16  H2  UNL     1     -12.361   8.656  69.204  1.00  0.00     0.000 HD 
ENDBRANCH   9  12
ENDBRANCH   5   9
BRANCH   6  17
HETATM   17  O   UNL     1     -10.904   7.160  67.783  1.00  0.00    -0.220 OA 
HETATM   18  C   UNL     1     -10.883   6.049  66.892  1.00  0.00    -0.318 C  
ENDBRANCH   6  17
ENDBRANCH   2   3
TORSDOF 4
ENDMDL
MODEL      196
REMARK 921   NORMALIZED FREE ENERGY PREDICTED BY IDOCK:   -2.55 KCAL/MOL
REMARK 922        TOTAL FREE ENERGY PREDICTED BY IDOCK:   -3.28 KCAL/MOL
REMARK 923 INTER-LIGAND FREE ENERGY PREDICTED BY IDOCK:   -3.59 KCAL/MOL
REMARK 924 INTRA-LIGAND FREE ENERGY PREDICTED BY IDOCK:    0.32 KCAL/MOL
REMARK 927      BINDING AFFINITY PREDICTED BY RF-SCORE:    0.00 PKD
ROOT
HETATM    1  C   UNL     1      -7.367  10.214  69.773  1.00  0.00    -0.158 C  
HETATM    2  O   UNL     1      -7.703   9.685  71.051  1.00  0.00    -0.323 OA 
ENDROOT
BRANCH   2   3
HETATM    3  C   UNL     1      -8.856   8.947  71.098  1.00  0.00    -0.237 A  
HETATM    4  C   UNL     1      -8.942   7.641  71.572  1.00  0.00    -0.148 A  
HETATM    5  C   UNL     1     -10.165   6.935  71.573  1.00  0.00    -0.210 A  
HETATM    6  C   UNL     1     -11.315   7.588  71.094  1.00  0.00    -0.267 A  
HETATM    7  C   UNL     1     -11.234   8.919  70.660  1.00  0.00    -0.308 A  
HETATM    8  C   UNL     1     -10.008   9.590  70.662  1.00  0.00    -0.342 A  
BRANCH   5   9
HETATM    9  C   UNL     1     -10.228   5.504  72.086  1.00  0.00    -0.199 C  
HETATM   10  H   UNL     1     -11.357   4.459  73.334  1.00  0.00     0.000 HD 
HETATM   11  O   UNL     1     -11.318   5.352  73.014  1.00  0.00    -0.302 OA 
BRANCH   9  12
HETATM   12  C   UNL     1     -10.334   4.427  70.960  1.00  0.00     0.057 C  
HETATM   13  C   UNL     1      -9.666   4.922  69.670  1.00  0.00    -0.266 C  
HETATM   14  N   UNL     1      -9.705   3.135  71.318  1.00  0.00    -0.161 NA 
HETATM   15  H1  UNL     1      -9.774   2.432  70.582  1.00  0.00     0.000 HD 
HETATM   16  H2  UNL     1     -10.086   2.779  72.194  1.00  0.00     0.000 HD 
ENDBRANCH   9  12
ENDBRANCH   5   9
BRANCH   6  17
HETATM   17  O   UNL     1     -12.488   6.879  71.123  1.00  0.00    -0.378 OA 
HETATM   18  C   UNL     1     -13.649   7.634  71.457  1.00  0.00    -0.353 C  
ENDBRANCH   6  17
ENDBRANCH   2   3
TORSDOF 4
ENDMDL
MODEL      197
REMARK 921   NORMALIZED FREE ENERGY PREDICTED BY IDOCK:   -2.55 KCAL/MOL
REMARK 922        TOTAL FREE ENERGY PREDICTED BY IDOCK:   -3.27 KCAL/MOL
REMARK 923 INTER-LIGAND FREE ENERGY PREDICTED BY IDOCK:   -2.89 KCAL/MOL
REMARK 924 INTRA-LIGAND FREE ENERGY PREDICTED BY IDOCK:   -0.38 KCAL/MOL
REMARK 927      BINDING AFFINITY PREDICTED BY RF-SCORE:    0.00 PKD
ROOT
HETATM    1  C   UNL     1     -11.983  13.918  68.095  1.00  0.00    -0.350 C  
HETATM    2  O   UNL     1     -12.141  12.792  67.238  1.00  0.00    -0.399 OA 
ENDROOT
BRANCH   2   3
HETATM    3  C   UNL     1     -10.979  12.176  66.855  1.00  0.00    -0.270 A  
HETATM    4  C   UNL     1      -9.771  12.266  67.543  1.00  0.00    -0.190 A  
HETATM    5  C   UNL     1      -8.607  11.618  67.077  1.00  0.00    -0.169 A  
HETATM    6  C   UNL     1      -8.692  10.855  65.899  1.00  0.00    -0.183 A  
HETATM    7  C   UNL     1      -9.919  10.729  65.234  1.00  0.00    -0.342 A  
HETATM    8  C   UNL     1     -11.054  11.390  65.713  1.00  0.00    -0.217 A  
BRANCH   5   9
HETATM    9  C   UNL     1      -7.297  11.743  67.842  1.00  0.00    -0.098 C  
HETATM   10  H   UNL     1      -6.118  13.207  68.468  1.00  0.00     0.000 HD 
HETATM   11  O   UNL     1      -6.935  13.129  67.990  1.00  0.00    -0.087 OA 
BRANCH   9  12
HETATM   12  C   UNL     1      -7.305  11.042  69.237  1.00  0.00    -0.113 C  
HETATM   13  C   UNL     1      -7.450   9.523  69.082  1.00  0.00    -0.074 C  
HETATM   14  N   UNL     1      -6.080  11.293  70.030  1.00  0.00    -0.128 NA 
HETATM   15  H1  UNL     1      -6.084  10.835  70.942  1.00  0.00     0.000 HD 
HETATM   16  H2  UNL     1      -5.912  12.294  70.130  1.00  0.00     0.000 HD 
ENDBRANCH   9  12
ENDBRANCH   5   9
BRANCH   6  17
HETATM   17  O   UNL     1      -7.545  10.227  65.483  1.00  0.00    -0.140 OA 
HETATM   18  C   UNL     1      -7.465   9.969  64.084  1.00  0.00    -0.132 C  
ENDBRANCH   6  17
ENDBRANCH   2   3
TORSDOF 4
ENDMDL
MODEL      198
REMARK 921   NORMALIZED FREE ENERGY PREDICTED BY IDOCK:   -2.54 KCAL/MOL
REMARK 922        TOTAL FREE ENERGY PREDICTED BY IDOCK:   -3.27 KCAL/MOL
REMARK 923 INTER-LIGAND FREE ENERGY PREDICTED BY IDOCK:   -2.97 KCAL/MOL
REMARK 924 INTRA-LIGAND FREE ENERGY PREDICTED BY IDOCK:   -0.29 KCAL/MOL
REMARK 927      BINDING AFFINITY PREDICTED BY RF-SCORE:    0.00 PKD
ROOT
HETATM    1  C   UNL     1      -6.790   9.107  69.865  1.00  0.00    -0.052 C  
HETATM    2  O   UNL     1      -7.572   9.384  71.022  1.00  0.00    -0.266 OA 
ENDROOT
BRANCH   2   3
HETATM    3  C   UNL     1      -8.560   8.476  71.295  1.00  0.00    -0.176 A  
HETATM    4  C   UNL     1      -8.802   7.322  70.553  1.00  0.00    -0.153 A  
HETATM    5  C   UNL     1      -9.853   6.439  70.884  1.00  0.00    -0.204 A  
HETATM    6  C   UNL     1     -10.653   6.739  72.001  1.00  0.00    -0.213 A  
HETATM    7  C   UNL     1     -10.378   7.877  72.773  1.00  0.00    -0.399 A  
HETATM    8  C   UNL     1      -9.337   8.738  72.416  1.00  0.00    -0.159 A  
BRANCH   5   9
HETATM    9  C   UNL     1     -10.103   5.192  70.049  1.00  0.00    -0.275 C  
HETATM   10  H   UNL     1     -11.171   4.706  68.452  1.00  0.00     0.000 HD 
HETATM   11  O   UNL     1     -11.015   5.484  68.974  1.00  0.00    -0.186 OA 
BRANCH   9  12
HETATM   12  C   UNL     1      -8.805   4.534  69.482  1.00  0.00    -0.088 C  
HETATM   13  C   UNL     1      -8.477   3.240  70.237  1.00  0.00    -0.095 C  
HETATM   14  N   UNL     1      -8.894   4.199  68.042  1.00  0.00    -0.107 NA 
HETATM   15  H1  UNL     1      -8.046   3.769  67.672  1.00  0.00     0.000 HD 
HETATM   16  H2  UNL     1      -9.151   5.020  67.495  1.00  0.00     0.000 HD 
ENDBRANCH   9  12
ENDBRANCH   5   9
BRANCH   6  17
HETATM   17  O   UNL     1     -11.655   5.853  72.302  1.00  0.00    -0.303 OA 
HETATM   18  C   UNL     1     -11.379   4.965  73.382  1.00  0.00    -0.298 C  
ENDBRANCH   6  17
ENDBRANCH   2   3
TORSDOF 4
ENDMDL
MODEL      199
REMARK 921   NORMALIZED FREE ENERGY PREDICTED BY IDOCK:   -2.54 KCAL/MOL
REMARK 922        TOTAL FREE ENERGY PREDICTED BY IDOCK:   -3.26 KCAL/MOL
REMARK 923 INTER-LIGAND FREE ENERGY PREDICTED BY IDOCK:   -3.44 KCAL/MOL
REMARK 924 INTRA-LIGAND FREE ENERGY PREDICTED BY IDOCK:    0.18 KCAL/MOL
REMARK 927      BINDING AFFINITY PREDICTED BY RF-SCORE:    0.00 PKD
ROOT
HETATM    1  C   UNL     1      -7.549   9.260  67.370  1.00  0.00    -0.088 C  
HETATM    2  O   UNL     1      -8.791   9.952  67.290  1.00  0.00    -0.131 OA 
ENDROOT
BRANCH   2   3
HETATM    3  C   UNL     1      -8.700  11.318  67.240  1.00  0.00    -0.145 A  
HETATM    4  C   UNL     1      -9.728  12.165  66.833  1.00  0.00    -0.213 A  
HETATM    5  C   UNL     1      -9.555  13.566  66.790  1.00  0.00    -0.268 A  
HETATM    6  C   UNL     1      -8.316  14.100  67.184  1.00  0.00    -0.169 A  
HETATM    7  C   UNL     1      -7.299  13.248  67.637  1.00  0.00    -0.164 A  
HETATM    8  C   UNL     1      -7.495  11.864  67.661  1.00  0.00    -0.127 A  
BRANCH   5   9
HETATM    9  C   UNL     1     -10.691  14.468  66.329  1.00  0.00    -0.309 C  
HETATM   10  H   UNL     1     -11.542  16.152  66.934  1.00  0.00     0.000 HD 
HETATM   11  O   UNL     1     -10.833  15.589  67.221  1.00  0.00    -0.309 OA 
BRANCH   9  12
HETATM   12  C   UNL     1     -10.549  14.971  64.858  1.00  0.00    -0.374 C  
HETATM   13  C   UNL     1     -11.454  14.165  63.918  1.00  0.00     0.093 C  
HETATM   14  N   UNL     1     -10.894  16.402  64.688  1.00  0.00    -0.869 NA 
HETATM   15  H1  UNL     1     -10.801  16.731  63.728  1.00  0.00     0.000 HD 
HETATM   16  H2  UNL     1     -10.347  16.984  65.323  1.00  0.00     0.000 HD 
ENDBRANCH   9  12
ENDBRANCH   5   9
BRANCH   6  17
HETATM   17  O   UNL     1      -8.188  15.465  67.144  1.00  0.00    -0.184 OA 
HETATM   18  C   UNL     1      -6.900  15.967  67.488  1.00  0.00    -0.183 C  
ENDBRANCH   6  17
ENDBRANCH   2   3
TORSDOF 4
ENDMDL
MODEL      200
REMARK 921   NORMALIZED FREE ENERGY PREDICTED BY IDOCK:   -2.53 KCAL/MOL
REMARK 922        TOTAL FREE ENERGY PREDICTED BY IDOCK:   -3.25 KCAL/MOL
REMARK 923 INTER-LIGAND FREE ENERGY PREDICTED BY IDOCK:   -3.03 KCAL/MOL
REMARK 924 INTRA-LIGAND FREE ENERGY PREDICTED BY IDOCK:   -0.22 KCAL/MOL
REMARK 927      BINDING AFFINITY PREDICTED BY RF-SCORE:    0.00 PKD
ROOT
HETATM    1  C   UNL     1      -6.081  11.510  67.962  1.00  0.00    -0.046 C  
HETATM    2  O   UNL     1      -7.373  11.246  67.424  1.00  0.00    -0.102 OA 
ENDROOT
BRANCH   2   3
HETATM    3  C   UNL     1      -8.296  12.244  67.595  1.00  0.00    -0.166 A  
HETATM    4  C   UNL     1      -7.987  13.559  67.933  1.00  0.00    -0.162 A  
HETATM    5  C   UNL     1      -8.995  14.531  68.110  1.00  0.00    -0.182 A  
HETATM    6  C   UNL     1     -10.335  14.148  67.921  1.00  0.00    -0.234 A  
HETATM    7  C   UNL     1     -10.640  12.835  67.536  1.00  0.00    -0.240 A  
HETATM    8  C   UNL     1      -9.621  11.891  67.377  1.00  0.00    -0.176 A  
BRANCH   5   9
HETATM    9  C   UNL     1      -8.630  15.959  68.491  1.00  0.00    -0.190 C  
HETATM   10  H   UNL     1      -7.193  16.865  69.511  1.00  0.00     0.000 HD 
HETATM   11  O   UNL     1      -7.421  15.974  69.273  1.00  0.00    -0.214 OA 
BRANCH   9  12
HETATM   12  C   UNL     1      -8.491  16.927  67.275  1.00  0.00    -0.196 C  
HETATM   13  C   UNL     1      -8.854  18.362  67.678  1.00  0.00    -0.272 C  
HETATM   14  N   UNL     1      -7.126  16.960  66.700  1.00  0.00    -0.232 NA 
HETATM   15  H1  UNL     1      -7.035  17.593  65.905  1.00  0.00     0.000 HD 
HETATM   16  H2  UNL     1      -6.816  16.021  66.451  1.00  0.00     0.000 HD 
ENDBRANCH   9  12
ENDBRANCH   5   9
BRANCH   6  17
HETATM   17  O   UNL     1     -11.288  15.121  68.087  1.00  0.00    -0.308 OA 
HETATM   18  C   UNL     1     -11.952  15.115  69.347  1.00  0.00    -0.307 C  
ENDBRANCH   6  17
ENDBRANCH   2   3
TORSDOF 4
ENDMDL
MODEL      201
REMARK 921   NORMALIZED FREE ENERGY PREDICTED BY IDOCK:   -2.52 KCAL/MOL
REMARK 922        TOTAL FREE ENERGY PREDICTED BY IDOCK:   -3.24 KCAL/MOL
REMARK 923 INTER-LIGAND FREE ENERGY PREDICTED BY IDOCK:   -2.89 KCAL/MOL
REMARK 924 INTRA-LIGAND FREE ENERGY PREDICTED BY IDOCK:   -0.35 KCAL/MOL
REMARK 927      BINDING AFFINITY PREDICTED BY RF-SCORE:    0.00 PKD
ROOT
HETATM    1  C   UNL     1     -11.948   7.069  71.902  1.00  0.00    -0.320 C  
HETATM    2  O   UNL     1     -12.202   6.708  70.549  1.00  0.00    -0.364 OA 
ENDROOT
BRANCH   2   3
HETATM    3  C   UNL     1     -11.134   6.822  69.699  1.00  0.00    -0.292 A  
HETATM    4  C   UNL     1     -10.457   5.748  69.128  1.00  0.00    -0.346 A  
HETATM    5  C   UNL     1      -9.350   5.943  68.274  1.00  0.00    -0.118 A  
HETATM    6  C   UNL     1      -8.946   7.259  67.992  1.00  0.00    -0.131 A  
HETATM    7  C   UNL     1      -9.658   8.340  68.530  1.00  0.00    -0.154 A  
HETATM    8  C   UNL     1     -10.745   8.117  69.381  1.00  0.00    -0.164 A  
BRANCH   5   9
HETATM    9  C   UNL     1      -8.620   4.749  67.674  1.00  0.00    -0.103 C  
HETATM   10  H   UNL     1      -7.476   3.270  68.329  1.00  0.00     0.000 HD 
HETATM   11  O   UNL     1      -7.931   4.015  68.704  1.00  0.00    -0.071 OA 
BRANCH   9  12
HETATM   12  C   UNL     1      -9.538   3.786  66.857  1.00  0.00    -0.179 C  
HETATM   13  C   UNL     1     -10.330   4.560  65.796  1.00  0.00    -0.287 C  
HETATM   14  N   UNL     1      -8.795   2.712  66.160  1.00  0.00    -0.132 NA 
HETATM   15  H1  UNL     1      -9.394   2.082  65.627  1.00  0.00     0.000 HD 
HETATM   16  H2  UNL     1      -8.216   2.188  66.817  1.00  0.00     0.000 HD 
ENDBRANCH   9  12
ENDBRANCH   5   9
BRANCH   6  17
HETATM   17  O   UNL     1      -7.877   7.412  67.146  1.00  0.00    -0.112 OA 
HETATM   18  C   UNL     1      -8.153   8.108  65.934  1.00  0.00    -0.115 C  
ENDBRANCH   6  17
ENDBRANCH   2   3
TORSDOF 4
ENDMDL
MODEL      202
REMARK 921   NORMALIZED FREE ENERGY PREDICTED BY IDOCK:   -2.52 KCAL/MOL
REMARK 922        TOTAL FREE ENERGY PREDICTED BY IDOCK:   -3.23 KCAL/MOL
REMARK 923 INTER-LIGAND FREE ENERGY PREDICTED BY IDOCK:   -3.58 KCAL/MOL
REMARK 924 INTRA-LIGAND FREE ENERGY PREDICTED BY IDOCK:    0.35 KCAL/MOL
REMARK 927      BINDING AFFINITY PREDICTED BY RF-SCORE:    0.00 PKD
ROOT
HETATM    1  C   UNL     1      -5.459  10.893  66.830  1.00  0.00    -0.072 C  
HETATM    2  O   UNL     1      -6.792  10.595  67.232  1.00  0.00    -0.075 OA 
ENDROOT
BRANCH   2   3
HETATM    3  C   UNL     1      -7.675  11.640  67.161  1.00  0.00    -0.159 A  
HETATM    4  C   UNL     1      -9.042  11.507  66.932  1.00  0.00    -0.181 A  
HETATM    5  C   UNL     1      -9.890  12.633  66.854  1.00  0.00    -0.234 A  
HETATM    6  C   UNL     1      -9.326  13.909  67.029  1.00  0.00    -0.251 A  
HETATM    7  C   UNL     1      -7.957  14.037  67.304  1.00  0.00    -0.157 A  
HETATM    8  C   UNL     1      -7.140  12.905  67.368  1.00  0.00    -0.130 A  
BRANCH   5   9
HETATM    9  C   UNL     1     -11.379  12.459  66.590  1.00  0.00    -0.339 C  
HETATM   10  H   UNL     1     -13.074  13.188  67.312  1.00  0.00     0.000 HD 
HETATM   11  O   UNL     1     -12.145  13.297  67.476  1.00  0.00    -0.343 OA 
BRANCH   9  12
HETATM   12  C   UNL     1     -11.799  12.725  65.110  1.00  0.00    -0.391 C  
HETATM   13  C   UNL     1     -12.683  13.975  65.011  1.00  0.00    -0.359 C  
HETATM   14  N   UNL     1     -10.650  12.920  64.196  1.00  0.00    -0.411 NA 
HETATM   15  H1  UNL     1     -10.925  13.093  63.229  1.00  0.00     0.000 HD 
HETATM   16  H2  UNL     1     -10.005  12.131  64.253  1.00  0.00     0.000 HD 
ENDBRANCH   9  12
ENDBRANCH   5   9
BRANCH   6  17
HETATM   17  O   UNL     1     -10.181  14.980  66.961  1.00  0.00    -0.252 OA 
HETATM   18  C   UNL     1      -9.820  16.099  67.765  1.00  0.00    -0.232 C  
ENDBRANCH   6  17
ENDBRANCH   2   3
TORSDOF 4
ENDMDL
MODEL      203
REMARK 921   NORMALIZED FREE ENERGY PREDICTED BY IDOCK:   -2.50 KCAL/MOL
REMARK 922        TOTAL FREE ENERGY PREDICTED BY IDOCK:   -3.22 KCAL/MOL
REMARK 923 INTER-LIGAND FREE ENERGY PREDICTED BY IDOCK:   -3.52 KCAL/MOL
REMARK 924 INTRA-LIGAND FREE ENERGY PREDICTED BY IDOCK:    0.30 KCAL/MOL
REMARK 927      BINDING AFFINITY PREDICTED BY RF-SCORE:    0.00 PKD
ROOT
HETATM    1  C   UNL     1      -9.048  10.586  64.751  1.00  0.00    -0.211 C  
HETATM    2  O   UNL     1     -10.345  10.999  65.168  1.00  0.00    -0.269 OA 
ENDROOT
BRANCH   2   3
HETATM    3  C   UNL     1     -10.385  12.149  65.910  1.00  0.00    -0.255 A  
HETATM    4  C   UNL     1      -9.314  12.659  66.640  1.00  0.00    -0.236 A  
HETATM    5  C   UNL     1      -9.436  13.844  67.399  1.00  0.00    -0.226 A  
HETATM    6  C   UNL     1     -10.669  14.518  67.393  1.00  0.00    -0.282 A  
HETATM    7  C   UNL     1     -11.732  14.028  66.622  1.00  0.00    -0.420 A  
HETATM    8  C   UNL     1     -11.586  12.847  65.887  1.00  0.00    -0.423 A  
BRANCH   5   9
HETATM    9  C   UNL     1      -8.252  14.372  68.196  1.00  0.00    -0.149 C  
HETATM   10  H   UNL     1      -7.962  15.272  69.937  1.00  0.00     0.000 HD 
HETATM   11  O   UNL     1      -8.701  14.942  69.440  1.00  0.00    -0.150 OA 
BRANCH   9  12
HETATM   12  C   UNL     1      -7.142  13.308  68.469  1.00  0.00    -0.105 C  
HETATM   13  C   UNL     1      -5.788  13.784  67.928  1.00  0.00    -0.135 C  
HETATM   14  N   UNL     1      -6.962  12.998  69.905  1.00  0.00    -0.234 NA 
HETATM   15  H1  UNL     1      -6.237  12.303  70.084  1.00  0.00     0.000 HD 
HETATM   16  H2  UNL     1      -7.845  12.713  70.328  1.00  0.00     0.000 HD 
ENDBRANCH   9  12
ENDBRANCH   5   9
BRANCH   6  17
HETATM   17  O   UNL     1     -10.747  15.673  68.129  1.00  0.00    -0.267 OA 
HETATM   18  C   UNL     1     -11.979  15.876  68.816  1.00  0.00    -0.154 C  
ENDBRANCH   6  17
ENDBRANCH   2   3
TORSDOF 4
ENDMDL
MODEL      204
REMARK 921   NORMALIZED FREE ENERGY PREDICTED BY IDOCK:   -2.49 KCAL/MOL
REMARK 922        TOTAL FREE ENERGY PREDICTED BY IDOCK:   -3.20 KCAL/MOL
REMARK 923 INTER-LIGAND FREE ENERGY PREDICTED BY IDOCK:   -2.89 KCAL/MOL
REMARK 924 INTRA-LIGAND FREE ENERGY PREDICTED BY IDOCK:   -0.32 KCAL/MOL
REMARK 927      BINDING AFFINITY PREDICTED BY RF-SCORE:    0.00 PKD
ROOT
HETATM    1  C   UNL     1     -12.783   7.148  71.616  1.00  0.00    -0.379 C  
HETATM    2  O   UNL     1     -12.282   6.619  70.392  1.00  0.00    -0.332 OA 
ENDROOT
BRANCH   2   3
HETATM    3  C   UNL     1     -10.940   6.795  70.181  1.00  0.00    -0.292 A  
HETATM    4  C   UNL     1     -10.048   7.290  71.128  1.00  0.00    -0.190 A  
HETATM    5  C   UNL     1      -8.678   7.462  70.832  1.00  0.00    -0.144 A  
HETATM    6  C   UNL     1      -8.220   7.104  69.552  1.00  0.00    -0.132 A  
HETATM    7  C   UNL     1      -9.112   6.563  68.616  1.00  0.00    -0.128 A  
HETATM    8  C   UNL     1     -10.465   6.412  68.934  1.00  0.00    -0.264 A  
BRANCH   5   9
HETATM    9  C   UNL     1      -7.727   8.017  71.882  1.00  0.00    -0.097 C  
HETATM   10  H   UNL     1      -7.086   9.801  72.460  1.00  0.00     0.000 HD 
HETATM   11  O   UNL     1      -7.680   9.454  71.805  1.00  0.00    -0.258 OA 
BRANCH   9  12
HETATM   12  C   UNL     1      -8.060   7.574  73.342  1.00  0.00    -0.125 C  
HETATM   13  C   UNL     1      -7.217   6.357  73.746  1.00  0.00    -0.082 C  
HETATM   14  N   UNL     1      -7.823   8.633  74.349  1.00  0.00    -0.388 NA 
HETATM   15  H1  UNL     1      -8.040   8.343  75.303  1.00  0.00     0.000 HD 
HETATM   16  H2  UNL     1      -8.330   9.483  74.106  1.00  0.00     0.000 HD 
ENDBRANCH   9  12
ENDBRANCH   5   9
BRANCH   6  17
HETATM   17  O   UNL     1      -6.881   7.270  69.303  1.00  0.00    -0.051 OA 
HETATM   18  C   UNL     1      -6.112   6.071  69.282  1.00  0.00    -0.029 C  
ENDBRANCH   6  17
ENDBRANCH   2   3
TORSDOF 4
ENDMDL
MODEL      205
REMARK 921   NORMALIZED FREE ENERGY PREDICTED BY IDOCK:   -2.49 KCAL/MOL
REMARK 922        TOTAL FREE ENERGY PREDICTED BY IDOCK:   -3.20 KCAL/MOL
REMARK 923 INTER-LIGAND FREE ENERGY PREDICTED BY IDOCK:   -2.97 KCAL/MOL
REMARK 924 INTRA-LIGAND FREE ENERGY PREDICTED BY IDOCK:   -0.23 KCAL/MOL
REMARK 927      BINDING AFFINITY PREDICTED BY RF-SCORE:    0.00 PKD
ROOT
HETATM    1  C   UNL     1     -12.308   8.585  72.314  1.00  0.00    -0.387 C  
HETATM    2  O   UNL     1     -10.886   8.624  72.260  1.00  0.00    -0.354 OA 
ENDROOT
BRANCH   2   3
HETATM    3  C   UNL     1     -10.349   8.816  71.015  1.00  0.00    -0.233 A  
HETATM    4  C   UNL     1      -9.665   7.844  70.289  1.00  0.00    -0.183 A  
HETATM    5  C   UNL     1      -9.122   8.120  69.015  1.00  0.00    -0.148 A  
HETATM    6  C   UNL     1      -9.300   9.406  68.476  1.00  0.00    -0.138 A  
HETATM    7  C   UNL     1     -10.028  10.369  69.189  1.00  0.00    -0.237 A  
HETATM    8  C   UNL     1     -10.547  10.070  70.453  1.00  0.00    -0.343 A  
BRANCH   5   9
HETATM    9  C   UNL     1      -8.369   7.042  68.249  1.00  0.00    -0.123 C  
HETATM   10  H   UNL     1      -7.400   5.368  68.677  1.00  0.00     0.000 HD 
HETATM   11  O   UNL     1      -7.871   6.040  69.155  1.00  0.00    -0.096 OA 
BRANCH   9  12
HETATM   12  C   UNL     1      -9.201   6.368  67.113  1.00  0.00    -0.123 C  
HETATM   13  C   UNL     1      -8.286   5.596  66.154  1.00  0.00    -0.120 C  
HETATM   14  N   UNL     1     -10.222   5.418  67.614  1.00  0.00    -0.188 NA 
HETATM   15  H1  UNL     1     -10.766   4.978  66.872  1.00  0.00     0.000 HD 
HETATM   16  H2  UNL     1     -10.836   5.871  68.291  1.00  0.00     0.000 HD 
ENDBRANCH   9  12
ENDBRANCH   5   9
BRANCH   6  17
HETATM   17  O   UNL     1      -8.773   9.636  67.231  1.00  0.00    -0.131 OA 
HETATM   18  C   UNL     1      -9.388  10.687  66.493  1.00  0.00    -0.167 C  
ENDBRANCH   6  17
ENDBRANCH   2   3
TORSDOF 4
ENDMDL
MODEL      206
REMARK 921   NORMALIZED FREE ENERGY PREDICTED BY IDOCK:   -2.48 KCAL/MOL
REMARK 922        TOTAL FREE ENERGY PREDICTED BY IDOCK:   -3.19 KCAL/MOL
REMARK 923 INTER-LIGAND FREE ENERGY PREDICTED BY IDOCK:   -2.88 KCAL/MOL
REMARK 924 INTRA-LIGAND FREE ENERGY PREDICTED BY IDOCK:   -0.31 KCAL/MOL
REMARK 927      BINDING AFFINITY PREDICTED BY RF-SCORE:    0.00 PKD
ROOT
HETATM    1  C   UNL     1      -7.484   6.648  63.453  1.00  0.00    -0.079 C  
HETATM    2  O   UNL     1      -7.768   5.586  64.359  1.00  0.00    -0.082 OA 
ENDROOT
BRANCH   2   3
HETATM    3  C   UNL     1      -8.633   5.896  65.374  1.00  0.00    -0.137 A  
HETATM    4  C   UNL     1      -8.630   7.097  66.079  1.00  0.00    -0.158 A  
HETATM    5  C   UNL     1      -9.543   7.339  67.128  1.00  0.00    -0.203 A  
HETATM    6  C   UNL     1     -10.480   6.339  67.444  1.00  0.00    -0.248 A  
HETATM    7  C   UNL     1     -10.510   5.149  66.703  1.00  0.00    -0.328 A  
HETATM    8  C   UNL     1      -9.588   4.934  65.675  1.00  0.00    -0.168 A  
BRANCH   5   9
HETATM    9  C   UNL     1      -9.510   8.656  67.890  1.00  0.00    -0.139 C  
HETATM   10  H   UNL     1      -8.213   9.650  69.011  1.00  0.00     0.000 HD 
HETATM   11  O   UNL     1      -8.234   8.828  68.535  1.00  0.00    -0.115 OA 
BRANCH   9  12
HETATM   12  C   UNL     1      -9.837   9.907  67.014  1.00  0.00    -0.191 C  
HETATM   13  C   UNL     1     -11.148  10.561  67.469  1.00  0.00    -0.358 C  
HETATM   14  N   UNL     1      -8.784  10.947  67.055  1.00  0.00    -0.139 NA 
HETATM   15  H1  UNL     1      -8.998  11.764  66.483  1.00  0.00     0.000 HD 
HETATM   16  H2  UNL     1      -7.878  10.555  66.799  1.00  0.00     0.000 HD 
ENDBRANCH   9  12
ENDBRANCH   5   9
BRANCH   6  17
HETATM   17  O   UNL     1     -11.361   6.613  68.459  1.00  0.00    -0.196 OA 
HETATM   18  C   UNL     1     -11.121   5.918  69.679  1.00  0.00    -0.343 C  
ENDBRANCH   6  17
ENDBRANCH   2   3
TORSDOF 4
ENDMDL
MODEL      207
REMARK 921   NORMALIZED FREE ENERGY PREDICTED BY IDOCK:   -2.48 KCAL/MOL
REMARK 922        TOTAL FREE ENERGY PREDICTED BY IDOCK:   -3.19 KCAL/MOL
REMARK 923 INTER-LIGAND FREE ENERGY PREDICTED BY IDOCK:   -3.38 KCAL/MOL
REMARK 924 INTRA-LIGAND FREE ENERGY PREDICTED BY IDOCK:    0.19 KCAL/MOL
REMARK 927      BINDING AFFINITY PREDICTED BY RF-SCORE:    0.00 PKD
ROOT
HETATM    1  C   UNL     1     -10.508   7.956  66.883  1.00  0.00    -0.318 C  
HETATM    2  O   UNL     1     -11.059   6.643  66.901  1.00  0.00    -0.400 OA 
ENDROOT
BRANCH   2   3
HETATM    3  C   UNL     1     -10.510   5.787  67.817  1.00  0.00    -0.226 A  
HETATM    4  C   UNL     1     -10.478   6.011  69.191  1.00  0.00    -0.321 A  
HETATM    5  C   UNL     1      -9.877   5.090  70.076  1.00  0.00    -0.298 A  
HETATM    6  C   UNL     1      -9.317   3.917  69.541  1.00  0.00    -0.176 A  
HETATM    7  C   UNL     1      -9.390   3.671  68.163  1.00  0.00    -0.236 A  
HETATM    8  C   UNL     1      -9.984   4.606  67.310  1.00  0.00    -0.203 A  
BRANCH   5   9
HETATM    9  C   UNL     1      -9.846   5.367  71.572  1.00  0.00    -0.168 C  
HETATM   10  H   UNL     1      -8.467   5.580  72.979  1.00  0.00     0.000 HD 
HETATM   11  O   UNL     1      -8.486   5.407  72.045  1.00  0.00    -0.124 OA 
BRANCH   9  12
HETATM   12  C   UNL     1     -10.596   6.670  71.995  1.00  0.00    -0.211 C  
HETATM   13  C   UNL     1     -12.085   6.387  72.232  1.00  0.00    -0.252 C  
HETATM   14  N   UNL     1     -10.058   7.286  73.229  1.00  0.00    -0.260 NA 
HETATM   15  H1  UNL     1     -10.548   8.137  73.505  1.00  0.00     0.000 HD 
HETATM   16  H2  UNL     1      -9.057   7.459  73.141  1.00  0.00     0.000 HD 
ENDBRANCH   9  12
ENDBRANCH   5   9
BRANCH   6  17
HETATM   17  O   UNL     1      -8.754   3.037  70.430  1.00  0.00    -0.060 OA 
HETATM   18  C   UNL     1      -9.647   2.073  70.981  1.00  0.00    -0.126 C  
ENDBRANCH   6  17
ENDBRANCH   2   3
TORSDOF 4
ENDMDL
MODEL      208
REMARK 921   NORMALIZED FREE ENERGY PREDICTED BY IDOCK:   -2.45 KCAL/MOL
REMARK 922        TOTAL FREE ENERGY PREDICTED BY IDOCK:   -3.16 KCAL/MOL
REMARK 923 INTER-LIGAND FREE ENERGY PREDICTED BY IDOCK:   -3.20 KCAL/MOL
REMARK 924 INTRA-LIGAND FREE ENERGY PREDICTED BY IDOCK:    0.04 KCAL/MOL
REMARK 927      BINDING AFFINITY PREDICTED BY RF-SCORE:    0.00 PKD
ROOT
HETATM    1  C   UNL     1     -10.168  16.992  68.666  1.00  0.00    -0.321 C  
HETATM    2  O   UNL     1      -9.358  16.454  67.626  1.00  0.00    -0.210 OA 
ENDROOT
BRANCH   2   3
HETATM    3  C   UNL     1      -9.094  15.113  67.721  1.00  0.00    -0.179 A  
HETATM    4  C   UNL     1      -9.722  14.127  66.963  1.00  0.00    -0.258 A  
HETATM    5  C   UNL     1      -9.411  12.760  67.129  1.00  0.00    -0.223 A  
HETATM    6  C   UNL     1      -8.432  12.406  68.073  1.00  0.00    -0.176 A  
HETATM    7  C   UNL     1      -7.769  13.403  68.802  1.00  0.00    -0.037 A  
HETATM    8  C   UNL     1      -8.104  14.749  68.624  1.00  0.00    -0.153 A  
BRANCH   5   9
HETATM    9  C   UNL     1     -10.122  11.703  66.296  1.00  0.00    -0.221 C  
HETATM   10  H   UNL     1     -11.545  11.657  64.919  1.00  0.00     0.000 HD 
HETATM   11  O   UNL     1     -11.102  12.317  65.438  1.00  0.00    -0.293 OA 
BRANCH   9  12
HETATM   12  C   UNL     1      -9.162  10.807  65.451  1.00  0.00    -0.205 C  
HETATM   13  C   UNL     1      -9.636   9.348  65.456  1.00  0.00    -0.328 C  
HETATM   14  N   UNL     1      -9.049  11.232  64.037  1.00  0.00    -0.405 NA 
HETATM   15  H1  UNL     1      -8.422  10.647  63.485  1.00  0.00     0.000 HD 
HETATM   16  H2  UNL     1      -8.775  12.212  63.975  1.00  0.00     0.000 HD 
ENDBRANCH   9  12
ENDBRANCH   5   9
BRANCH   6  17
HETATM   17  O   UNL     1      -8.145  11.070  68.198  1.00  0.00    -0.112 OA 
HETATM   18  C   UNL     1      -8.177  10.561  69.528  1.00  0.00    -0.079 C  
ENDBRANCH   6  17
ENDBRANCH   2   3
TORSDOF 4
ENDMDL
MODEL      209
REMARK 921   NORMALIZED FREE ENERGY PREDICTED BY IDOCK:   -2.44 KCAL/MOL
REMARK 922        TOTAL FREE ENERGY PREDICTED BY IDOCK:   -3.14 KCAL/MOL
REMARK 923 INTER-LIGAND FREE ENERGY PREDICTED BY IDOCK:   -2.99 KCAL/MOL
REMARK 924 INTRA-LIGAND FREE ENERGY PREDICTED BY IDOCK:   -0.15 KCAL/MOL
REMARK 927      BINDING AFFINITY PREDICTED BY RF-SCORE:    0.00 PKD
ROOT
HETATM    1  C   UNL     1     -10.134   5.537  72.954  1.00  0.00    -0.176 C  
HETATM    2  O   UNL     1      -9.376   6.320  72.037  1.00  0.00    -0.152 OA 
ENDROOT
BRANCH   2   3
HETATM    3  C   UNL     1      -9.780   6.250  70.730  1.00  0.00    -0.180 A  
HETATM    4  C   UNL     1     -10.081   7.352  69.934  1.00  0.00    -0.195 A  
HETATM    5  C   UNL     1     -10.510   7.202  68.597  1.00  0.00    -0.218 A  
HETATM    6  C   UNL     1     -10.615   5.903  68.070  1.00  0.00    -0.252 A  
HETATM    7  C   UNL     1     -10.267   4.797  68.859  1.00  0.00    -0.081 A  
HETATM    8  C   UNL     1      -9.854   4.976  70.183  1.00  0.00    -0.303 A  
BRANCH   5   9
HETATM    9  C   UNL     1     -10.844   8.424  67.754  1.00  0.00     0.009 C  
HETATM   10  H   UNL     1     -11.137  10.359  68.058  1.00  0.00     0.000 HD 
HETATM   11  O   UNL     1     -10.928   9.597  68.584  1.00  0.00    -0.195 OA 
BRANCH   9  12
HETATM   12  C   UNL     1      -9.852   8.675  66.575  1.00  0.00    -0.278 C  
HETATM   13  C   UNL     1     -10.091  10.054  65.947  1.00  0.00    -0.319 C  
HETATM   14  N   UNL     1      -8.428   8.612  66.978  1.00  0.00    -0.109 NA 
HETATM   15  H1  UNL     1      -7.780   8.776  66.208  1.00  0.00     0.000 HD 
HETATM   16  H2  UNL     1      -8.222   7.726  67.441  1.00  0.00     0.000 HD 
ENDBRANCH   9  12
ENDBRANCH   5   9
BRANCH   6  17
HETATM   17  O   UNL     1     -11.020   5.794  66.764  1.00  0.00    -0.280 OA 
HETATM   18  C   UNL     1     -10.520   4.659  66.064  1.00  0.00    -0.264 C  
ENDBRANCH   6  17
ENDBRANCH   2   3
TORSDOF 4
ENDMDL
MODEL      210
REMARK 921   NORMALIZED FREE ENERGY PREDICTED BY IDOCK:   -2.39 KCAL/MOL
REMARK 922        TOTAL FREE ENERGY PREDICTED BY IDOCK:   -3.08 KCAL/MOL
REMARK 923 INTER-LIGAND FREE ENERGY PREDICTED BY IDOCK:   -2.78 KCAL/MOL
REMARK 924 INTRA-LIGAND FREE ENERGY PREDICTED BY IDOCK:   -0.30 KCAL/MOL
REMARK 927      BINDING AFFINITY PREDICTED BY RF-SCORE:    0.00 PKD
ROOT
HETATM    1  C   UNL     1      -9.613   8.676  66.914  1.00  0.00    -0.194 C  
HETATM    2  O   UNL     1      -8.277   8.576  67.395  1.00  0.00    -0.108 OA 
ENDROOT
BRANCH   2   3
HETATM    3  C   UNL     1      -8.142   8.564  68.758  1.00  0.00    -0.120 A  
HETATM    4  C   UNL     1      -9.098   8.076  69.644  1.00  0.00    -0.152 A  
HETATM    5  C   UNL     1      -8.897   8.114  71.041  1.00  0.00    -0.163 A  
HETATM    6  C   UNL     1      -7.690   8.644  71.529  1.00  0.00    -0.118 A  
HETATM    7  C   UNL     1      -6.709   9.092  70.633  1.00  0.00    -0.064 A  
HETATM    8  C   UNL     1      -6.940   9.051  69.255  1.00  0.00    -0.057 A  
BRANCH   5   9
HETATM    9  C   UNL     1      -9.965   7.585  71.988  1.00  0.00    -0.175 C  
HETATM   10  H   UNL     1     -11.486   8.328  73.018  1.00  0.00     0.000 HD 
HETATM   11  O   UNL     1     -10.819   8.658  72.427  1.00  0.00    -0.343 OA 
BRANCH   9  12
HETATM   12  C   UNL     1     -10.827   6.427  71.393  1.00  0.00    -0.253 C  
HETATM   13  C   UNL     1     -10.985   5.289  72.409  1.00  0.00    -0.273 C  
HETATM   14  N   UNL     1     -12.187   6.852  70.987  1.00  0.00    -0.387 NA 
HETATM   15  H1  UNL     1     -12.750   6.096  70.598  1.00  0.00     0.000 HD 
HETATM   16  H2  UNL     1     -12.142   7.638  70.339  1.00  0.00     0.000 HD 
ENDBRANCH   9  12
ENDBRANCH   5   9
BRANCH   6  17
HETATM   17  O   UNL     1      -7.521   8.651  72.891  1.00  0.00    -0.335 OA 
HETATM   18  C   UNL     1      -6.176   8.796  73.337  1.00  0.00    -0.037 C  
ENDBRANCH   6  17
ENDBRANCH   2   3
TORSDOF 4
ENDMDL
MODEL      211
REMARK 921   NORMALIZED FREE ENERGY PREDICTED BY IDOCK:   -2.39 KCAL/MOL
REMARK 922        TOTAL FREE ENERGY PREDICTED BY IDOCK:   -3.08 KCAL/MOL
REMARK 923 INTER-LIGAND FREE ENERGY PREDICTED BY IDOCK:   -2.68 KCAL/MOL
REMARK 924 INTRA-LIGAND FREE ENERGY PREDICTED BY IDOCK:   -0.39 KCAL/MOL
REMARK 927      BINDING AFFINITY PREDICTED BY RF-SCORE:    0.00 PKD
ROOT
HETATM    1  C   UNL     1     -11.830   9.045  71.946  1.00  0.00    -0.376 C  
HETATM    2  O   UNL     1     -10.407   9.069  71.898  1.00  0.00    -0.341 OA 
ENDROOT
BRANCH   2   3
HETATM    3  C   UNL     1      -9.845   8.451  70.813  1.00  0.00    -0.182 A  
HETATM    4  C   UNL     1      -9.424   7.124  70.786  1.00  0.00    -0.164 A  
HETATM    5  C   UNL     1      -8.835   6.560  69.634  1.00  0.00    -0.138 A  
HETATM    6  C   UNL     1      -8.693   7.366  68.491  1.00  0.00    -0.127 A  
HETATM    7  C   UNL     1      -9.160   8.688  68.506  1.00  0.00    -0.138 A  
HETATM    8  C   UNL     1      -9.731   9.223  69.664  1.00  0.00    -0.192 A  
BRANCH   5   9
HETATM    9  C   UNL     1      -8.372   5.110  69.638  1.00  0.00    -0.093 C  
HETATM   10  H   UNL     1      -7.358   3.914  70.849  1.00  0.00     0.000 HD 
HETATM   11  O   UNL     1      -7.646   4.819  70.847  1.00  0.00    -0.065 OA 
BRANCH   9  12
HETATM   12  C   UNL     1      -9.524   4.073  69.445  1.00  0.00    -0.189 C  
HETATM   13  C   UNL     1      -9.325   3.273  68.151  1.00  0.00    -0.244 C  
HETATM   14  N   UNL     1      -9.633   3.099  70.556  1.00  0.00    -0.162 NA 
HETATM   15  H1  UNL     1     -10.385   2.422  70.431  1.00  0.00     0.000 HD 
HETATM   16  H2  UNL     1      -9.726   3.581  71.451  1.00  0.00     0.000 HD 
ENDBRANCH   9  12
ENDBRANCH   5   9
BRANCH   6  17
HETATM   17  O   UNL     1      -8.131   6.781  67.385  1.00  0.00    -0.116 OA 
HETATM   18  C   UNL     1      -9.019   6.563  66.293  1.00  0.00    -0.156 C  
ENDBRANCH   6  17
ENDBRANCH   2   3
TORSDOF 4
ENDMDL
MODEL      212
REMARK 921   NORMALIZED FREE ENERGY PREDICTED BY IDOCK:   -2.39 KCAL/MOL
REMARK 922        TOTAL FREE ENERGY PREDICTED BY IDOCK:   -3.07 KCAL/MOL
REMARK 923 INTER-LIGAND FREE ENERGY PREDICTED BY IDOCK:   -3.89 KCAL/MOL
REMARK 924 INTRA-LIGAND FREE ENERGY PREDICTED BY IDOCK:    0.82 KCAL/MOL
REMARK 927      BINDING AFFINITY PREDICTED BY RF-SCORE:    0.00 PKD
ROOT
HETATM    1  C   UNL     1      -9.665   4.577  70.582  1.00  0.00    -0.212 C  
HETATM    2  O   UNL     1     -10.566   5.261  69.717  1.00  0.00    -0.307 OA 
ENDROOT
BRANCH   2   3
HETATM    3  C   UNL     1     -10.922   6.521  70.117  1.00  0.00    -0.317 A  
HETATM    4  C   UNL     1     -10.537   7.695  69.473  1.00  0.00    -0.227 A  
HETATM    5  C   UNL     1     -10.928   8.963  69.954  1.00  0.00    -0.190 A  
HETATM    6  C   UNL     1     -11.738   9.023  71.102  1.00  0.00    -0.302 A  
HETATM    7  C   UNL     1     -12.162   7.839  71.721  1.00  0.00    -0.338 A  
HETATM    8  C   UNL     1     -11.752   6.597  71.228  1.00  0.00    -0.386 A  
BRANCH   5   9
HETATM    9  C   UNL     1     -10.482  10.230  69.238  1.00  0.00    -0.228 C  
HETATM   10  H   UNL     1     -10.726  12.183  69.459  1.00  0.00     0.000 HD 
HETATM   11  O   UNL     1     -11.004  11.393  69.907  1.00  0.00    -0.140 OA 
BRANCH   9  12
HETATM   12  C   UNL     1      -8.935  10.358  69.074  1.00  0.00    -0.179 C  
HETATM   13  C   UNL     1      -8.548  11.783  68.660  1.00  0.00    -0.062 C  
HETATM   14  N   UNL     1      -8.183  10.035  70.308  1.00  0.00    -0.366 NA 
HETATM   15  H1  UNL     1      -7.172  10.118  70.202  1.00  0.00     0.000 HD 
HETATM   16  H2  UNL     1      -8.433   9.108  70.652  1.00  0.00     0.000 HD 
ENDBRANCH   9  12
ENDBRANCH   5   9
BRANCH   6  17
HETATM   17  O   UNL     1     -12.112  10.270  71.533  1.00  0.00    -0.370 OA 
HETATM   18  C   UNL     1     -13.396  10.343  72.146  1.00  0.00    -0.269 C  
ENDBRANCH   6  17
ENDBRANCH   2   3
TORSDOF 4
ENDMDL
MODEL      213
REMARK 921   NORMALIZED FREE ENERGY PREDICTED BY IDOCK:   -2.38 KCAL/MOL
REMARK 922        TOTAL FREE ENERGY PREDICTED BY IDOCK:   -3.06 KCAL/MOL
REMARK 923 INTER-LIGAND FREE ENERGY PREDICTED BY IDOCK:   -2.76 KCAL/MOL
REMARK 924 INTRA-LIGAND FREE ENERGY PREDICTED BY IDOCK:   -0.30 KCAL/MOL
REMARK 927      BINDING AFFINITY PREDICTED BY RF-SCORE:    0.00 PKD
ROOT
HETATM    1  C   UNL     1     -11.739   6.619  71.565  1.00  0.00    -0.321 C  
HETATM    2  O   UNL     1     -11.954   6.097  70.258  1.00  0.00    -0.138 OA 
ENDROOT
BRANCH   2   3
HETATM    3  C   UNL     1     -11.005   6.431  69.329  1.00  0.00    -0.356 A  
HETATM    4  C   UNL     1     -10.904   7.675  68.712  1.00  0.00    -0.025 A  
HETATM    5  C   UNL     1      -9.909   7.942  67.747  1.00  0.00    -0.204 A  
HETATM    6  C   UNL     1      -8.999   6.921  67.425  1.00  0.00    -0.116 A  
HETATM    7  C   UNL     1      -9.074   5.684  68.080  1.00  0.00    -0.111 A  
HETATM    8  C   UNL     1     -10.075   5.445  69.026  1.00  0.00    -0.283 A  
BRANCH   5   9
HETATM    9  C   UNL     1      -9.830   9.308  67.079  1.00  0.00    -0.198 C  
HETATM   10  H   UNL     1     -10.516  10.155  65.425  1.00  0.00     0.000 HD 
HETATM   11  O   UNL     1     -10.565   9.303  65.841  1.00  0.00     0.140 OA 
BRANCH   9  12
HETATM   12  C   UNL     1     -10.313  10.487  67.982  1.00  0.00    -0.181 C  
HETATM   13  C   UNL     1      -9.262  11.602  68.028  1.00  0.00    -0.178 C  
HETATM   14  N   UNL     1     -11.585  11.094  67.528  1.00  0.00    -0.561 NA 
HETATM   15  H1  UNL     1     -11.901  11.864  68.118  1.00  0.00     0.000 HD 
HETATM   16  H2  UNL     1     -12.314  10.385  67.440  1.00  0.00     0.000 HD 
ENDBRANCH   9  12
ENDBRANCH   5   9
BRANCH   6  17
HETATM   17  O   UNL     1      -8.036   7.219  66.494  1.00  0.00    -0.109 OA 
HETATM   18  C   UNL     1      -8.275   6.709  65.186  1.00  0.00    -0.118 C  
ENDBRANCH   6  17
ENDBRANCH   2   3
TORSDOF 4
ENDMDL
MODEL      214
REMARK 921   NORMALIZED FREE ENERGY PREDICTED BY IDOCK:   -2.35 KCAL/MOL
REMARK 922        TOTAL FREE ENERGY PREDICTED BY IDOCK:   -3.03 KCAL/MOL
REMARK 923 INTER-LIGAND FREE ENERGY PREDICTED BY IDOCK:   -3.13 KCAL/MOL
REMARK 924 INTRA-LIGAND FREE ENERGY PREDICTED BY IDOCK:    0.10 KCAL/MOL
REMARK 927      BINDING AFFINITY PREDICTED BY RF-SCORE:    0.00 PKD
ROOT
HETATM    1  C   UNL     1     -11.317   4.649  73.417  1.00  0.00    -0.305 C  
HETATM    2  O   UNL     1     -10.919   5.892  72.850  1.00  0.00    -0.240 OA 
ENDROOT
BRANCH   2   3
HETATM    3  C   UNL     1     -10.862   5.922  71.482  1.00  0.00    -0.266 A  
HETATM    4  C   UNL     1      -9.945   5.212  70.711  1.00  0.00    -0.285 A  
HETATM    5  C   UNL     1      -9.935   5.307  69.302  1.00  0.00    -0.285 A  
HETATM    6  C   UNL     1     -10.890   6.130  68.680  1.00  0.00    -0.332 A  
HETATM    7  C   UNL     1     -11.841   6.808  69.456  1.00  0.00     0.037 A  
HETATM    8  C   UNL     1     -11.822   6.703  70.849  1.00  0.00    -0.434 A  
BRANCH   5   9
HETATM    9  C   UNL     1      -8.914   4.529  68.485  1.00  0.00    -0.112 C  
HETATM   10  H   UNL     1      -8.928   3.329  66.909  1.00  0.00     0.000 HD 
HETATM   11  O   UNL     1      -9.565   3.815  67.419  1.00  0.00    -0.198 OA 
BRANCH   9  12
HETATM   12  C   UNL     1      -7.756   5.406  67.911  1.00  0.00    -0.092 C  
HETATM   13  C   UNL     1      -6.494   5.271  68.771  1.00  0.00    -0.039 C  
HETATM   14  N   UNL     1      -7.386   5.056  66.520  1.00  0.00    -0.084 NA 
HETATM   15  H1  UNL     1      -6.630   5.629  66.144  1.00  0.00     0.000 HD 
HETATM   16  H2  UNL     1      -8.202   5.090  65.909  1.00  0.00     0.000 HD 
ENDBRANCH   9  12
ENDBRANCH   5   9
BRANCH   6  17
HETATM   17  O   UNL     1     -10.861   6.188  67.310  1.00  0.00    -0.296 OA 
HETATM   18  C   UNL     1     -10.598   7.475  66.760  1.00  0.00    -0.198 C  
ENDBRANCH   6  17
ENDBRANCH   2   3
TORSDOF 4
ENDMDL
MODEL      215
REMARK 921   NORMALIZED FREE ENERGY PREDICTED BY IDOCK:   -2.33 KCAL/MOL
REMARK 922        TOTAL FREE ENERGY PREDICTED BY IDOCK:   -3.00 KCAL/MOL
REMARK 923 INTER-LIGAND FREE ENERGY PREDICTED BY IDOCK:   -2.68 KCAL/MOL
REMARK 924 INTRA-LIGAND FREE ENERGY PREDICTED BY IDOCK:   -0.33 KCAL/MOL
REMARK 927      BINDING AFFINITY PREDICTED BY RF-SCORE:    0.00 PKD
ROOT
HETATM    1  C   UNL     1      -9.771   5.660  65.745  1.00  0.00     0.087 C  
HETATM    2  O   UNL     1      -9.068   5.401  66.956  1.00  0.00    -0.113 OA 
ENDROOT
BRANCH   2   3
HETATM    3  C   UNL     1      -9.266   6.314  67.958  1.00  0.00    -0.116 A  
HETATM    4  C   UNL     1      -8.967   7.671  67.864  1.00  0.00    -0.128 A  
HETATM    5  C   UNL     1      -9.182   8.550  68.948  1.00  0.00    -0.146 A  
HETATM    6  C   UNL     1      -9.725   8.029  70.135  1.00  0.00    -0.176 A  
HETATM    7  C   UNL     1     -10.068   6.672  70.211  1.00  0.00    -0.201 A  
HETATM    8  C   UNL     1      -9.836   5.822  69.125  1.00  0.00    -0.211 A  
BRANCH   5   9
HETATM    9  C   UNL     1      -8.834  10.026  68.822  1.00  0.00    -0.137 C  
HETATM   10  H   UNL     1      -7.533  11.129  67.814  1.00  0.00     0.000 HD 
HETATM   11  O   UNL     1      -7.749  10.207  67.892  1.00  0.00    -0.089 OA 
BRANCH   9  12
HETATM   12  C   UNL     1     -10.040  10.932  68.417  1.00  0.00    -0.183 C  
HETATM   13  C   UNL     1     -10.000  11.252  66.917  1.00  0.00    -0.238 C  
HETATM   14  N   UNL     1     -11.358  10.324  68.707  1.00  0.00    -0.437 NA 
HETATM   15  H1  UNL     1     -12.146  10.916  68.443  1.00  0.00     0.000 HD 
HETATM   16  H2  UNL     1     -11.424  10.053  69.688  1.00  0.00     0.000 HD 
ENDBRANCH   9  12
ENDBRANCH   5   9
BRANCH   6  17
HETATM   17  O   UNL     1      -9.935   8.914  71.162  1.00  0.00    -0.221 OA 
HETATM   18  C   UNL     1     -11.085   8.657  71.962  1.00  0.00    -0.367 C  
ENDBRANCH   6  17
ENDBRANCH   2   3
TORSDOF 4
ENDMDL
MODEL      216
REMARK 921   NORMALIZED FREE ENERGY PREDICTED BY IDOCK:   -2.31 KCAL/MOL
REMARK 922        TOTAL FREE ENERGY PREDICTED BY IDOCK:   -2.98 KCAL/MOL
REMARK 923 INTER-LIGAND FREE ENERGY PREDICTED BY IDOCK:   -3.18 KCAL/MOL
REMARK 924 INTRA-LIGAND FREE ENERGY PREDICTED BY IDOCK:    0.20 KCAL/MOL
REMARK 927      BINDING AFFINITY PREDICTED BY RF-SCORE:    0.00 PKD
ROOT
HETATM    1  C   UNL     1     -11.310  12.242  68.930  1.00  0.00    -0.287 C  
HETATM    2  O   UNL     1     -11.327  11.607  67.656  1.00  0.00    -0.260 OA 
ENDROOT
BRANCH   2   3
HETATM    3  C   UNL     1     -10.802  10.342  67.623  1.00  0.00    -0.306 A  
HETATM    4  C   UNL     1     -10.987   9.382  68.615  1.00  0.00    -0.075 A  
HETATM    5  C   UNL     1     -10.399   8.102  68.521  1.00  0.00    -0.230 A  
HETATM    6  C   UNL     1      -9.625   7.802  67.386  1.00  0.00    -0.151 A  
HETATM    7  C   UNL     1      -9.478   8.755  66.368  1.00  0.00    -0.291 A  
HETATM    8  C   UNL     1     -10.065  10.018  66.492  1.00  0.00    -0.296 A  
BRANCH   5   9
HETATM    9  C   UNL     1     -10.607   7.076  69.626  1.00  0.00    -0.234 C  
HETATM   10  H   UNL     1     -11.014   5.141  69.750  1.00  0.00     0.000 HD 
HETATM   11  O   UNL     1     -10.884   5.781  69.060  1.00  0.00    -0.290 OA 
BRANCH   9  12
HETATM   12  C   UNL     1      -9.419   6.974  70.633  1.00  0.00    -0.165 C  
HETATM   13  C   UNL     1      -9.647   7.895  71.838  1.00  0.00    -0.226 C  
HETATM   14  N   UNL     1      -9.203   5.605  71.156  1.00  0.00    -0.148 NA 
HETATM   15  H1  UNL     1      -8.427   5.538  71.814  1.00  0.00     0.000 HD 
HETATM   16  H2  UNL     1      -9.086   4.940  70.391  1.00  0.00     0.000 HD 
ENDBRANCH   9  12
ENDBRANCH   5   9
BRANCH   6  17
HETATM   17  O   UNL     1      -9.080   6.545  67.321  1.00  0.00    -0.117 OA 
HETATM   18  C   UNL     1      -7.670   6.482  67.507  1.00  0.00    -0.106 C  
ENDBRANCH   6  17
ENDBRANCH   2   3
TORSDOF 4
ENDMDL
MODEL      217
REMARK 921   NORMALIZED FREE ENERGY PREDICTED BY IDOCK:   -2.27 KCAL/MOL
REMARK 922        TOTAL FREE ENERGY PREDICTED BY IDOCK:   -2.93 KCAL/MOL
REMARK 923 INTER-LIGAND FREE ENERGY PREDICTED BY IDOCK:   -2.71 KCAL/MOL
REMARK 924 INTRA-LIGAND FREE ENERGY PREDICTED BY IDOCK:   -0.22 KCAL/MOL
REMARK 927      BINDING AFFINITY PREDICTED BY RF-SCORE:    0.00 PKD
ROOT
HETATM    1  C   UNL     1     -10.998   4.478  73.536  1.00  0.00    -0.306 C  
HETATM    2  O   UNL     1     -10.257   5.661  73.254  1.00  0.00    -0.178 OA 
ENDROOT
BRANCH   2   3
HETATM    3  C   UNL     1     -10.123   5.968  71.926  1.00  0.00    -0.192 A  
HETATM    4  C   UNL     1      -9.635   7.177  71.438  1.00  0.00    -0.163 A  
HETATM    5  C   UNL     1      -9.542   7.430  70.052  1.00  0.00    -0.168 A  
HETATM    6  C   UNL     1      -9.942   6.421  69.159  1.00  0.00    -0.149 A  
HETATM    7  C   UNL     1     -10.390   5.187  69.653  1.00  0.00    -0.316 A  
HETATM    8  C   UNL     1     -10.480   4.968  71.030  1.00  0.00    -0.211 A  
BRANCH   5   9
HETATM    9  C   UNL     1      -9.016   8.766  69.546  1.00  0.00    -0.145 C  
HETATM   10  H   UNL     1      -9.140  10.670  70.082  1.00  0.00     0.000 HD 
HETATM   11  O   UNL     1      -9.468   9.836  70.397  1.00  0.00    -0.247 OA 
BRANCH   9  12
HETATM   12  C   UNL     1      -7.463   8.824  69.398  1.00  0.00    -0.080 C  
HETATM   13  C   UNL     1      -6.863   9.863  70.354  1.00  0.00    -0.141 C  
HETATM   14  N   UNL     1      -6.795   7.531  69.672  1.00  0.00    -0.044 NA 
HETATM   15  H1  UNL     1      -5.780   7.568  69.575  1.00  0.00     0.000 HD 
HETATM   16  H2  UNL     1      -7.186   6.791  69.089  1.00  0.00     0.000 HD 
ENDBRANCH   9  12
ENDBRANCH   5   9
BRANCH   6  17
HETATM   17  O   UNL     1      -9.825   6.694  67.820  1.00  0.00    -0.121 OA 
HETATM   18  C   UNL     1     -10.386   5.719  66.947  1.00  0.00    -0.251 C  
ENDBRANCH   6  17
ENDBRANCH   2   3
TORSDOF 4
ENDMDL
MODEL      218
REMARK 921   NORMALIZED FREE ENERGY PREDICTED BY IDOCK:   -2.25 KCAL/MOL
REMARK 922        TOTAL FREE ENERGY PREDICTED BY IDOCK:   -2.91 KCAL/MOL
REMARK 923 INTER-LIGAND FREE ENERGY PREDICTED BY IDOCK:   -2.53 KCAL/MOL
REMARK 924 INTRA-LIGAND FREE ENERGY PREDICTED BY IDOCK:   -0.38 KCAL/MOL
REMARK 927      BINDING AFFINITY PREDICTED BY RF-SCORE:    0.00 PKD
ROOT
HETATM    1  C   UNL     1      -6.649   2.681  70.617  1.00  0.00    -0.032 C  
HETATM    2  O   UNL     1      -6.555   3.798  71.495  1.00  0.00    -0.024 OA 
ENDROOT
BRANCH   2   3
HETATM    3  C   UNL     1      -7.121   4.957  71.035  1.00  0.00    -0.052 A  
HETATM    4  C   UNL     1      -8.485   5.235  71.054  1.00  0.00    -0.122 A  
HETATM    5  C   UNL     1      -8.999   6.447  70.544  1.00  0.00    -0.151 A  
HETATM    6  C   UNL     1      -8.095   7.391  70.025  1.00  0.00    -0.129 A  
HETATM    7  C   UNL     1      -6.718   7.128  70.049  1.00  0.00    -0.051 A  
HETATM    8  C   UNL     1      -6.239   5.915  70.551  1.00  0.00    -0.031 A  
BRANCH   5   9
HETATM    9  C   UNL     1     -10.496   6.719  70.566  1.00  0.00    -0.209 C  
HETATM   10  H   UNL     1     -12.150   5.767  70.036  1.00  0.00     0.000 HD 
HETATM   11  O   UNL     1     -11.216   5.597  70.022  1.00  0.00    -0.267 OA 
BRANCH   9  12
HETATM   12  C   UNL     1     -11.058   7.079  71.978  1.00  0.00    -0.243 C  
HETATM   13  C   UNL     1     -10.957   8.588  72.235  1.00  0.00    -0.426 C  
HETATM   14  N   UNL     1     -12.474   6.690  72.166  1.00  0.00    -0.537 NA 
HETATM   15  H1  UNL     1     -12.841   6.924  73.088  1.00  0.00     0.000 HD 
HETATM   16  H2  UNL     1     -12.606   5.698  71.967  1.00  0.00     0.000 HD 
ENDBRANCH   9  12
ENDBRANCH   5   9
BRANCH   6  17
HETATM   17  O   UNL     1      -8.626   8.563  69.551  1.00  0.00    -0.128 OA 
HETATM   18  C   UNL     1      -7.786   9.707  69.676  1.00  0.00    -0.129 C  
ENDBRANCH   6  17
ENDBRANCH   2   3
TORSDOF 4
ENDMDL
MODEL      219
REMARK 921   NORMALIZED FREE ENERGY PREDICTED BY IDOCK:   -2.25 KCAL/MOL
REMARK 922        TOTAL FREE ENERGY PREDICTED BY IDOCK:   -2.90 KCAL/MOL
REMARK 923 INTER-LIGAND FREE ENERGY PREDICTED BY IDOCK:   -2.53 KCAL/MOL
REMARK 924 INTRA-LIGAND FREE ENERGY PREDICTED BY IDOCK:   -0.38 KCAL/MOL
REMARK 927      BINDING AFFINITY PREDICTED BY RF-SCORE:    0.00 PKD
ROOT
HETATM    1  C   UNL     1     -10.558   2.105  62.990  1.00  0.00    -0.168 C  
HETATM    2  O   UNL     1     -11.108   3.018  63.935  1.00  0.00    -0.228 OA 
ENDROOT
BRANCH   2   3
HETATM    3  C   UNL     1     -10.229   3.935  64.447  1.00  0.00    -0.230 A  
HETATM    4  C   UNL     1     -10.418   4.634  65.636  1.00  0.00    -0.260 A  
HETATM    5  C   UNL     1      -9.474   5.580  66.094  1.00  0.00    -0.166 A  
HETATM    6  C   UNL     1      -8.317   5.795  65.327  1.00  0.00    -0.146 A  
HETATM    7  C   UNL     1      -8.107   5.057  64.153  1.00  0.00    -0.119 A  
HETATM    8  C   UNL     1      -9.063   4.133  63.720  1.00  0.00    -0.140 A  
BRANCH   5   9
HETATM    9  C   UNL     1      -9.712   6.339  67.392  1.00  0.00    -0.120 C  
HETATM   10  H   UNL     1     -11.253   7.155  68.333  1.00  0.00     0.000 HD 
HETATM   11  O   UNL     1     -11.105   6.681  67.523  1.00  0.00    -0.321 OA 
BRANCH   9  12
HETATM   12  C   UNL     1      -9.226   5.585  68.669  1.00  0.00    -0.122 C  
HETATM   13  C   UNL     1      -8.142   6.391  69.396  1.00  0.00    -0.118 C  
HETATM   14  N   UNL     1     -10.308   5.316  69.644  1.00  0.00    -0.278 NA 
HETATM   15  H1  UNL     1      -9.990   4.823  70.479  1.00  0.00     0.000 HD 
HETATM   16  H2  UNL     1     -11.078   4.815  69.200  1.00  0.00     0.000 HD 
ENDBRANCH   9  12
ENDBRANCH   5   9
BRANCH   6  17
HETATM   17  O   UNL     1      -7.414   6.709  65.808  1.00  0.00    -0.077 OA 
HETATM   18  C   UNL     1      -6.047   6.319  65.724  1.00  0.00    -0.033 C  
ENDBRANCH   6  17
ENDBRANCH   2   3
TORSDOF 4
ENDMDL
MODEL      220
REMARK 921   NORMALIZED FREE ENERGY PREDICTED BY IDOCK:   -2.25 KCAL/MOL
REMARK 922        TOTAL FREE ENERGY PREDICTED BY IDOCK:   -2.90 KCAL/MOL
REMARK 923 INTER-LIGAND FREE ENERGY PREDICTED BY IDOCK:   -2.77 KCAL/MOL
REMARK 924 INTRA-LIGAND FREE ENERGY PREDICTED BY IDOCK:   -0.13 KCAL/MOL
REMARK 927      BINDING AFFINITY PREDICTED BY RF-SCORE:    0.00 PKD
ROOT
HETATM    1  C   UNL     1      -9.156   2.926  68.784  1.00  0.00    -0.153 C  
HETATM    2  O   UNL     1      -9.524   3.134  70.144  1.00  0.00    -0.162 OA 
ENDROOT
BRANCH   2   3
HETATM    3  C   UNL     1      -9.645   4.443  70.527  1.00  0.00    -0.199 A  
HETATM    4  C   UNL     1      -8.929   5.500  69.971  1.00  0.00    -0.149 A  
HETATM    5  C   UNL     1      -9.094   6.825  70.431  1.00  0.00    -0.153 A  
HETATM    6  C   UNL     1     -10.017   7.066  71.463  1.00  0.00    -0.180 A  
HETATM    7  C   UNL     1     -10.771   6.006  71.989  1.00  0.00    -0.281 A  
HETATM    8  C   UNL     1     -10.580   4.703  71.520  1.00  0.00    -0.013 A  
BRANCH   5   9
HETATM    9  C   UNL     1      -8.288   7.960  69.814  1.00  0.00    -0.127 C  
HETATM   10  H   UNL     1      -6.665   8.143  68.693  1.00  0.00     0.000 HD 
HETATM   11  O   UNL     1      -7.167   7.435  69.078  1.00  0.00    -0.080 OA 
BRANCH   9  12
HETATM   12  C   UNL     1      -9.125   8.913  68.903  1.00  0.00    -0.140 C  
HETATM   13  C   UNL     1     -10.364   8.193  68.355  1.00  0.00    -0.236 C  
HETATM   14  N   UNL     1      -9.592  10.134  69.599  1.00  0.00    -0.303 NA 
HETATM   15  H1  UNL     1     -10.139  10.757  69.004  1.00  0.00     0.000 HD 
HETATM   16  H2  UNL     1      -8.809  10.633  70.020  1.00  0.00     0.000 HD 
ENDBRANCH   9  12
ENDBRANCH   5   9
BRANCH   6  17
HETATM   17  O   UNL     1     -10.163   8.366  71.874  1.00  0.00    -0.219 OA 
HETATM   18  C   UNL     1     -11.504   8.844  71.921  1.00  0.00    -0.372 C  
ENDBRANCH   6  17
ENDBRANCH   2   3
TORSDOF 4
ENDMDL
MODEL      221
REMARK 921   NORMALIZED FREE ENERGY PREDICTED BY IDOCK:   -2.18 KCAL/MOL
REMARK 922        TOTAL FREE ENERGY PREDICTED BY IDOCK:   -2.82 KCAL/MOL
REMARK 923 INTER-LIGAND FREE ENERGY PREDICTED BY IDOCK:   -3.86 KCAL/MOL
REMARK 924 INTRA-LIGAND FREE ENERGY PREDICTED BY IDOCK:    1.04 KCAL/MOL
REMARK 927      BINDING AFFINITY PREDICTED BY RF-SCORE:    0.00 PKD
ROOT
HETATM    1  C   UNL     1      -7.506  11.223  67.860  1.00  0.00    -0.094 C  
HETATM    2  O   UNL     1      -7.391  10.248  68.891  1.00  0.00    -0.079 OA 
ENDROOT
BRANCH   2   3
HETATM    3  C   UNL     1      -8.527  10.031  69.625  1.00  0.00    -0.180 A  
HETATM    4  C   UNL     1      -9.779  10.559  69.320  1.00  0.00    -0.215 A  
HETATM    5  C   UNL     1     -10.904  10.307  70.136  1.00  0.00    -0.362 A  
HETATM    6  C   UNL     1     -10.741   9.490  71.268  1.00  0.00    -0.316 A  
HETATM    7  C   UNL     1      -9.489   8.923  71.546  1.00  0.00    -0.347 A  
HETATM    8  C   UNL     1      -8.391   9.197  70.726  1.00  0.00    -0.248 A  
BRANCH   5   9
HETATM    9  C   UNL     1     -12.259  10.907  69.786  1.00  0.00    -0.311 C  
HETATM   10  H   UNL     1     -14.157  10.565  70.238  1.00  0.00     0.000 HD 
HETATM   11  O   UNL     1     -13.312  10.190  70.457  1.00  0.00    -0.245 OA 
BRANCH   9  12
HETATM   12  C   UNL     1     -12.376  12.434  70.089  1.00  0.00    -0.136 C  
HETATM   13  C   UNL     1     -12.633  12.674  71.582  1.00  0.00    -0.186 C  
HETATM   14  N   UNL     1     -11.168  13.205  69.716  1.00  0.00    -0.488 NA 
HETATM   15  H1  UNL     1     -11.244  14.202  69.914  1.00  0.00     0.000 HD 
HETATM   16  H2  UNL     1     -10.926  13.048  68.738  1.00  0.00     0.000 HD 
ENDBRANCH   9  12
ENDBRANCH   5   9
BRANCH   6  17
HETATM   17  O   UNL     1     -11.857   9.254  72.029  1.00  0.00    -0.363 OA 
HETATM   18  C   UNL     1     -12.083   7.890  72.373  1.00  0.00    -0.286 C  
ENDBRANCH   6  17
ENDBRANCH   2   3
TORSDOF 4
ENDMDL
MODEL      222
REMARK 921   NORMALIZED FREE ENERGY PREDICTED BY IDOCK:   -2.16 KCAL/MOL
REMARK 922        TOTAL FREE ENERGY PREDICTED BY IDOCK:   -2.80 KCAL/MOL
REMARK 923 INTER-LIGAND FREE ENERGY PREDICTED BY IDOCK:   -2.63 KCAL/MOL
REMARK 924 INTRA-LIGAND FREE ENERGY PREDICTED BY IDOCK:   -0.17 KCAL/MOL
REMARK 927      BINDING AFFINITY PREDICTED BY RF-SCORE:    0.00 PKD
ROOT
HETATM    1  C   UNL     1     -11.163   4.465  73.377  1.00  0.00    -0.295 C  
HETATM    2  O   UNL     1     -11.105   5.555  72.463  1.00  0.00    -0.247 OA 
ENDROOT
BRANCH   2   3
HETATM    3  C   UNL     1     -10.086   5.503  71.550  1.00  0.00    -0.205 A  
HETATM    4  C   UNL     1     -10.176   4.906  70.295  1.00  0.00    -0.299 A  
HETATM    5  C   UNL     1      -9.075   4.875  69.412  1.00  0.00    -0.149 A  
HETATM    6  C   UNL     1      -7.873   5.480  69.819  1.00  0.00    -0.082 A  
HETATM    7  C   UNL     1      -7.798   6.120  71.065  1.00  0.00    -0.114 A  
HETATM    8  C   UNL     1      -8.902   6.127  71.922  1.00  0.00    -0.137 A  
BRANCH   5   9
HETATM    9  C   UNL     1      -9.198   4.205  68.051  1.00  0.00    -0.147 C  
HETATM   10  H   UNL     1      -9.530   2.379  67.359  1.00  0.00     0.000 HD 
HETATM   11  O   UNL     1      -9.454   2.797  68.208  1.00  0.00    -0.202 OA 
BRANCH   9  12
HETATM   12  C   UNL     1     -10.279   4.842  67.122  1.00  0.00    -0.162 C  
HETATM   13  C   UNL     1     -10.356   6.359  67.339  1.00  0.00    -0.257 C  
HETATM   14  N   UNL     1     -10.030   4.611  65.681  1.00  0.00    -0.227 NA 
HETATM   15  H1  UNL     1     -10.736   5.027  65.074  1.00  0.00     0.000 HD 
HETATM   16  H2  UNL     1      -9.929   3.615  65.487  1.00  0.00     0.000 HD 
ENDBRANCH   9  12
ENDBRANCH   5   9
BRANCH   6  17
HETATM   17  O   UNL     1      -6.828   5.444  68.931  1.00  0.00    -0.051 OA 
HETATM   18  C   UNL     1      -6.538   6.678  68.282  1.00  0.00    -0.059 C  
ENDBRANCH   6  17
ENDBRANCH   2   3
TORSDOF 4
ENDMDL
MODEL      223
REMARK 921   NORMALIZED FREE ENERGY PREDICTED BY IDOCK:   -2.12 KCAL/MOL
REMARK 922        TOTAL FREE ENERGY PREDICTED BY IDOCK:   -2.75 KCAL/MOL
REMARK 923 INTER-LIGAND FREE ENERGY PREDICTED BY IDOCK:   -2.44 KCAL/MOL
REMARK 924 INTRA-LIGAND FREE ENERGY PREDICTED BY IDOCK:   -0.31 KCAL/MOL
REMARK 927      BINDING AFFINITY PREDICTED BY RF-SCORE:    0.00 PKD
ROOT
HETATM    1  C   UNL     1      -7.581   9.266  69.204  1.00  0.00    -0.073 C  
HETATM    2  O   UNL     1      -6.927   8.015  69.386  1.00  0.00    -0.053 OA 
ENDROOT
BRANCH   2   3
HETATM    3  C   UNL     1      -7.672   7.046  70.004  1.00  0.00    -0.104 A  
HETATM    4  C   UNL     1      -7.847   6.939  71.381  1.00  0.00    -0.100 A  
HETATM    5  C   UNL     1      -8.616   5.900  71.949  1.00  0.00    -0.137 A  
HETATM    6  C   UNL     1      -9.225   4.971  71.088  1.00  0.00    -0.145 A  
HETATM    7  C   UNL     1      -9.085   5.108  69.699  1.00  0.00    -0.153 A  
HETATM    8  C   UNL     1      -8.310   6.141  69.166  1.00  0.00    -0.116 A  
BRANCH   5   9
HETATM    9  C   UNL     1      -8.780   5.800  73.459  1.00  0.00    -0.123 C  
HETATM   10  H   UNL     1      -7.717   6.260  75.066  1.00  0.00     0.000 HD 
HETATM   11  O   UNL     1      -7.614   6.323  74.124  1.00  0.00    -0.089 OA 
BRANCH   9  12
HETATM   12  C   UNL     1     -10.064   6.498  74.008  1.00  0.00    -0.326 C  
HETATM   13  C   UNL     1     -10.343   7.800  73.247  1.00  0.00    -0.364 C  
HETATM   14  N   UNL     1     -11.280   5.657  73.911  1.00  0.00    -0.362 NA 
HETATM   15  H1  UNL     1     -12.119   6.112  74.269  1.00  0.00     0.000 HD 
HETATM   16  H2  UNL     1     -11.134   4.757  74.368  1.00  0.00     0.000 HD 
ENDBRANCH   9  12
ENDBRANCH   5   9
BRANCH   6  17
HETATM   17  O   UNL     1      -9.977   3.984  71.672  1.00  0.00    -0.183 OA 
HETATM   18  C   UNL     1      -9.744   2.668  71.179  1.00  0.00    -0.111 C  
ENDBRANCH   6  17
ENDBRANCH   2   3
TORSDOF 4
ENDMDL
MODEL      224
REMARK 921   NORMALIZED FREE ENERGY PREDICTED BY IDOCK:   -2.12 KCAL/MOL
REMARK 922        TOTAL FREE ENERGY PREDICTED BY IDOCK:   -2.74 KCAL/MOL
REMARK 923 INTER-LIGAND FREE ENERGY PREDICTED BY IDOCK:   -2.40 KCAL/MOL
REMARK 924 INTRA-LIGAND FREE ENERGY PREDICTED BY IDOCK:   -0.34 KCAL/MOL
REMARK 927      BINDING AFFINITY PREDICTED BY RF-SCORE:    0.00 PKD
ROOT
HETATM    1  C   UNL     1      -9.122   2.024  69.072  1.00  0.00    -0.123 C  
HETATM    2  O   UNL     1      -9.631   3.103  69.849  1.00  0.00    -0.157 OA 
ENDROOT
BRANCH   2   3
HETATM    3  C   UNL     1      -9.461   4.349  69.306  1.00  0.00    -0.179 A  
HETATM    4  C   UNL     1      -8.451   4.693  68.411  1.00  0.00    -0.094 A  
HETATM    5  C   UNL     1      -8.328   6.005  67.906  1.00  0.00    -0.116 A  
HETATM    6  C   UNL     1      -9.265   6.970  68.315  1.00  0.00    -0.128 A  
HETATM    7  C   UNL     1     -10.308   6.611  69.180  1.00  0.00    -0.220 A  
HETATM    8  C   UNL     1     -10.400   5.305  69.671  1.00  0.00    -0.348 A  
BRANCH   5   9
HETATM    9  C   UNL     1      -7.206   6.356  66.939  1.00  0.00    -0.074 C  
HETATM   10  H   UNL     1      -5.306   5.858  66.681  1.00  0.00     0.000 HD 
HETATM   11  O   UNL     1      -6.006   5.639  67.284  1.00  0.00    -0.017 OA 
BRANCH   9  12
HETATM   12  C   UNL     1      -7.559   6.113  65.438  1.00  0.00    -0.087 C  
HETATM   13  C   UNL     1      -6.958   4.790  64.946  1.00  0.00    -0.061 C  
HETATM   14  N   UNL     1      -9.016   6.063  65.175  1.00  0.00    -0.369 NA 
HETATM   15  H1  UNL     1      -9.247   5.904  64.195  1.00  0.00     0.000 HD 
HETATM   16  H2  UNL     1      -9.475   6.905  65.522  1.00  0.00     0.000 HD 
ENDBRANCH   9  12
ENDBRANCH   5   9
BRANCH   6  17
HETATM   17  O   UNL     1      -9.124   8.231  67.793  1.00  0.00    -0.132 OA 
HETATM   18  C   UNL     1     -10.326   8.834  67.323  1.00  0.00    -0.290 C  
ENDBRANCH   6  17
ENDBRANCH   2   3
TORSDOF 4
ENDMDL
MODEL      225
REMARK 921   NORMALIZED FREE ENERGY PREDICTED BY IDOCK:   -2.08 KCAL/MOL
REMARK 922        TOTAL FREE ENERGY PREDICTED BY IDOCK:   -2.70 KCAL/MOL
REMARK 923 INTER-LIGAND FREE ENERGY PREDICTED BY IDOCK:   -2.36 KCAL/MOL
REMARK 924 INTRA-LIGAND FREE ENERGY PREDICTED BY IDOCK:   -0.34 KCAL/MOL
REMARK 927      BINDING AFFINITY PREDICTED BY RF-SCORE:    0.00 PKD
ROOT
HETATM    1  C   UNL     1      -5.919   3.291  69.883  1.00  0.00    -0.023 C  
HETATM    2  O   UNL     1      -6.015   4.335  68.920  1.00  0.00    -0.021 OA 
ENDROOT
BRANCH   2   3
HETATM    3  C   UNL     1      -7.142   4.316  68.142  1.00  0.00    -0.059 A  
HETATM    4  C   UNL     1      -8.155   5.271  68.192  1.00  0.00    -0.095 A  
HETATM    5  C   UNL     1      -9.299   5.176  67.371  1.00  0.00    -0.128 A  
HETATM    6  C   UNL     1      -9.394   4.095  66.477  1.00  0.00    -0.174 A  
HETATM    7  C   UNL     1      -8.352   3.161  66.396  1.00  0.00    -0.100 A  
HETATM    8  C   UNL     1      -7.234   3.275  67.228  1.00  0.00    -0.058 A  
BRANCH   5   9
HETATM    9  C   UNL     1     -10.397   6.227  67.455  1.00  0.00    -0.200 C  
HETATM   10  H   UNL     1     -11.918   6.642  68.655  1.00  0.00     0.000 HD 
HETATM   11  O   UNL     1     -11.233   5.986  68.602  1.00  0.00    -0.307 OA 
BRANCH   9  12
HETATM   12  C   UNL     1      -9.871   7.697  67.478  1.00  0.00    -0.165 C  
HETATM   13  C   UNL     1      -9.210   8.059  66.143  1.00  0.00    -0.219 C  
HETATM   14  N   UNL     1     -10.931   8.699  67.735  1.00  0.00    -0.487 NA 
HETATM   15  H1  UNL     1     -10.588   9.659  67.750  1.00  0.00     0.000 HD 
HETATM   16  H2  UNL     1     -11.433   8.482  68.596  1.00  0.00     0.000 HD 
ENDBRANCH   9  12
ENDBRANCH   5   9
BRANCH   6  17
HETATM   17  O   UNL     1     -10.512   4.042  65.684  1.00  0.00    -0.096 OA 
HETATM   18  C   UNL     1     -10.262   3.948  64.284  1.00  0.00    -0.226 C  
ENDBRANCH   6  17
ENDBRANCH   2   3
TORSDOF 4
ENDMDL
MODEL      226
REMARK 921   NORMALIZED FREE ENERGY PREDICTED BY IDOCK:   -2.08 KCAL/MOL
REMARK 922        TOTAL FREE ENERGY PREDICTED BY IDOCK:   -2.70 KCAL/MOL
REMARK 923 INTER-LIGAND FREE ENERGY PREDICTED BY IDOCK:   -2.45 KCAL/MOL
REMARK 924 INTRA-LIGAND FREE ENERGY PREDICTED BY IDOCK:   -0.25 KCAL/MOL
REMARK 927      BINDING AFFINITY PREDICTED BY RF-SCORE:    0.00 PKD
ROOT
HETATM    1  C   UNL     1      -9.286   2.216  72.324  1.00  0.00    -0.078 C  
HETATM    2  O   UNL     1     -10.027   3.426  72.443  1.00  0.00    -0.150 OA 
ENDROOT
BRANCH   2   3
HETATM    3  C   UNL     1      -9.568   4.474  71.691  1.00  0.00    -0.159 A  
HETATM    4  C   UNL     1     -10.343   5.558  71.287  1.00  0.00    -0.297 A  
HETATM    5  C   UNL     1      -9.804   6.595  70.495  1.00  0.00    -0.190 A  
HETATM    6  C   UNL     1      -8.449   6.524  70.129  1.00  0.00    -0.135 A  
HETATM    7  C   UNL     1      -7.659   5.455  70.576  1.00  0.00    -0.080 A  
HETATM    8  C   UNL     1      -8.222   4.437  71.352  1.00  0.00    -0.091 A  
BRANCH   5   9
HETATM    9  C   UNL     1     -10.677   7.762  70.056  1.00  0.00    -0.244 C  
HETATM   10  H   UNL     1     -12.553   8.033  69.479  1.00  0.00     0.000 HD 
HETATM   11  O   UNL     1     -12.008   7.304  69.752  1.00  0.00     0.160 OA 
BRANCH   9  12
HETATM   12  C   UNL     1     -10.739   8.934  71.086  1.00  0.00    -0.263 C  
HETATM   13  C   UNL     1     -11.331  10.194  70.442  1.00  0.00    -0.401 C  
HETATM   14  N   UNL     1     -11.552   8.624  72.285  1.00  0.00    -0.368 NA 
HETATM   15  H1  UNL     1     -11.592   9.390  72.958  1.00  0.00     0.000 HD 
HETATM   16  H2  UNL     1     -11.225   7.768  72.732  1.00  0.00     0.000 HD 
ENDBRANCH   9  12
ENDBRANCH   5   9
BRANCH   6  17
HETATM   17  O   UNL     1      -7.954   7.555  69.373  1.00  0.00    -0.118 OA 
HETATM   18  C   UNL     1      -6.534   7.661  69.340  1.00  0.00    -0.035 C  
ENDBRANCH   6  17
ENDBRANCH   2   3
TORSDOF 4
ENDMDL
MODEL      227
REMARK 921   NORMALIZED FREE ENERGY PREDICTED BY IDOCK:   -2.08 KCAL/MOL
REMARK 922        TOTAL FREE ENERGY PREDICTED BY IDOCK:   -2.69 KCAL/MOL
REMARK 923 INTER-LIGAND FREE ENERGY PREDICTED BY IDOCK:   -2.30 KCAL/MOL
REMARK 924 INTRA-LIGAND FREE ENERGY PREDICTED BY IDOCK:   -0.39 KCAL/MOL
REMARK 927      BINDING AFFINITY PREDICTED BY RF-SCORE:    0.00 PKD
ROOT
HETATM    1  C   UNL     1     -11.162   6.901  69.835  1.00  0.00    -0.285 C  
HETATM    2  O   UNL     1     -11.339   6.094  68.675  1.00  0.00    -0.319 OA 
ENDROOT
BRANCH   2   3
HETATM    3  C   UNL     1     -10.226   5.934  67.894  1.00  0.00    -0.184 A  
HETATM    4  C   UNL     1     -10.143   5.079  66.798  1.00  0.00    -0.270 A  
HETATM    5  C   UNL     1      -8.953   4.953  66.049  1.00  0.00    -0.129 A  
HETATM    6  C   UNL     1      -7.841   5.727  66.424  1.00  0.00    -0.101 A  
HETATM    7  C   UNL     1      -7.941   6.620  67.500  1.00  0.00    -0.115 A  
HETATM    8  C   UNL     1      -9.129   6.718  68.229  1.00  0.00    -0.124 A  
BRANCH   5   9
HETATM    9  C   UNL     1      -8.887   4.001  64.863  1.00  0.00    -0.129 C  
HETATM   10  H   UNL     1      -9.702   2.272  64.345  1.00  0.00     0.000 HD 
HETATM   11  O   UNL     1      -9.743   2.865  65.085  1.00  0.00    -0.074 OA 
BRANCH   9  12
HETATM   12  C   UNL     1      -9.229   4.667  63.493  1.00  0.00    -0.033 C  
HETATM   13  C   UNL     1      -8.137   4.371  62.457  1.00  0.00    -0.069 C  
HETATM   14  N   UNL     1     -10.517   4.213  62.922  1.00  0.00    -0.384 NA 
HETATM   15  H1  UNL     1     -10.741   4.648  62.027  1.00  0.00     0.000 HD 
HETATM   16  H2  UNL     1     -11.277   4.350  63.589  1.00  0.00     0.000 HD 
ENDBRANCH   9  12
ENDBRANCH   5   9
BRANCH   6  17
HETATM   17  O   UNL     1      -6.706   5.590  65.666  1.00  0.00    -0.043 OA 
HETATM   18  C   UNL     1      -6.349   6.731  64.891  1.00  0.00    -0.039 C  
ENDBRANCH   6  17
ENDBRANCH   2   3
TORSDOF 4
ENDMDL
MODEL      228
REMARK 921   NORMALIZED FREE ENERGY PREDICTED BY IDOCK:   -2.07 KCAL/MOL
REMARK 922        TOTAL FREE ENERGY PREDICTED BY IDOCK:   -2.69 KCAL/MOL
REMARK 923 INTER-LIGAND FREE ENERGY PREDICTED BY IDOCK:   -2.95 KCAL/MOL
REMARK 924 INTRA-LIGAND FREE ENERGY PREDICTED BY IDOCK:    0.27 KCAL/MOL
REMARK 927      BINDING AFFINITY PREDICTED BY RF-SCORE:    0.00 PKD
ROOT
HETATM    1  C   UNL     1      -8.156   1.714  69.251  1.00  0.00    -0.044 C  
HETATM    2  O   UNL     1      -8.431   1.905  70.635  1.00  0.00    -0.048 OA 
ENDROOT
BRANCH   2   3
HETATM    3  C   UNL     1      -8.944   3.130  70.969  1.00  0.00    -0.097 A  
HETATM    4  C   UNL     1      -9.666   3.949  70.105  1.00  0.00    -0.242 A  
HETATM    5  C   UNL     1     -10.149   5.210  70.516  1.00  0.00    -0.326 A  
HETATM    6  C   UNL     1      -9.899   5.626  71.835  1.00  0.00    -0.166 A  
HETATM    7  C   UNL     1      -9.211   4.780  72.717  1.00  0.00    -0.143 A  
HETATM    8  C   UNL     1      -8.737   3.539  72.280  1.00  0.00    -0.107 A  
BRANCH   5   9
HETATM    9  C   UNL     1     -10.925   6.090  69.546  1.00  0.00    -0.397 C  
HETATM   10  H   UNL     1     -12.610   7.133  69.565  1.00  0.00     0.000 HD 
HETATM   11  O   UNL     1     -12.126   6.584  70.170  1.00  0.00    -0.323 OA 
BRANCH   9  12
HETATM   12  C   UNL     1     -10.099   7.281  68.965  1.00  0.00    -0.186 C  
HETATM   13  C   UNL     1     -10.720   8.623  69.370  1.00  0.00    -0.169 C  
HETATM   14  N   UNL     1      -8.686   7.292  69.411  1.00  0.00    -0.137 NA 
HETATM   15  H1  UNL     1      -8.146   8.070  69.032  1.00  0.00     0.000 HD 
HETATM   16  H2  UNL     1      -8.234   6.402  69.202  1.00  0.00     0.000 HD 
ENDBRANCH   9  12
ENDBRANCH   5   9
BRANCH   6  17
HETATM   17  O   UNL     1     -10.395   6.850  72.205  1.00  0.00    -0.193 OA 
HETATM   18  C   UNL     1     -10.509   7.063  73.609  1.00  0.00    -0.376 C  
ENDBRANCH   6  17
ENDBRANCH   2   3
TORSDOF 4
ENDMDL
MODEL      229
REMARK 921   NORMALIZED FREE ENERGY PREDICTED BY IDOCK:   -2.06 KCAL/MOL
REMARK 922        TOTAL FREE ENERGY PREDICTED BY IDOCK:   -2.68 KCAL/MOL
REMARK 923 INTER-LIGAND FREE ENERGY PREDICTED BY IDOCK:   -2.34 KCAL/MOL
REMARK 924 INTRA-LIGAND FREE ENERGY PREDICTED BY IDOCK:   -0.33 KCAL/MOL
REMARK 927      BINDING AFFINITY PREDICTED BY RF-SCORE:    0.00 PKD
ROOT
HETATM    1  C   UNL     1      -7.885   2.145  73.852  1.00  0.00    -0.049 C  
HETATM    2  O   UNL     1      -7.803   3.452  74.410  1.00  0.00    -0.061 OA 
ENDROOT
BRANCH   2   3
HETATM    3  C   UNL     1      -8.637   4.384  73.851  1.00  0.00    -0.101 A  
HETATM    4  C   UNL     1      -8.223   5.416  73.013  1.00  0.00    -0.112 A  
HETATM    5  C   UNL     1      -9.140   6.352  72.487  1.00  0.00    -0.136 A  
HETATM    6  C   UNL     1     -10.500   6.214  72.815  1.00  0.00    -0.216 A  
HETATM    7  C   UNL     1     -10.920   5.147  73.621  1.00  0.00    -0.350 A  
HETATM    8  C   UNL     1      -9.989   4.240  74.135  1.00  0.00    -0.193 A  
BRANCH   5   9
HETATM    9  C   UNL     1      -8.657   7.478  71.584  1.00  0.00    -0.115 C  
HETATM   10  H   UNL     1      -7.119   8.725  71.516  1.00  0.00     0.000 HD 
HETATM   11  O   UNL     1      -7.420   8.022  72.080  1.00  0.00    -0.076 OA 
BRANCH   9  12
HETATM   12  C   UNL     1      -8.497   7.069  70.086  1.00  0.00    -0.139 C  
HETATM   13  C   UNL     1      -8.868   8.235  69.161  1.00  0.00    -0.143 C  
HETATM   14  N   UNL     1      -7.123   6.643  69.734  1.00  0.00    -0.066 NA 
HETATM   15  H1  UNL     1      -7.018   6.376  68.755  1.00  0.00     0.000 HD 
HETATM   16  H2  UNL     1      -6.808   5.893  70.349  1.00  0.00     0.000 HD 
ENDBRANCH   9  12
ENDBRANCH   5   9
BRANCH   6  17
HETATM   17  O   UNL     1     -11.364   7.131  72.275  1.00  0.00    -0.249 OA 
HETATM   18  C   UNL     1     -12.153   6.659  71.186  1.00  0.00    -0.335 C  
ENDBRANCH   6  17
ENDBRANCH   2   3
TORSDOF 4
ENDMDL
MODEL      230
REMARK 921   NORMALIZED FREE ENERGY PREDICTED BY IDOCK:   -2.06 KCAL/MOL
REMARK 922        TOTAL FREE ENERGY PREDICTED BY IDOCK:   -2.67 KCAL/MOL
REMARK 923 INTER-LIGAND FREE ENERGY PREDICTED BY IDOCK:   -2.90 KCAL/MOL
REMARK 924 INTRA-LIGAND FREE ENERGY PREDICTED BY IDOCK:    0.22 KCAL/MOL
REMARK 927      BINDING AFFINITY PREDICTED BY RF-SCORE:    0.00 PKD
ROOT
HETATM    1  C   UNL     1     -12.473  15.789  69.698  1.00  0.00     0.020 C  
HETATM    2  O   UNL     1     -12.523  14.825  68.651  1.00  0.00    -0.030 OA 
ENDROOT
BRANCH   2   3
HETATM    3  C   UNL     1     -11.878  13.645  68.906  1.00  0.00    -0.364 A  
HETATM    4  C   UNL     1     -10.845  13.123  68.131  1.00  0.00    -0.271 A  
HETATM    5  C   UNL     1     -10.237  11.889  68.446  1.00  0.00    -0.205 A  
HETATM    6  C   UNL     1     -10.687  11.191  69.580  1.00  0.00    -0.089 A  
HETATM    7  C   UNL     1     -11.696  11.740  70.385  1.00  0.00    -0.253 A  
HETATM    8  C   UNL     1     -12.286  12.961  70.044  1.00  0.00    -0.292 A  
BRANCH   5   9
HETATM    9  C   UNL     1      -9.119  11.336  67.574  1.00  0.00    -0.151 C  
HETATM   10  H   UNL     1      -7.138  11.328  67.590  1.00  0.00     0.000 HD 
HETATM   11  O   UNL     1      -7.835  11.672  68.134  1.00  0.00    -0.118 OA 
BRANCH   9  12
HETATM   12  C   UNL     1      -9.205   9.797  67.326  1.00  0.00    -0.134 C  
HETATM   13  C   UNL     1      -9.761   9.502  65.927  1.00  0.00    -0.352 C  
HETATM   14  N   UNL     1      -7.900   9.107  67.440  1.00  0.00    -0.099 NA 
HETATM   15  H1  UNL     1      -7.956   8.101  67.279  1.00  0.00     0.000 HD 
HETATM   16  H2  UNL     1      -7.465   9.303  68.342  1.00  0.00     0.000 HD 
ENDBRANCH   9  12
ENDBRANCH   5   9
BRANCH   6  17
HETATM   17  O   UNL     1     -10.065  10.002  69.866  1.00  0.00    -0.235 OA 
HETATM   18  C   UNL     1     -10.456   9.388  71.090  1.00  0.00    -0.322 C  
ENDBRANCH   6  17
ENDBRANCH   2   3
TORSDOF 4
ENDMDL
MODEL      231
REMARK 921   NORMALIZED FREE ENERGY PREDICTED BY IDOCK:   -2.04 KCAL/MOL
REMARK 922        TOTAL FREE ENERGY PREDICTED BY IDOCK:   -2.65 KCAL/MOL
REMARK 923 INTER-LIGAND FREE ENERGY PREDICTED BY IDOCK:   -2.29 KCAL/MOL
REMARK 924 INTRA-LIGAND FREE ENERGY PREDICTED BY IDOCK:   -0.35 KCAL/MOL
REMARK 927      BINDING AFFINITY PREDICTED BY RF-SCORE:    0.00 PKD
ROOT
HETATM    1  C   UNL     1     -10.565  11.888  68.517  1.00  0.00    -0.222 C  
HETATM    2  O   UNL     1     -10.166  11.589  67.183  1.00  0.00    -0.198 OA 
ENDROOT
BRANCH   2   3
HETATM    3  C   UNL     1      -9.406  10.459  67.035  1.00  0.00    -0.154 A  
HETATM    4  C   UNL     1      -9.547   9.305  67.802  1.00  0.00    -0.167 A  
HETATM    5  C   UNL     1      -8.714   8.182  67.605  1.00  0.00    -0.130 A  
HETATM    6  C   UNL     1      -7.736   8.243  66.597  1.00  0.00    -0.093 A  
HETATM    7  C   UNL     1      -7.627   9.389  65.795  1.00  0.00    -0.099 A  
HETATM    8  C   UNL     1      -8.460  10.489  66.019  1.00  0.00    -0.157 A  
BRANCH   5   9
HETATM    9  C   UNL     1      -8.881   6.939  68.466  1.00  0.00    -0.124 C  
HETATM   10  H   UNL     1      -8.723   6.472  70.385  1.00  0.00     0.000 HD 
HETATM   11  O   UNL     1      -8.618   7.248  69.848  1.00  0.00    -0.138 OA 
BRANCH   9  12
HETATM   12  C   UNL     1     -10.276   6.252  68.330  1.00  0.00    -0.169 C  
HETATM   13  C   UNL     1     -10.210   5.076  67.348  1.00  0.00    -0.201 C  
HETATM   14  N   UNL     1     -10.806   5.731  69.611  1.00  0.00    -0.353 NA 
HETATM   15  H1  UNL     1     -11.718   5.283  69.522  1.00  0.00     0.000 HD 
HETATM   16  H2  UNL     1     -10.833   6.467  70.317  1.00  0.00     0.000 HD 
ENDBRANCH   9  12
ENDBRANCH   5   9
BRANCH   6  17
HETATM   17  O   UNL     1      -6.954   7.130  66.422  1.00  0.00    -0.065 OA 
HETATM   18  C   UNL     1      -5.569   7.307  66.704  1.00  0.00    -0.024 C  
ENDBRANCH   6  17
ENDBRANCH   2   3
TORSDOF 4
ENDMDL
MODEL      232
REMARK 921   NORMALIZED FREE ENERGY PREDICTED BY IDOCK:   -2.03 KCAL/MOL
REMARK 922        TOTAL FREE ENERGY PREDICTED BY IDOCK:   -2.64 KCAL/MOL
REMARK 923 INTER-LIGAND FREE ENERGY PREDICTED BY IDOCK:   -2.66 KCAL/MOL
REMARK 924 INTRA-LIGAND FREE ENERGY PREDICTED BY IDOCK:    0.02 KCAL/MOL
REMARK 927      BINDING AFFINITY PREDICTED BY RF-SCORE:    0.00 PKD
ROOT
HETATM    1  C   UNL     1      -8.739   3.022  69.718  1.00  0.00    -0.074 C  
HETATM    2  O   UNL     1      -8.096   4.207  70.176  1.00  0.00    -0.057 OA 
ENDROOT
BRANCH   2   3
HETATM    3  C   UNL     1      -8.567   5.376  69.641  1.00  0.00    -0.103 A  
HETATM    4  C   UNL     1      -9.457   6.237  70.278  1.00  0.00    -0.173 A  
HETATM    5  C   UNL     1      -9.915   7.419  69.656  1.00  0.00    -0.182 A  
HETATM    6  C   UNL     1      -9.438   7.725  68.369  1.00  0.00    -0.147 A  
HETATM    7  C   UNL     1      -8.506   6.881  67.749  1.00  0.00    -0.123 A  
HETATM    8  C   UNL     1      -8.078   5.713  68.385  1.00  0.00    -0.103 A  
BRANCH   5   9
HETATM    9  C   UNL     1     -10.898   8.335  70.371  1.00  0.00    -0.235 C  
HETATM   10  H   UNL     1     -12.760   8.226  71.037  1.00  0.00     0.000 HD 
HETATM   11  O   UNL     1     -12.147   7.654  70.591  1.00  0.00    -0.185 OA 
BRANCH   9  12
HETATM   12  C   UNL     1     -10.363   8.916  71.718  1.00  0.00    -0.356 C  
HETATM   13  C   UNL     1     -10.392   7.849  72.819  1.00  0.00    -0.399 C  
HETATM   14  N   UNL     1      -8.975   9.427  71.630  1.00  0.00    -0.236 NA 
HETATM   15  H1  UNL     1      -8.626   9.807  72.510  1.00  0.00     0.000 HD 
HETATM   16  H2  UNL     1      -8.889  10.114  70.882  1.00  0.00     0.000 HD 
ENDBRANCH   9  12
ENDBRANCH   5   9
BRANCH   6  17
HETATM   17  O   UNL     1      -9.891   8.888  67.800  1.00  0.00    -0.152 OA 
HETATM   18  C   UNL     1      -8.878   9.776  67.339  1.00  0.00    -0.132 C  
ENDBRANCH   6  17
ENDBRANCH   2   3
TORSDOF 4
ENDMDL
MODEL      233
REMARK 921   NORMALIZED FREE ENERGY PREDICTED BY IDOCK:   -2.01 KCAL/MOL
REMARK 922        TOTAL FREE ENERGY PREDICTED BY IDOCK:   -2.62 KCAL/MOL
REMARK 923 INTER-LIGAND FREE ENERGY PREDICTED BY IDOCK:   -2.91 KCAL/MOL
REMARK 924 INTRA-LIGAND FREE ENERGY PREDICTED BY IDOCK:    0.30 KCAL/MOL
REMARK 927      BINDING AFFINITY PREDICTED BY RF-SCORE:    0.00 PKD
ROOT
HETATM    1  C   UNL     1     -10.645   9.751  68.345  1.00  0.00    -0.226 C  
HETATM    2  O   UNL     1     -10.740   8.338  68.197  1.00  0.00    -0.151 OA 
ENDROOT
BRANCH   2   3
HETATM    3  C   UNL     1     -10.116   7.602  69.169  1.00  0.00    -0.194 A  
HETATM    4  C   UNL     1     -10.757   6.700  70.014  1.00  0.00    -0.287 A  
HETATM    5  C   UNL     1     -10.050   5.988  71.007  1.00  0.00    -0.241 A  
HETATM    6  C   UNL     1      -8.664   6.195  71.120  1.00  0.00    -0.132 A  
HETATM    7  C   UNL     1      -8.013   7.069  70.238  1.00  0.00    -0.117 A  
HETATM    8  C   UNL     1      -8.741   7.768  69.270  1.00  0.00    -0.139 A  
BRANCH   5   9
HETATM    9  C   UNL     1     -10.779   5.017  71.925  1.00  0.00    -0.111 C  
HETATM   10  H   UNL     1     -10.525   3.160  72.567  1.00  0.00     0.000 HD 
HETATM   11  O   UNL     1     -10.070   3.766  71.994  1.00  0.00    -0.176 OA 
BRANCH   9  12
HETATM   12  C   UNL     1     -11.030   5.568  73.364  1.00  0.00    -0.275 C  
HETATM   13  C   UNL     1     -10.410   4.640  74.417  1.00  0.00    -0.318 C  
HETATM   14  N   UNL     1     -10.474   6.923  73.583  1.00  0.00    -0.349 NA 
HETATM   15  H1  UNL     1     -10.638   7.283  74.523  1.00  0.00     0.000 HD 
HETATM   16  H2  UNL     1     -10.823   7.575  72.881  1.00  0.00     0.000 HD 
ENDBRANCH   9  12
ENDBRANCH   5   9
BRANCH   6  17
HETATM   17  O   UNL     1      -8.006   5.476  72.085  1.00  0.00    -0.105 OA 
HETATM   18  C   UNL     1      -7.302   6.253  73.050  1.00  0.00    -0.091 C  
ENDBRANCH   6  17
ENDBRANCH   2   3
TORSDOF 4
ENDMDL
MODEL      234
REMARK 921   NORMALIZED FREE ENERGY PREDICTED BY IDOCK:   -1.96 KCAL/MOL
REMARK 922        TOTAL FREE ENERGY PREDICTED BY IDOCK:   -2.55 KCAL/MOL
REMARK 923 INTER-LIGAND FREE ENERGY PREDICTED BY IDOCK:   -2.18 KCAL/MOL
REMARK 924 INTRA-LIGAND FREE ENERGY PREDICTED BY IDOCK:   -0.37 KCAL/MOL
REMARK 927      BINDING AFFINITY PREDICTED BY RF-SCORE:    0.00 PKD
ROOT
HETATM    1  C   UNL     1      -6.847   2.917  70.483  1.00  0.00    -0.033 C  
HETATM    2  O   UNL     1      -6.812   4.128  71.230  1.00  0.00    -0.033 OA 
ENDROOT
BRANCH   2   3
HETATM    3  C   UNL     1      -7.337   5.224  70.599  1.00  0.00    -0.070 A  
HETATM    4  C   UNL     1      -7.601   5.301  69.233  1.00  0.00    -0.073 A  
HETATM    5  C   UNL     1      -8.126   6.474  68.648  1.00  0.00    -0.118 A  
HETATM    6  C   UNL     1      -8.397   7.573  69.480  1.00  0.00    -0.131 A  
HETATM    7  C   UNL     1      -8.173   7.478  70.861  1.00  0.00    -0.112 A  
HETATM    8  C   UNL     1      -7.644   6.307  71.412  1.00  0.00    -0.098 A  
BRANCH   5   9
HETATM    9  C   UNL     1      -8.393   6.534  67.151  1.00  0.00    -0.113 C  
HETATM   10  H   UNL     1      -7.395   6.148  65.483  1.00  0.00     0.000 HD 
HETATM   11  O   UNL     1      -7.228   6.110  66.417  1.00  0.00    -0.070 OA 
BRANCH   9  12
HETATM   12  C   UNL     1      -9.639   5.712  66.692  1.00  0.00    -0.152 C  
HETATM   13  C   UNL     1     -10.936   6.449  67.047  1.00  0.00    -0.463 C  
HETATM   14  N   UNL     1      -9.665   5.443  65.236  1.00  0.00    -0.353 NA 
HETATM   15  H1  UNL     1     -10.479   4.906  64.937  1.00  0.00     0.000 HD 
HETATM   16  H2  UNL     1      -8.803   4.988  64.937  1.00  0.00     0.000 HD 
ENDBRANCH   9  12
ENDBRANCH   5   9
BRANCH   6  17
HETATM   17  O   UNL     1      -8.920   8.691  68.881  1.00  0.00    -0.140 OA 
HETATM   18  C   UNL     1      -9.461   9.663  69.771  1.00  0.00    -0.220 C  
ENDBRANCH   6  17
ENDBRANCH   2   3
TORSDOF 4
ENDMDL
MODEL      235
REMARK 921   NORMALIZED FREE ENERGY PREDICTED BY IDOCK:   -1.95 KCAL/MOL
REMARK 922        TOTAL FREE ENERGY PREDICTED BY IDOCK:   -2.54 KCAL/MOL
REMARK 923 INTER-LIGAND FREE ENERGY PREDICTED BY IDOCK:   -2.47 KCAL/MOL
REMARK 924 INTRA-LIGAND FREE ENERGY PREDICTED BY IDOCK:   -0.07 KCAL/MOL
REMARK 927      BINDING AFFINITY PREDICTED BY RF-SCORE:    0.00 PKD
ROOT
HETATM    1  C   UNL     1     -10.497   2.205  73.509  1.00  0.00    -0.125 C  
HETATM    2  O   UNL     1     -10.854   3.566  73.724  1.00  0.00    -0.201 OA 
ENDROOT
BRANCH   2   3
HETATM    3  C   UNL     1      -9.913   4.487  73.346  1.00  0.00    -0.150 A  
HETATM    4  C   UNL     1     -10.026   5.326  72.241  1.00  0.00    -0.222 A  
HETATM    5  C   UNL     1      -9.005   6.240  71.900  1.00  0.00    -0.139 A  
HETATM    6  C   UNL     1      -7.863   6.302  72.717  1.00  0.00    -0.105 A  
HETATM    7  C   UNL     1      -7.772   5.488  73.855  1.00  0.00    -0.101 A  
HETATM    8  C   UNL     1      -8.794   4.586  74.163  1.00  0.00    -0.106 A  
BRANCH   5   9
HETATM    9  C   UNL     1      -9.150   7.137  70.679  1.00  0.00    -0.158 C  
HETATM   10  H   UNL     1      -9.884   6.982  68.845  1.00  0.00     0.000 HD 
HETATM   11  O   UNL     1      -9.794   6.423  69.607  1.00  0.00    -0.157 OA 
BRANCH   9  12
HETATM   12  C   UNL     1      -9.905   8.475  70.957  1.00  0.00    -0.195 C  
HETATM   13  C   UNL     1     -10.374   8.542  72.416  1.00  0.00    -0.372 C  
HETATM   14  N   UNL     1      -9.085   9.680  70.698  1.00  0.00    -0.309 NA 
HETATM   15  H1  UNL     1      -9.578  10.555  70.880  1.00  0.00     0.000 HD 
HETATM   16  H2  UNL     1      -8.711   9.667  69.749  1.00  0.00     0.000 HD 
ENDBRANCH   9  12
ENDBRANCH   5   9
BRANCH   6  17
HETATM   17  O   UNL     1      -6.897   7.211  72.366  1.00  0.00    -0.063 OA 
HETATM   18  C   UNL     1      -6.255   7.868  73.455  1.00  0.00    -0.069 C  
ENDBRANCH   6  17
ENDBRANCH   2   3
TORSDOF 4
ENDMDL
MODEL      236
REMARK 921   NORMALIZED FREE ENERGY PREDICTED BY IDOCK:   -1.92 KCAL/MOL
REMARK 922        TOTAL FREE ENERGY PREDICTED BY IDOCK:   -2.50 KCAL/MOL
REMARK 923 INTER-LIGAND FREE ENERGY PREDICTED BY IDOCK:   -3.18 KCAL/MOL
REMARK 924 INTRA-LIGAND FREE ENERGY PREDICTED BY IDOCK:    0.67 KCAL/MOL
REMARK 927      BINDING AFFINITY PREDICTED BY RF-SCORE:    0.00 PKD
ROOT
HETATM    1  C   UNL     1      -9.466   2.967  69.410  1.00  0.00    -0.088 C  
HETATM    2  O   UNL     1      -9.611   4.190  68.696  1.00  0.00    -0.157 OA 
ENDROOT
BRANCH   2   3
HETATM    3  C   UNL     1      -9.784   5.306  69.470  1.00  0.00    -0.178 A  
HETATM    4  C   UNL     1      -8.854   5.784  70.391  1.00  0.00    -0.146 A  
HETATM    5  C   UNL     1      -9.109   6.933  71.169  1.00  0.00    -0.150 A  
HETATM    6  C   UNL     1     -10.329   7.608  70.986  1.00  0.00    -0.202 A  
HETATM    7  C   UNL     1     -11.244   7.152  70.026  1.00  0.00    -0.271 A  
HETATM    8  C   UNL     1     -10.968   6.005  69.276  1.00  0.00    -0.436 A  
BRANCH   5   9
HETATM    9  C   UNL     1      -8.080   7.425  72.176  1.00  0.00    -0.097 C  
HETATM   10  H   UNL     1      -7.530   9.161  72.957  1.00  0.00     0.000 HD 
HETATM   11  O   UNL     1      -8.172   8.854  72.329  1.00  0.00    -0.379 OA 
BRANCH   9  12
HETATM   12  C   UNL     1      -8.174   6.734  73.573  1.00  0.00    -0.112 C  
HETATM   13  C   UNL     1      -9.631   6.400  73.917  1.00  0.00    -0.199 C  
HETATM   14  N   UNL     1      -7.398   5.476  73.662  1.00  0.00    -0.087 NA 
HETATM   15  H1  UNL     1      -7.459   5.024  74.574  1.00  0.00     0.000 HD 
HETATM   16  H2  UNL     1      -6.424   5.633  73.402  1.00  0.00     0.000 HD 
ENDBRANCH   9  12
ENDBRANCH   5   9
BRANCH   6  17
HETATM   17  O   UNL     1     -10.538   8.729  71.748  1.00  0.00    -0.292 OA 
HETATM   18  C   UNL     1     -11.427   9.690  71.186  1.00  0.00    -0.384 C  
ENDBRANCH   6  17
ENDBRANCH   2   3
TORSDOF 4
ENDMDL
MODEL      237
REMARK 921   NORMALIZED FREE ENERGY PREDICTED BY IDOCK:   -1.91 KCAL/MOL
REMARK 922        TOTAL FREE ENERGY PREDICTED BY IDOCK:   -2.49 KCAL/MOL
REMARK 923 INTER-LIGAND FREE ENERGY PREDICTED BY IDOCK:   -2.71 KCAL/MOL
REMARK 924 INTRA-LIGAND FREE ENERGY PREDICTED BY IDOCK:    0.23 KCAL/MOL
REMARK 927      BINDING AFFINITY PREDICTED BY RF-SCORE:    0.00 PKD
ROOT
HETATM    1  C   UNL     1      -9.895  10.433  67.169  1.00  0.00    -0.181 C  
HETATM    2  O   UNL     1     -10.551  10.000  68.356  1.00  0.00    -0.198 OA 
ENDROOT
BRANCH   2   3
HETATM    3  C   UNL     1      -9.736   9.459  69.314  1.00  0.00    -0.172 A  
HETATM    4  C   UNL     1     -10.053   8.345  70.087  1.00  0.00    -0.193 A  
HETATM    5  C   UNL     1      -9.169   7.853  71.071  1.00  0.00    -0.164 A  
HETATM    6  C   UNL     1      -7.937   8.507  71.251  1.00  0.00    -0.132 A  
HETATM    7  C   UNL     1      -7.601   9.601  70.441  1.00  0.00    -0.176 A  
HETATM    8  C   UNL     1      -8.501  10.071  69.480  1.00  0.00    -0.186 A  
BRANCH   5   9
HETATM    9  C   UNL     1      -9.546   6.641  71.910  1.00  0.00    -0.149 C  
HETATM   10  H   UNL     1      -8.663   4.985  72.545  1.00  0.00     0.000 HD 
HETATM   11  O   UNL     1      -8.427   5.742  72.022  1.00  0.00    -0.124 OA 
BRANCH   9  12
HETATM   12  C   UNL     1     -10.092   6.993  73.329  1.00  0.00    -0.255 C  
HETATM   13  C   UNL     1     -10.505   5.723  74.084  1.00  0.00    -0.266 C  
HETATM   14  N   UNL     1      -9.113   7.713  74.176  1.00  0.00    -0.408 NA 
HETATM   15  H1  UNL     1      -9.470   7.944  75.103  1.00  0.00     0.000 HD 
HETATM   16  H2  UNL     1      -8.773   8.550  73.702  1.00  0.00     0.000 HD 
ENDBRANCH   9  12
ENDBRANCH   5   9
BRANCH   6  17
HETATM   17  O   UNL     1      -7.096   7.995  72.205  1.00  0.00    -0.072 OA 
HETATM   18  C   UNL     1      -5.732   7.872  71.813  1.00  0.00    -0.035 C  
ENDBRANCH   6  17
ENDBRANCH   2   3
TORSDOF 4
ENDMDL
MODEL      238
REMARK 921   NORMALIZED FREE ENERGY PREDICTED BY IDOCK:   -1.90 KCAL/MOL
REMARK 922        TOTAL FREE ENERGY PREDICTED BY IDOCK:   -2.48 KCAL/MOL
REMARK 923 INTER-LIGAND FREE ENERGY PREDICTED BY IDOCK:   -2.25 KCAL/MOL
REMARK 924 INTRA-LIGAND FREE ENERGY PREDICTED BY IDOCK:   -0.22 KCAL/MOL
REMARK 927      BINDING AFFINITY PREDICTED BY RF-SCORE:    0.00 PKD
ROOT
HETATM    1  C   UNL     1     -10.420  10.612  67.677  1.00  0.00    -0.227 C  
HETATM    2  O   UNL     1     -10.947   9.534  66.910  1.00  0.00    -0.093 OA 
ENDROOT
BRANCH   2   3
HETATM    3  C   UNL     1     -10.500   8.289  67.262  1.00  0.00    -0.303 A  
HETATM    4  C   UNL     1     -10.411   7.820  68.571  1.00  0.00    -0.202 A  
HETATM    5  C   UNL     1      -9.923   6.527  68.860  1.00  0.00    -0.165 A  
HETATM    6  C   UNL     1      -9.536   5.703  67.789  1.00  0.00    -0.119 A  
HETATM    7  C   UNL     1      -9.669   6.160  66.470  1.00  0.00    -0.184 A  
HETATM    8  C   UNL     1     -10.148   7.448  66.214  1.00  0.00     0.080 A  
BRANCH   5   9
HETATM    9  C   UNL     1      -9.825   6.045  70.300  1.00  0.00    -0.178 C  
HETATM   10  H   UNL     1      -8.385   5.630  71.596  1.00  0.00     0.000 HD 
HETATM   11  O   UNL     1      -8.446   5.931  70.697  1.00  0.00    -0.125 OA 
BRANCH   9  12
HETATM   12  C   UNL     1     -10.603   6.932  71.323  1.00  0.00    -0.220 C  
HETATM   13  C   UNL     1     -11.982   6.334  71.623  1.00  0.00    -0.272 C  
HETATM   14  N   UNL     1      -9.899   7.097  72.615  1.00  0.00    -0.161 NA 
HETATM   15  H1  UNL     1     -10.407   7.677  73.284  1.00  0.00     0.000 HD 
HETATM   16  H2  UNL     1      -8.955   7.456  72.471  1.00  0.00     0.000 HD 
ENDBRANCH   9  12
ENDBRANCH   5   9
BRANCH   6  17
HETATM   17  O   UNL     1      -9.080   4.448  68.104  1.00  0.00    -0.114 OA 
HETATM   18  C   UNL     1      -9.779   3.372  67.485  1.00  0.00     0.028 C  
ENDBRANCH   6  17
ENDBRANCH   2   3
TORSDOF 4
ENDMDL
MODEL      239
REMARK 921   NORMALIZED FREE ENERGY PREDICTED BY IDOCK:   -1.90 KCAL/MOL
REMARK 922        TOTAL FREE ENERGY PREDICTED BY IDOCK:   -2.48 KCAL/MOL
REMARK 923 INTER-LIGAND FREE ENERGY PREDICTED BY IDOCK:   -2.71 KCAL/MOL
REMARK 924 INTRA-LIGAND FREE ENERGY PREDICTED BY IDOCK:    0.24 KCAL/MOL
REMARK 927      BINDING AFFINITY PREDICTED BY RF-SCORE:    0.00 PKD
ROOT
HETATM    1  C   UNL     1      -6.665  11.056  69.731  1.00  0.00    -0.136 C  
HETATM    2  O   UNL     1      -6.844  10.257  70.895  1.00  0.00    -0.339 OA 
ENDROOT
BRANCH   2   3
HETATM    3  C   UNL     1      -7.783   9.265  70.789  1.00  0.00    -0.139 A  
HETATM    4  C   UNL     1      -7.749   8.064  71.493  1.00  0.00    -0.098 A  
HETATM    5  C   UNL     1      -8.745   7.079  71.319  1.00  0.00    -0.130 A  
HETATM    6  C   UNL     1      -9.795   7.340  70.422  1.00  0.00    -0.183 A  
HETATM    7  C   UNL     1      -9.852   8.569  69.750  1.00  0.00    -0.186 A  
HETATM    8  C   UNL     1      -8.847   9.523  69.935  1.00  0.00    -0.227 A  
BRANCH   5   9
HETATM    9  C   UNL     1      -8.676   5.769  72.092  1.00  0.00    -0.133 C  
HETATM   10  H   UNL     1      -7.376   4.294  72.331  1.00  0.00     0.000 HD 
HETATM   11  O   UNL     1      -7.419   5.111  71.849  1.00  0.00    -0.088 OA 
BRANCH   9  12
HETATM   12  C   UNL     1      -8.910   5.923  73.628  1.00  0.00    -0.124 C  
HETATM   13  C   UNL     1      -9.065   7.401  74.009  1.00  0.00    -0.289 C  
HETATM   14  N   UNL     1     -10.112   5.210  74.116  1.00  0.00    -0.202 NA 
HETATM   15  H1  UNL     1     -10.264   5.310  75.120  1.00  0.00     0.000 HD 
HETATM   16  H2  UNL     1     -10.080   4.225  73.853  1.00  0.00     0.000 HD 
ENDBRANCH   9  12
ENDBRANCH   5   9
BRANCH   6  17
HETATM   17  O   UNL     1     -10.753   6.368  70.288  1.00  0.00    -0.228 OA 
HETATM   18  C   UNL     1     -12.099   6.813  70.436  1.00  0.00    -0.211 C  
ENDBRANCH   6  17
ENDBRANCH   2   3
TORSDOF 4
ENDMDL
MODEL      240
REMARK 921   NORMALIZED FREE ENERGY PREDICTED BY IDOCK:   -1.83 KCAL/MOL
REMARK 922        TOTAL FREE ENERGY PREDICTED BY IDOCK:   -2.39 KCAL/MOL
REMARK 923 INTER-LIGAND FREE ENERGY PREDICTED BY IDOCK:   -2.46 KCAL/MOL
REMARK 924 INTRA-LIGAND FREE ENERGY PREDICTED BY IDOCK:    0.07 KCAL/MOL
REMARK 927      BINDING AFFINITY PREDICTED BY RF-SCORE:    0.00 PKD
ROOT
HETATM    1  C   UNL     1     -11.252   9.041  70.772  1.00  0.00    -0.275 C  
HETATM    2  O   UNL     1     -11.475  10.446  70.833  1.00  0.00    -0.344 OA 
ENDROOT
BRANCH   2   3
HETATM    3  C   UNL     1     -11.179  11.139  69.690  1.00  0.00    -0.264 A  
HETATM    4  C   UNL     1     -10.118  12.031  69.555  1.00  0.00     0.723 A  
HETATM    5  C   UNL     1      -9.885  12.724  68.348  1.00  0.00    -0.196 A  
HETATM    6  C   UNL     1     -10.745  12.484  67.262  1.00  0.00    -0.233 A  
HETATM    7  C   UNL     1     -11.784  11.551  67.385  1.00  0.00    -0.231 A  
HETATM    8  C   UNL     1     -11.997  10.886  68.596  1.00  0.00    -0.185 A  
BRANCH   5   9
HETATM    9  C   UNL     1      -8.725  13.703  68.234  1.00  0.00    -0.171 C  
HETATM   10  H   UNL     1      -7.079  13.880  67.145  1.00  0.00     0.000 HD 
HETATM   11  O   UNL     1      -7.803  13.269  67.216  1.00  0.00    -0.165 OA 
BRANCH   9  12
HETATM   12  C   UNL     1      -9.160  15.178  67.964  1.00  0.00    -0.180 C  
HETATM   13  C   UNL     1     -10.131  15.665  69.048  1.00  0.00    -0.227 C  
HETATM   14  N   UNL     1      -8.026  16.130  67.924  1.00  0.00    -0.140 NA 
HETATM   15  H1  UNL     1      -8.310  17.093  67.748  1.00  0.00     0.000 HD 
HETATM   16  H2  UNL     1      -7.327  15.830  67.245  1.00  0.00     0.000 HD 
ENDBRANCH   9  12
ENDBRANCH   5   9
BRANCH   6  17
HETATM   17  O   UNL     1     -10.481  13.163  66.100  1.00  0.00    -0.272 OA 
HETATM   18  C   UNL     1     -10.445  12.364  64.921  1.00  0.00    -0.298 C  
ENDBRANCH   6  17
ENDBRANCH   2   3
TORSDOF 4
ENDMDL
MODEL      241
REMARK 921   NORMALIZED FREE ENERGY PREDICTED BY IDOCK:   -1.82 KCAL/MOL
REMARK 922        TOTAL FREE ENERGY PREDICTED BY IDOCK:   -2.37 KCAL/MOL
REMARK 923 INTER-LIGAND FREE ENERGY PREDICTED BY IDOCK:   -2.48 KCAL/MOL
REMARK 924 INTRA-LIGAND FREE ENERGY PREDICTED BY IDOCK:    0.11 KCAL/MOL
REMARK 927      BINDING AFFINITY PREDICTED BY RF-SCORE:    0.00 PKD
ROOT
HETATM    1  C   UNL     1      -9.015  15.596  66.464  1.00  0.00    -0.308 C  
HETATM    2  O   UNL     1      -9.834  14.621  65.827  1.00  0.00    -0.317 OA 
ENDROOT
BRANCH   2   3
HETATM    3  C   UNL     1      -9.795  13.369  66.380  1.00  0.00    -0.296 A  
HETATM    4  C   UNL     1      -8.809  12.419  66.122  1.00  0.00     0.108 A  
HETATM    5  C   UNL     1      -8.844  11.139  66.716  1.00  0.00    -0.162 A  
HETATM    6  C   UNL     1      -9.897  10.839  67.597  1.00  0.00    -0.171 A  
HETATM    7  C   UNL     1     -10.863  11.812  67.891  1.00  0.00    -0.255 A  
HETATM    8  C   UNL     1     -10.808  13.068  67.281  1.00  0.00    -0.270 A  
BRANCH   5   9
HETATM    9  C   UNL     1      -7.760  10.116  66.406  1.00  0.00    -0.111 C  
HETATM   10  H   UNL     1      -6.762   8.718  67.392  1.00  0.00     0.000 HD 
HETATM   11  O   UNL     1      -7.438   9.356  67.586  1.00  0.00    -0.086 OA 
BRANCH   9  12
HETATM   12  C   UNL     1      -8.111   9.152  65.229  1.00  0.00    -0.124 C  
HETATM   13  C   UNL     1      -6.838   8.555  64.617  1.00  0.00    -0.069 C  
HETATM   14  N   UNL     1      -8.982   8.024  65.631  1.00  0.00    -0.355 NA 
HETATM   15  H1  UNL     1      -9.212   7.393  64.863  1.00  0.00     0.000 HD 
HETATM   16  H2  UNL     1      -9.831   8.365  66.084  1.00  0.00     0.000 HD 
ENDBRANCH   9  12
ENDBRANCH   5   9
BRANCH   6  17
HETATM   17  O   UNL     1      -9.892   9.591  68.168  1.00  0.00    -0.148 OA 
HETATM   18  C   UNL     1     -11.088   9.230  68.852  1.00  0.00     0.079 C  
ENDBRANCH   6  17
ENDBRANCH   2   3
TORSDOF 4
ENDMDL
MODEL      242
REMARK 921   NORMALIZED FREE ENERGY PREDICTED BY IDOCK:   -1.73 KCAL/MOL
REMARK 922        TOTAL FREE ENERGY PREDICTED BY IDOCK:   -2.27 KCAL/MOL
REMARK 923 INTER-LIGAND FREE ENERGY PREDICTED BY IDOCK:   -2.08 KCAL/MOL
REMARK 924 INTRA-LIGAND FREE ENERGY PREDICTED BY IDOCK:   -0.19 KCAL/MOL
REMARK 927      BINDING AFFINITY PREDICTED BY RF-SCORE:    0.00 PKD
ROOT
HETATM    1  C   UNL     1     -10.008   2.668  63.179  1.00  0.00    -0.107 C  
HETATM    2  O   UNL     1     -10.617   3.298  64.302  1.00  0.00    -0.143 OA 
ENDROOT
BRANCH   2   3
HETATM    3  C   UNL     1      -9.831   4.201  64.967  1.00  0.00    -0.201 A  
HETATM    4  C   UNL     1      -8.935   5.074  64.355  1.00  0.00    -0.034 A  
HETATM    5  C   UNL     1      -8.143   5.966  65.109  1.00  0.00    -0.131 A  
HETATM    6  C   UNL     1      -8.287   5.971  66.507  1.00  0.00    -0.113 A  
HETATM    7  C   UNL     1      -9.222   5.124  67.118  1.00  0.00    -0.119 A  
HETATM    8  C   UNL     1      -9.987   4.244  66.347  1.00  0.00    -0.223 A  
BRANCH   5   9
HETATM    9  C   UNL     1      -7.163   6.901  64.414  1.00  0.00    -0.067 C  
HETATM   10  H   UNL     1      -5.885   6.799  62.904  1.00  0.00     0.000 HD 
HETATM   11  O   UNL     1      -6.496   6.216  63.337  1.00  0.00    -0.028 OA 
BRANCH   9  12
HETATM   12  C   UNL     1      -7.807   8.222  63.888  1.00  0.00    -0.147 C  
HETATM   13  C   UNL     1      -8.155   8.102  62.399  1.00  0.00    -0.167 C  
HETATM   14  N   UNL     1      -9.046   8.602  64.605  1.00  0.00    -0.382 NA 
HETATM   15  H1  UNL     1      -9.466   9.465  64.261  1.00  0.00     0.000 HD 
HETATM   16  H2  UNL     1      -8.880   8.656  65.610  1.00  0.00     0.000 HD 
ENDBRANCH   9  12
ENDBRANCH   5   9
BRANCH   6  17
HETATM   17  O   UNL     1      -7.512   6.861  67.208  1.00  0.00    -0.091 OA 
HETATM   18  C   UNL     1      -8.213   7.967  67.770  1.00  0.00    -0.129 C  
ENDBRANCH   6  17
ENDBRANCH   2   3
TORSDOF 4
ENDMDL
MODEL      243
REMARK 921   NORMALIZED FREE ENERGY PREDICTED BY IDOCK:   -1.67 KCAL/MOL
REMARK 922        TOTAL FREE ENERGY PREDICTED BY IDOCK:   -2.19 KCAL/MOL
REMARK 923 INTER-LIGAND FREE ENERGY PREDICTED BY IDOCK:   -2.26 KCAL/MOL
REMARK 924 INTRA-LIGAND FREE ENERGY PREDICTED BY IDOCK:    0.07 KCAL/MOL
REMARK 927      BINDING AFFINITY PREDICTED BY RF-SCORE:    0.00 PKD
ROOT
HETATM    1  C   UNL     1      -8.349  15.179  66.752  1.00  0.00    -0.189 C  
HETATM    2  O   UNL     1      -9.174  14.032  66.579  1.00  0.00    -0.270 OA 
ENDROOT
BRANCH   2   3
HETATM    3  C   UNL     1      -8.671  12.864  67.086  1.00  0.00    -0.205 A  
HETATM    4  C   UNL     1      -8.740  11.628  66.446  1.00  0.00    -0.170 A  
HETATM    5  C   UNL     1      -8.214  10.460  67.039  1.00  0.00    -0.123 A  
HETATM    6  C   UNL     1      -7.595  10.568  68.297  1.00  0.00    -0.096 A  
HETATM    7  C   UNL     1      -7.486  11.821  68.918  1.00  0.00    -0.080 A  
HETATM    8  C   UNL     1      -8.024  12.959  68.311  1.00  0.00    -0.151 A  
BRANCH   5   9
HETATM    9  C   UNL     1      -8.315   9.121  66.323  1.00  0.00    -0.119 C  
HETATM   10  H   UNL     1      -7.065   7.738  65.651  1.00  0.00     0.000 HD 
HETATM   11  O   UNL     1      -7.002   8.574  66.098  1.00  0.00    -0.074 OA 
BRANCH   9  12
HETATM   12  C   UNL     1      -9.210   8.072  67.056  1.00  0.00    -0.147 C  
HETATM   13  C   UNL     1     -10.648   8.588  67.197  1.00  0.00    -0.314 C  
HETATM   14  N   UNL     1      -9.273   6.764  66.365  1.00  0.00    -0.175 NA 
HETATM   15  H1  UNL     1      -9.858   6.079  66.844  1.00  0.00     0.000 HD 
HETATM   16  H2  UNL     1      -8.336   6.392  66.208  1.00  0.00     0.000 HD 
ENDBRANCH   9  12
ENDBRANCH   5   9
BRANCH   6  17
HETATM   17  O   UNL     1      -7.082   9.417  68.837  1.00  0.00    -0.066 OA 
HETATM   18  C   UNL     1      -7.210   9.297  70.251  1.00  0.00    -0.087 C  
ENDBRANCH   6  17
ENDBRANCH   2   3
TORSDOF 4
ENDMDL
MODEL      244
REMARK 921   NORMALIZED FREE ENERGY PREDICTED BY IDOCK:   -1.52 KCAL/MOL
REMARK 922        TOTAL FREE ENERGY PREDICTED BY IDOCK:   -2.00 KCAL/MOL
REMARK 923 INTER-LIGAND FREE ENERGY PREDICTED BY IDOCK:   -2.55 KCAL/MOL
REMARK 924 INTRA-LIGAND FREE ENERGY PREDICTED BY IDOCK:    0.55 KCAL/MOL
REMARK 927      BINDING AFFINITY PREDICTED BY RF-SCORE:    0.00 PKD
ROOT
HETATM    1  C   UNL     1      -5.847  12.484  68.673  1.00  0.00    -0.059 C  
HETATM    2  O   UNL     1      -7.233  12.244  68.892  1.00  0.00    -0.109 OA 
ENDROOT
BRANCH   2   3
HETATM    3  C   UNL     1      -7.572  10.941  69.142  1.00  0.00    -0.133 A  
HETATM    4  C   UNL     1      -8.870  10.439  69.105  1.00  0.00    -0.180 A  
HETATM    5  C   UNL     1      -9.146   9.084  69.393  1.00  0.00    -0.146 A  
HETATM    6  C   UNL     1      -8.072   8.234  69.706  1.00  0.00    -0.118 A  
HETATM    7  C   UNL     1      -6.761   8.731  69.698  1.00  0.00    -0.039 A  
HETATM    8  C   UNL     1      -6.518  10.079  69.418  1.00  0.00    -0.048 A  
BRANCH   5   9
HETATM    9  C   UNL     1     -10.577   8.566  69.357  1.00  0.00    -0.195 C  
HETATM   10  H   UNL     1     -11.512   6.932  68.740  1.00  0.00     0.000 HD 
HETATM   11  O   UNL     1     -10.619   7.255  68.762  1.00  0.00    -0.204 OA 
BRANCH   9  12
HETATM   12  C   UNL     1     -11.281   8.542  70.751  1.00  0.00    -0.257 C  
HETATM   13  C   UNL     1     -10.330   9.035  71.849  1.00  0.00    -0.357 C  
HETATM   14  N   UNL     1     -12.501   9.379  70.810  1.00  0.00    -0.488 NA 
HETATM   15  H1  UNL     1     -12.961   9.363  71.720  1.00  0.00     0.000 HD 
HETATM   16  H2  UNL     1     -13.154   9.119  70.071  1.00  0.00     0.000 HD 
ENDBRANCH   9  12
ENDBRANCH   5   9
BRANCH   6  17
HETATM   17  O   UNL     1      -8.374   6.922  69.966  1.00  0.00    -0.134 OA 
HETATM   18  C   UNL     1      -7.508   6.268  70.889  1.00  0.00    -0.088 C  
ENDBRANCH   6  17
ENDBRANCH   2   3
TORSDOF 4
ENDMDL
MODEL      245
REMARK 921   NORMALIZED FREE ENERGY PREDICTED BY IDOCK:   -1.46 KCAL/MOL
REMARK 922        TOTAL FREE ENERGY PREDICTED BY IDOCK:   -1.93 KCAL/MOL
REMARK 923 INTER-LIGAND FREE ENERGY PREDICTED BY IDOCK:   -2.21 KCAL/MOL
REMARK 924 INTRA-LIGAND FREE ENERGY PREDICTED BY IDOCK:    0.28 KCAL/MOL
REMARK 927      BINDING AFFINITY PREDICTED BY RF-SCORE:    0.00 PKD
ROOT
HETATM    1  C   UNL     1     -10.332   8.827  67.251  1.00  0.00    -0.290 C  
HETATM    2  O   UNL     1     -11.120   8.467  68.380  1.00  0.00     0.138 OA 
ENDROOT
BRANCH   2   3
HETATM    3  C   UNL     1     -10.418   8.181  69.521  1.00  0.00    -0.227 A  
HETATM    4  C   UNL     1      -9.530   7.118  69.658  1.00  0.00    -0.152 A  
HETATM    5  C   UNL     1      -8.854   6.873  70.873  1.00  0.00    -0.149 A  
HETATM    6  C   UNL     1      -9.083   7.743  71.954  1.00  0.00    -0.134 A  
HETATM    7  C   UNL     1      -9.943   8.839  71.799  1.00  0.00    -0.396 A  
HETATM    8  C   UNL     1     -10.606   9.051  70.587  1.00  0.00    -0.290 A  
BRANCH   5   9
HETATM    9  C   UNL     1      -7.897   5.696  70.999  1.00  0.00    -0.105 C  
HETATM   10  H   UNL     1      -6.130   5.345  71.823  1.00  0.00     0.000 HD 
HETATM   11  O   UNL     1      -6.727   6.080  71.745  1.00  0.00    -0.059 OA 
BRANCH   9  12
HETATM   12  C   UNL     1      -8.537   4.420  71.631  1.00  0.00    -0.113 C  
HETATM   13  C   UNL     1      -7.745   3.968  72.864  1.00  0.00    -0.076 C  
HETATM   14  N   UNL     1      -9.944   4.612  72.053  1.00  0.00    -0.182 NA 
HETATM   15  H1  UNL     1     -10.362   3.778  72.466  1.00  0.00     0.000 HD 
HETATM   16  H2  UNL     1     -10.511   4.953  71.277  1.00  0.00     0.000 HD 
ENDBRANCH   9  12
ENDBRANCH   5   9
BRANCH   6  17
HETATM   17  O   UNL     1      -8.399   7.485  73.114  1.00  0.00    -0.109 OA 
HETATM   18  C   UNL     1      -9.143   7.671  74.314  1.00  0.00    -0.064 C  
ENDBRANCH   6  17
ENDBRANCH   2   3
TORSDOF 4
ENDMDL
MODEL      246
REMARK 921   NORMALIZED FREE ENERGY PREDICTED BY IDOCK:   -1.42 KCAL/MOL
REMARK 922        TOTAL FREE ENERGY PREDICTED BY IDOCK:   -1.88 KCAL/MOL
REMARK 923 INTER-LIGAND FREE ENERGY PREDICTED BY IDOCK:   -2.59 KCAL/MOL
REMARK 924 INTRA-LIGAND FREE ENERGY PREDICTED BY IDOCK:    0.71 KCAL/MOL
REMARK 927      BINDING AFFINITY PREDICTED BY RF-SCORE:    0.00 PKD
ROOT
HETATM    1  C   UNL     1      -5.145  13.401  68.969  1.00  0.00    -0.070 C  
HETATM    2  O   UNL     1      -6.565  13.497  68.921  1.00  0.00    -0.094 OA 
ENDROOT
BRANCH   2   3
HETATM    3  C   UNL     1      -7.225  12.326  68.662  1.00  0.00    -0.105 A  
HETATM    4  C   UNL     1      -8.582  12.230  68.366  1.00  0.00    -0.136 A  
HETATM    5  C   UNL     1      -9.199  10.982  68.128  1.00  0.00    -0.165 A  
HETATM    6  C   UNL     1      -8.406   9.823  68.179  1.00  0.00    -0.110 A  
HETATM    7  C   UNL     1      -7.031   9.926  68.431  1.00  0.00    -0.068 A  
HETATM    8  C   UNL     1      -6.449  11.174  68.673  1.00  0.00    -0.049 A  
BRANCH   5   9
HETATM    9  C   UNL     1     -10.688  10.906  67.819  1.00  0.00    -0.235 C  
HETATM   10  H   UNL     1     -11.901   9.703  66.816  1.00  0.00     0.000 HD 
HETATM   11  O   UNL     1     -10.972   9.751  67.008  1.00  0.00    -0.162 OA 
BRANCH   9  12
HETATM   12  C   UNL     1     -11.602  10.906  69.085  1.00  0.00    -0.319 C  
HETATM   13  C   UNL     1     -11.137   9.846  70.091  1.00  0.00    -0.353 C  
HETATM   14  N   UNL     1     -11.630  12.207  69.793  1.00  0.00    -0.457 NA 
HETATM   15  H1  UNL     1     -12.227  12.208  70.619  1.00  0.00     0.000 HD 
HETATM   16  H2  UNL     1     -11.894  12.959  69.156  1.00  0.00     0.000 HD 
ENDBRANCH   9  12
ENDBRANCH   5   9
BRANCH   6  17
HETATM   17  O   UNL     1      -9.035   8.630  67.928  1.00  0.00    -0.139 OA 
HETATM   18  C   UNL     1      -8.398   7.479  68.474  1.00  0.00    -0.126 C  
ENDBRANCH   6  17
ENDBRANCH   2   3
TORSDOF 4
ENDMDL
MODEL      247
REMARK 921   NORMALIZED FREE ENERGY PREDICTED BY IDOCK:   -1.38 KCAL/MOL
REMARK 922        TOTAL FREE ENERGY PREDICTED BY IDOCK:   -1.83 KCAL/MOL
REMARK 923 INTER-LIGAND FREE ENERGY PREDICTED BY IDOCK:   -1.93 KCAL/MOL
REMARK 924 INTRA-LIGAND FREE ENERGY PREDICTED BY IDOCK:    0.10 KCAL/MOL
REMARK 927      BINDING AFFINITY PREDICTED BY RF-SCORE:    0.00 PKD
ROOT
HETATM    1  C   UNL     1      -5.256  13.169  69.037  1.00  0.00    -0.069 C  
HETATM    2  O   UNL     1      -6.669  13.055  68.905  1.00  0.00    -0.089 OA 
ENDROOT
BRANCH   2   3
HETATM    3  C   UNL     1      -7.111  11.930  68.261  1.00  0.00    -0.081 A  
HETATM    4  C   UNL     1      -8.217  11.179  68.650  1.00  0.00    -0.152 A  
HETATM    5  C   UNL     1      -8.604  10.017  67.947  1.00  0.00    -0.121 A  
HETATM    6  C   UNL     1      -7.852   9.634  66.822  1.00  0.00    -0.102 A  
HETATM    7  C   UNL     1      -6.766  10.418  66.406  1.00  0.00    -0.107 A  
HETATM    8  C   UNL     1      -6.401  11.559  67.127  1.00  0.00    -0.124 A  
BRANCH   5   9
HETATM    9  C   UNL     1      -9.810   9.208  68.401  1.00  0.00    -0.164 C  
HETATM   10  H   UNL     1     -11.570   8.686  67.655  1.00  0.00     0.000 HD 
HETATM   11  O   UNL     1     -10.817   9.191  67.371  1.00  0.00    -0.243 OA 
BRANCH   9  12
HETATM   12  C   UNL     1      -9.470   7.748  68.838  1.00  0.00    -0.150 C  
HETATM   13  C   UNL     1      -8.786   7.738  70.211  1.00  0.00    -0.144 C  
HETATM   14  N   UNL     1     -10.657   6.867  68.927  1.00  0.00    -0.211 NA 
HETATM   15  H1  UNL     1     -10.435   5.914  69.213  1.00  0.00     0.000 HD 
HETATM   16  H2  UNL     1     -11.175   6.869  68.048  1.00  0.00     0.000 HD 
ENDBRANCH   9  12
ENDBRANCH   5   9
BRANCH   6  17
HETATM   17  O   UNL     1      -8.264   8.510  66.154  1.00  0.00    -0.107 OA 
HETATM   18  C   UNL     1      -7.280   7.490  66.012  1.00  0.00    -0.070 C  
ENDBRANCH   6  17
ENDBRANCH   2   3
TORSDOF 4
ENDMDL
MODEL      248
REMARK 921   NORMALIZED FREE ENERGY PREDICTED BY IDOCK:   25.53 KCAL/MOL
REMARK 922        TOTAL FREE ENERGY PREDICTED BY IDOCK:   31.36 KCAL/MOL
REMARK 923 INTER-LIGAND FREE ENERGY PREDICTED BY IDOCK:   29.76 KCAL/MOL
REMARK 924 INTRA-LIGAND FREE ENERGY PREDICTED BY IDOCK:    1.60 KCAL/MOL
REMARK 927      BINDING AFFINITY PREDICTED BY RF-SCORE:    0.00 PKD
ROOT
HETATM    1  C   UNL     1     -10.135  14.200  65.174  1.00  0.00    -0.317 C  
HETATM    2  O   UNL     1     -10.331  12.839  65.542  1.00  0.00    -0.276 OA 
ENDROOT
BRANCH   2   3
HETATM    3  C   UNL     1     -10.450  12.605  66.886  1.00  0.00    -0.233 A  
HETATM    4  C   UNL     1      -9.876  13.392  67.881  1.00  0.00    -0.237 A  
HETATM    5  C   UNL     1     -10.027  13.078  69.249  1.00  0.00     0.546 A  
HETATM    6  C   UNL     1     -10.791  11.950  69.597  1.00  0.00     0.160 A  
HETATM    7  C   UNL     1     -11.407  11.186  68.595  1.00  0.00    -0.342 A  
HETATM    8  C   UNL     1     -11.232  11.516  67.248  1.00  0.00    -0.365 A  
BRANCH   5   9
HETATM    9  C   UNL     1      -9.377  13.948  70.315  1.00  0.00     2.815 C  
HETATM   10  H   UNL     1      -8.875  15.853  70.524  1.00  0.00     0.000 HD 
HETATM   11  O   UNL     1      -9.280  15.310  69.858  1.00  0.00    -0.162 OA 
BRANCH   9  12
HETATM   12  C   UNL     1     -10.096  13.901  71.701  1.00  0.00     6.392 C  
HETATM   13  C   UNL     1      -9.101  13.559  72.818  1.00  0.00    15.069 C  
HETATM   14  N   UNL     1     -10.754  15.176  72.068  1.00  0.00    -0.080 NA 
HETATM   15  H1  UNL     1     -11.224  15.145  72.973  1.00  0.00     0.000 HD 
HETATM   16  H2  UNL     1     -11.400  15.473  71.336  1.00  0.00     0.000 HD 
ENDBRANCH   9  12
ENDBRANCH   5   9
BRANCH   6  17
HETATM   17  O   UNL     1     -10.930  11.683  70.935  1.00  0.00     1.427 OA 
HETATM   18  C   UNL     1      -9.976  10.774  71.477  1.00  0.00     5.365 C  
ENDBRANCH   6  17
ENDBRANCH   2   3
TORSDOF 4
ENDMDL
