MODEL        1
REMARK 921   NORMALIZED FREE ENERGY PREDICTED BY IDOCK:   -3.80 KCAL/MOL
REMARK 922        TOTAL FREE ENERGY PREDICTED BY IDOCK:   -5.09 KCAL/MOL
REMARK 923 INTER-LIGAND FREE ENERGY PREDICTED BY IDOCK:   -4.68 KCAL/MOL
REMARK 924 INTRA-LIGAND FREE ENERGY PREDICTED BY IDOCK:   -0.40 KCAL/MOL
REMARK 927      BINDING AFFINITY PREDICTED BY RF-SCORE:    0.00 PKD
ROOT
HETATM    1  C   UNL     1     -11.155  15.909  64.819  1.00  0.00    -0.397 C  
HETATM    2  C   UNL     1     -11.367  14.408  65.016  1.00  0.00    -0.373 C  
ENDROOT
BRANCH   2   3
HETATM    3  O   UNL     1     -12.291  13.959  64.004  1.00  0.00    -0.637 OA 
BRANCH   3   4
HETATM    4  C   UNL     1     -12.121  12.666  63.589  1.00  0.00    -0.547 C  
HETATM    5  C   UNL     1     -10.669  12.311  63.541  1.00  0.00    -0.497 C  
HETATM    6  O   UNL     1     -13.034  11.907  63.302  1.00  0.00    -0.707 OA 
ENDBRANCH   3   4
ENDBRANCH   2   3
BRANCH   2   7
HETATM    7  C   UNL     1     -11.976  14.161  66.415  1.00  0.00    -0.436 C  
BRANCH   7   8
HETATM    8  N   UNL     1     -11.191  13.177  67.329  1.00  0.00    -0.276 N  
HETATM    9  C   UNL     1     -11.466  13.587  68.781  1.00  0.00    -0.311 C  
HETATM   10  C   UNL     1     -11.652  11.736  67.157  1.00  0.00    -0.266 C  
HETATM   11  C   UNL     1      -9.691  13.263  67.079  1.00  0.00    -0.238 C  
ENDBRANCH   7   8
ENDBRANCH   2   7
TORSDOF 4
ENDMDL
MODEL        2
REMARK 921   NORMALIZED FREE ENERGY PREDICTED BY IDOCK:   -3.79 KCAL/MOL
REMARK 922        TOTAL FREE ENERGY PREDICTED BY IDOCK:   -5.08 KCAL/MOL
REMARK 923 INTER-LIGAND FREE ENERGY PREDICTED BY IDOCK:   -4.74 KCAL/MOL
REMARK 924 INTRA-LIGAND FREE ENERGY PREDICTED BY IDOCK:   -0.33 KCAL/MOL
REMARK 927      BINDING AFFINITY PREDICTED BY RF-SCORE:    0.00 PKD
ROOT
HETATM    1  C   UNL     1     -11.327  15.989  64.492  1.00  0.00    -0.303 C  
HETATM    2  C   UNL     1     -11.497  14.489  64.729  1.00  0.00    -0.408 C  
ENDROOT
BRANCH   2   3
HETATM    3  O   UNL     1     -12.341  13.972  63.679  1.00  0.00    -0.728 OA 
BRANCH   3   4
HETATM    4  C   UNL     1     -12.261  12.621  63.477  1.00  0.00    -0.547 C  
HETATM    5  C   UNL     1     -10.834  12.181  63.391  1.00  0.00    -0.474 C  
HETATM    6  O   UNL     1     -13.227  11.878  63.384  1.00  0.00    -0.649 OA 
ENDBRANCH   3   4
ENDBRANCH   2   3
BRANCH   2   7
HETATM    7  C   UNL     1     -12.183  14.267  66.096  1.00  0.00    -0.410 C  
BRANCH   7   8
HETATM    8  N   UNL     1     -11.341  13.502  67.157  1.00  0.00    -0.309 N  
HETATM    9  C   UNL     1      -9.866  13.812  66.879  1.00  0.00    -0.264 C  
HETATM   10  C   UNL     1     -11.653  13.956  68.577  1.00  0.00    -0.332 C  
HETATM   11  C   UNL     1     -11.547  11.997  67.050  1.00  0.00    -0.317 C  
ENDBRANCH   7   8
ENDBRANCH   2   7
TORSDOF 4
ENDMDL
MODEL        3
REMARK 921   NORMALIZED FREE ENERGY PREDICTED BY IDOCK:   -3.71 KCAL/MOL
REMARK 922        TOTAL FREE ENERGY PREDICTED BY IDOCK:   -4.98 KCAL/MOL
REMARK 923 INTER-LIGAND FREE ENERGY PREDICTED BY IDOCK:   -4.66 KCAL/MOL
REMARK 924 INTRA-LIGAND FREE ENERGY PREDICTED BY IDOCK:   -0.31 KCAL/MOL
REMARK 927      BINDING AFFINITY PREDICTED BY RF-SCORE:    0.00 PKD
ROOT
HETATM    1  C   UNL     1     -11.693  11.964  68.379  1.00  0.00    -0.387 C  
HETATM    2  C   UNL     1     -11.756  12.910  67.179  1.00  0.00    -0.377 C  
ENDROOT
BRANCH   2   3
HETATM    3  O   UNL     1     -12.206  12.145  66.042  1.00  0.00    -0.609 OA 
BRANCH   3   4
HETATM    4  C   UNL     1     -12.654  12.884  64.981  1.00  0.00    -0.472 C  
HETATM    5  C   UNL     1     -12.335  12.204  63.688  1.00  0.00    -0.673 C  
HETATM    6  O   UNL     1     -13.240  13.952  65.081  1.00  0.00    -0.768 OA 
ENDBRANCH   3   4
ENDBRANCH   2   3
BRANCH   2   7
HETATM    7  C   UNL     1     -10.342  13.467  66.898  1.00  0.00    -0.265 C  
BRANCH   7   8
HETATM    8  N   UNL     1     -10.160  14.995  67.127  1.00  0.00    -0.238 N  
HETATM    9  C   UNL     1      -8.799  15.195  67.803  1.00  0.00    -0.170 C  
HETATM   10  C   UNL     1     -10.151  15.777  65.821  1.00  0.00    -0.371 C  
HETATM   11  C   UNL     1     -11.242  15.551  68.044  1.00  0.00    -0.332 C  
ENDBRANCH   7   8
ENDBRANCH   2   7
TORSDOF 4
ENDMDL
MODEL        4
REMARK 921   NORMALIZED FREE ENERGY PREDICTED BY IDOCK:   -3.64 KCAL/MOL
REMARK 922        TOTAL FREE ENERGY PREDICTED BY IDOCK:   -4.90 KCAL/MOL
REMARK 923 INTER-LIGAND FREE ENERGY PREDICTED BY IDOCK:   -4.59 KCAL/MOL
REMARK 924 INTRA-LIGAND FREE ENERGY PREDICTED BY IDOCK:   -0.30 KCAL/MOL
REMARK 927      BINDING AFFINITY PREDICTED BY RF-SCORE:    0.00 PKD
ROOT
HETATM    1  C   UNL     1     -12.284  13.139  63.538  1.00  0.00    -0.552 C  
HETATM    2  C   UNL     1     -11.759  13.617  64.892  1.00  0.00    -0.360 C  
ENDROOT
BRANCH   2   3
HETATM    3  O   UNL     1     -10.678  14.539  64.643  1.00  0.00    -0.399 OA 
BRANCH   3   4
HETATM    4  C   UNL     1     -10.988  15.861  64.807  1.00  0.00    -0.375 C  
HETATM    5  C   UNL     1     -10.390  16.393  66.071  1.00  0.00    -0.365 C  
HETATM    6  O   UNL     1     -11.658  16.517  64.023  1.00  0.00    -1.154 OA 
ENDBRANCH   3   4
ENDBRANCH   2   3
BRANCH   2   7
HETATM    7  C   UNL     1     -11.227  12.402  65.686  1.00  0.00    -0.322 C  
BRANCH   7   8
HETATM    8  N   UNL     1     -11.171  12.578  67.231  1.00  0.00    -0.278 N  
HETATM    9  C   UNL     1      -9.733  12.969  67.593  1.00  0.00    -0.212 C  
HETATM   10  C   UNL     1     -12.092  13.686  67.721  1.00  0.00    -0.290 C  
HETATM   11  C   UNL     1     -11.513  11.279  67.950  1.00  0.00    -0.288 C  
ENDBRANCH   7   8
ENDBRANCH   2   7
TORSDOF 4
ENDMDL
MODEL        5
REMARK 921   NORMALIZED FREE ENERGY PREDICTED BY IDOCK:   -3.61 KCAL/MOL
REMARK 922        TOTAL FREE ENERGY PREDICTED BY IDOCK:   -4.86 KCAL/MOL
REMARK 923 INTER-LIGAND FREE ENERGY PREDICTED BY IDOCK:   -4.58 KCAL/MOL
REMARK 924 INTRA-LIGAND FREE ENERGY PREDICTED BY IDOCK:   -0.28 KCAL/MOL
REMARK 927      BINDING AFFINITY PREDICTED BY RF-SCORE:    0.00 PKD
ROOT
HETATM    1  C   UNL     1     -12.280  13.081  63.820  1.00  0.00    -0.536 C  
HETATM    2  C   UNL     1     -11.732  13.703  65.104  1.00  0.00    -0.331 C  
ENDROOT
BRANCH   2   3
HETATM    3  O   UNL     1     -10.602  14.525  64.746  1.00  0.00    -0.425 OA 
BRANCH   3   4
HETATM    4  C   UNL     1     -10.798  15.874  64.867  1.00  0.00    -0.400 C  
HETATM    5  C   UNL     1     -10.045  16.416  66.040  1.00  0.00    -0.373 C  
HETATM    6  O   UNL     1     -11.491  16.542  64.114  1.00  0.00    -1.059 OA 
ENDBRANCH   3   4
ENDBRANCH   2   3
BRANCH   2   7
HETATM    7  C   UNL     1     -11.268  12.576  66.055  1.00  0.00    -0.315 C  
BRANCH   7   8
HETATM    8  N   UNL     1     -11.137  12.968  67.554  1.00  0.00    -0.258 N  
HETATM    9  C   UNL     1     -11.622  11.773  68.382  1.00  0.00    -0.318 C  
HETATM   10  C   UNL     1      -9.695  13.256  67.952  1.00  0.00    -0.224 C  
HETATM   11  C   UNL     1     -12.006  14.173  67.891  1.00  0.00    -0.343 C  
ENDBRANCH   7   8
ENDBRANCH   2   7
TORSDOF 4
ENDMDL
MODEL        6
REMARK 921   NORMALIZED FREE ENERGY PREDICTED BY IDOCK:   -3.60 KCAL/MOL
REMARK 922        TOTAL FREE ENERGY PREDICTED BY IDOCK:   -4.84 KCAL/MOL
REMARK 923 INTER-LIGAND FREE ENERGY PREDICTED BY IDOCK:   -4.53 KCAL/MOL
REMARK 924 INTRA-LIGAND FREE ENERGY PREDICTED BY IDOCK:   -0.31 KCAL/MOL
REMARK 927      BINDING AFFINITY PREDICTED BY RF-SCORE:    0.00 PKD
ROOT
HETATM    1  C   UNL     1      -9.683  15.276  67.601  1.00  0.00    -0.208 C  
HETATM    2  C   UNL     1      -9.973  16.306  66.509  1.00  0.00    -0.277 C  
ENDROOT
BRANCH   2   3
HETATM    3  O   UNL     1     -10.032  15.605  65.250  1.00  0.00    -0.335 OA 
BRANCH   3   4
HETATM    4  C   UNL     1     -11.244  15.645  64.615  1.00  0.00    -0.369 C  
HETATM    5  C   UNL     1     -11.989  14.363  64.809  1.00  0.00    -0.455 C  
HETATM    6  O   UNL     1     -11.659  16.603  63.980  1.00  0.00    -1.197 OA 
ENDBRANCH   3   4
ENDBRANCH   2   3
BRANCH   2   7
HETATM    7  C   UNL     1      -8.824  17.339  66.469  1.00  0.00    -0.261 C  
BRANCH   7   8
HETATM    8  N   UNL     1      -9.199  18.784  66.906  1.00  0.00    -0.297 N  
HETATM    9  C   UNL     1     -10.544  19.123  66.252  1.00  0.00    -0.434 C  
HETATM   10  C   UNL     1      -9.371  18.905  68.414  1.00  0.00    -0.350 C  
HETATM   11  C   UNL     1      -8.163  19.794  66.431  1.00  0.00    -0.347 C  
ENDBRANCH   7   8
ENDBRANCH   2   7
TORSDOF 4
ENDMDL
MODEL        7
REMARK 921   NORMALIZED FREE ENERGY PREDICTED BY IDOCK:   -3.48 KCAL/MOL
REMARK 922        TOTAL FREE ENERGY PREDICTED BY IDOCK:   -4.70 KCAL/MOL
REMARK 923 INTER-LIGAND FREE ENERGY PREDICTED BY IDOCK:   -4.36 KCAL/MOL
REMARK 924 INTRA-LIGAND FREE ENERGY PREDICTED BY IDOCK:   -0.34 KCAL/MOL
REMARK 927      BINDING AFFINITY PREDICTED BY RF-SCORE:    0.00 PKD
ROOT
HETATM    1  C   UNL     1     -12.010  14.126  67.008  1.00  0.00    -0.471 C  
HETATM    2  C   UNL     1     -11.596  12.844  66.283  1.00  0.00    -0.372 C  
ENDROOT
BRANCH   2   3
HETATM    3  O   UNL     1     -12.606  12.554  65.295  1.00  0.00    -0.645 OA 
BRANCH   3   4
HETATM    4  C   UNL     1     -12.242  12.796  63.999  1.00  0.00    -0.441 C  
HETATM    5  C   UNL     1     -11.310  11.736  63.502  1.00  0.00    -0.496 C  
HETATM    6  O   UNL     1     -12.631  13.747  63.337  1.00  0.00    -0.842 OA 
ENDBRANCH   3   4
ENDBRANCH   2   3
BRANCH   2   7
HETATM    7  C   UNL     1     -11.527  11.686  67.304  1.00  0.00    -0.277 C  
BRANCH   7   8
HETATM    8  N   UNL     1     -10.168  10.933  67.379  1.00  0.00    -0.194 N  
HETATM    9  C   UNL     1      -9.171  11.702  66.504  1.00  0.00    -0.198 C  
HETATM   10  C   UNL     1      -9.608  10.891  68.795  1.00  0.00    -0.189 C  
HETATM   11  C   UNL     1     -10.289   9.514  66.840  1.00  0.00    -0.237 C  
ENDBRANCH   7   8
ENDBRANCH   2   7
TORSDOF 4
ENDMDL
MODEL        8
REMARK 921   NORMALIZED FREE ENERGY PREDICTED BY IDOCK:   -3.46 KCAL/MOL
REMARK 922        TOTAL FREE ENERGY PREDICTED BY IDOCK:   -4.67 KCAL/MOL
REMARK 923 INTER-LIGAND FREE ENERGY PREDICTED BY IDOCK:   -4.32 KCAL/MOL
REMARK 924 INTRA-LIGAND FREE ENERGY PREDICTED BY IDOCK:   -0.35 KCAL/MOL
REMARK 927      BINDING AFFINITY PREDICTED BY RF-SCORE:    0.00 PKD
ROOT
HETATM    1  C   UNL     1     -12.192  14.103  66.807  1.00  0.00    -0.429 C  
HETATM    2  C   UNL     1     -11.565  12.831  66.236  1.00  0.00    -0.379 C  
ENDROOT
BRANCH   2   3
HETATM    3  O   UNL     1     -12.416  12.362  65.170  1.00  0.00    -0.583 OA 
BRANCH   3   4
HETATM    4  C   UNL     1     -12.052  12.761  63.913  1.00  0.00    -0.486 C  
HETATM    5  C   UNL     1     -10.828  12.031  63.458  1.00  0.00    -0.509 C  
HETATM    6  O   UNL     1     -12.651  13.597  63.253  1.00  0.00    -0.816 OA 
ENDBRANCH   3   4
ENDBRANCH   2   3
BRANCH   2   7
HETATM    7  C   UNL     1     -11.494  11.758  67.347  1.00  0.00    -0.305 C  
BRANCH   7   8
HETATM    8  N   UNL     1     -10.173  10.939  67.412  1.00  0.00    -0.194 N  
HETATM    9  C   UNL     1      -9.852  10.709  68.893  1.00  0.00    -0.201 C  
HETATM   10  C   UNL     1     -10.306   9.576  66.747  1.00  0.00    -0.228 C  
HETATM   11  C   UNL     1      -9.016  11.701  66.780  1.00  0.00    -0.189 C  
ENDBRANCH   7   8
ENDBRANCH   2   7
TORSDOF 4
ENDMDL
MODEL        9
REMARK 921   NORMALIZED FREE ENERGY PREDICTED BY IDOCK:   -3.44 KCAL/MOL
REMARK 922        TOTAL FREE ENERGY PREDICTED BY IDOCK:   -4.65 KCAL/MOL
REMARK 923 INTER-LIGAND FREE ENERGY PREDICTED BY IDOCK:   -4.43 KCAL/MOL
REMARK 924 INTRA-LIGAND FREE ENERGY PREDICTED BY IDOCK:   -0.22 KCAL/MOL
REMARK 927      BINDING AFFINITY PREDICTED BY RF-SCORE:    0.00 PKD
ROOT
HETATM    1  C   UNL     1      -9.800  14.047  66.132  1.00  0.00    -0.319 C  
HETATM    2  C   UNL     1     -10.872  15.123  65.957  1.00  0.00    -0.335 C  
ENDROOT
BRANCH   2   3
HETATM    3  O   UNL     1     -11.435  14.971  64.638  1.00  0.00    -0.404 OA 
BRANCH   3   4
HETATM    4  C   UNL     1     -12.389  13.997  64.518  1.00  0.00    -0.378 C  
HETATM    5  C   UNL     1     -12.081  13.090  63.370  1.00  0.00    -0.591 C  
HETATM    6  O   UNL     1     -13.358  13.884  65.255  1.00  0.00    -0.732 OA 
ENDBRANCH   3   4
ENDBRANCH   2   3
BRANCH   2   7
HETATM    7  C   UNL     1     -10.215  16.516  66.079  1.00  0.00    -0.356 C  
BRANCH   7   8
HETATM    8  N   UNL     1     -10.217  17.142  67.503  1.00  0.00    -0.313 N  
HETATM    9  C   UNL     1     -10.645  18.607  67.356  1.00  0.00    -0.441 C  
HETATM   10  C   UNL     1     -11.208  16.457  68.433  1.00  0.00    -0.324 C  
HETATM   11  C   UNL     1      -8.828  17.105  68.127  1.00  0.00    -0.237 C  
ENDBRANCH   7   8
ENDBRANCH   2   7
TORSDOF 4
ENDMDL
MODEL       10
REMARK 921   NORMALIZED FREE ENERGY PREDICTED BY IDOCK:   -3.44 KCAL/MOL
REMARK 922        TOTAL FREE ENERGY PREDICTED BY IDOCK:   -4.65 KCAL/MOL
REMARK 923 INTER-LIGAND FREE ENERGY PREDICTED BY IDOCK:   -4.26 KCAL/MOL
REMARK 924 INTRA-LIGAND FREE ENERGY PREDICTED BY IDOCK:   -0.39 KCAL/MOL
REMARK 927      BINDING AFFINITY PREDICTED BY RF-SCORE:    0.00 PKD
ROOT
HETATM    1  C   UNL     1     -10.342  19.877  66.315  1.00  0.00    -0.608 C  
HETATM    2  C   UNL     1      -9.616  18.558  66.579  1.00  0.00    -0.329 C  
ENDROOT
BRANCH   2   3
HETATM    3  O   UNL     1     -10.598  17.503  66.546  1.00  0.00    -0.291 OA 
BRANCH   3   4
HETATM    4  C   UNL     1     -10.567  16.711  65.430  1.00  0.00    -0.237 C  
HETATM    5  C   UNL     1      -9.793  15.457  65.690  1.00  0.00    -0.387 C  
HETATM    6  O   UNL     1     -11.103  16.991  64.369  1.00  0.00    -1.144 OA 
ENDBRANCH   3   4
ENDBRANCH   2   3
BRANCH   2   7
HETATM    7  C   UNL     1      -8.964  18.610  67.980  1.00  0.00    -0.302 C  
BRANCH   7   8
HETATM    8  N   UNL     1      -7.577  17.919  68.106  1.00  0.00    -0.251 N  
HETATM    9  C   UNL     1      -6.985  17.825  66.695  1.00  0.00    -0.213 C  
HETATM   10  C   UNL     1      -6.608  18.720  68.965  1.00  0.00    -0.283 C  
HETATM   11  C   UNL     1      -7.708  16.510  68.669  1.00  0.00    -0.216 C  
ENDBRANCH   7   8
ENDBRANCH   2   7
TORSDOF 4
ENDMDL
MODEL       11
REMARK 921   NORMALIZED FREE ENERGY PREDICTED BY IDOCK:   -3.40 KCAL/MOL
REMARK 922        TOTAL FREE ENERGY PREDICTED BY IDOCK:   -4.60 KCAL/MOL
REMARK 923 INTER-LIGAND FREE ENERGY PREDICTED BY IDOCK:   -4.26 KCAL/MOL
REMARK 924 INTRA-LIGAND FREE ENERGY PREDICTED BY IDOCK:   -0.34 KCAL/MOL
REMARK 927      BINDING AFFINITY PREDICTED BY RF-SCORE:    0.00 PKD
ROOT
HETATM    1  C   UNL     1     -11.886  13.772  68.091  1.00  0.00    -0.411 C  
HETATM    2  C   UNL     1     -11.544  13.275  66.686  1.00  0.00    -0.365 C  
ENDROOT
BRANCH   2   3
HETATM    3  O   UNL     1     -12.586  13.725  65.796  1.00  0.00    -0.484 OA 
BRANCH   3   4
HETATM    4  C   UNL     1     -12.153  14.268  64.617  1.00  0.00    -0.463 C  
HETATM    5  C   UNL     1     -10.997  15.189  64.849  1.00  0.00    -0.434 C  
HETATM    6  O   UNL     1     -12.642  14.026  63.524  1.00  0.00    -0.842 OA 
ENDBRANCH   3   4
ENDBRANCH   2   3
BRANCH   2   7
HETATM    7  C   UNL     1     -11.503  11.730  66.692  1.00  0.00    -0.267 C  
BRANCH   7   8
HETATM    8  N   UNL     1     -10.290  11.083  65.964  1.00  0.00    -0.251 N  
HETATM    9  C   UNL     1     -10.192   9.631  66.444  1.00  0.00    -0.217 C  
HETATM   10  C   UNL     1     -10.468  11.063  64.452  1.00  0.00    -0.354 C  
HETATM   11  C   UNL     1      -8.990  11.796  66.312  1.00  0.00    -0.176 C  
ENDBRANCH   7   8
ENDBRANCH   2   7
TORSDOF 4
ENDMDL
MODEL       12
REMARK 921   NORMALIZED FREE ENERGY PREDICTED BY IDOCK:   -3.39 KCAL/MOL
REMARK 922        TOTAL FREE ENERGY PREDICTED BY IDOCK:   -4.59 KCAL/MOL
REMARK 923 INTER-LIGAND FREE ENERGY PREDICTED BY IDOCK:   -4.35 KCAL/MOL
REMARK 924 INTRA-LIGAND FREE ENERGY PREDICTED BY IDOCK:   -0.24 KCAL/MOL
REMARK 927      BINDING AFFINITY PREDICTED BY RF-SCORE:    0.00 PKD
ROOT
HETATM    1  C   UNL     1     -11.829  13.605  68.644  1.00  0.00    -0.409 C  
HETATM    2  C   UNL     1     -11.540  14.064  67.214  1.00  0.00    -0.369 C  
ENDROOT
BRANCH   2   3
HETATM    3  O   UNL     1     -11.738  12.932  66.342  1.00  0.00    -0.355 OA 
BRANCH   3   4
HETATM    4  C   UNL     1     -12.483  13.181  65.222  1.00  0.00    -0.495 C  
HETATM    5  C   UNL     1     -12.168  12.193  64.144  1.00  0.00    -0.509 C  
HETATM    6  O   UNL     1     -13.298  14.086  65.121  1.00  0.00    -0.703 OA 
ENDBRANCH   3   4
ENDBRANCH   2   3
BRANCH   2   7
HETATM    7  C   UNL     1     -10.071  14.534  67.120  1.00  0.00    -0.252 C  
BRANCH   7   8
HETATM    8  N   UNL     1      -9.858  15.990  66.617  1.00  0.00    -0.248 N  
HETATM    9  C   UNL     1     -10.386  16.931  67.707  1.00  0.00    -0.327 C  
HETATM   10  C   UNL     1      -8.388  16.315  66.394  1.00  0.00    -0.330 C  
HETATM   11  C   UNL     1     -10.636  16.253  65.334  1.00  0.00    -0.352 C  
ENDBRANCH   7   8
ENDBRANCH   2   7
TORSDOF 4
ENDMDL
MODEL       13
REMARK 921   NORMALIZED FREE ENERGY PREDICTED BY IDOCK:   -3.39 KCAL/MOL
REMARK 922        TOTAL FREE ENERGY PREDICTED BY IDOCK:   -4.58 KCAL/MOL
REMARK 923 INTER-LIGAND FREE ENERGY PREDICTED BY IDOCK:   -4.18 KCAL/MOL
REMARK 924 INTRA-LIGAND FREE ENERGY PREDICTED BY IDOCK:   -0.40 KCAL/MOL
REMARK 927      BINDING AFFINITY PREDICTED BY RF-SCORE:    0.00 PKD
ROOT
HETATM    1  C   UNL     1     -12.092  15.183  69.457  1.00  0.00    -0.316 C  
HETATM    2  C   UNL     1     -11.783  14.180  68.344  1.00  0.00    -0.345 C  
ENDROOT
BRANCH   2   3
HETATM    3  O   UNL     1     -11.058  13.081  68.934  1.00  0.00    -0.252 OA 
BRANCH   3   4
HETATM    4  C   UNL     1     -11.681  11.865  68.863  1.00  0.00    -0.323 C  
HETATM    5  C   UNL     1     -11.930  11.316  70.232  1.00  0.00    -0.466 C  
HETATM    6  O   UNL     1     -11.995  11.309  67.821  1.00  0.00    -0.637 OA 
ENDBRANCH   3   4
ENDBRANCH   2   3
BRANCH   2   7
HETATM    7  C   UNL     1     -10.900  14.865  67.276  1.00  0.00    -0.306 C  
BRANCH   7   8
HETATM    8  N   UNL     1     -11.270  14.558  65.797  1.00  0.00    -0.328 N  
HETATM    9  C   UNL     1     -10.302  13.479  65.299  1.00  0.00    -0.331 C  
HETATM   10  C   UNL     1     -12.685  14.014  65.656  1.00  0.00    -0.481 C  
HETATM   11  C   UNL     1     -11.112  15.792  64.918  1.00  0.00    -0.399 C  
ENDBRANCH   7   8
ENDBRANCH   2   7
TORSDOF 4
ENDMDL
MODEL       14
REMARK 921   NORMALIZED FREE ENERGY PREDICTED BY IDOCK:   -3.38 KCAL/MOL
REMARK 922        TOTAL FREE ENERGY PREDICTED BY IDOCK:   -4.57 KCAL/MOL
REMARK 923 INTER-LIGAND FREE ENERGY PREDICTED BY IDOCK:   -4.26 KCAL/MOL
REMARK 924 INTRA-LIGAND FREE ENERGY PREDICTED BY IDOCK:   -0.32 KCAL/MOL
REMARK 927      BINDING AFFINITY PREDICTED BY RF-SCORE:    0.00 PKD
ROOT
HETATM    1  C   UNL     1      -9.017  16.813  68.435  1.00  0.00    -0.233 C  
HETATM    2  C   UNL     1     -10.100  16.930  67.363  1.00  0.00    -0.279 C  
ENDROOT
BRANCH   2   3
HETATM    3  O   UNL     1     -10.786  18.182  67.566  1.00  0.00    -0.412 OA 
BRANCH   3   4
HETATM    4  C   UNL     1     -10.515  19.154  66.642  1.00  0.00    -0.443 C  
HETATM    5  C   UNL     1      -9.832  20.321  67.282  1.00  0.00    -0.593 C  
HETATM    6  O   UNL     1     -10.790  19.073  65.454  1.00  0.00    -0.541 OA 
ENDBRANCH   3   4
ENDBRANCH   2   3
BRANCH   2   7
HETATM    7  C   UNL     1     -11.101  15.763  67.525  1.00  0.00    -0.258 C  
BRANCH   7   8
HETATM    8  N   UNL     1     -11.068  14.684  66.405  1.00  0.00    -0.329 N  
HETATM    9  C   UNL     1     -10.779  15.407  65.084  1.00  0.00    -0.440 C  
HETATM   10  C   UNL     1      -9.965  13.658  66.624  1.00  0.00    -0.283 C  
HETATM   11  C   UNL     1     -12.408  13.971  66.282  1.00  0.00    -0.448 C  
ENDBRANCH   7   8
ENDBRANCH   2   7
TORSDOF 4
ENDMDL
MODEL       15
REMARK 921   NORMALIZED FREE ENERGY PREDICTED BY IDOCK:   -3.31 KCAL/MOL
REMARK 922        TOTAL FREE ENERGY PREDICTED BY IDOCK:   -4.49 KCAL/MOL
REMARK 923 INTER-LIGAND FREE ENERGY PREDICTED BY IDOCK:   -4.19 KCAL/MOL
REMARK 924 INTRA-LIGAND FREE ENERGY PREDICTED BY IDOCK:   -0.31 KCAL/MOL
REMARK 927      BINDING AFFINITY PREDICTED BY RF-SCORE:    0.00 PKD
ROOT
HETATM    1  C   UNL     1      -9.622  12.857  66.510  1.00  0.00    -0.259 C  
HETATM    2  C   UNL     1     -10.616  14.013  66.388  1.00  0.00    -0.280 C  
ENDROOT
BRANCH   2   3
HETATM    3  O   UNL     1     -10.994  14.121  65.000  1.00  0.00    -0.342 OA 
BRANCH   3   4
HETATM    4  C   UNL     1     -12.261  13.699  64.705  1.00  0.00    -0.409 C  
HETATM    5  C   UNL     1     -12.244  12.707  63.586  1.00  0.00    -0.624 C  
HETATM    6  O   UNL     1     -13.268  14.080  65.283  1.00  0.00    -0.782 OA 
ENDBRANCH   3   4
ENDBRANCH   2   3
BRANCH   2   7
HETATM    7  C   UNL     1      -9.928  15.322  66.837  1.00  0.00    -0.239 C  
BRANCH   7   8
HETATM    8  N   UNL     1     -10.425  15.919  68.185  1.00  0.00    -0.262 N  
HETATM    9  C   UNL     1      -9.371  15.586  69.247  1.00  0.00    -0.266 C  
HETATM   10  C   UNL     1     -10.567  17.434  68.128  1.00  0.00    -0.376 C  
HETATM   11  C   UNL     1     -11.751  15.301  68.609  1.00  0.00    -0.346 C  
ENDBRANCH   7   8
ENDBRANCH   2   7
TORSDOF 4
ENDMDL
MODEL       16
REMARK 921   NORMALIZED FREE ENERGY PREDICTED BY IDOCK:   -3.30 KCAL/MOL
REMARK 922        TOTAL FREE ENERGY PREDICTED BY IDOCK:   -4.48 KCAL/MOL
REMARK 923 INTER-LIGAND FREE ENERGY PREDICTED BY IDOCK:   -4.19 KCAL/MOL
REMARK 924 INTRA-LIGAND FREE ENERGY PREDICTED BY IDOCK:   -0.29 KCAL/MOL
REMARK 927      BINDING AFFINITY PREDICTED BY RF-SCORE:    0.00 PKD
ROOT
HETATM    1  C   UNL     1     -12.535  12.604  64.850  1.00  0.00    -0.564 C  
HETATM    2  C   UNL     1     -11.700  12.778  66.119  1.00  0.00    -0.403 C  
ENDROOT
BRANCH   2   3
HETATM    3  O   UNL     1     -12.153  11.801  67.079  1.00  0.00    -0.575 OA 
BRANCH   3   4
HETATM    4  C   UNL     1     -11.164  11.178  67.791  1.00  0.00    -0.294 C  
HETATM    5  C   UNL     1     -11.648  10.801  69.155  1.00  0.00    -0.376 C  
HETATM    6  O   UNL     1     -10.040  10.957  67.364  1.00  0.00    -0.182 OA 
ENDBRANCH   3   4
ENDBRANCH   2   3
BRANCH   2   7
HETATM    7  C   UNL     1     -11.927  14.198  66.684  1.00  0.00    -0.444 C  
BRANCH   7   8
HETATM    8  N   UNL     1     -10.789  15.223  66.412  1.00  0.00    -0.318 N  
HETATM    9  C   UNL     1      -9.461  14.462  66.496  1.00  0.00    -0.289 C  
HETATM   10  C   UNL     1     -10.886  15.839  65.023  1.00  0.00    -0.443 C  
HETATM   11  C   UNL     1     -10.778  16.330  67.459  1.00  0.00    -0.300 C  
ENDBRANCH   7   8
ENDBRANCH   2   7
TORSDOF 4
ENDMDL
MODEL       17
REMARK 921   NORMALIZED FREE ENERGY PREDICTED BY IDOCK:   -3.30 KCAL/MOL
REMARK 922        TOTAL FREE ENERGY PREDICTED BY IDOCK:   -4.47 KCAL/MOL
REMARK 923 INTER-LIGAND FREE ENERGY PREDICTED BY IDOCK:   -4.09 KCAL/MOL
REMARK 924 INTRA-LIGAND FREE ENERGY PREDICTED BY IDOCK:   -0.38 KCAL/MOL
REMARK 927      BINDING AFFINITY PREDICTED BY RF-SCORE:    0.00 PKD
ROOT
HETATM    1  C   UNL     1     -12.743  13.243  64.822  1.00  0.00    -0.338 C  
HETATM    2  C   UNL     1     -11.545  13.776  65.607  1.00  0.00    -0.330 C  
ENDROOT
BRANCH   2   3
HETATM    3  O   UNL     1     -10.765  14.597  64.713  1.00  0.00    -0.412 OA 
BRANCH   3   4
HETATM    4  C   UNL     1     -11.049  15.935  64.750  1.00  0.00    -0.384 C  
HETATM    5  C   UNL     1     -10.533  16.552  66.012  1.00  0.00    -0.320 C  
HETATM    6  O   UNL     1     -11.638  16.541  63.868  1.00  0.00    -1.175 OA 
ENDBRANCH   3   4
ENDBRANCH   2   3
BRANCH   2   7
HETATM    7  C   UNL     1     -10.688  12.586  66.094  1.00  0.00    -0.261 C  
BRANCH   7   8
HETATM    8  N   UNL     1      -9.962  12.788  67.455  1.00  0.00    -0.210 N  
HETATM    9  C   UNL     1     -10.881  13.638  68.339  1.00  0.00    -0.256 C  
HETATM   10  C   UNL     1      -9.710  11.471  68.176  1.00  0.00    -0.192 C  
HETATM   11  C   UNL     1      -8.643  13.529  67.276  1.00  0.00    -0.213 C  
ENDBRANCH   7   8
ENDBRANCH   2   7
TORSDOF 4
ENDMDL
MODEL       18
REMARK 921   NORMALIZED FREE ENERGY PREDICTED BY IDOCK:   -3.30 KCAL/MOL
REMARK 922        TOTAL FREE ENERGY PREDICTED BY IDOCK:   -4.47 KCAL/MOL
REMARK 923 INTER-LIGAND FREE ENERGY PREDICTED BY IDOCK:   -4.18 KCAL/MOL
REMARK 924 INTRA-LIGAND FREE ENERGY PREDICTED BY IDOCK:   -0.29 KCAL/MOL
REMARK 927      BINDING AFFINITY PREDICTED BY RF-SCORE:    0.00 PKD
ROOT
HETATM    1  C   UNL     1      -9.687  16.146  69.251  1.00  0.00    -0.242 C  
HETATM    2  C   UNL     1     -10.414  16.113  67.906  1.00  0.00    -0.290 C  
ENDROOT
BRANCH   2   3
HETATM    3  O   UNL     1     -11.032  17.401  67.710  1.00  0.00    -0.317 OA 
BRANCH   3   4
HETATM    4  C   UNL     1     -10.471  18.175  66.730  1.00  0.00    -0.348 C  
HETATM    5  C   UNL     1     -10.414  19.608  67.153  1.00  0.00    -0.595 C  
HETATM    6  O   UNL     1     -10.069  17.748  65.658  1.00  0.00    -0.570 OA 
ENDBRANCH   3   4
ENDBRANCH   2   3
BRANCH   2   7
HETATM    7  C   UNL     1     -11.507  15.020  67.948  1.00  0.00    -0.340 C  
BRANCH   7   8
HETATM    8  N   UNL     1     -11.407  13.923  66.850  1.00  0.00    -0.316 N  
HETATM    9  C   UNL     1     -11.563  12.566  67.546  1.00  0.00    -0.361 C  
HETATM   10  C   UNL     1     -12.514  14.044  65.812  1.00  0.00    -0.494 C  
HETATM   11  C   UNL     1     -10.053  13.956  66.153  1.00  0.00    -0.308 C  
ENDBRANCH   7   8
ENDBRANCH   2   7
TORSDOF 4
ENDMDL
MODEL       19
REMARK 921   NORMALIZED FREE ENERGY PREDICTED BY IDOCK:   -3.30 KCAL/MOL
REMARK 922        TOTAL FREE ENERGY PREDICTED BY IDOCK:   -4.47 KCAL/MOL
REMARK 923 INTER-LIGAND FREE ENERGY PREDICTED BY IDOCK:   -4.20 KCAL/MOL
REMARK 924 INTRA-LIGAND FREE ENERGY PREDICTED BY IDOCK:   -0.27 KCAL/MOL
REMARK 927      BINDING AFFINITY PREDICTED BY RF-SCORE:    0.00 PKD
ROOT
HETATM    1  C   UNL     1     -11.976  13.371  69.793  1.00  0.00    -0.396 C  
HETATM    2  C   UNL     1     -11.706  14.876  69.779  1.00  0.00    -0.305 C  
ENDROOT
BRANCH   2   3
HETATM    3  O   UNL     1     -12.826  15.528  70.413  1.00  0.00    -0.410 OA 
BRANCH   3   4
HETATM    4  C   UNL     1     -12.677  15.777  71.750  1.00  0.00    -0.456 C  
HETATM    5  C   UNL     1     -13.895  15.355  72.508  1.00  0.00    -0.651 C  
HETATM    6  O   UNL     1     -11.680  16.273  72.253  1.00  0.00    -0.498 OA 
ENDBRANCH   3   4
ENDBRANCH   2   3
BRANCH   2   7
HETATM    7  C   UNL     1     -11.592  15.357  68.315  1.00  0.00    -0.348 C  
BRANCH   7   8
HETATM    8  N   UNL     1     -10.279  16.106  67.950  1.00  0.00    -0.255 N  
HETATM    9  C   UNL     1     -10.436  17.556  68.422  1.00  0.00    -0.372 C  
HETATM   10  C   UNL     1      -9.063  15.517  68.653  1.00  0.00    -0.202 C  
HETATM   11  C   UNL     1     -10.041  16.110  66.446  1.00  0.00    -0.308 C  
ENDBRANCH   7   8
ENDBRANCH   2   7
TORSDOF 4
ENDMDL
MODEL       20
REMARK 921   NORMALIZED FREE ENERGY PREDICTED BY IDOCK:   -3.29 KCAL/MOL
REMARK 922        TOTAL FREE ENERGY PREDICTED BY IDOCK:   -4.46 KCAL/MOL
REMARK 923 INTER-LIGAND FREE ENERGY PREDICTED BY IDOCK:   -4.14 KCAL/MOL
REMARK 924 INTRA-LIGAND FREE ENERGY PREDICTED BY IDOCK:   -0.33 KCAL/MOL
REMARK 927      BINDING AFFINITY PREDICTED BY RF-SCORE:    0.00 PKD
ROOT
HETATM    1  C   UNL     1     -10.143  12.945  67.148  1.00  0.00    -0.243 C  
HETATM    2  C   UNL     1     -10.863  11.810  66.419  1.00  0.00    -0.282 C  
ENDROOT
BRANCH   2   3
HETATM    3  O   UNL     1     -12.234  12.216  66.222  1.00  0.00    -0.604 OA 
BRANCH   3   4
HETATM    4  C   UNL     1     -12.485  12.874  65.049  1.00  0.00    -0.492 C  
HETATM    5  C   UNL     1     -11.935  12.114  63.884  1.00  0.00    -0.581 C  
HETATM    6  O   UNL     1     -13.084  13.937  64.967  1.00  0.00    -0.749 OA 
ENDBRANCH   3   4
ENDBRANCH   2   3
BRANCH   2   7
HETATM    7  C   UNL     1     -10.825  10.539  67.296  1.00  0.00    -0.279 C  
BRANCH   7   8
HETATM    8  N   UNL     1      -9.891   9.400  66.794  1.00  0.00    -0.201 N  
HETATM    9  C   UNL     1      -8.582   9.502  67.585  1.00  0.00    -0.122 C  
HETATM   10  C   UNL     1     -10.480   8.018  67.044  1.00  0.00    -0.340 C  
HETATM   11  C   UNL     1      -9.574   9.555  65.312  1.00  0.00    -0.243 C  
ENDBRANCH   7   8
ENDBRANCH   2   7
TORSDOF 4
ENDMDL
MODEL       21
REMARK 921   NORMALIZED FREE ENERGY PREDICTED BY IDOCK:   -3.28 KCAL/MOL
REMARK 922        TOTAL FREE ENERGY PREDICTED BY IDOCK:   -4.46 KCAL/MOL
REMARK 923 INTER-LIGAND FREE ENERGY PREDICTED BY IDOCK:   -4.14 KCAL/MOL
REMARK 924 INTRA-LIGAND FREE ENERGY PREDICTED BY IDOCK:   -0.32 KCAL/MOL
REMARK 927      BINDING AFFINITY PREDICTED BY RF-SCORE:    0.00 PKD
ROOT
HETATM    1  C   UNL     1     -11.085  15.043  66.325  1.00  0.00    -0.334 C  
HETATM    2  C   UNL     1     -11.333  13.536  66.257  1.00  0.00    -0.309 C  
ENDROOT
BRANCH   2   3
HETATM    3  O   UNL     1     -12.419  13.312  65.334  1.00  0.00    -0.454 OA 
BRANCH   3   4
HETATM    4  C   UNL     1     -12.055  13.196  64.020  1.00  0.00    -0.446 C  
HETATM    5  C   UNL     1     -10.960  12.190  63.859  1.00  0.00    -0.463 C  
HETATM    6  O   UNL     1     -12.562  13.827  63.105  1.00  0.00    -0.793 OA 
ENDBRANCH   3   4
ENDBRANCH   2   3
BRANCH   2   7
HETATM    7  C   UNL     1     -11.736  13.025  67.659  1.00  0.00    -0.366 C  
BRANCH   7   8
HETATM    8  N   UNL     1     -10.907  11.827  68.205  1.00  0.00    -0.206 N  
HETATM    9  C   UNL     1      -9.444  12.280  68.276  1.00  0.00    -0.209 C  
HETATM   10  C   UNL     1     -11.337  11.419  69.607  1.00  0.00    -0.275 C  
HETATM   11  C   UNL     1     -10.995  10.623  67.276  1.00  0.00    -0.284 C  
ENDBRANCH   7   8
ENDBRANCH   2   7
TORSDOF 4
ENDMDL
MODEL       22
REMARK 921   NORMALIZED FREE ENERGY PREDICTED BY IDOCK:   -3.27 KCAL/MOL
REMARK 922        TOTAL FREE ENERGY PREDICTED BY IDOCK:   -4.44 KCAL/MOL
REMARK 923 INTER-LIGAND FREE ENERGY PREDICTED BY IDOCK:   -4.12 KCAL/MOL
REMARK 924 INTRA-LIGAND FREE ENERGY PREDICTED BY IDOCK:   -0.32 KCAL/MOL
REMARK 927      BINDING AFFINITY PREDICTED BY RF-SCORE:    0.00 PKD
ROOT
HETATM    1  C   UNL     1      -9.134  16.558  68.673  1.00  0.00    -0.239 C  
HETATM    2  C   UNL     1     -10.200  16.710  67.587  1.00  0.00    -0.285 C  
ENDROOT
BRANCH   2   3
HETATM    3  O   UNL     1     -11.029  17.836  67.942  1.00  0.00    -0.308 OA 
BRANCH   3   4
HETATM    4  C   UNL     1     -10.561  19.056  67.537  1.00  0.00    -0.461 C  
HETATM    5  C   UNL     1     -10.497  19.131  66.044  1.00  0.00    -0.546 C  
HETATM    6  O   UNL     1     -10.245  19.961  68.294  1.00  0.00    -0.433 OA 
ENDBRANCH   3   4
ENDBRANCH   2   3
BRANCH   2   7
HETATM    7  C   UNL     1     -11.064  15.429  67.543  1.00  0.00    -0.315 C  
BRANCH   7   8
HETATM    8  N   UNL     1     -10.995  14.613  66.221  1.00  0.00    -0.321 N  
HETATM    9  C   UNL     1     -12.374  13.978  66.005  1.00  0.00    -0.473 C  
HETATM   10  C   UNL     1     -10.694  15.492  65.015  1.00  0.00    -0.441 C  
HETATM   11  C   UNL     1      -9.959  13.500  66.308  1.00  0.00    -0.298 C  
ENDBRANCH   7   8
ENDBRANCH   2   7
TORSDOF 4
ENDMDL
MODEL       23
REMARK 921   NORMALIZED FREE ENERGY PREDICTED BY IDOCK:   -3.26 KCAL/MOL
REMARK 922        TOTAL FREE ENERGY PREDICTED BY IDOCK:   -4.43 KCAL/MOL
REMARK 923 INTER-LIGAND FREE ENERGY PREDICTED BY IDOCK:   -4.16 KCAL/MOL
REMARK 924 INTRA-LIGAND FREE ENERGY PREDICTED BY IDOCK:   -0.27 KCAL/MOL
REMARK 927      BINDING AFFINITY PREDICTED BY RF-SCORE:    0.00 PKD
ROOT
HETATM    1  C   UNL     1      -9.652  11.171  67.367  1.00  0.00    -0.183 C  
HETATM    2  C   UNL     1     -10.935  11.971  67.142  1.00  0.00    -0.270 C  
ENDROOT
BRANCH   2   3
HETATM    3  O   UNL     1     -11.938  11.451  68.039  1.00  0.00    -0.613 OA 
BRANCH   3   4
HETATM    4  C   UNL     1     -11.909  11.962  69.308  1.00  0.00    -0.318 C  
HETATM    5  C   UNL     1     -11.924  10.863  70.323  1.00  0.00    -0.448 C  
HETATM    6  O   UNL     1     -11.870  13.154  69.573  1.00  0.00    -0.299 OA 
ENDBRANCH   3   4
ENDBRANCH   2   3
BRANCH   2   7
HETATM    7  C   UNL     1     -11.402  11.779  65.682  1.00  0.00    -0.233 C  
BRANCH   7   8
HETATM    8  N   UNL     1     -11.653  13.085  64.875  1.00  0.00    -0.314 N  
HETATM    9  C   UNL     1     -12.740  13.874  65.614  1.00  0.00    -0.495 C  
HETATM   10  C   UNL     1     -10.411  13.964  64.799  1.00  0.00    -0.429 C  
HETATM   11  C   UNL     1     -12.147  12.782  63.467  1.00  0.00    -0.559 C  
ENDBRANCH   7   8
ENDBRANCH   2   7
TORSDOF 4
ENDMDL
MODEL       24
REMARK 921   NORMALIZED FREE ENERGY PREDICTED BY IDOCK:   -3.26 KCAL/MOL
REMARK 922        TOTAL FREE ENERGY PREDICTED BY IDOCK:   -4.42 KCAL/MOL
REMARK 923 INTER-LIGAND FREE ENERGY PREDICTED BY IDOCK:   -4.08 KCAL/MOL
REMARK 924 INTRA-LIGAND FREE ENERGY PREDICTED BY IDOCK:   -0.34 KCAL/MOL
REMARK 927      BINDING AFFINITY PREDICTED BY RF-SCORE:    0.00 PKD
ROOT
HETATM    1  C   UNL     1      -9.491  10.767  64.266  1.00  0.00    -0.307 C  
HETATM    2  C   UNL     1     -10.348  11.902  64.827  1.00  0.00    -0.281 C  
ENDROOT
BRANCH   2   3
HETATM    3  O   UNL     1     -10.647  12.804  63.741  1.00  0.00    -0.412 OA 
BRANCH   3   4
HETATM    4  C   UNL     1     -11.976  13.069  63.551  1.00  0.00    -0.545 C  
HETATM    5  C   UNL     1     -12.765  11.801  63.472  1.00  0.00    -0.428 C  
HETATM    6  O   UNL     1     -12.451  14.192  63.462  1.00  0.00    -0.817 OA 
ENDBRANCH   3   4
ENDBRANCH   2   3
BRANCH   2   7
HETATM    7  C   UNL     1      -9.546  12.653  65.914  1.00  0.00    -0.153 C  
BRANCH   7   8
HETATM    8  N   UNL     1     -10.392  13.332  67.029  1.00  0.00    -0.245 N  
HETATM    9  C   UNL     1      -9.561  13.295  68.317  1.00  0.00    -0.221 C  
HETATM   10  C   UNL     1     -10.698  14.790  66.714  1.00  0.00    -0.309 C  
HETATM   11  C   UNL     1     -11.694  12.582  67.272  1.00  0.00    -0.362 C  
ENDBRANCH   7   8
ENDBRANCH   2   7
TORSDOF 4
ENDMDL
MODEL       25
REMARK 921   NORMALIZED FREE ENERGY PREDICTED BY IDOCK:   -3.25 KCAL/MOL
REMARK 922        TOTAL FREE ENERGY PREDICTED BY IDOCK:   -4.41 KCAL/MOL
REMARK 923 INTER-LIGAND FREE ENERGY PREDICTED BY IDOCK:   -4.15 KCAL/MOL
REMARK 924 INTRA-LIGAND FREE ENERGY PREDICTED BY IDOCK:   -0.27 KCAL/MOL
REMARK 927      BINDING AFFINITY PREDICTED BY RF-SCORE:    0.00 PKD
ROOT
HETATM    1  C   UNL     1      -9.792  14.273  67.111  1.00  0.00    -0.252 C  
HETATM    2  C   UNL     1     -10.268  15.457  66.268  1.00  0.00    -0.290 C  
ENDROOT
BRANCH   2   3
HETATM    3  O   UNL     1     -10.401  15.000  64.906  1.00  0.00    -0.383 OA 
BRANCH   3   4
HETATM    4  C   UNL     1     -11.631  15.201  64.340  1.00  0.00    -0.271 C  
HETATM    5  C   UNL     1     -12.437  13.941  64.359  1.00  0.00    -0.321 C  
HETATM    6  O   UNL     1     -12.016  16.268  63.886  1.00  0.00    -1.003 OA 
ENDBRANCH   3   4
ENDBRANCH   2   3
BRANCH   2   7
HETATM    7  C   UNL     1      -9.211  16.582  66.332  1.00  0.00    -0.295 C  
BRANCH   7   8
HETATM    8  N   UNL     1      -9.681  17.915  66.981  1.00  0.00    -0.287 N  
HETATM    9  C   UNL     1      -8.431  18.638  67.495  1.00  0.00    -0.265 C  
HETATM   10  C   UNL     1     -10.371  18.833  65.980  1.00  0.00    -0.422 C  
HETATM   11  C   UNL     1     -10.612  17.661  68.160  1.00  0.00    -0.356 C  
ENDBRANCH   7   8
ENDBRANCH   2   7
TORSDOF 4
ENDMDL
MODEL       26
REMARK 921   NORMALIZED FREE ENERGY PREDICTED BY IDOCK:   -3.24 KCAL/MOL
REMARK 922        TOTAL FREE ENERGY PREDICTED BY IDOCK:   -4.41 KCAL/MOL
REMARK 923 INTER-LIGAND FREE ENERGY PREDICTED BY IDOCK:   -4.10 KCAL/MOL
REMARK 924 INTRA-LIGAND FREE ENERGY PREDICTED BY IDOCK:   -0.31 KCAL/MOL
REMARK 927      BINDING AFFINITY PREDICTED BY RF-SCORE:    0.00 PKD
ROOT
HETATM    1  C   UNL     1     -12.277  12.293  70.589  1.00  0.00    -0.378 C  
HETATM    2  C   UNL     1     -12.108  13.766  70.220  1.00  0.00    -0.355 C  
ENDROOT
BRANCH   2   3
HETATM    3  O   UNL     1     -13.235  14.486  70.760  1.00  0.00    -0.364 OA 
BRANCH   3   4
HETATM    4  C   UNL     1     -13.094  14.904  72.056  1.00  0.00    -0.338 C  
HETATM    5  C   UNL     1     -12.022  15.942  72.165  1.00  0.00    -0.612 C  
HETATM    6  O   UNL     1     -13.760  14.488  72.992  1.00  0.00    -0.573 OA 
ENDBRANCH   3   4
ENDBRANCH   2   3
BRANCH   2   7
HETATM    7  C   UNL     1     -12.099  13.904  68.680  1.00  0.00    -0.302 C  
BRANCH   7   8
HETATM    8  N   UNL     1     -11.022  14.861  68.093  1.00  0.00    -0.263 N  
HETATM    9  C   UNL     1     -11.090  14.742  66.567  1.00  0.00    -0.334 C  
HETATM   10  C   UNL     1     -11.281  16.316  68.459  1.00  0.00    -0.359 C  
HETATM   11  C   UNL     1      -9.623  14.466  68.547  1.00  0.00    -0.217 C  
ENDBRANCH   7   8
ENDBRANCH   2   7
TORSDOF 4
ENDMDL
MODEL       27
REMARK 921   NORMALIZED FREE ENERGY PREDICTED BY IDOCK:   -3.20 KCAL/MOL
REMARK 922        TOTAL FREE ENERGY PREDICTED BY IDOCK:   -4.35 KCAL/MOL
REMARK 923 INTER-LIGAND FREE ENERGY PREDICTED BY IDOCK:   -4.12 KCAL/MOL
REMARK 924 INTRA-LIGAND FREE ENERGY PREDICTED BY IDOCK:   -0.23 KCAL/MOL
REMARK 927      BINDING AFFINITY PREDICTED BY RF-SCORE:    0.00 PKD
ROOT
HETATM    1  C   UNL     1      -9.411  15.658  69.247  1.00  0.00    -0.267 C  
HETATM    2  C   UNL     1     -10.589  16.627  69.142  1.00  0.00    -0.340 C  
ENDROOT
BRANCH   2   3
HETATM    3  O   UNL     1     -11.797  15.874  69.376  1.00  0.00    -0.362 OA 
BRANCH   3   4
HETATM    4  C   UNL     1     -12.021  15.518  70.678  1.00  0.00    -0.378 C  
HETATM    5  C   UNL     1     -12.446  14.087  70.771  1.00  0.00    -0.442 C  
HETATM    6  O   UNL     1     -11.885  16.268  71.634  1.00  0.00    -0.477 OA 
ENDBRANCH   3   4
ENDBRANCH   2   3
BRANCH   2   7
HETATM    7  C   UNL     1     -10.625  17.229  67.719  1.00  0.00    -0.367 C  
BRANCH   7   8
HETATM    8  N   UNL     1      -9.977  18.634  67.563  1.00  0.00    -0.323 N  
HETATM    9  C   UNL     1      -8.588  18.430  66.949  1.00  0.00    -0.271 C  
HETATM   10  C   UNL     1     -10.772  19.536  66.628  1.00  0.00    -0.445 C  
HETATM   11  C   UNL     1      -9.812  19.322  68.912  1.00  0.00    -0.446 C  
ENDBRANCH   7   8
ENDBRANCH   2   7
TORSDOF 4
ENDMDL
MODEL       28
REMARK 921   NORMALIZED FREE ENERGY PREDICTED BY IDOCK:   -3.20 KCAL/MOL
REMARK 922        TOTAL FREE ENERGY PREDICTED BY IDOCK:   -4.35 KCAL/MOL
REMARK 923 INTER-LIGAND FREE ENERGY PREDICTED BY IDOCK:   -4.04 KCAL/MOL
REMARK 924 INTRA-LIGAND FREE ENERGY PREDICTED BY IDOCK:   -0.30 KCAL/MOL
REMARK 927      BINDING AFFINITY PREDICTED BY RF-SCORE:    0.00 PKD
ROOT
HETATM    1  C   UNL     1     -10.873  15.574  65.074  1.00  0.00    -0.468 C  
HETATM    2  C   UNL     1     -11.282  14.692  66.254  1.00  0.00    -0.340 C  
ENDROOT
BRANCH   2   3
HETATM    3  O   UNL     1     -12.571  14.121  65.949  1.00  0.00    -0.486 OA 
BRANCH   3   4
HETATM    4  C   UNL     1     -12.540  12.859  65.419  1.00  0.00    -0.378 C  
HETATM    5  C   UNL     1     -11.466  12.040  66.061  1.00  0.00    -0.399 C  
HETATM    6  O   UNL     1     -13.293  12.459  64.544  1.00  0.00    -0.800 OA 
ENDBRANCH   3   4
ENDBRANCH   2   3
BRANCH   2   7
HETATM    7  C   UNL     1     -11.394  15.565  67.524  1.00  0.00    -0.232 C  
BRANCH   7   8
HETATM    8  N   UNL     1     -10.214  15.448  68.531  1.00  0.00    -0.215 N  
HETATM    9  C   UNL     1     -10.821  15.257  69.925  1.00  0.00    -0.281 C  
HETATM   10  C   UNL     1      -9.325  14.246  68.242  1.00  0.00    -0.208 C  
HETATM   11  C   UNL     1      -9.366  16.714  68.542  1.00  0.00    -0.236 C  
ENDBRANCH   7   8
ENDBRANCH   2   7
TORSDOF 4
ENDMDL
MODEL       29
REMARK 921   NORMALIZED FREE ENERGY PREDICTED BY IDOCK:   -3.19 KCAL/MOL
REMARK 922        TOTAL FREE ENERGY PREDICTED BY IDOCK:   -4.34 KCAL/MOL
REMARK 923 INTER-LIGAND FREE ENERGY PREDICTED BY IDOCK:   -3.98 KCAL/MOL
REMARK 924 INTRA-LIGAND FREE ENERGY PREDICTED BY IDOCK:   -0.36 KCAL/MOL
REMARK 927      BINDING AFFINITY PREDICTED BY RF-SCORE:    0.00 PKD
ROOT
HETATM    1  C   UNL     1     -10.253  10.899  64.057  1.00  0.00    -0.422 C  
HETATM    2  C   UNL     1     -10.640  11.918  65.128  1.00  0.00    -0.287 C  
ENDROOT
BRANCH   2   3
HETATM    3  O   UNL     1     -10.773  13.202  64.484  1.00  0.00    -0.353 OA 
BRANCH   3   4
HETATM    4  C   UNL     1     -12.058  13.640  64.314  1.00  0.00    -0.434 C  
HETATM    5  C   UNL     1     -12.707  13.908  65.635  1.00  0.00    -0.534 C  
HETATM    6  O   UNL     1     -12.597  13.796  63.228  1.00  0.00    -0.830 OA 
ENDBRANCH   3   4
ENDBRANCH   2   3
BRANCH   2   7
HETATM    7  C   UNL     1      -9.519  11.989  66.189  1.00  0.00    -0.232 C  
BRANCH   7   8
HETATM    8  N   UNL     1      -9.979  11.858  67.669  1.00  0.00    -0.187 N  
HETATM    9  C   UNL     1     -11.349  11.169  67.661  1.00  0.00    -0.284 C  
HETATM   10  C   UNL     1      -9.031  11.000  68.495  1.00  0.00    -0.163 C  
HETATM   11  C   UNL     1     -10.130  13.224  68.327  1.00  0.00    -0.250 C  
ENDBRANCH   7   8
ENDBRANCH   2   7
TORSDOF 4
ENDMDL
MODEL       30
REMARK 921   NORMALIZED FREE ENERGY PREDICTED BY IDOCK:   -3.18 KCAL/MOL
REMARK 922        TOTAL FREE ENERGY PREDICTED BY IDOCK:   -4.33 KCAL/MOL
REMARK 923 INTER-LIGAND FREE ENERGY PREDICTED BY IDOCK:   -3.99 KCAL/MOL
REMARK 924 INTRA-LIGAND FREE ENERGY PREDICTED BY IDOCK:   -0.34 KCAL/MOL
REMARK 927      BINDING AFFINITY PREDICTED BY RF-SCORE:    0.00 PKD
ROOT
HETATM    1  C   UNL     1     -11.152  10.907  67.246  1.00  0.00    -0.350 C  
HETATM    2  C   UNL     1     -11.154  11.852  66.044  1.00  0.00    -0.322 C  
ENDROOT
BRANCH   2   3
HETATM    3  O   UNL     1     -10.618  11.129  64.917  1.00  0.00    -0.309 OA 
BRANCH   3   4
HETATM    4  C   UNL     1     -10.853  11.695  63.694  1.00  0.00    -0.432 C  
HETATM    5  C   UNL     1     -12.292  12.077  63.554  1.00  0.00    -0.661 C  
HETATM    6  O   UNL     1     -10.000  11.868  62.837  1.00  0.00    -0.300 OA 
ENDBRANCH   3   4
ENDBRANCH   2   3
BRANCH   2   7
HETATM    7  C   UNL     1     -10.251  13.067  66.354  1.00  0.00    -0.280 C  
BRANCH   7   8
HETATM    8  N   UNL     1     -10.958  14.452  66.355  1.00  0.00    -0.314 N  
HETATM    9  C   UNL     1     -12.468  14.192  66.421  1.00  0.00    -0.318 C  
HETATM   10  C   UNL     1     -10.578  15.293  67.566  1.00  0.00    -0.273 C  
HETATM   11  C   UNL     1     -10.657  15.231  65.082  1.00  0.00    -0.430 C  
ENDBRANCH   7   8
ENDBRANCH   2   7
TORSDOF 4
ENDMDL
MODEL       31
REMARK 921   NORMALIZED FREE ENERGY PREDICTED BY IDOCK:   -3.17 KCAL/MOL
REMARK 922        TOTAL FREE ENERGY PREDICTED BY IDOCK:   -4.31 KCAL/MOL
REMARK 923 INTER-LIGAND FREE ENERGY PREDICTED BY IDOCK:   -4.12 KCAL/MOL
REMARK 924 INTRA-LIGAND FREE ENERGY PREDICTED BY IDOCK:   -0.20 KCAL/MOL
REMARK 927      BINDING AFFINITY PREDICTED BY RF-SCORE:    0.00 PKD
ROOT
HETATM    1  C   UNL     1      -8.240  16.363  66.232  1.00  0.00    -0.343 C  
HETATM    2  C   UNL     1      -9.653  15.787  66.134  1.00  0.00    -0.332 C  
ENDROOT
BRANCH   2   3
HETATM    3  O   UNL     1     -10.294  16.391  64.991  1.00  0.00    -0.615 OA 
BRANCH   3   4
HETATM    4  C   UNL     1     -11.319  15.667  64.446  1.00  0.00    -0.263 C  
HETATM    5  C   UNL     1     -11.056  14.200  64.566  1.00  0.00    -0.340 C  
HETATM    6  O   UNL     1     -12.316  16.157  63.936  1.00  0.00    -0.895 OA 
ENDBRANCH   3   4
ENDBRANCH   2   3
BRANCH   2   7
HETATM    7  C   UNL     1     -10.437  16.150  67.415  1.00  0.00    -0.310 C  
BRANCH   7   8
HETATM    8  N   UNL     1     -10.521  15.033  68.495  1.00  0.00    -0.227 N  
HETATM    9  C   UNL     1      -9.675  15.490  69.689  1.00  0.00    -0.274 C  
HETATM   10  C   UNL     1     -11.944  14.813  68.989  1.00  0.00    -0.273 C  
HETATM   11  C   UNL     1      -9.955  13.717  67.977  1.00  0.00    -0.246 C  
ENDBRANCH   7   8
ENDBRANCH   2   7
TORSDOF 4
ENDMDL
MODEL       32
REMARK 921   NORMALIZED FREE ENERGY PREDICTED BY IDOCK:   -3.16 KCAL/MOL
REMARK 922        TOTAL FREE ENERGY PREDICTED BY IDOCK:   -4.31 KCAL/MOL
REMARK 923 INTER-LIGAND FREE ENERGY PREDICTED BY IDOCK:   -4.02 KCAL/MOL
REMARK 924 INTRA-LIGAND FREE ENERGY PREDICTED BY IDOCK:   -0.28 KCAL/MOL
REMARK 927      BINDING AFFINITY PREDICTED BY RF-SCORE:    0.00 PKD
ROOT
HETATM    1  C   UNL     1      -9.521  10.418  63.359  1.00  0.00    -0.356 C  
HETATM    2  C   UNL     1     -10.428  11.297  64.220  1.00  0.00    -0.357 C  
ENDROOT
BRANCH   2   3
HETATM    3  O   UNL     1     -10.846  12.418  63.414  1.00  0.00    -0.451 OA 
BRANCH   3   4
HETATM    4  C   UNL     1     -12.129  12.845  63.626  1.00  0.00    -0.535 C  
HETATM    5  C   UNL     1     -12.142  14.251  64.136  1.00  0.00    -0.423 C  
HETATM    6  O   UNL     1     -13.125  12.168  63.421  1.00  0.00    -0.752 OA 
ENDBRANCH   3   4
ENDBRANCH   2   3
BRANCH   2   7
HETATM    7  C   UNL     1      -9.628  11.810  65.439  1.00  0.00    -0.190 C  
BRANCH   7   8
HETATM    8  N   UNL     1     -10.156  11.360  66.831  1.00  0.00    -0.209 N  
HETATM    9  C   UNL     1      -9.112  11.780  67.871  1.00  0.00    -0.181 C  
HETATM   10  C   UNL     1     -11.473  12.033  67.195  1.00  0.00    -0.335 C  
HETATM   11  C   UNL     1     -10.325   9.848  66.898  1.00  0.00    -0.235 C  
ENDBRANCH   7   8
ENDBRANCH   2   7
TORSDOF 4
ENDMDL
MODEL       33
REMARK 921   NORMALIZED FREE ENERGY PREDICTED BY IDOCK:   -3.12 KCAL/MOL
REMARK 922        TOTAL FREE ENERGY PREDICTED BY IDOCK:   -4.25 KCAL/MOL
REMARK 923 INTER-LIGAND FREE ENERGY PREDICTED BY IDOCK:   -3.90 KCAL/MOL
REMARK 924 INTRA-LIGAND FREE ENERGY PREDICTED BY IDOCK:   -0.35 KCAL/MOL
REMARK 927      BINDING AFFINITY PREDICTED BY RF-SCORE:    0.00 PKD
ROOT
HETATM    1  C   UNL     1     -11.599  12.750  68.447  1.00  0.00    -0.365 C  
HETATM    2  C   UNL     1     -11.161  12.108  67.130  1.00  0.00    -0.291 C  
ENDROOT
BRANCH   2   3
HETATM    3  O   UNL     1     -12.265  12.203  66.207  1.00  0.00    -0.604 OA 
BRANCH   3   4
HETATM    4  C   UNL     1     -12.271  13.320  65.416  1.00  0.00    -0.456 C  
HETATM    5  C   UNL     1     -10.905  13.592  64.872  1.00  0.00    -0.382 C  
HETATM    6  O   UNL     1     -13.262  13.996  65.184  1.00  0.00    -0.768 OA 
ENDBRANCH   3   4
ENDBRANCH   2   3
BRANCH   2   7
HETATM    7  C   UNL     1     -10.825  10.620  67.380  1.00  0.00    -0.296 C  
BRANCH   7   8
HETATM    8  N   UNL     1      -9.483  10.119  66.773  1.00  0.00    -0.163 N  
HETATM    9  C   UNL     1      -9.733   9.835  65.287  1.00  0.00    -0.300 C  
HETATM   10  C   UNL     1      -8.381  11.165  66.867  1.00  0.00    -0.147 C  
HETATM   11  C   UNL     1      -9.018   8.831  67.440  1.00  0.00    -0.133 C  
ENDBRANCH   7   8
ENDBRANCH   2   7
TORSDOF 4
ENDMDL
MODEL       34
REMARK 921   NORMALIZED FREE ENERGY PREDICTED BY IDOCK:   -3.11 KCAL/MOL
REMARK 922        TOTAL FREE ENERGY PREDICTED BY IDOCK:   -4.25 KCAL/MOL
REMARK 923 INTER-LIGAND FREE ENERGY PREDICTED BY IDOCK:   -3.93 KCAL/MOL
REMARK 924 INTRA-LIGAND FREE ENERGY PREDICTED BY IDOCK:   -0.31 KCAL/MOL
REMARK 927      BINDING AFFINITY PREDICTED BY RF-SCORE:    0.00 PKD
ROOT
HETATM    1  C   UNL     1     -11.808  12.360  65.653  1.00  0.00    -0.468 C  
HETATM    2  C   UNL     1     -11.411  12.605  67.109  1.00  0.00    -0.346 C  
ENDROOT
BRANCH   2   3
HETATM    3  O   UNL     1     -11.988  11.549  67.905  1.00  0.00    -0.618 OA 
BRANCH   3   4
HETATM    4  C   UNL     1     -11.306  11.242  69.050  1.00  0.00    -0.278 C  
HETATM    5  C   UNL     1     -12.211  11.301  70.240  1.00  0.00    -0.428 C  
HETATM    6  O   UNL     1     -10.119  10.953  69.091  1.00  0.00    -0.212 OA 
ENDBRANCH   3   4
ENDBRANCH   2   3
BRANCH   2   7
HETATM    7  C   UNL     1     -11.983  13.966  67.567  1.00  0.00    -0.386 C  
BRANCH   7   8
HETATM    8  N   UNL     1     -10.931  15.053  67.929  1.00  0.00    -0.281 N  
HETATM    9  C   UNL     1     -11.545  15.935  69.022  1.00  0.00    -0.389 C  
HETATM   10  C   UNL     1      -9.647  14.452  68.484  1.00  0.00    -0.217 C  
HETATM   11  C   UNL     1     -10.603  15.930  66.728  1.00  0.00    -0.309 C  
ENDBRANCH   7   8
ENDBRANCH   2   7
TORSDOF 4
ENDMDL
MODEL       35
REMARK 921   NORMALIZED FREE ENERGY PREDICTED BY IDOCK:   -3.08 KCAL/MOL
REMARK 922        TOTAL FREE ENERGY PREDICTED BY IDOCK:   -4.21 KCAL/MOL
REMARK 923 INTER-LIGAND FREE ENERGY PREDICTED BY IDOCK:   -3.86 KCAL/MOL
REMARK 924 INTRA-LIGAND FREE ENERGY PREDICTED BY IDOCK:   -0.34 KCAL/MOL
REMARK 927      BINDING AFFINITY PREDICTED BY RF-SCORE:    0.00 PKD
ROOT
HETATM    1  C   UNL     1     -11.219  12.220  68.097  1.00  0.00    -0.320 C  
HETATM    2  C   UNL     1     -11.458  13.400  67.155  1.00  0.00    -0.339 C  
ENDROOT
BRANCH   2   3
HETATM    3  O   UNL     1     -12.209  14.395  67.881  1.00  0.00    -0.299 OA 
BRANCH   3   4
HETATM    4  C   UNL     1     -11.471  15.429  68.388  1.00  0.00    -0.355 C  
HETATM    5  C   UNL     1     -10.422  15.862  67.413  1.00  0.00    -0.306 C  
HETATM    6  O   UNL     1     -11.650  15.932  69.487  1.00  0.00    -0.325 OA 
ENDBRANCH   3   4
ENDBRANCH   2   3
BRANCH   2   7
HETATM    7  C   UNL     1     -12.283  12.919  65.939  1.00  0.00    -0.407 C  
BRANCH   7   8
HETATM    8  N   UNL     1     -11.739  13.341  64.544  1.00  0.00    -0.360 N  
HETATM    9  C   UNL     1     -10.231  13.069  64.541  1.00  0.00    -0.308 C  
HETATM   10  C   UNL     1     -12.360  12.533  63.413  1.00  0.00    -0.477 C  
HETATM   11  C   UNL     1     -11.963  14.826  64.288  1.00  0.00    -0.368 C  
ENDBRANCH   7   8
ENDBRANCH   2   7
TORSDOF 4
ENDMDL
MODEL       36
REMARK 921   NORMALIZED FREE ENERGY PREDICTED BY IDOCK:   -3.08 KCAL/MOL
REMARK 922        TOTAL FREE ENERGY PREDICTED BY IDOCK:   -4.21 KCAL/MOL
REMARK 923 INTER-LIGAND FREE ENERGY PREDICTED BY IDOCK:   -3.90 KCAL/MOL
REMARK 924 INTRA-LIGAND FREE ENERGY PREDICTED BY IDOCK:   -0.31 KCAL/MOL
REMARK 927      BINDING AFFINITY PREDICTED BY RF-SCORE:    0.00 PKD
ROOT
HETATM    1  C   UNL     1     -11.466  11.530  68.008  1.00  0.00    -0.381 C  
HETATM    2  C   UNL     1     -11.498  12.894  67.318  1.00  0.00    -0.336 C  
ENDROOT
BRANCH   2   3
HETATM    3  O   UNL     1     -12.338  13.763  68.104  1.00  0.00    -0.245 OA 
BRANCH   3   4
HETATM    4  C   UNL     1     -11.719  14.874  68.611  1.00  0.00    -0.330 C  
HETATM    5  C   UNL     1     -11.592  14.778  70.098  1.00  0.00    -0.338 C  
HETATM    6  O   UNL     1     -11.321  15.811  67.936  1.00  0.00    -0.338 OA 
ENDBRANCH   3   4
ENDBRANCH   2   3
BRANCH   2   7
HETATM    7  C   UNL     1     -12.103  12.733  65.905  1.00  0.00    -0.426 C  
BRANCH   7   8
HETATM    8  N   UNL     1     -11.132  13.005  64.720  1.00  0.00    -0.309 N  
HETATM    9  C   UNL     1     -11.990  13.194  63.463  1.00  0.00    -0.513 C  
HETATM   10  C   UNL     1     -10.316  14.275  64.922  1.00  0.00    -0.401 C  
HETATM   11  C   UNL     1     -10.192  11.829  64.491  1.00  0.00    -0.284 C  
ENDBRANCH   7   8
ENDBRANCH   2   7
TORSDOF 4
ENDMDL
MODEL       37
REMARK 921   NORMALIZED FREE ENERGY PREDICTED BY IDOCK:   -3.07 KCAL/MOL
REMARK 922        TOTAL FREE ENERGY PREDICTED BY IDOCK:   -4.20 KCAL/MOL
REMARK 923 INTER-LIGAND FREE ENERGY PREDICTED BY IDOCK:   -3.81 KCAL/MOL
REMARK 924 INTRA-LIGAND FREE ENERGY PREDICTED BY IDOCK:   -0.39 KCAL/MOL
REMARK 927      BINDING AFFINITY PREDICTED BY RF-SCORE:    0.00 PKD
ROOT
HETATM    1  C   UNL     1     -11.152  14.489  69.133  1.00  0.00    -0.284 C  
HETATM    2  C   UNL     1     -10.980  14.850  67.657  1.00  0.00    -0.300 C  
ENDROOT
BRANCH   2   3
HETATM    3  O   UNL     1     -11.030  16.288  67.550  1.00  0.00    -0.296 OA 
BRANCH   3   4
HETATM    4  C   UNL     1     -10.038  16.852  66.795  1.00  0.00    -0.294 C  
HETATM    5  C   UNL     1      -8.695  16.585  67.398  1.00  0.00    -0.195 C  
HETATM    6  O   UNL     1     -10.226  17.483  65.765  1.00  0.00    -0.561 OA 
ENDBRANCH   3   4
ENDBRANCH   2   3
BRANCH   2   7
HETATM    7  C   UNL     1     -12.142  14.233  66.846  1.00  0.00    -0.409 C  
BRANCH   7   8
HETATM    8  N   UNL     1     -11.828  13.907  65.358  1.00  0.00    -0.339 N  
HETATM    9  C   UNL     1     -12.616  12.645  64.991  1.00  0.00    -0.430 C  
HETATM   10  C   UNL     1     -12.268  15.021  64.417  1.00  0.00    -0.337 C  
HETATM   11  C   UNL     1     -10.345  13.627  65.152  1.00  0.00    -0.364 C  
ENDBRANCH   7   8
ENDBRANCH   2   7
TORSDOF 4
ENDMDL
MODEL       38
REMARK 921   NORMALIZED FREE ENERGY PREDICTED BY IDOCK:   -3.06 KCAL/MOL
REMARK 922        TOTAL FREE ENERGY PREDICTED BY IDOCK:   -4.18 KCAL/MOL
REMARK 923 INTER-LIGAND FREE ENERGY PREDICTED BY IDOCK:   -3.88 KCAL/MOL
REMARK 924 INTRA-LIGAND FREE ENERGY PREDICTED BY IDOCK:   -0.30 KCAL/MOL
REMARK 927      BINDING AFFINITY PREDICTED BY RF-SCORE:    0.00 PKD
ROOT
HETATM    1  C   UNL     1     -11.876  12.652  68.977  1.00  0.00    -0.341 C  
HETATM    2  C   UNL     1     -11.469  13.955  68.290  1.00  0.00    -0.311 C  
ENDROOT
BRANCH   2   3
HETATM    3  O   UNL     1     -11.931  15.047  69.112  1.00  0.00    -0.305 OA 
BRANCH   3   4
HETATM    4  C   UNL     1     -11.010  15.544  69.994  1.00  0.00    -0.319 C  
HETATM    5  C   UNL     1     -11.660  15.907  71.291  1.00  0.00    -0.509 C  
HETATM    6  O   UNL     1      -9.819  15.669  69.752  1.00  0.00    -0.281 OA 
ENDBRANCH   3   4
ENDBRANCH   2   3
BRANCH   2   7
HETATM    7  C   UNL     1     -12.150  14.031  66.904  1.00  0.00    -0.430 C  
BRANCH   7   8
HETATM    8  N   UNL     1     -11.190  14.096  65.682  1.00  0.00    -0.303 N  
HETATM    9  C   UNL     1     -10.258  15.294  65.899  1.00  0.00    -0.332 C  
HETATM   10  C   UNL     1     -10.326  12.849  65.560  1.00  0.00    -0.291 C  
HETATM   11  C   UNL     1     -11.958  14.310  64.384  1.00  0.00    -0.456 C  
ENDBRANCH   7   8
ENDBRANCH   2   7
TORSDOF 4
ENDMDL
MODEL       39
REMARK 921   NORMALIZED FREE ENERGY PREDICTED BY IDOCK:   -3.06 KCAL/MOL
REMARK 922        TOTAL FREE ENERGY PREDICTED BY IDOCK:   -4.17 KCAL/MOL
REMARK 923 INTER-LIGAND FREE ENERGY PREDICTED BY IDOCK:   -3.93 KCAL/MOL
REMARK 924 INTRA-LIGAND FREE ENERGY PREDICTED BY IDOCK:   -0.25 KCAL/MOL
REMARK 927      BINDING AFFINITY PREDICTED BY RF-SCORE:    0.00 PKD
ROOT
HETATM    1  C   UNL     1     -11.773  15.925  64.325  1.00  0.00    -0.132 C  
HETATM    2  C   UNL     1     -10.889  15.742  65.559  1.00  0.00    -0.332 C  
ENDROOT
BRANCH   2   3
HETATM    3  O   UNL     1      -9.934  16.822  65.578  1.00  0.00    -0.567 OA 
BRANCH   3   4
HETATM    4  C   UNL     1     -10.385  17.992  66.125  1.00  0.00    -0.366 C  
HETATM    5  C   UNL     1     -10.507  17.872  67.611  1.00  0.00    -0.406 C  
HETATM    6  O   UNL     1     -10.647  18.999  65.484  1.00  0.00    -0.557 OA 
ENDBRANCH   3   4
ENDBRANCH   2   3
BRANCH   2   7
HETATM    7  C   UNL     1     -10.140  14.394  65.450  1.00  0.00    -0.359 C  
BRANCH   7   8
HETATM    8  N   UNL     1     -10.645  13.263  66.391  1.00  0.00    -0.281 N  
HETATM    9  C   UNL     1     -11.831  12.586  65.693  1.00  0.00    -0.438 C  
HETATM   10  C   UNL     1      -9.583  12.201  66.638  1.00  0.00    -0.220 C  
HETATM   11  C   UNL     1     -11.124  13.822  67.724  1.00  0.00    -0.268 C  
ENDBRANCH   7   8
ENDBRANCH   2   7
TORSDOF 4
ENDMDL
MODEL       40
REMARK 921   NORMALIZED FREE ENERGY PREDICTED BY IDOCK:   -3.05 KCAL/MOL
REMARK 922        TOTAL FREE ENERGY PREDICTED BY IDOCK:   -4.16 KCAL/MOL
REMARK 923 INTER-LIGAND FREE ENERGY PREDICTED BY IDOCK:   -3.90 KCAL/MOL
REMARK 924 INTRA-LIGAND FREE ENERGY PREDICTED BY IDOCK:   -0.27 KCAL/MOL
REMARK 927      BINDING AFFINITY PREDICTED BY RF-SCORE:    0.00 PKD
ROOT
HETATM    1  C   UNL     1     -10.906  16.928  68.092  1.00  0.00    -0.351 C  
HETATM    2  C   UNL     1     -11.376  15.520  68.461  1.00  0.00    -0.351 C  
ENDROOT
BRANCH   2   3
HETATM    3  O   UNL     1     -11.260  15.381  69.892  1.00  0.00    -0.253 OA 
BRANCH   3   4
HETATM    4  C   UNL     1     -12.404  14.993  70.536  1.00  0.00    -0.356 C  
HETATM    5  C   UNL     1     -12.410  13.515  70.763  1.00  0.00    -0.440 C  
HETATM    6  O   UNL     1     -13.294  15.756  70.882  1.00  0.00    -0.576 OA 
ENDBRANCH   3   4
ENDBRANCH   2   3
BRANCH   2   7
HETATM    7  C   UNL     1     -10.464  14.483  67.767  1.00  0.00    -0.242 C  
BRANCH   7   8
HETATM    8  N   UNL     1     -11.180  13.484  66.814  1.00  0.00    -0.303 N  
HETATM    9  C   UNL     1     -10.219  13.190  65.657  1.00  0.00    -0.286 C  
HETATM   10  C   UNL     1     -11.503  12.163  67.499  1.00  0.00    -0.340 C  
HETATM   11  C   UNL     1     -12.458  14.083  66.240  1.00  0.00    -0.400 C  
ENDBRANCH   7   8
ENDBRANCH   2   7
TORSDOF 4
ENDMDL
MODEL       41
REMARK 921   NORMALIZED FREE ENERGY PREDICTED BY IDOCK:   -3.04 KCAL/MOL
REMARK 922        TOTAL FREE ENERGY PREDICTED BY IDOCK:   -4.16 KCAL/MOL
REMARK 923 INTER-LIGAND FREE ENERGY PREDICTED BY IDOCK:   -3.84 KCAL/MOL
REMARK 924 INTRA-LIGAND FREE ENERGY PREDICTED BY IDOCK:   -0.32 KCAL/MOL
REMARK 927      BINDING AFFINITY PREDICTED BY RF-SCORE:    0.00 PKD
ROOT
HETATM    1  C   UNL     1     -11.792  14.322  64.365  1.00  0.00    -0.444 C  
HETATM    2  C   UNL     1     -11.052  14.474  65.695  1.00  0.00    -0.327 C  
ENDROOT
BRANCH   2   3
HETATM    3  O   UNL     1     -12.022  14.338  66.754  1.00  0.00    -0.414 OA 
BRANCH   3   4
HETATM    4  C   UNL     1     -11.910  13.200  67.506  1.00  0.00    -0.360 C  
HETATM    5  C   UNL     1     -11.545  13.531  68.918  1.00  0.00    -0.364 C  
HETATM    6  O   UNL     1     -12.091  12.070  67.079  1.00  0.00    -0.603 OA 
ENDBRANCH   3   4
ENDBRANCH   2   3
BRANCH   2   7
HETATM    7  C   UNL     1     -10.412  15.879  65.760  1.00  0.00    -0.370 C  
BRANCH   7   8
HETATM    8  N   UNL     1      -9.206  16.027  66.732  1.00  0.00    -0.225 N  
HETATM    9  C   UNL     1      -9.758  16.533  68.070  1.00  0.00    -0.236 C  
HETATM   10  C   UNL     1      -8.506  14.700  66.990  1.00  0.00    -0.210 C  
HETATM   11  C   UNL     1      -8.195  17.041  66.212  1.00  0.00    -0.287 C  
ENDBRANCH   7   8
ENDBRANCH   2   7
TORSDOF 4
ENDMDL
MODEL       42
REMARK 921   NORMALIZED FREE ENERGY PREDICTED BY IDOCK:   -3.04 KCAL/MOL
REMARK 922        TOTAL FREE ENERGY PREDICTED BY IDOCK:   -4.15 KCAL/MOL
REMARK 923 INTER-LIGAND FREE ENERGY PREDICTED BY IDOCK:   -3.76 KCAL/MOL
REMARK 924 INTRA-LIGAND FREE ENERGY PREDICTED BY IDOCK:   -0.39 KCAL/MOL
REMARK 927      BINDING AFFINITY PREDICTED BY RF-SCORE:    0.00 PKD
ROOT
HETATM    1  C   UNL     1     -11.015  15.634  64.737  1.00  0.00    -0.418 C  
HETATM    2  C   UNL     1     -10.522  16.455  65.929  1.00  0.00    -0.337 C  
ENDROOT
BRANCH   2   3
HETATM    3  O   UNL     1     -10.334  17.812  65.479  1.00  0.00    -0.623 OA 
BRANCH   3   4
HETATM    4  C   UNL     1     -10.241  18.750  66.471  1.00  0.00    -0.413 C  
HETATM    5  C   UNL     1      -9.109  19.692  66.207  1.00  0.00    -0.429 C  
HETATM    6  O   UNL     1     -10.986  18.809  67.437  1.00  0.00    -0.422 OA 
ENDBRANCH   3   4
ENDBRANCH   2   3
BRANCH   2   7
HETATM    7  C   UNL     1      -9.172  15.882  66.415  1.00  0.00    -0.309 C  
BRANCH   7   8
HETATM    8  N   UNL     1      -9.148  15.357  67.879  1.00  0.00    -0.178 N  
HETATM    9  C   UNL     1      -8.578  13.934  67.844  1.00  0.00    -0.180 C  
HETATM   10  C   UNL     1      -8.250  16.196  68.779  1.00  0.00    -0.216 C  
HETATM   11  C   UNL     1     -10.550  15.302  68.471  1.00  0.00    -0.237 C  
ENDBRANCH   7   8
ENDBRANCH   2   7
TORSDOF 4
ENDMDL
MODEL       43
REMARK 921   NORMALIZED FREE ENERGY PREDICTED BY IDOCK:   -3.02 KCAL/MOL
REMARK 922        TOTAL FREE ENERGY PREDICTED BY IDOCK:   -4.13 KCAL/MOL
REMARK 923 INTER-LIGAND FREE ENERGY PREDICTED BY IDOCK:   -3.81 KCAL/MOL
REMARK 924 INTRA-LIGAND FREE ENERGY PREDICTED BY IDOCK:   -0.32 KCAL/MOL
REMARK 927      BINDING AFFINITY PREDICTED BY RF-SCORE:    0.00 PKD
ROOT
HETATM    1  C   UNL     1     -10.565  10.078  70.179  1.00  0.00    -0.350 C  
HETATM    2  C   UNL     1     -11.610  11.150  69.869  1.00  0.00    -0.337 C  
ENDROOT
BRANCH   2   3
HETATM    3  O   UNL     1     -12.896  10.642  70.281  1.00  0.00    -0.302 OA 
BRANCH   3   4
HETATM    4  C   UNL     1     -13.170  10.759  71.616  1.00  0.00    -0.383 C  
HETATM    5  C   UNL     1     -13.129  12.192  72.042  1.00  0.00    -0.462 C  
HETATM    6  O   UNL     1     -13.419   9.819  72.356  1.00  0.00    -0.413 OA 
ENDBRANCH   3   4
ENDBRANCH   2   3
BRANCH   2   7
HETATM    7  C   UNL     1     -11.626  11.416  68.346  1.00  0.00    -0.315 C  
BRANCH   7   8
HETATM    8  N   UNL     1     -11.308  12.876  67.912  1.00  0.00    -0.274 N  
HETATM    9  C   UNL     1     -11.945  13.090  66.534  1.00  0.00    -0.391 C  
HETATM   10  C   UNL     1     -11.904  13.904  68.865  1.00  0.00    -0.358 C  
HETATM   11  C   UNL     1      -9.807  13.105  67.792  1.00  0.00    -0.228 C  
ENDBRANCH   7   8
ENDBRANCH   2   7
TORSDOF 4
ENDMDL
MODEL       44
REMARK 921   NORMALIZED FREE ENERGY PREDICTED BY IDOCK:   -3.01 KCAL/MOL
REMARK 922        TOTAL FREE ENERGY PREDICTED BY IDOCK:   -4.11 KCAL/MOL
REMARK 923 INTER-LIGAND FREE ENERGY PREDICTED BY IDOCK:   -3.88 KCAL/MOL
REMARK 924 INTRA-LIGAND FREE ENERGY PREDICTED BY IDOCK:   -0.23 KCAL/MOL
REMARK 927      BINDING AFFINITY PREDICTED BY RF-SCORE:    0.00 PKD
ROOT
HETATM    1  C   UNL     1     -10.838  19.515  67.433  1.00  0.00    -0.536 C  
HETATM    2  C   UNL     1      -9.779  18.663  66.731  1.00  0.00    -0.329 C  
ENDROOT
BRANCH   2   3
HETATM    3  O   UNL     1      -8.992  19.539  65.899  1.00  0.00    -0.406 OA 
BRANCH   3   4
HETATM    4  C   UNL     1      -7.643  19.505  66.125  1.00  0.00    -0.308 C  
HETATM    5  C   UNL     1      -7.288  20.305  67.338  1.00  0.00    -0.343 C  
HETATM    6  O   UNL     1      -6.841  18.897  65.432  1.00  0.00    -0.424 OA 
ENDBRANCH   3   4
ENDBRANCH   2   3
BRANCH   2   7
HETATM    7  C   UNL     1     -10.483  17.608  65.847  1.00  0.00    -0.246 C  
BRANCH   7   8
HETATM    8  N   UNL     1     -10.379  16.136  66.339  1.00  0.00    -0.305 N  
HETATM    9  C   UNL     1      -8.888  15.803  66.469  1.00  0.00    -0.310 C  
HETATM   10  C   UNL     1     -11.021  15.938  67.705  1.00  0.00    -0.298 C  
HETATM   11  C   UNL     1     -11.004  15.172  65.340  1.00  0.00    -0.374 C  
ENDBRANCH   7   8
ENDBRANCH   2   7
TORSDOF 4
ENDMDL
MODEL       45
REMARK 921   NORMALIZED FREE ENERGY PREDICTED BY IDOCK:   -3.00 KCAL/MOL
REMARK 922        TOTAL FREE ENERGY PREDICTED BY IDOCK:   -4.10 KCAL/MOL
REMARK 923 INTER-LIGAND FREE ENERGY PREDICTED BY IDOCK:   -3.79 KCAL/MOL
REMARK 924 INTRA-LIGAND FREE ENERGY PREDICTED BY IDOCK:   -0.31 KCAL/MOL
REMARK 927      BINDING AFFINITY PREDICTED BY RF-SCORE:    0.00 PKD
ROOT
HETATM    1  C   UNL     1     -11.648  15.734  64.562  1.00  0.00    -0.247 C  
HETATM    2  C   UNL     1     -11.416  14.411  65.293  1.00  0.00    -0.350 C  
ENDROOT
BRANCH   2   3
HETATM    3  O   UNL     1     -10.805  14.714  66.564  1.00  0.00    -0.303 OA 
BRANCH   3   4
HETATM    4  C   UNL     1     -11.591  14.483  67.660  1.00  0.00    -0.378 C  
HETATM    5  C   UNL     1     -11.688  15.708  68.511  1.00  0.00    -0.339 C  
HETATM    6  O   UNL     1     -12.141  13.419  67.903  1.00  0.00    -0.338 OA 
ENDBRANCH   3   4
ENDBRANCH   2   3
BRANCH   2   7
HETATM    7  C   UNL     1     -10.457  13.532  64.457  1.00  0.00    -0.407 C  
BRANCH   7   8
HETATM    8  N   UNL     1     -10.901  12.056  64.252  1.00  0.00    -0.312 N  
HETATM    9  C   UNL     1      -9.932  11.425  63.245  1.00  0.00    -0.401 C  
HETATM   10  C   UNL     1     -10.827  11.246  65.539  1.00  0.00    -0.179 C  
HETATM   11  C   UNL     1     -12.311  11.974  63.682  1.00  0.00    -0.539 C  
ENDBRANCH   7   8
ENDBRANCH   2   7
TORSDOF 4
ENDMDL
MODEL       46
REMARK 921   NORMALIZED FREE ENERGY PREDICTED BY IDOCK:   -2.99 KCAL/MOL
REMARK 922        TOTAL FREE ENERGY PREDICTED BY IDOCK:   -4.09 KCAL/MOL
REMARK 923 INTER-LIGAND FREE ENERGY PREDICTED BY IDOCK:   -3.82 KCAL/MOL
REMARK 924 INTRA-LIGAND FREE ENERGY PREDICTED BY IDOCK:   -0.27 KCAL/MOL
REMARK 927      BINDING AFFINITY PREDICTED BY RF-SCORE:    0.00 PKD
ROOT
HETATM    1  C   UNL     1     -11.791  14.571  69.078  1.00  0.00    -0.354 C  
HETATM    2  C   UNL     1     -11.068  14.935  67.782  1.00  0.00    -0.309 C  
ENDROOT
BRANCH   2   3
HETATM    3  O   UNL     1     -10.713  13.705  67.118  1.00  0.00    -0.273 OA 
BRANCH   3   4
HETATM    4  C   UNL     1     -11.760  13.009  66.577  1.00  0.00    -0.382 C  
HETATM    5  C   UNL     1     -12.528  13.864  65.621  1.00  0.00    -0.538 C  
HETATM    6  O   UNL     1     -12.024  11.845  66.839  1.00  0.00    -0.614 OA 
ENDBRANCH   3   4
ENDBRANCH   2   3
BRANCH   2   7
HETATM    7  C   UNL     1      -9.784  15.725  68.123  1.00  0.00    -0.211 C  
BRANCH   7   8
HETATM    8  N   UNL     1      -9.657  17.127  67.461  1.00  0.00    -0.251 N  
HETATM    9  C   UNL     1     -10.399  17.066  66.120  1.00  0.00    -0.319 C  
HETATM   10  C   UNL     1     -10.302  18.222  68.300  1.00  0.00    -0.357 C  
HETATM   11  C   UNL     1      -8.202  17.485  67.192  1.00  0.00    -0.212 C  
ENDBRANCH   7   8
ENDBRANCH   2   7
TORSDOF 4
ENDMDL
MODEL       47
REMARK 921   NORMALIZED FREE ENERGY PREDICTED BY IDOCK:   -2.99 KCAL/MOL
REMARK 922        TOTAL FREE ENERGY PREDICTED BY IDOCK:   -4.09 KCAL/MOL
REMARK 923 INTER-LIGAND FREE ENERGY PREDICTED BY IDOCK:   -3.81 KCAL/MOL
REMARK 924 INTRA-LIGAND FREE ENERGY PREDICTED BY IDOCK:   -0.27 KCAL/MOL
REMARK 927      BINDING AFFINITY PREDICTED BY RF-SCORE:    0.00 PKD
ROOT
HETATM    1  C   UNL     1     -10.036  15.985  66.086  1.00  0.00    -0.347 C  
HETATM    2  C   UNL     1     -10.474  14.524  66.193  1.00  0.00    -0.298 C  
ENDROOT
BRANCH   2   3
HETATM    3  O   UNL     1     -11.907  14.484  66.039  1.00  0.00    -0.373 OA 
BRANCH   3   4
HETATM    4  C   UNL     1     -12.353  14.098  64.804  1.00  0.00    -0.417 C  
HETATM    5  C   UNL     1     -12.578  12.620  64.759  1.00  0.00    -0.530 C  
HETATM    6  O   UNL     1     -12.544  14.861  63.869  1.00  0.00    -0.831 OA 
ENDBRANCH   3   4
ENDBRANCH   2   3
BRANCH   2   7
HETATM    7  C   UNL     1     -10.090  13.981  67.588  1.00  0.00    -0.241 C  
BRANCH   7   8
HETATM    8  N   UNL     1      -9.392  12.591  67.603  1.00  0.00    -0.183 N  
HETATM    9  C   UNL     1     -10.209  11.681  68.527  1.00  0.00    -0.210 C  
HETATM   10  C   UNL     1      -9.361  11.946  66.224  1.00  0.00    -0.227 C  
HETATM   11  C   UNL     1      -7.974  12.688  68.149  1.00  0.00    -0.158 C  
ENDBRANCH   7   8
ENDBRANCH   2   7
TORSDOF 4
ENDMDL
MODEL       48
REMARK 921   NORMALIZED FREE ENERGY PREDICTED BY IDOCK:   -2.98 KCAL/MOL
REMARK 922        TOTAL FREE ENERGY PREDICTED BY IDOCK:   -4.08 KCAL/MOL
REMARK 923 INTER-LIGAND FREE ENERGY PREDICTED BY IDOCK:   -3.66 KCAL/MOL
REMARK 924 INTRA-LIGAND FREE ENERGY PREDICTED BY IDOCK:   -0.43 KCAL/MOL
REMARK 927      BINDING AFFINITY PREDICTED BY RF-SCORE:    0.00 PKD
ROOT
HETATM    1  C   UNL     1     -12.903  13.875  65.249  1.00  0.00    -0.437 C  
HETATM    2  C   UNL     1     -11.751  13.493  66.179  1.00  0.00    -0.365 C  
ENDROOT
BRANCH   2   3
HETATM    3  O   UNL     1     -12.042  12.190  66.726  1.00  0.00    -0.609 OA 
BRANCH   3   4
HETATM    4  C   UNL     1     -10.950  11.451  67.089  1.00  0.00    -0.285 C  
HETATM    5  C   UNL     1     -10.242  10.923  65.882  1.00  0.00    -0.314 C  
HETATM    6  O   UNL     1     -10.600  11.256  68.243  1.00  0.00    -0.180 OA 
ENDBRANCH   3   4
ENDBRANCH   2   3
BRANCH   2   7
HETATM    7  C   UNL     1     -11.662  14.525  67.326  1.00  0.00    -0.406 C  
BRANCH   7   8
HETATM    8  N   UNL     1     -10.283  15.221  67.503  1.00  0.00    -0.237 N  
HETATM    9  C   UNL     1      -9.422  14.842  66.292  1.00  0.00    -0.309 C  
HETATM   10  C   UNL     1     -10.401  16.738  67.535  1.00  0.00    -0.301 C  
HETATM   11  C   UNL     1      -9.577  14.741  68.765  1.00  0.00    -0.215 C  
ENDBRANCH   7   8
ENDBRANCH   2   7
TORSDOF 4
ENDMDL
MODEL       49
REMARK 921   NORMALIZED FREE ENERGY PREDICTED BY IDOCK:   -2.96 KCAL/MOL
REMARK 922        TOTAL FREE ENERGY PREDICTED BY IDOCK:   -4.06 KCAL/MOL
REMARK 923 INTER-LIGAND FREE ENERGY PREDICTED BY IDOCK:   -3.73 KCAL/MOL
REMARK 924 INTRA-LIGAND FREE ENERGY PREDICTED BY IDOCK:   -0.33 KCAL/MOL
REMARK 927      BINDING AFFINITY PREDICTED BY RF-SCORE:    0.00 PKD
ROOT
HETATM    1  C   UNL     1     -10.520  18.190  66.259  1.00  0.00    -0.374 C  
HETATM    2  C   UNL     1     -10.044  16.739  66.181  1.00  0.00    -0.345 C  
ENDROOT
BRANCH   2   3
HETATM    3  O   UNL     1      -8.716  16.742  65.617  1.00  0.00    -0.441 OA 
BRANCH   3   4
HETATM    4  C   UNL     1      -7.695  16.732  66.527  1.00  0.00    -0.299 C  
HETATM    5  C   UNL     1      -6.632  17.712  66.143  1.00  0.00    -0.302 C  
HETATM    6  O   UNL     1      -7.662  16.021  67.521  1.00  0.00    -0.133 OA 
ENDBRANCH   3   4
ENDBRANCH   2   3
BRANCH   2   7
HETATM    7  C   UNL     1     -10.993  15.943  65.256  1.00  0.00    -0.324 C  
BRANCH   7   8
HETATM    8  N   UNL     1     -11.230  14.457  65.649  1.00  0.00    -0.316 N  
HETATM    9  C   UNL     1     -10.464  13.592  64.641  1.00  0.00    -0.423 C  
HETATM   10  C   UNL     1     -10.698  14.135  67.038  1.00  0.00    -0.285 C  
HETATM   11  C   UNL     1     -12.707  14.092  65.574  1.00  0.00    -0.486 C  
ENDBRANCH   7   8
ENDBRANCH   2   7
TORSDOF 4
ENDMDL
MODEL       50
REMARK 921   NORMALIZED FREE ENERGY PREDICTED BY IDOCK:   -2.96 KCAL/MOL
REMARK 922        TOTAL FREE ENERGY PREDICTED BY IDOCK:   -4.05 KCAL/MOL
REMARK 923 INTER-LIGAND FREE ENERGY PREDICTED BY IDOCK:   -3.78 KCAL/MOL
REMARK 924 INTRA-LIGAND FREE ENERGY PREDICTED BY IDOCK:   -0.28 KCAL/MOL
REMARK 927      BINDING AFFINITY PREDICTED BY RF-SCORE:    0.00 PKD
ROOT
HETATM    1  C   UNL     1     -10.759  18.948  65.841  1.00  0.00    -0.366 C  
HETATM    2  C   UNL     1     -10.382  17.983  66.965  1.00  0.00    -0.369 C  
ENDROOT
BRANCH   2   3
HETATM    3  O   UNL     1      -9.051  18.321  67.406  1.00  0.00    -0.251 OA 
BRANCH   3   4
HETATM    4  C   UNL     1      -8.987  19.116  68.518  1.00  0.00    -0.363 C  
HETATM    5  C   UNL     1      -7.568  19.448  68.853  1.00  0.00    -0.398 C  
HETATM    6  O   UNL     1      -9.961  19.503  69.147  1.00  0.00    -0.442 OA 
ENDBRANCH   3   4
ENDBRANCH   2   3
BRANCH   2   7
HETATM    7  C   UNL     1     -10.390  16.538  66.416  1.00  0.00    -0.311 C  
BRANCH   7   8
HETATM    8  N   UNL     1     -10.697  15.422  67.455  1.00  0.00    -0.288 N  
HETATM    9  C   UNL     1     -11.687  14.451  66.802  1.00  0.00    -0.397 C  
HETATM   10  C   UNL     1      -9.453  14.631  67.838  1.00  0.00    -0.210 C  
HETATM   11  C   UNL     1     -11.340  15.995  68.712  1.00  0.00    -0.380 C  
ENDBRANCH   7   8
ENDBRANCH   2   7
TORSDOF 4
ENDMDL
MODEL       51
REMARK 921   NORMALIZED FREE ENERGY PREDICTED BY IDOCK:   -2.93 KCAL/MOL
REMARK 922        TOTAL FREE ENERGY PREDICTED BY IDOCK:   -4.02 KCAL/MOL
REMARK 923 INTER-LIGAND FREE ENERGY PREDICTED BY IDOCK:   -3.72 KCAL/MOL
REMARK 924 INTRA-LIGAND FREE ENERGY PREDICTED BY IDOCK:   -0.30 KCAL/MOL
REMARK 927      BINDING AFFINITY PREDICTED BY RF-SCORE:    0.00 PKD
ROOT
HETATM    1  C   UNL     1     -14.308   8.563  72.447  1.00  0.00    -0.412 C  
HETATM    2  C   UNL     1     -12.981   9.048  71.861  1.00  0.00    -0.389 C  
ENDROOT
BRANCH   2   3
HETATM    3  O   UNL     1     -13.284   9.972  70.796  1.00  0.00    -0.348 OA 
BRANCH   3   4
HETATM    4  C   UNL     1     -12.781  11.235  70.958  1.00  0.00    -0.359 C  
HETATM    5  C   UNL     1     -11.814  11.565  69.866  1.00  0.00    -0.430 C  
HETATM    6  O   UNL     1     -13.088  11.989  71.869  1.00  0.00    -0.453 OA 
ENDBRANCH   3   4
ENDBRANCH   2   3
BRANCH   2   7
HETATM    7  C   UNL     1     -12.209   7.838  71.288  1.00  0.00    -0.303 C  
BRANCH   7   8
HETATM    8  N   UNL     1     -10.810   7.571  71.914  1.00  0.00    -0.223 N  
HETATM    9  C   UNL     1     -10.058   8.907  71.934  1.00  0.00    -0.322 C  
HETATM   10  C   UNL     1     -10.906   7.069  73.349  1.00  0.00    -0.299 C  
HETATM   11  C   UNL     1     -10.009   6.578  71.082  1.00  0.00    -0.182 C  
ENDBRANCH   7   8
ENDBRANCH   2   7
TORSDOF 4
ENDMDL
MODEL       52
REMARK 921   NORMALIZED FREE ENERGY PREDICTED BY IDOCK:   -2.92 KCAL/MOL
REMARK 922        TOTAL FREE ENERGY PREDICTED BY IDOCK:   -4.01 KCAL/MOL
REMARK 923 INTER-LIGAND FREE ENERGY PREDICTED BY IDOCK:   -3.63 KCAL/MOL
REMARK 924 INTRA-LIGAND FREE ENERGY PREDICTED BY IDOCK:   -0.38 KCAL/MOL
REMARK 927      BINDING AFFINITY PREDICTED BY RF-SCORE:    0.00 PKD
ROOT
HETATM    1  C   UNL     1     -12.722  12.079  71.278  1.00  0.00    -0.382 C  
HETATM    2  C   UNL     1     -12.027  10.869  70.653  1.00  0.00    -0.368 C  
ENDROOT
BRANCH   2   3
HETATM    3  O   UNL     1     -12.529  10.721  69.309  1.00  0.00    -0.356 OA 
BRANCH   3   4
HETATM    4  C   UNL     1     -11.764  11.299  68.332  1.00  0.00    -0.294 C  
HETATM    5  C   UNL     1     -10.480  10.552  68.152  1.00  0.00    -0.217 C  
HETATM    6  O   UNL     1     -12.091  12.287  67.692  1.00  0.00    -0.502 OA 
ENDBRANCH   3   4
ENDBRANCH   2   3
BRANCH   2   7
HETATM    7  C   UNL     1     -12.373   9.606  71.473  1.00  0.00    -0.390 C  
BRANCH   7   8
HETATM    8  N   UNL     1     -11.269   8.512  71.528  1.00  0.00    -0.261 N  
HETATM    9  C   UNL     1     -11.474   7.722  72.825  1.00  0.00    -0.359 C  
HETATM   10  C   UNL     1     -11.368   7.533  70.366  1.00  0.00    -0.233 C  
HETATM   11  C   UNL     1      -9.877   9.130  71.553  1.00  0.00    -0.265 C  
ENDBRANCH   7   8
ENDBRANCH   2   7
TORSDOF 4
ENDMDL
MODEL       53
REMARK 921   NORMALIZED FREE ENERGY PREDICTED BY IDOCK:   -2.91 KCAL/MOL
REMARK 922        TOTAL FREE ENERGY PREDICTED BY IDOCK:   -4.00 KCAL/MOL
REMARK 923 INTER-LIGAND FREE ENERGY PREDICTED BY IDOCK:   -3.69 KCAL/MOL
REMARK 924 INTRA-LIGAND FREE ENERGY PREDICTED BY IDOCK:   -0.31 KCAL/MOL
REMARK 927      BINDING AFFINITY PREDICTED BY RF-SCORE:    0.00 PKD
ROOT
HETATM    1  C   UNL     1     -10.499  19.326  66.134  1.00  0.00    -0.577 C  
HETATM    2  C   UNL     1      -9.721  18.652  67.265  1.00  0.00    -0.302 C  
ENDROOT
BRANCH   2   3
HETATM    3  O   UNL     1     -10.676  18.006  68.131  1.00  0.00    -0.355 OA 
BRANCH   3   4
HETATM    4  C   UNL     1     -10.329  16.751  68.551  1.00  0.00    -0.316 C  
HETATM    5  C   UNL     1     -11.470  15.800  68.381  1.00  0.00    -0.367 C  
HETATM    6  O   UNL     1      -9.232  16.451  68.999  1.00  0.00    -0.249 OA 
ENDBRANCH   3   4
ENDBRANCH   2   3
BRANCH   2   7
HETATM    7  C   UNL     1      -8.950  19.730  68.061  1.00  0.00    -0.311 C  
BRANCH   7   8
HETATM    8  N   UNL     1      -7.400  19.668  67.955  1.00  0.00    -0.278 N  
HETATM    9  C   UNL     1      -6.939  20.953  67.257  1.00  0.00    -0.376 C  
HETATM   10  C   UNL     1      -6.729  19.615  69.322  1.00  0.00    -0.356 C  
HETATM   11  C   UNL     1      -6.947  18.476  67.122  1.00  0.00    -0.202 C  
ENDBRANCH   7   8
ENDBRANCH   2   7
TORSDOF 4
ENDMDL
MODEL       54
REMARK 921   NORMALIZED FREE ENERGY PREDICTED BY IDOCK:   -2.91 KCAL/MOL
REMARK 922        TOTAL FREE ENERGY PREDICTED BY IDOCK:   -3.99 KCAL/MOL
REMARK 923 INTER-LIGAND FREE ENERGY PREDICTED BY IDOCK:   -3.74 KCAL/MOL
REMARK 924 INTRA-LIGAND FREE ENERGY PREDICTED BY IDOCK:   -0.26 KCAL/MOL
REMARK 927      BINDING AFFINITY PREDICTED BY RF-SCORE:    0.00 PKD
ROOT
HETATM    1  C   UNL     1     -11.983  13.634  67.973  1.00  0.00    -0.385 C  
HETATM    2  C   UNL     1     -11.774  14.477  69.231  1.00  0.00    -0.310 C  
ENDROOT
BRANCH   2   3
HETATM    3  O   UNL     1     -10.397  14.909  69.245  1.00  0.00    -0.237 OA 
BRANCH   3   4
HETATM    4  C   UNL     1     -10.177  16.177  68.782  1.00  0.00    -0.238 C  
HETATM    5  C   UNL     1      -8.712  16.470  68.711  1.00  0.00    -0.259 C  
HETATM    6  O   UNL     1     -11.061  16.960  68.464  1.00  0.00    -0.327 OA 
ENDBRANCH   3   4
ENDBRANCH   2   3
BRANCH   2   7
HETATM    7  C   UNL     1     -12.053  13.607  70.477  1.00  0.00    -0.339 C  
BRANCH   7   8
HETATM    8  N   UNL     1     -12.796  14.317  71.644  1.00  0.00    -0.331 N  
HETATM    9  C   UNL     1     -13.537  13.234  72.438  1.00  0.00    -0.594 C  
HETATM   10  C   UNL     1     -11.837  15.018  72.597  1.00  0.00    -0.300 C  
HETATM   11  C   UNL     1     -13.818  15.319  71.124  1.00  0.00    -0.417 C  
ENDBRANCH   7   8
ENDBRANCH   2   7
TORSDOF 4
ENDMDL
MODEL       55
REMARK 921   NORMALIZED FREE ENERGY PREDICTED BY IDOCK:   -2.91 KCAL/MOL
REMARK 922        TOTAL FREE ENERGY PREDICTED BY IDOCK:   -3.99 KCAL/MOL
REMARK 923 INTER-LIGAND FREE ENERGY PREDICTED BY IDOCK:   -3.68 KCAL/MOL
REMARK 924 INTRA-LIGAND FREE ENERGY PREDICTED BY IDOCK:   -0.31 KCAL/MOL
REMARK 927      BINDING AFFINITY PREDICTED BY RF-SCORE:    0.00 PKD
ROOT
HETATM    1  C   UNL     1     -11.371  15.650  64.259  1.00  0.00    -0.181 C  
HETATM    2  C   UNL     1     -10.758  15.899  65.637  1.00  0.00    -0.339 C  
ENDROOT
BRANCH   2   3
HETATM    3  O   UNL     1      -9.955  17.094  65.550  1.00  0.00    -0.565 OA 
BRANCH   3   4
HETATM    4  C   UNL     1     -10.271  18.077  66.449  1.00  0.00    -0.393 C  
HETATM    5  C   UNL     1     -10.551  19.368  65.747  1.00  0.00    -0.490 C  
HETATM    6  O   UNL     1     -10.322  17.916  67.659  1.00  0.00    -0.348 OA 
ENDBRANCH   3   4
ENDBRANCH   2   3
BRANCH   2   7
HETATM    7  C   UNL     1      -9.858  14.701  66.014  1.00  0.00    -0.322 C  
BRANCH   7   8
HETATM    8  N   UNL     1     -10.220  13.975  67.342  1.00  0.00    -0.247 N  
HETATM    9  C   UNL     1      -9.472  14.692  68.472  1.00  0.00    -0.216 C  
HETATM   10  C   UNL     1     -11.709  14.046  67.651  1.00  0.00    -0.377 C  
HETATM   11  C   UNL     1      -9.776  12.518  67.317  1.00  0.00    -0.202 C  
ENDBRANCH   7   8
ENDBRANCH   2   7
TORSDOF 4
ENDMDL
MODEL       56
REMARK 921   NORMALIZED FREE ENERGY PREDICTED BY IDOCK:   -2.90 KCAL/MOL
REMARK 922        TOTAL FREE ENERGY PREDICTED BY IDOCK:   -3.98 KCAL/MOL
REMARK 923 INTER-LIGAND FREE ENERGY PREDICTED BY IDOCK:   -3.63 KCAL/MOL
REMARK 924 INTRA-LIGAND FREE ENERGY PREDICTED BY IDOCK:   -0.35 KCAL/MOL
REMARK 927      BINDING AFFINITY PREDICTED BY RF-SCORE:    0.00 PKD
ROOT
HETATM    1  C   UNL     1     -10.474  16.604  65.606  1.00  0.00    -0.313 C  
HETATM    2  C   UNL     1     -10.904  15.235  66.135  1.00  0.00    -0.320 C  
ENDROOT
BRANCH   2   3
HETATM    3  O   UNL     1     -10.282  15.047  67.423  1.00  0.00    -0.233 OA 
BRANCH   3   4
HETATM    4  C   UNL     1     -11.123  15.144  68.498  1.00  0.00    -0.276 C  
HETATM    5  C   UNL     1     -11.444  13.790  69.045  1.00  0.00    -0.349 C  
HETATM    6  O   UNL     1     -11.548  16.197  68.950  1.00  0.00    -0.357 OA 
ENDBRANCH   3   4
ENDBRANCH   2   3
BRANCH   2   7
HETATM    7  C   UNL     1     -10.413  14.139  65.162  1.00  0.00    -0.402 C  
BRANCH   7   8
HETATM    8  N   UNL     1     -11.393  12.953  64.931  1.00  0.00    -0.298 N  
HETATM    9  C   UNL     1     -10.991  11.835  65.900  1.00  0.00    -0.304 C  
HETATM   10  C   UNL     1     -12.837  13.330  65.230  1.00  0.00    -0.302 C  
HETATM   11  C   UNL     1     -11.292  12.419  63.508  1.00  0.00    -0.476 C  
ENDBRANCH   7   8
ENDBRANCH   2   7
TORSDOF 4
ENDMDL
MODEL       57
REMARK 921   NORMALIZED FREE ENERGY PREDICTED BY IDOCK:   -2.89 KCAL/MOL
REMARK 922        TOTAL FREE ENERGY PREDICTED BY IDOCK:   -3.97 KCAL/MOL
REMARK 923 INTER-LIGAND FREE ENERGY PREDICTED BY IDOCK:   -3.69 KCAL/MOL
REMARK 924 INTRA-LIGAND FREE ENERGY PREDICTED BY IDOCK:   -0.28 KCAL/MOL
REMARK 927      BINDING AFFINITY PREDICTED BY RF-SCORE:    0.00 PKD
ROOT
HETATM    1  C   UNL     1     -12.129  14.359  64.477  1.00  0.00    -0.498 C  
HETATM    2  C   UNL     1     -11.531  13.407  65.514  1.00  0.00    -0.305 C  
ENDROOT
BRANCH   2   3
HETATM    3  O   UNL     1     -11.697  12.062  65.021  1.00  0.00    -0.326 OA 
BRANCH   3   4
HETATM    4  C   UNL     1     -10.587  11.511  64.440  1.00  0.00    -0.334 C  
HETATM    5  C   UNL     1      -9.916  10.557  65.377  1.00  0.00    -0.353 C  
HETATM    6  O   UNL     1     -10.202  11.763  63.308  1.00  0.00    -0.412 OA 
ENDBRANCH   3   4
ENDBRANCH   2   3
BRANCH   2   7
HETATM    7  C   UNL     1     -12.298  13.564  66.847  1.00  0.00    -0.238 C  
BRANCH   7   8
HETATM    8  N   UNL     1     -11.441  13.997  68.071  1.00  0.00    -0.293 N  
HETATM    9  C   UNL     1      -9.980  13.668  67.743  1.00  0.00    -0.235 C  
HETATM   10  C   UNL     1     -11.533  15.492  68.341  1.00  0.00    -0.363 C  
HETATM   11  C   UNL     1     -11.839  13.229  69.325  1.00  0.00    -0.331 C  
ENDBRANCH   7   8
ENDBRANCH   2   7
TORSDOF 4
ENDMDL
MODEL       58
REMARK 921   NORMALIZED FREE ENERGY PREDICTED BY IDOCK:   -2.88 KCAL/MOL
REMARK 922        TOTAL FREE ENERGY PREDICTED BY IDOCK:   -3.95 KCAL/MOL
REMARK 923 INTER-LIGAND FREE ENERGY PREDICTED BY IDOCK:   -3.69 KCAL/MOL
REMARK 924 INTRA-LIGAND FREE ENERGY PREDICTED BY IDOCK:   -0.26 KCAL/MOL
REMARK 927      BINDING AFFINITY PREDICTED BY RF-SCORE:    0.00 PKD
ROOT
HETATM    1  C   UNL     1     -11.186   7.365  72.758  1.00  0.00    -0.380 C  
HETATM    2  C   UNL     1     -11.721   7.652  71.355  1.00  0.00    -0.283 C  
ENDROOT
BRANCH   2   3
HETATM    3  O   UNL     1     -13.151   7.814  71.456  1.00  0.00    -0.332 OA 
BRANCH   3   4
HETATM    4  C   UNL     1     -13.568   9.005  71.985  1.00  0.00    -0.445 C  
HETATM    5  C   UNL     1     -12.941  10.155  71.264  1.00  0.00    -0.510 C  
HETATM    6  O   UNL     1     -14.352   9.110  72.918  1.00  0.00    -0.519 OA 
ENDBRANCH   3   4
ENDBRANCH   2   3
BRANCH   2   7
HETATM    7  C   UNL     1     -11.403   6.450  70.436  1.00  0.00    -0.389 C  
BRANCH   7   8
HETATM    8  N   UNL     1     -10.341   6.709  69.329  1.00  0.00    -0.189 N  
HETATM    9  C   UNL     1      -9.962   8.192  69.400  1.00  0.00    -0.188 C  
HETATM   10  C   UNL     1      -9.073   5.893  69.544  1.00  0.00    -0.132 C  
HETATM   11  C   UNL     1     -10.902   6.418  67.944  1.00  0.00    -0.322 C  
ENDBRANCH   7   8
ENDBRANCH   2   7
TORSDOF 4
ENDMDL
MODEL       59
REMARK 921   NORMALIZED FREE ENERGY PREDICTED BY IDOCK:   -2.87 KCAL/MOL
REMARK 922        TOTAL FREE ENERGY PREDICTED BY IDOCK:   -3.94 KCAL/MOL
REMARK 923 INTER-LIGAND FREE ENERGY PREDICTED BY IDOCK:   -3.74 KCAL/MOL
REMARK 924 INTRA-LIGAND FREE ENERGY PREDICTED BY IDOCK:   -0.20 KCAL/MOL
REMARK 927      BINDING AFFINITY PREDICTED BY RF-SCORE:    0.00 PKD
ROOT
HETATM    1  C   UNL     1      -7.765  15.728  66.835  1.00  0.00    -0.254 C  
HETATM    2  C   UNL     1      -9.150  16.326  66.582  1.00  0.00    -0.248 C  
ENDROOT
BRANCH   2   3
HETATM    3  O   UNL     1      -9.604  15.851  65.298  1.00  0.00    -0.354 OA 
BRANCH   3   4
HETATM    4  C   UNL     1     -10.463  14.787  65.339  1.00  0.00    -0.380 C  
HETATM    5  C   UNL     1     -11.229  14.772  66.624  1.00  0.00    -0.346 C  
HETATM    6  O   UNL     1     -10.590  13.966  64.443  1.00  0.00    -0.400 OA 
ENDBRANCH   3   4
ENDBRANCH   2   3
BRANCH   2   7
HETATM    7  C   UNL     1      -9.038  17.867  66.550  1.00  0.00    -0.261 C  
BRANCH   7   8
HETATM    8  N   UNL     1      -9.576  18.610  67.806  1.00  0.00    -0.297 N  
HETATM    9  C   UNL     1     -10.196  17.554  68.729  1.00  0.00    -0.373 C  
HETATM   10  C   UNL     1      -8.469  19.312  68.581  1.00  0.00    -0.368 C  
HETATM   11  C   UNL     1     -10.654  19.620  67.435  1.00  0.00    -0.460 C  
ENDBRANCH   7   8
ENDBRANCH   2   7
TORSDOF 4
ENDMDL
MODEL       60
REMARK 921   NORMALIZED FREE ENERGY PREDICTED BY IDOCK:   -2.86 KCAL/MOL
REMARK 922        TOTAL FREE ENERGY PREDICTED BY IDOCK:   -3.93 KCAL/MOL
REMARK 923 INTER-LIGAND FREE ENERGY PREDICTED BY IDOCK:   -3.60 KCAL/MOL
REMARK 924 INTRA-LIGAND FREE ENERGY PREDICTED BY IDOCK:   -0.34 KCAL/MOL
REMARK 927      BINDING AFFINITY PREDICTED BY RF-SCORE:    0.00 PKD
ROOT
HETATM    1  C   UNL     1      -6.763  20.944  66.742  1.00  0.00    -0.367 C  
HETATM    2  C   UNL     1      -7.255  19.866  67.708  1.00  0.00    -0.278 C  
ENDROOT
BRANCH   2   3
HETATM    3  O   UNL     1      -6.096  19.187  68.234  1.00  0.00    -0.216 OA 
BRANCH   3   4
HETATM    4  C   UNL     1      -6.185  18.809  69.546  1.00  0.00    -0.268 C  
HETATM    5  C   UNL     1      -6.212  20.006  70.442  1.00  0.00    -0.368 C  
HETATM    6  O   UNL     1      -6.240  17.650  69.929  1.00  0.00    -0.221 OA 
ENDBRANCH   3   4
ENDBRANCH   2   3
BRANCH   2   7
HETATM    7  C   UNL     1      -8.136  18.858  66.937  1.00  0.00    -0.265 C  
BRANCH   7   8
HETATM    8  N   UNL     1      -9.668  18.979  67.175  1.00  0.00    -0.311 N  
HETATM    9  C   UNL     1      -9.865  19.716  68.505  1.00  0.00    -0.424 C  
HETATM   10  C   UNL     1     -10.360  19.789  66.087  1.00  0.00    -0.524 C  
HETATM   11  C   UNL     1     -10.324  17.608  67.281  1.00  0.00    -0.354 C  
ENDBRANCH   7   8
ENDBRANCH   2   7
TORSDOF 4
ENDMDL
MODEL       61
REMARK 921   NORMALIZED FREE ENERGY PREDICTED BY IDOCK:   -2.85 KCAL/MOL
REMARK 922        TOTAL FREE ENERGY PREDICTED BY IDOCK:   -3.92 KCAL/MOL
REMARK 923 INTER-LIGAND FREE ENERGY PREDICTED BY IDOCK:   -3.58 KCAL/MOL
REMARK 924 INTRA-LIGAND FREE ENERGY PREDICTED BY IDOCK:   -0.34 KCAL/MOL
REMARK 927      BINDING AFFINITY PREDICTED BY RF-SCORE:    0.00 PKD
ROOT
HETATM    1  C   UNL     1     -10.310  16.584  65.902  1.00  0.00    -0.365 C  
HETATM    2  C   UNL     1     -10.325  15.081  66.179  1.00  0.00    -0.299 C  
ENDROOT
BRANCH   2   3
HETATM    3  O   UNL     1      -9.077  14.740  66.817  1.00  0.00    -0.239 OA 
BRANCH   3   4
HETATM    4  C   UNL     1      -9.191  14.071  68.005  1.00  0.00    -0.201 C  
HETATM    5  C   UNL     1     -10.602  14.108  68.502  1.00  0.00    -0.257 C  
HETATM    6  O   UNL     1      -8.266  13.514  68.577  1.00  0.00    -0.152 OA 
ENDBRANCH   3   4
ENDBRANCH   2   3
BRANCH   2   7
HETATM    7  C   UNL     1     -10.443  14.320  64.839  1.00  0.00    -0.430 C  
BRANCH   7   8
HETATM    8  N   UNL     1     -11.523  13.202  64.790  1.00  0.00    -0.312 N  
HETATM    9  C   UNL     1     -12.760  13.731  65.525  1.00  0.00    -0.488 C  
HETATM   10  C   UNL     1     -11.938  12.863  63.364  1.00  0.00    -0.537 C  
HETATM   11  C   UNL     1     -11.047  11.938  65.493  1.00  0.00    -0.304 C  
ENDBRANCH   7   8
ENDBRANCH   2   7
TORSDOF 4
ENDMDL
MODEL       62
REMARK 921   NORMALIZED FREE ENERGY PREDICTED BY IDOCK:   -2.84 KCAL/MOL
REMARK 922        TOTAL FREE ENERGY PREDICTED BY IDOCK:   -3.90 KCAL/MOL
REMARK 923 INTER-LIGAND FREE ENERGY PREDICTED BY IDOCK:   -3.73 KCAL/MOL
REMARK 924 INTRA-LIGAND FREE ENERGY PREDICTED BY IDOCK:   -0.17 KCAL/MOL
REMARK 927      BINDING AFFINITY PREDICTED BY RF-SCORE:    0.00 PKD
ROOT
HETATM    1  C   UNL     1     -11.924  11.884  63.439  1.00  0.00    -0.528 C  
HETATM    2  C   UNL     1     -11.187  11.868  64.779  1.00  0.00    -0.297 C  
ENDROOT
BRANCH   2   3
HETATM    3  O   UNL     1     -11.068  13.233  65.230  1.00  0.00    -0.284 OA 
BRANCH   3   4
HETATM    4  C   UNL     1     -12.133  13.707  65.946  1.00  0.00    -0.439 C  
HETATM    5  C   UNL     1     -11.827  13.714  67.410  1.00  0.00    -0.429 C  
HETATM    6  O   UNL     1     -13.188  14.078  65.453  1.00  0.00    -0.761 OA 
ENDBRANCH   3   4
ENDBRANCH   2   3
BRANCH   2   7
HETATM    7  C   UNL     1      -9.777  11.269  64.574  1.00  0.00    -0.253 C  
BRANCH   7   8
HETATM    8  N   UNL     1      -9.237  10.397  65.743  1.00  0.00    -0.166 N  
HETATM    9  C   UNL     1     -10.403  10.158  66.709  1.00  0.00    -0.222 C  
HETATM   10  C   UNL     1      -8.739   9.039  65.268  1.00  0.00    -0.193 C  
HETATM   11  C   UNL     1      -8.122  11.110  66.498  1.00  0.00    -0.163 C  
ENDBRANCH   7   8
ENDBRANCH   2   7
TORSDOF 4
ENDMDL
MODEL       63
REMARK 921   NORMALIZED FREE ENERGY PREDICTED BY IDOCK:   -2.83 KCAL/MOL
REMARK 922        TOTAL FREE ENERGY PREDICTED BY IDOCK:   -3.90 KCAL/MOL
REMARK 923 INTER-LIGAND FREE ENERGY PREDICTED BY IDOCK:   -3.57 KCAL/MOL
REMARK 924 INTRA-LIGAND FREE ENERGY PREDICTED BY IDOCK:   -0.33 KCAL/MOL
REMARK 927      BINDING AFFINITY PREDICTED BY RF-SCORE:    0.00 PKD
ROOT
HETATM    1  C   UNL     1      -9.565  14.690  67.579  1.00  0.00    -0.206 C  
HETATM    2  C   UNL     1     -10.516  13.599  67.086  1.00  0.00    -0.264 C  
ENDROOT
BRANCH   2   3
HETATM    3  O   UNL     1     -10.061  12.343  67.629  1.00  0.00    -0.194 OA 
BRANCH   3   4
HETATM    4  C   UNL     1     -10.948  11.305  67.523  1.00  0.00    -0.265 C  
HETATM    5  C   UNL     1     -10.290  10.104  66.922  1.00  0.00    -0.298 C  
HETATM    6  O   UNL     1     -12.116  11.356  67.879  1.00  0.00    -0.646 OA 
ENDBRANCH   3   4
ENDBRANCH   2   3
BRANCH   2   7
HETATM    7  C   UNL     1     -10.464  13.542  65.542  1.00  0.00    -0.299 C  
BRANCH   7   8
HETATM    8  N   UNL     1     -11.743  14.031  64.804  1.00  0.00    -0.374 N  
HETATM    9  C   UNL     1     -11.937  13.128  63.581  1.00  0.00    -0.514 C  
HETATM   10  C   UNL     1     -12.989  13.916  65.671  1.00  0.00    -0.315 C  
HETATM   11  C   UNL     1     -11.591  15.469  64.324  1.00  0.00    -0.194 C  
ENDBRANCH   7   8
ENDBRANCH   2   7
TORSDOF 4
ENDMDL
MODEL       64
REMARK 921   NORMALIZED FREE ENERGY PREDICTED BY IDOCK:   -2.83 KCAL/MOL
REMARK 922        TOTAL FREE ENERGY PREDICTED BY IDOCK:   -3.90 KCAL/MOL
REMARK 923 INTER-LIGAND FREE ENERGY PREDICTED BY IDOCK:   -3.82 KCAL/MOL
REMARK 924 INTRA-LIGAND FREE ENERGY PREDICTED BY IDOCK:   -0.07 KCAL/MOL
REMARK 927      BINDING AFFINITY PREDICTED BY RF-SCORE:    0.00 PKD
ROOT
HETATM    1  C   UNL     1      -9.575   9.925  69.232  1.00  0.00    -0.215 C  
HETATM    2  C   UNL     1     -10.856   9.818  70.060  1.00  0.00    -0.278 C  
ENDROOT
BRANCH   2   3
HETATM    3  O   UNL     1     -11.378  11.152  70.232  1.00  0.00    -0.268 OA 
BRANCH   3   4
HETATM    4  C   UNL     1     -11.822  11.758  69.088  1.00  0.00    -0.326 C  
HETATM    5  C   UNL     1     -11.669  13.243  69.181  1.00  0.00    -0.379 C  
HETATM    6  O   UNL     1     -12.277  11.162  68.123  1.00  0.00    -0.612 OA 
ENDBRANCH   3   4
ENDBRANCH   2   3
BRANCH   2   7
HETATM    7  C   UNL     1     -10.516   9.217  71.443  1.00  0.00    -0.344 C  
BRANCH   7   8
HETATM    8  N   UNL     1     -11.432   8.051  71.915  1.00  0.00    -0.274 N  
HETATM    9  C   UNL     1     -12.784   8.661  72.300  1.00  0.00    -0.391 C  
HETATM   10  C   UNL     1     -11.678   7.028  70.815  1.00  0.00    -0.349 C  
HETATM   11  C   UNL     1     -10.852   7.351  73.137  1.00  0.00    -0.386 C  
ENDBRANCH   7   8
ENDBRANCH   2   7
TORSDOF 4
ENDMDL
MODEL       65
REMARK 921   NORMALIZED FREE ENERGY PREDICTED BY IDOCK:   -2.83 KCAL/MOL
REMARK 922        TOTAL FREE ENERGY PREDICTED BY IDOCK:   -3.89 KCAL/MOL
REMARK 923 INTER-LIGAND FREE ENERGY PREDICTED BY IDOCK:   -3.65 KCAL/MOL
REMARK 924 INTRA-LIGAND FREE ENERGY PREDICTED BY IDOCK:   -0.24 KCAL/MOL
REMARK 927      BINDING AFFINITY PREDICTED BY RF-SCORE:    0.00 PKD
ROOT
HETATM    1  C   UNL     1     -11.508   6.411  69.737  1.00  0.00    -0.468 C  
HETATM    2  C   UNL     1     -11.768   6.974  71.135  1.00  0.00    -0.325 C  
ENDROOT
BRANCH   2   3
HETATM    3  O   UNL     1     -12.331   8.293  70.978  1.00  0.00    -0.253 OA 
BRANCH   3   4
HETATM    4  C   UNL     1     -13.459   8.538  71.714  1.00  0.00    -0.371 C  
HETATM    5  C   UNL     1     -14.377   7.357  71.688  1.00  0.00    -0.614 C  
HETATM    6  O   UNL     1     -13.680   9.580  72.314  1.00  0.00    -0.440 OA 
ENDBRANCH   3   4
ENDBRANCH   2   3
BRANCH   2   7
HETATM    7  C   UNL     1     -10.428   7.075  71.898  1.00  0.00    -0.200 C  
BRANCH   7   8
HETATM    8  N   UNL     1     -10.184   5.985  72.981  1.00  0.00    -0.186 N  
HETATM    9  C   UNL     1      -9.919   6.710  74.305  1.00  0.00    -0.345 C  
HETATM   10  C   UNL     1     -11.397   5.085  73.178  1.00  0.00    -0.321 C  
HETATM   11  C   UNL     1      -8.968   5.131  72.645  1.00  0.00    -0.125 C  
ENDBRANCH   7   8
ENDBRANCH   2   7
TORSDOF 4
ENDMDL
MODEL       66
REMARK 921   NORMALIZED FREE ENERGY PREDICTED BY IDOCK:   -2.82 KCAL/MOL
REMARK 922        TOTAL FREE ENERGY PREDICTED BY IDOCK:   -3.89 KCAL/MOL
REMARK 923 INTER-LIGAND FREE ENERGY PREDICTED BY IDOCK:   -3.48 KCAL/MOL
REMARK 924 INTRA-LIGAND FREE ENERGY PREDICTED BY IDOCK:   -0.41 KCAL/MOL
REMARK 927      BINDING AFFINITY PREDICTED BY RF-SCORE:    0.00 PKD
ROOT
HETATM    1  C   UNL     1     -13.674   8.916  72.202  1.00  0.00    -0.527 C  
HETATM    2  C   UNL     1     -12.282   8.336  71.954  1.00  0.00    -0.337 C  
ENDROOT
BRANCH   2   3
HETATM    3  O   UNL     1     -11.872   8.731  70.629  1.00  0.00    -0.232 OA 
BRANCH   3   4
HETATM    4  C   UNL     1     -10.860   9.651  70.579  1.00  0.00    -0.309 C  
HETATM    5  C   UNL     1     -11.338  10.935  69.981  1.00  0.00    -0.386 C  
HETATM    6  O   UNL     1      -9.722   9.448  70.977  1.00  0.00    -0.275 OA 
ENDBRANCH   3   4
ENDBRANCH   2   3
BRANCH   2   7
HETATM    7  C   UNL     1     -12.354   6.794  72.032  1.00  0.00    -0.271 C  
BRANCH   7   8
HETATM    8  N   UNL     1     -11.070   6.083  72.547  1.00  0.00    -0.264 N  
HETATM    9  C   UNL     1     -10.390   7.033  73.540  1.00  0.00    -0.356 C  
HETATM   10  C   UNL     1     -11.383   4.787  73.282  1.00  0.00    -0.322 C  
HETATM   11  C   UNL     1     -10.098   5.799  71.409  1.00  0.00    -0.198 C  
ENDBRANCH   7   8
ENDBRANCH   2   7
TORSDOF 4
ENDMDL
MODEL       67
REMARK 921   NORMALIZED FREE ENERGY PREDICTED BY IDOCK:   -2.81 KCAL/MOL
REMARK 922        TOTAL FREE ENERGY PREDICTED BY IDOCK:   -3.87 KCAL/MOL
REMARK 923 INTER-LIGAND FREE ENERGY PREDICTED BY IDOCK:   -3.52 KCAL/MOL
REMARK 924 INTRA-LIGAND FREE ENERGY PREDICTED BY IDOCK:   -0.35 KCAL/MOL
REMARK 927      BINDING AFFINITY PREDICTED BY RF-SCORE:    0.00 PKD
ROOT
HETATM    1  C   UNL     1     -12.906  13.717  65.490  1.00  0.00    -0.464 C  
HETATM    2  C   UNL     1     -11.896  13.122  66.471  1.00  0.00    -0.400 C  
ENDROOT
BRANCH   2   3
HETATM    3  O   UNL     1     -11.239  14.217  67.142  1.00  0.00    -0.301 OA 
BRANCH   3   4
HETATM    4  C   UNL     1     -11.692  14.486  68.404  1.00  0.00    -0.333 C  
HETATM    5  C   UNL     1     -11.629  15.953  68.690  1.00  0.00    -0.383 C  
HETATM    6  O   UNL     1     -12.098  13.641  69.188  1.00  0.00    -0.345 OA 
ENDBRANCH   3   4
ENDBRANCH   2   3
BRANCH   2   7
HETATM    7  C   UNL     1     -10.851  12.299  65.685  1.00  0.00    -0.285 C  
BRANCH   7   8
HETATM    8  N   UNL     1     -10.171  11.142  66.472  1.00  0.00    -0.223 N  
HETATM    9  C   UNL     1      -9.954   9.987  65.487  1.00  0.00    -0.296 C  
HETATM   10  C   UNL     1      -8.811  11.541  67.027  1.00  0.00    -0.173 C  
HETATM   11  C   UNL     1     -11.058  10.647  67.607  1.00  0.00    -0.319 C  
ENDBRANCH   7   8
ENDBRANCH   2   7
TORSDOF 4
ENDMDL
MODEL       68
REMARK 921   NORMALIZED FREE ENERGY PREDICTED BY IDOCK:   -2.81 KCAL/MOL
REMARK 922        TOTAL FREE ENERGY PREDICTED BY IDOCK:   -3.87 KCAL/MOL
REMARK 923 INTER-LIGAND FREE ENERGY PREDICTED BY IDOCK:   -3.57 KCAL/MOL
REMARK 924 INTRA-LIGAND FREE ENERGY PREDICTED BY IDOCK:   -0.30 KCAL/MOL
REMARK 927      BINDING AFFINITY PREDICTED BY RF-SCORE:    0.00 PKD
ROOT
HETATM    1  C   UNL     1     -10.638  10.185  69.857  1.00  0.00    -0.331 C  
HETATM    2  C   UNL     1     -11.204   9.009  70.652  1.00  0.00    -0.270 C  
ENDROOT
BRANCH   2   3
HETATM    3  O   UNL     1     -11.727   9.529  71.892  1.00  0.00    -0.374 OA 
BRANCH   3   4
HETATM    4  C   UNL     1     -13.034   9.934  71.851  1.00  0.00    -0.448 C  
HETATM    5  C   UNL     1     -13.956   8.759  71.928  1.00  0.00    -0.493 C  
HETATM    6  O   UNL     1     -13.394  11.099  71.769  1.00  0.00    -0.384 OA 
ENDBRANCH   3   4
ENDBRANCH   2   3
BRANCH   2   7
HETATM    7  C   UNL     1     -10.066   8.007  70.954  1.00  0.00    -0.191 C  
BRANCH   7   8
HETATM    8  N   UNL     1     -10.440   6.503  70.828  1.00  0.00    -0.214 N  
HETATM    9  C   UNL     1      -9.129   5.713  70.738  1.00  0.00    -0.147 C  
HETATM   10  C   UNL     1     -11.206   5.995  72.042  1.00  0.00    -0.288 C  
HETATM   11  C   UNL     1     -11.252   6.236  69.568  1.00  0.00    -0.430 C  
ENDBRANCH   7   8
ENDBRANCH   2   7
TORSDOF 4
ENDMDL
MODEL       69
REMARK 921   NORMALIZED FREE ENERGY PREDICTED BY IDOCK:   -2.78 KCAL/MOL
REMARK 922        TOTAL FREE ENERGY PREDICTED BY IDOCK:   -3.84 KCAL/MOL
REMARK 923 INTER-LIGAND FREE ENERGY PREDICTED BY IDOCK:   -3.49 KCAL/MOL
REMARK 924 INTRA-LIGAND FREE ENERGY PREDICTED BY IDOCK:   -0.35 KCAL/MOL
REMARK 927      BINDING AFFINITY PREDICTED BY RF-SCORE:    0.00 PKD
ROOT
HETATM    1  C   UNL     1      -6.356  19.650  68.733  1.00  0.00    -0.307 C  
HETATM    2  C   UNL     1      -6.939  19.450  67.334  1.00  0.00    -0.203 C  
ENDROOT
BRANCH   2   3
HETATM    3  O   UNL     1      -6.038  20.066  66.391  1.00  0.00    -0.166 OA 
BRANCH   3   4
HETATM    4  C   UNL     1      -6.210  19.689  65.087  1.00  0.00    -0.258 C  
HETATM    5  C   UNL     1      -6.182  20.880  64.182  1.00  0.00    -0.358 C  
HETATM    6  O   UNL     1      -6.359  18.534  64.716  1.00  0.00    -0.431 OA 
ENDBRANCH   3   4
ENDBRANCH   2   3
BRANCH   2   7
HETATM    7  C   UNL     1      -8.318  20.144  67.257  1.00  0.00    -0.341 C  
BRANCH   7   8
HETATM    8  N   UNL     1      -9.542  19.199  67.085  1.00  0.00    -0.312 N  
HETATM    9  C   UNL     1     -10.295  19.183  68.421  1.00  0.00    -0.327 C  
HETATM   10  C   UNL     1     -10.505  19.690  66.013  1.00  0.00    -0.523 C  
HETATM   11  C   UNL     1      -9.103  17.777  66.761  1.00  0.00    -0.262 C  
ENDBRANCH   7   8
ENDBRANCH   2   7
TORSDOF 4
ENDMDL
MODEL       70
REMARK 921   NORMALIZED FREE ENERGY PREDICTED BY IDOCK:   -2.77 KCAL/MOL
REMARK 922        TOTAL FREE ENERGY PREDICTED BY IDOCK:   -3.83 KCAL/MOL
REMARK 923 INTER-LIGAND FREE ENERGY PREDICTED BY IDOCK:   -3.51 KCAL/MOL
REMARK 924 INTRA-LIGAND FREE ENERGY PREDICTED BY IDOCK:   -0.31 KCAL/MOL
REMARK 927      BINDING AFFINITY PREDICTED BY RF-SCORE:    0.00 PKD
ROOT
HETATM    1  C   UNL     1     -10.122  14.819  68.795  1.00  0.00    -0.237 C  
HETATM    2  C   UNL     1     -10.652  13.644  67.972  1.00  0.00    -0.249 C  
ENDROOT
BRANCH   2   3
HETATM    3  O   UNL     1     -10.287  12.429  68.658  1.00  0.00    -0.225 OA 
BRANCH   3   4
HETATM    4  C   UNL     1     -11.290  11.507  68.787  1.00  0.00    -0.265 C  
HETATM    5  C   UNL     1     -11.010  10.298  67.951  1.00  0.00    -0.350 C  
HETATM    6  O   UNL     1     -12.276  11.652  69.494  1.00  0.00    -0.271 OA 
ENDBRANCH   3   4
ENDBRANCH   2   3
BRANCH   2   7
HETATM    7  C   UNL     1      -9.989  13.664  66.575  1.00  0.00    -0.288 C  
BRANCH   7   8
HETATM    8  N   UNL     1     -10.951  13.900  65.375  1.00  0.00    -0.306 N  
HETATM    9  C   UNL     1     -10.849  15.382  64.995  1.00  0.00    -0.444 C  
HETATM   10  C   UNL     1     -10.562  13.078  64.154  1.00  0.00    -0.397 C  
HETATM   11  C   UNL     1     -12.394  13.596  65.753  1.00  0.00    -0.482 C  
ENDBRANCH   7   8
ENDBRANCH   2   7
TORSDOF 4
ENDMDL
MODEL       71
REMARK 921   NORMALIZED FREE ENERGY PREDICTED BY IDOCK:   -2.76 KCAL/MOL
REMARK 922        TOTAL FREE ENERGY PREDICTED BY IDOCK:   -3.81 KCAL/MOL
REMARK 923 INTER-LIGAND FREE ENERGY PREDICTED BY IDOCK:   -3.51 KCAL/MOL
REMARK 924 INTRA-LIGAND FREE ENERGY PREDICTED BY IDOCK:   -0.30 KCAL/MOL
REMARK 927      BINDING AFFINITY PREDICTED BY RF-SCORE:    0.00 PKD
ROOT
HETATM    1  C   UNL     1      -9.170   9.184  69.494  1.00  0.00    -0.160 C  
HETATM    2  C   UNL     1     -10.501   8.936  70.204  1.00  0.00    -0.214 C  
ENDROOT
BRANCH   2   3
HETATM    3  O   UNL     1     -10.904  10.175  70.824  1.00  0.00    -0.307 OA 
BRANCH   3   4
HETATM    4  C   UNL     1     -12.126  10.653  70.434  1.00  0.00    -0.341 C  
HETATM    5  C   UNL     1     -13.028  10.828  71.615  1.00  0.00    -0.581 C  
HETATM    6  O   UNL     1     -12.432  10.907  69.279  1.00  0.00    -0.392 OA 
ENDBRANCH   3   4
ENDBRANCH   2   3
BRANCH   2   7
HETATM    7  C   UNL     1     -10.302   7.857  71.292  1.00  0.00    -0.191 C  
BRANCH   7   8
HETATM    8  N   UNL     1     -11.291   6.657  71.242  1.00  0.00    -0.283 N  
HETATM    9  C   UNL     1     -11.280   6.117  69.807  1.00  0.00    -0.423 C  
HETATM   10  C   UNL     1     -10.871   5.524  72.169  1.00  0.00    -0.235 C  
HETATM   11  C   UNL     1     -12.710   7.093  71.584  1.00  0.00    -0.379 C  
ENDBRANCH   7   8
ENDBRANCH   2   7
TORSDOF 4
ENDMDL
MODEL       72
REMARK 921   NORMALIZED FREE ENERGY PREDICTED BY IDOCK:   -2.76 KCAL/MOL
REMARK 922        TOTAL FREE ENERGY PREDICTED BY IDOCK:   -3.80 KCAL/MOL
REMARK 923 INTER-LIGAND FREE ENERGY PREDICTED BY IDOCK:   -3.50 KCAL/MOL
REMARK 924 INTRA-LIGAND FREE ENERGY PREDICTED BY IDOCK:   -0.30 KCAL/MOL
REMARK 927      BINDING AFFINITY PREDICTED BY RF-SCORE:    0.00 PKD
ROOT
HETATM    1  C   UNL     1     -10.378  10.445  67.032  1.00  0.00    -0.295 C  
HETATM    2  C   UNL     1     -10.367  11.281  65.753  1.00  0.00    -0.258 C  
ENDROOT
BRANCH   2   3
HETATM    3  O   UNL     1      -9.225  10.874  64.972  1.00  0.00    -0.199 OA 
BRANCH   3   4
HETATM    4  C   UNL     1      -9.442  10.781  63.624  1.00  0.00    -0.291 C  
HETATM    5  C   UNL     1      -8.927   9.482  63.091  1.00  0.00    -0.217 C  
HETATM    6  O   UNL     1      -9.988  11.643  62.951  1.00  0.00    -0.341 OA 
ENDBRANCH   3   4
ENDBRANCH   2   3
BRANCH   2   7
HETATM    7  C   UNL     1     -10.229  12.775  66.125  1.00  0.00    -0.275 C  
BRANCH   7   8
HETATM    8  N   UNL     1     -11.451  13.674  65.779  1.00  0.00    -0.310 N  
HETATM    9  C   UNL     1     -12.022  14.196  67.102  1.00  0.00    -0.426 C  
HETATM   10  C   UNL     1     -11.060  14.878  64.932  1.00  0.00    -0.414 C  
HETATM   11  C   UNL     1     -12.537  12.881  65.063  1.00  0.00    -0.472 C  
ENDBRANCH   7   8
ENDBRANCH   2   7
TORSDOF 4
ENDMDL
MODEL       73
REMARK 921   NORMALIZED FREE ENERGY PREDICTED BY IDOCK:   -2.75 KCAL/MOL
REMARK 922        TOTAL FREE ENERGY PREDICTED BY IDOCK:   -3.80 KCAL/MOL
REMARK 923 INTER-LIGAND FREE ENERGY PREDICTED BY IDOCK:   -3.63 KCAL/MOL
REMARK 924 INTRA-LIGAND FREE ENERGY PREDICTED BY IDOCK:   -0.18 KCAL/MOL
REMARK 927      BINDING AFFINITY PREDICTED BY RF-SCORE:    0.00 PKD
ROOT
HETATM    1  C   UNL     1      -9.106  15.126  67.211  1.00  0.00    -0.210 C  
HETATM    2  C   UNL     1     -10.154  14.373  66.390  1.00  0.00    -0.286 C  
ENDROOT
BRANCH   2   3
HETATM    3  O   UNL     1     -11.223  15.294  66.092  1.00  0.00    -0.318 OA 
BRANCH   3   4
HETATM    4  C   UNL     1     -11.337  15.651  64.776  1.00  0.00    -0.343 C  
HETATM    5  C   UNL     1     -11.876  14.516  63.964  1.00  0.00    -0.178 C  
HETATM    6  O   UNL     1     -11.044  16.750  64.330  1.00  0.00    -1.106 OA 
ENDBRANCH   3   4
ENDBRANCH   2   3
BRANCH   2   7
HETATM    7  C   UNL     1     -10.706  13.198  67.229  1.00  0.00    -0.254 C  
BRANCH   7   8
HETATM    8  N   UNL     1     -10.120  11.796  66.895  1.00  0.00    -0.205 N  
HETATM    9  C   UNL     1     -10.210  11.615  65.375  1.00  0.00    -0.263 C  
HETATM   10  C   UNL     1      -8.656  11.672  67.293  1.00  0.00    -0.154 C  
HETATM   11  C   UNL     1     -10.923  10.686  67.561  1.00  0.00    -0.310 C  
ENDBRANCH   7   8
ENDBRANCH   2   7
TORSDOF 4
ENDMDL
MODEL       74
REMARK 921   NORMALIZED FREE ENERGY PREDICTED BY IDOCK:   -2.75 KCAL/MOL
REMARK 922        TOTAL FREE ENERGY PREDICTED BY IDOCK:   -3.79 KCAL/MOL
REMARK 923 INTER-LIGAND FREE ENERGY PREDICTED BY IDOCK:   -3.50 KCAL/MOL
REMARK 924 INTRA-LIGAND FREE ENERGY PREDICTED BY IDOCK:   -0.30 KCAL/MOL
REMARK 927      BINDING AFFINITY PREDICTED BY RF-SCORE:    0.00 PKD
ROOT
HETATM    1  C   UNL     1     -11.338  15.802  64.547  1.00  0.00    -0.324 C  
HETATM    2  C   UNL     1     -10.641  14.676  65.310  1.00  0.00    -0.391 C  
ENDROOT
BRANCH   2   3
HETATM    3  O   UNL     1      -9.364  15.174  65.759  1.00  0.00    -0.310 OA 
BRANCH   3   4
HETATM    4  C   UNL     1      -9.091  14.973  67.085  1.00  0.00    -0.215 C  
HETATM    5  C   UNL     1      -8.092  15.971  67.578  1.00  0.00    -0.167 C  
HETATM    6  O   UNL     1      -9.602  14.100  67.771  1.00  0.00    -0.209 OA 
ENDBRANCH   3   4
ENDBRANCH   2   3
BRANCH   2   7
HETATM    7  C   UNL     1     -10.421  13.479  64.357  1.00  0.00    -0.346 C  
BRANCH   7   8
HETATM    8  N   UNL     1     -11.257  12.205  64.668  1.00  0.00    -0.313 N  
HETATM    9  C   UNL     1     -12.276  12.041  63.535  1.00  0.00    -0.547 C  
HETATM   10  C   UNL     1     -10.400  10.947  64.709  1.00  0.00    -0.323 C  
HETATM   11  C   UNL     1     -12.014  12.345  65.982  1.00  0.00    -0.350 C  
ENDBRANCH   7   8
ENDBRANCH   2   7
TORSDOF 4
ENDMDL
MODEL       75
REMARK 921   NORMALIZED FREE ENERGY PREDICTED BY IDOCK:   -2.75 KCAL/MOL
REMARK 922        TOTAL FREE ENERGY PREDICTED BY IDOCK:   -3.79 KCAL/MOL
REMARK 923 INTER-LIGAND FREE ENERGY PREDICTED BY IDOCK:   -3.52 KCAL/MOL
REMARK 924 INTRA-LIGAND FREE ENERGY PREDICTED BY IDOCK:   -0.27 KCAL/MOL
REMARK 927      BINDING AFFINITY PREDICTED BY RF-SCORE:    0.00 PKD
ROOT
HETATM    1  C   UNL     1     -10.677   9.275  69.455  1.00  0.00    -0.222 C  
HETATM    2  C   UNL     1     -11.302   9.180  70.847  1.00  0.00    -0.295 C  
ENDROOT
BRANCH   2   3
HETATM    3  O   UNL     1     -11.707  10.508  71.237  1.00  0.00    -0.306 OA 
BRANCH   3   4
HETATM    4  C   UNL     1     -12.932  10.591  71.842  1.00  0.00    -0.447 C  
HETATM    5  C   UNL     1     -13.321  12.019  72.059  1.00  0.00    -0.447 C  
HETATM    6  O   UNL     1     -13.615   9.628  72.155  1.00  0.00    -0.426 OA 
ENDBRANCH   3   4
ENDBRANCH   2   3
BRANCH   2   7
HETATM    7  C   UNL     1     -10.244   8.652  71.842  1.00  0.00    -0.334 C  
BRANCH   7   8
HETATM    8  N   UNL     1     -10.416   7.172  72.290  1.00  0.00    -0.204 N  
HETATM    9  C   UNL     1     -11.810   6.719  71.838  1.00  0.00    -0.326 C  
HETATM   10  C   UNL     1      -9.394   6.250  71.640  1.00  0.00    -0.147 C  
HETATM   11  C   UNL     1     -10.332   7.037  73.804  1.00  0.00    -0.369 C  
ENDBRANCH   7   8
ENDBRANCH   2   7
TORSDOF 4
ENDMDL
MODEL       76
REMARK 921   NORMALIZED FREE ENERGY PREDICTED BY IDOCK:   -2.73 KCAL/MOL
REMARK 922        TOTAL FREE ENERGY PREDICTED BY IDOCK:   -3.77 KCAL/MOL
REMARK 923 INTER-LIGAND FREE ENERGY PREDICTED BY IDOCK:   -3.35 KCAL/MOL
REMARK 924 INTRA-LIGAND FREE ENERGY PREDICTED BY IDOCK:   -0.42 KCAL/MOL
REMARK 927      BINDING AFFINITY PREDICTED BY RF-SCORE:    0.00 PKD
ROOT
HETATM    1  C   UNL     1     -13.793   8.901  71.789  1.00  0.00    -0.465 C  
HETATM    2  C   UNL     1     -12.310   8.537  71.718  1.00  0.00    -0.338 C  
ENDROOT
BRANCH   2   3
HETATM    3  O   UNL     1     -11.852   8.297  73.064  1.00  0.00    -0.269 OA 
BRANCH   3   4
HETATM    4  C   UNL     1     -10.809   7.419  73.180  1.00  0.00    -0.386 C  
HETATM    5  C   UNL     1     -11.213   6.052  72.726  1.00  0.00    -0.299 C  
HETATM    6  O   UNL     1      -9.698   7.716  73.592  1.00  0.00    -0.287 OA 
ENDBRANCH   3   4
ENDBRANCH   2   3
BRANCH   2   7
HETATM    7  C   UNL     1     -11.525   9.722  71.111  1.00  0.00    -0.398 C  
BRANCH   7   8
HETATM    8  N   UNL     1     -10.510   9.358  69.990  1.00  0.00    -0.218 N  
HETATM    9  C   UNL     1     -10.780   7.904  69.586  1.00  0.00    -0.218 C  
HETATM   10  C   UNL     1     -10.682  10.225  68.751  1.00  0.00    -0.219 C  
HETATM   11  C   UNL     1      -9.074   9.463  70.487  1.00  0.00    -0.256 C  
ENDBRANCH   7   8
ENDBRANCH   2   7
TORSDOF 4
ENDMDL
MODEL       77
REMARK 921   NORMALIZED FREE ENERGY PREDICTED BY IDOCK:   -2.73 KCAL/MOL
REMARK 922        TOTAL FREE ENERGY PREDICTED BY IDOCK:   -3.77 KCAL/MOL
REMARK 923 INTER-LIGAND FREE ENERGY PREDICTED BY IDOCK:   -3.53 KCAL/MOL
REMARK 924 INTRA-LIGAND FREE ENERGY PREDICTED BY IDOCK:   -0.24 KCAL/MOL
REMARK 927      BINDING AFFINITY PREDICTED BY RF-SCORE:    0.00 PKD
ROOT
HETATM    1  C   UNL     1      -9.174  15.170  66.688  1.00  0.00    -0.298 C  
HETATM    2  C   UNL     1     -10.065  16.174  67.419  1.00  0.00    -0.257 C  
ENDROOT
BRANCH   2   3
HETATM    3  O   UNL     1     -11.347  15.549  67.632  1.00  0.00    -0.324 OA 
BRANCH   3   4
HETATM    4  C   UNL     1     -11.588  15.132  68.913  1.00  0.00    -0.341 C  
HETATM    5  C   UNL     1     -11.129  16.158  69.901  1.00  0.00    -0.357 C  
HETATM    6  O   UNL     1     -12.113  14.068  69.206  1.00  0.00    -0.333 OA 
ENDBRANCH   3   4
ENDBRANCH   2   3
BRANCH   2   7
HETATM    7  C   UNL     1     -10.245  17.429  66.535  1.00  0.00    -0.329 C  
BRANCH   7   8
HETATM    8  N   UNL     1      -9.385  18.663  66.931  1.00  0.00    -0.294 N  
HETATM    9  C   UNL     1      -8.974  18.481  68.396  1.00  0.00    -0.322 C  
HETATM   10  C   UNL     1      -8.113  18.771  66.100  1.00  0.00    -0.199 C  
HETATM   11  C   UNL     1     -10.181  19.956  66.809  1.00  0.00    -0.477 C  
ENDBRANCH   7   8
ENDBRANCH   2   7
TORSDOF 4
ENDMDL
MODEL       78
REMARK 921   NORMALIZED FREE ENERGY PREDICTED BY IDOCK:   -2.71 KCAL/MOL
REMARK 922        TOTAL FREE ENERGY PREDICTED BY IDOCK:   -3.75 KCAL/MOL
REMARK 923 INTER-LIGAND FREE ENERGY PREDICTED BY IDOCK:   -3.38 KCAL/MOL
REMARK 924 INTRA-LIGAND FREE ENERGY PREDICTED BY IDOCK:   -0.37 KCAL/MOL
REMARK 927      BINDING AFFINITY PREDICTED BY RF-SCORE:    0.00 PKD
ROOT
HETATM    1  C   UNL     1     -10.286  13.249  66.854  1.00  0.00    -0.250 C  
HETATM    2  C   UNL     1     -10.651  14.372  67.825  1.00  0.00    -0.246 C  
ENDROOT
BRANCH   2   3
HETATM    3  O   UNL     1     -12.004  14.144  68.270  1.00  0.00    -0.350 OA 
BRANCH   3   4
HETATM    4  C   UNL     1     -12.229  14.371  69.600  1.00  0.00    -0.307 C  
HETATM    5  C   UNL     1     -12.159  13.094  70.376  1.00  0.00    -0.392 C  
HETATM    6  O   UNL     1     -12.450  15.471  70.086  1.00  0.00    -0.387 OA 
ENDBRANCH   3   4
ENDBRANCH   2   3
BRANCH   2   7
HETATM    7  C   UNL     1     -10.573  15.727  67.086  1.00  0.00    -0.313 C  
BRANCH   7   8
HETATM    8  N   UNL     1      -9.580  16.765  67.682  1.00  0.00    -0.241 N  
HETATM    9  C   UNL     1     -10.409  17.954  68.183  1.00  0.00    -0.389 C  
HETATM   10  C   UNL     1      -8.803  16.207  68.867  1.00  0.00    -0.248 C  
HETATM   11  C   UNL     1      -8.603  17.268  66.627  1.00  0.00    -0.257 C  
ENDBRANCH   7   8
ENDBRANCH   2   7
TORSDOF 4
ENDMDL
MODEL       79
REMARK 921   NORMALIZED FREE ENERGY PREDICTED BY IDOCK:   -2.71 KCAL/MOL
REMARK 922        TOTAL FREE ENERGY PREDICTED BY IDOCK:   -3.75 KCAL/MOL
REMARK 923 INTER-LIGAND FREE ENERGY PREDICTED BY IDOCK:   -3.73 KCAL/MOL
REMARK 924 INTRA-LIGAND FREE ENERGY PREDICTED BY IDOCK:   -0.01 KCAL/MOL
REMARK 927      BINDING AFFINITY PREDICTED BY RF-SCORE:    0.00 PKD
ROOT
HETATM    1  C   UNL     1     -10.018  12.063  65.707  1.00  0.00    -0.266 C  
HETATM    2  C   UNL     1     -11.326  11.855  66.471  1.00  0.00    -0.341 C  
ENDROOT
BRANCH   2   3
HETATM    3  O   UNL     1     -12.192  12.968  66.169  1.00  0.00    -0.422 OA 
BRANCH   3   4
HETATM    4  C   UNL     1     -12.637  13.029  64.876  1.00  0.00    -0.428 C  
HETATM    5  C   UNL     1     -12.264  14.334  64.247  1.00  0.00    -0.451 C  
HETATM    6  O   UNL     1     -13.250  12.134  64.314  1.00  0.00    -0.768 OA 
ENDBRANCH   3   4
ENDBRANCH   2   3
BRANCH   2   7
HETATM    7  C   UNL     1     -11.029  11.830  67.987  1.00  0.00    -0.225 C  
BRANCH   7   8
HETATM    8  N   UNL     1     -10.516  10.475  68.554  1.00  0.00    -0.177 N  
HETATM    9  C   UNL     1     -11.297  10.196  69.843  1.00  0.00    -0.275 C  
HETATM   10  C   UNL     1     -10.767   9.318  67.597  1.00  0.00    -0.209 C  
HETATM   11  C   UNL     1      -9.033  10.541  68.892  1.00  0.00    -0.172 C  
ENDBRANCH   7   8
ENDBRANCH   2   7
TORSDOF 4
ENDMDL
MODEL       80
REMARK 921   NORMALIZED FREE ENERGY PREDICTED BY IDOCK:   -2.68 KCAL/MOL
REMARK 922        TOTAL FREE ENERGY PREDICTED BY IDOCK:   -3.70 KCAL/MOL
REMARK 923 INTER-LIGAND FREE ENERGY PREDICTED BY IDOCK:   -3.40 KCAL/MOL
REMARK 924 INTRA-LIGAND FREE ENERGY PREDICTED BY IDOCK:   -0.31 KCAL/MOL
REMARK 927      BINDING AFFINITY PREDICTED BY RF-SCORE:    0.00 PKD
ROOT
HETATM    1  C   UNL     1     -10.895  15.871  65.070  1.00  0.00    -0.444 C  
HETATM    2  C   UNL     1     -10.034  16.026  66.324  1.00  0.00    -0.310 C  
ENDROOT
BRANCH   2   3
HETATM    3  O   UNL     1     -10.178  14.822  67.106  1.00  0.00    -0.243 OA 
BRANCH   3   4
HETATM    4  C   UNL     1      -9.198  13.885  66.923  1.00  0.00    -0.259 C  
HETATM    5  C   UNL     1      -7.884  14.385  67.435  1.00  0.00    -0.211 C  
HETATM    6  O   UNL     1      -9.377  12.789  66.414  1.00  0.00    -0.241 OA 
ENDBRANCH   3   4
ENDBRANCH   2   3
BRANCH   2   7
HETATM    7  C   UNL     1     -10.543  17.235  67.141  1.00  0.00    -0.256 C  
BRANCH   7   8
HETATM    8  N   UNL     1      -9.690  18.531  67.033  1.00  0.00    -0.299 N  
HETATM    9  C   UNL     1      -8.342  18.138  66.417  1.00  0.00    -0.245 C  
HETATM   10  C   UNL     1     -10.331  19.571  66.125  1.00  0.00    -0.520 C  
HETATM   11  C   UNL     1      -9.435  19.143  68.404  1.00  0.00    -0.369 C  
ENDBRANCH   7   8
ENDBRANCH   2   7
TORSDOF 4
ENDMDL
MODEL       81
REMARK 921   NORMALIZED FREE ENERGY PREDICTED BY IDOCK:   -2.66 KCAL/MOL
REMARK 922        TOTAL FREE ENERGY PREDICTED BY IDOCK:   -3.69 KCAL/MOL
REMARK 923 INTER-LIGAND FREE ENERGY PREDICTED BY IDOCK:   -3.38 KCAL/MOL
REMARK 924 INTRA-LIGAND FREE ENERGY PREDICTED BY IDOCK:   -0.30 KCAL/MOL
REMARK 927      BINDING AFFINITY PREDICTED BY RF-SCORE:    0.00 PKD
ROOT
HETATM    1  C   UNL     1     -10.116  15.797  65.502  1.00  0.00    -0.383 C  
HETATM    2  C   UNL     1      -9.311  16.673  66.463  1.00  0.00    -0.265 C  
ENDROOT
BRANCH   2   3
HETATM    3  O   UNL     1      -9.189  17.980  65.866  1.00  0.00    -0.520 OA 
BRANCH   3   4
HETATM    4  C   UNL     1     -10.202  18.853  66.159  1.00  0.00    -0.433 C  
HETATM    5  C   UNL     1     -10.241  19.148  67.625  1.00  0.00    -0.492 C  
HETATM    6  O   UNL     1     -10.965  19.329  65.331  1.00  0.00    -0.452 OA 
ENDBRANCH   3   4
ENDBRANCH   2   3
BRANCH   2   7
HETATM    7  C   UNL     1      -7.904  16.060  66.649  1.00  0.00    -0.231 C  
BRANCH   7   8
HETATM    8  N   UNL     1      -7.541  15.632  68.100  1.00  0.00    -0.117 N  
HETATM    9  C   UNL     1      -8.579  16.264  69.035  1.00  0.00    -0.247 C  
HETATM   10  C   UNL     1      -7.603  14.122  68.289  1.00  0.00    -0.130 C  
HETATM   11  C   UNL     1      -6.161  16.137  68.498  1.00  0.00    -0.112 C  
ENDBRANCH   7   8
ENDBRANCH   2   7
TORSDOF 4
ENDMDL
MODEL       82
REMARK 921   NORMALIZED FREE ENERGY PREDICTED BY IDOCK:   -2.66 KCAL/MOL
REMARK 922        TOTAL FREE ENERGY PREDICTED BY IDOCK:   -3.68 KCAL/MOL
REMARK 923 INTER-LIGAND FREE ENERGY PREDICTED BY IDOCK:   -3.43 KCAL/MOL
REMARK 924 INTRA-LIGAND FREE ENERGY PREDICTED BY IDOCK:   -0.25 KCAL/MOL
REMARK 927      BINDING AFFINITY PREDICTED BY RF-SCORE:    0.00 PKD
ROOT
HETATM    1  C   UNL     1     -10.496  16.943  67.685  1.00  0.00    -0.332 C  
HETATM    2  C   UNL     1      -9.300  17.796  67.261  1.00  0.00    -0.254 C  
ENDROOT
BRANCH   2   3
HETATM    3  O   UNL     1      -9.598  18.356  65.965  1.00  0.00    -0.493 OA 
BRANCH   3   4
HETATM    4  C   UNL     1     -10.326  19.515  65.983  1.00  0.00    -0.511 C  
HETATM    5  C   UNL     1      -9.821  20.442  67.042  1.00  0.00    -0.594 C  
HETATM    6  O   UNL     1     -11.257  19.757  65.230  1.00  0.00    -0.329 OA 
ENDBRANCH   3   4
ENDBRANCH   2   3
BRANCH   2   7
HETATM    7  C   UNL     1      -8.047  16.897  67.157  1.00  0.00    -0.188 C  
BRANCH   7   8
HETATM    8  N   UNL     1      -6.742  17.484  67.765  1.00  0.00    -0.170 N  
HETATM    9  C   UNL     1      -5.581  16.602  67.291  1.00  0.00    -0.152 C  
HETATM   10  C   UNL     1      -6.471  18.905  67.290  1.00  0.00    -0.188 C  
HETATM   11  C   UNL     1      -6.778  17.456  69.288  1.00  0.00    -0.222 C  
ENDBRANCH   7   8
ENDBRANCH   2   7
TORSDOF 4
ENDMDL
MODEL       83
REMARK 921   NORMALIZED FREE ENERGY PREDICTED BY IDOCK:   -2.66 KCAL/MOL
REMARK 922        TOTAL FREE ENERGY PREDICTED BY IDOCK:   -3.68 KCAL/MOL
REMARK 923 INTER-LIGAND FREE ENERGY PREDICTED BY IDOCK:   -3.28 KCAL/MOL
REMARK 924 INTRA-LIGAND FREE ENERGY PREDICTED BY IDOCK:   -0.40 KCAL/MOL
REMARK 927      BINDING AFFINITY PREDICTED BY RF-SCORE:    0.00 PKD
ROOT
HETATM    1  C   UNL     1     -12.249  10.789  70.994  1.00  0.00    -0.485 C  
HETATM    2  C   UNL     1     -11.778   9.339  70.885  1.00  0.00    -0.296 C  
ENDROOT
BRANCH   2   3
HETATM    3  O   UNL     1     -12.307   8.620  72.019  1.00  0.00    -0.324 OA 
BRANCH   3   4
HETATM    4  C   UNL     1     -12.860   7.401  71.732  1.00  0.00    -0.329 C  
HETATM    5  C   UNL     1     -14.341   7.519  71.557  1.00  0.00    -0.603 C  
HETATM    6  O   UNL     1     -12.226   6.362  71.629  1.00  0.00    -0.327 OA 
ENDBRANCH   3   4
ENDBRANCH   2   3
BRANCH   2   7
HETATM    7  C   UNL     1     -10.234   9.303  70.929  1.00  0.00    -0.301 C  
BRANCH   7   8
HETATM    8  N   UNL     1      -9.546   8.464  69.813  1.00  0.00    -0.170 N  
HETATM    9  C   UNL     1      -8.403   9.312  69.245  1.00  0.00    -0.124 C  
HETATM   10  C   UNL     1      -8.945   7.172  70.350  1.00  0.00    -0.155 C  
HETATM   11  C   UNL     1     -10.516   8.141  68.684  1.00  0.00    -0.165 C  
ENDBRANCH   7   8
ENDBRANCH   2   7
TORSDOF 4
ENDMDL
MODEL       84
REMARK 921   NORMALIZED FREE ENERGY PREDICTED BY IDOCK:   -2.64 KCAL/MOL
REMARK 922        TOTAL FREE ENERGY PREDICTED BY IDOCK:   -3.66 KCAL/MOL
REMARK 923 INTER-LIGAND FREE ENERGY PREDICTED BY IDOCK:   -3.36 KCAL/MOL
REMARK 924 INTRA-LIGAND FREE ENERGY PREDICTED BY IDOCK:   -0.30 KCAL/MOL
REMARK 927      BINDING AFFINITY PREDICTED BY RF-SCORE:    0.00 PKD
ROOT
HETATM    1  C   UNL     1     -11.727  14.748  64.860  1.00  0.00    -0.390 C  
HETATM    2  C   UNL     1     -11.169  14.673  66.282  1.00  0.00    -0.340 C  
ENDROOT
BRANCH   2   3
HETATM    3  O   UNL     1     -10.710  15.992  66.643  1.00  0.00    -0.311 OA 
BRANCH   3   4
HETATM    4  C   UNL     1     -11.072  16.415  67.893  1.00  0.00    -0.249 C  
HETATM    5  C   UNL     1     -10.459  17.744  68.201  1.00  0.00    -0.382 C  
HETATM    6  O   UNL     1     -11.801  15.791  68.649  1.00  0.00    -0.385 OA 
ENDBRANCH   3   4
ENDBRANCH   2   3
BRANCH   2   7
HETATM    7  C   UNL     1      -9.978  13.688  66.308  1.00  0.00    -0.300 C  
BRANCH   7   8
HETATM    8  N   UNL     1     -10.267  12.295  66.937  1.00  0.00    -0.212 N  
HETATM    9  C   UNL     1      -9.101  11.970  67.877  1.00  0.00    -0.183 C  
HETATM   10  C   UNL     1     -11.546  12.289  67.763  1.00  0.00    -0.351 C  
HETATM   11  C   UNL     1     -10.346  11.210  65.871  1.00  0.00    -0.259 C  
ENDBRANCH   7   8
ENDBRANCH   2   7
TORSDOF 4
ENDMDL
MODEL       85
REMARK 921   NORMALIZED FREE ENERGY PREDICTED BY IDOCK:   -2.64 KCAL/MOL
REMARK 922        TOTAL FREE ENERGY PREDICTED BY IDOCK:   -3.66 KCAL/MOL
REMARK 923 INTER-LIGAND FREE ENERGY PREDICTED BY IDOCK:   -3.41 KCAL/MOL
REMARK 924 INTRA-LIGAND FREE ENERGY PREDICTED BY IDOCK:   -0.25 KCAL/MOL
REMARK 927      BINDING AFFINITY PREDICTED BY RF-SCORE:    0.00 PKD
ROOT
HETATM    1  C   UNL     1     -10.931  15.709  64.932  1.00  0.00    -0.447 C  
HETATM    2  C   UNL     1     -10.594  15.648  66.422  1.00  0.00    -0.308 C  
ENDROOT
BRANCH   2   3
HETATM    3  O   UNL     1     -11.668  14.952  67.087  1.00  0.00    -0.356 OA 
BRANCH   3   4
HETATM    4  C   UNL     1     -11.360  13.696  67.537  1.00  0.00    -0.308 C  
HETATM    5  C   UNL     1     -11.922  13.470  68.904  1.00  0.00    -0.378 C  
HETATM    6  O   UNL     1     -10.717  12.873  66.902  1.00  0.00    -0.254 OA 
ENDBRANCH   3   4
ENDBRANCH   2   3
BRANCH   2   7
HETATM    7  C   UNL     1     -10.493  17.087  66.977  1.00  0.00    -0.279 C  
BRANCH   7   8
HETATM    8  N   UNL     1      -9.193  17.418  67.765  1.00  0.00    -0.245 N  
HETATM    9  C   UNL     1      -8.044  17.454  66.751  1.00  0.00    -0.250 C  
HETATM   10  C   UNL     1      -9.259  18.781  68.442  1.00  0.00    -0.339 C  
HETATM   11  C   UNL     1      -8.887  16.349  68.805  1.00  0.00    -0.246 C  
ENDBRANCH   7   8
ENDBRANCH   2   7
TORSDOF 4
ENDMDL
MODEL       86
REMARK 921   NORMALIZED FREE ENERGY PREDICTED BY IDOCK:   -2.63 KCAL/MOL
REMARK 922        TOTAL FREE ENERGY PREDICTED BY IDOCK:   -3.65 KCAL/MOL
REMARK 923 INTER-LIGAND FREE ENERGY PREDICTED BY IDOCK:   -3.30 KCAL/MOL
REMARK 924 INTRA-LIGAND FREE ENERGY PREDICTED BY IDOCK:   -0.35 KCAL/MOL
REMARK 927      BINDING AFFINITY PREDICTED BY RF-SCORE:    0.00 PKD
ROOT
HETATM    1  C   UNL     1      -6.724  21.033  67.307  1.00  0.00    -0.430 C  
HETATM    2  C   UNL     1      -7.170  19.639  67.749  1.00  0.00    -0.267 C  
ENDROOT
BRANCH   2   3
HETATM    3  O   UNL     1      -6.008  18.784  67.744  1.00  0.00    -0.186 OA 
BRANCH   3   4
HETATM    4  C   UNL     1      -6.172  17.571  68.354  1.00  0.00    -0.175 C  
HETATM    5  C   UNL     1      -5.796  16.457  67.429  1.00  0.00    -0.189 C  
HETATM    6  O   UNL     1      -6.566  17.421  69.501  1.00  0.00    -0.244 OA 
ENDBRANCH   3   4
ENDBRANCH   2   3
BRANCH   2   7
HETATM    7  C   UNL     1      -8.211  19.097  66.743  1.00  0.00    -0.280 C  
BRANCH   7   8
HETATM    8  N   UNL     1      -9.631  18.830  67.318  1.00  0.00    -0.299 N  
HETATM    9  C   UNL     1     -10.637  19.500  66.376  1.00  0.00    -0.472 C  
HETATM   10  C   UNL     1      -9.962  17.344  67.372  1.00  0.00    -0.305 C  
HETATM   11  C   UNL     1      -9.791  19.435  68.706  1.00  0.00    -0.456 C  
ENDBRANCH   7   8
ENDBRANCH   2   7
TORSDOF 4
ENDMDL
MODEL       87
REMARK 921   NORMALIZED FREE ENERGY PREDICTED BY IDOCK:   -2.63 KCAL/MOL
REMARK 922        TOTAL FREE ENERGY PREDICTED BY IDOCK:   -3.65 KCAL/MOL
REMARK 923 INTER-LIGAND FREE ENERGY PREDICTED BY IDOCK:   -3.35 KCAL/MOL
REMARK 924 INTRA-LIGAND FREE ENERGY PREDICTED BY IDOCK:   -0.30 KCAL/MOL
REMARK 927      BINDING AFFINITY PREDICTED BY RF-SCORE:    0.00 PKD
ROOT
HETATM    1  C   UNL     1      -9.711   9.353  70.428  1.00  0.00    -0.315 C  
HETATM    2  C   UNL     1     -10.825  10.304  69.987  1.00  0.00    -0.307 C  
ENDROOT
BRANCH   2   3
HETATM    3  O   UNL     1     -12.086   9.679  70.305  1.00  0.00    -0.134 OA 
BRANCH   3   4
HETATM    4  C   UNL     1     -12.733  10.191  71.397  1.00  0.00    -0.425 C  
HETATM    5  C   UNL     1     -13.345   9.098  72.213  1.00  0.00    -0.540 C  
HETATM    6  O   UNL     1     -12.796  11.382  71.667  1.00  0.00    -0.420 OA 
ENDBRANCH   3   4
ENDBRANCH   2   3
BRANCH   2   7
HETATM    7  C   UNL     1     -10.730  10.522  68.460  1.00  0.00    -0.224 C  
BRANCH   7   8
HETATM    8  N   UNL     1     -10.668  12.004  67.992  1.00  0.00    -0.204 N  
HETATM    9  C   UNL     1      -9.258  12.521  68.299  1.00  0.00    -0.186 C  
HETATM   10  C   UNL     1     -10.901  12.147  66.494  1.00  0.00    -0.270 C  
HETATM   11  C   UNL     1     -11.673  12.866  68.746  1.00  0.00    -0.323 C  
ENDBRANCH   7   8
ENDBRANCH   2   7
TORSDOF 4
ENDMDL
MODEL       88
REMARK 921   NORMALIZED FREE ENERGY PREDICTED BY IDOCK:   -2.62 KCAL/MOL
REMARK 922        TOTAL FREE ENERGY PREDICTED BY IDOCK:   -3.64 KCAL/MOL
REMARK 923 INTER-LIGAND FREE ENERGY PREDICTED BY IDOCK:   -3.33 KCAL/MOL
REMARK 924 INTRA-LIGAND FREE ENERGY PREDICTED BY IDOCK:   -0.31 KCAL/MOL
REMARK 927      BINDING AFFINITY PREDICTED BY RF-SCORE:    0.00 PKD
ROOT
HETATM    1  C   UNL     1     -11.702  12.783  69.023  1.00  0.00    -0.371 C  
HETATM    2  C   UNL     1     -11.150  13.094  67.631  1.00  0.00    -0.270 C  
ENDROOT
BRANCH   2   3
HETATM    3  O   UNL     1     -11.859  14.244  67.125  1.00  0.00    -0.390 OA 
BRANCH   3   4
HETATM    4  C   UNL     1     -11.088  15.349  66.888  1.00  0.00    -0.256 C  
HETATM    5  C   UNL     1     -10.663  15.402  65.455  1.00  0.00    -0.416 C  
HETATM    6  O   UNL     1     -10.792  16.180  67.734  1.00  0.00    -0.321 OA 
ENDBRANCH   3   4
ENDBRANCH   2   3
BRANCH   2   7
HETATM    7  C   UNL     1     -11.404  11.885  66.703  1.00  0.00    -0.337 C  
BRANCH   7   8
HETATM    8  N   UNL     1     -10.133  11.167  66.166  1.00  0.00    -0.230 N  
HETATM    9  C   UNL     1     -10.094   9.772  66.801  1.00  0.00    -0.231 C  
HETATM   10  C   UNL     1     -10.165  10.989  64.654  1.00  0.00    -0.330 C  
HETATM   11  C   UNL     1      -8.865  11.913  66.562  1.00  0.00    -0.178 C  
ENDBRANCH   7   8
ENDBRANCH   2   7
TORSDOF 4
ENDMDL
MODEL       89
REMARK 921   NORMALIZED FREE ENERGY PREDICTED BY IDOCK:   -2.62 KCAL/MOL
REMARK 922        TOTAL FREE ENERGY PREDICTED BY IDOCK:   -3.64 KCAL/MOL
REMARK 923 INTER-LIGAND FREE ENERGY PREDICTED BY IDOCK:   -3.49 KCAL/MOL
REMARK 924 INTRA-LIGAND FREE ENERGY PREDICTED BY IDOCK:   -0.15 KCAL/MOL
REMARK 927      BINDING AFFINITY PREDICTED BY RF-SCORE:    0.00 PKD
ROOT
HETATM    1  C   UNL     1     -11.160  10.356  68.667  1.00  0.00    -0.313 C  
HETATM    2  C   UNL     1     -11.682  10.104  70.082  1.00  0.00    -0.256 C  
ENDROOT
BRANCH   2   3
HETATM    3  O   UNL     1     -11.997  11.384  70.667  1.00  0.00    -0.352 OA 
BRANCH   3   4
HETATM    4  C   UNL     1     -12.999  11.370  71.599  1.00  0.00    -0.418 C  
HETATM    5  C   UNL     1     -13.433  12.762  71.932  1.00  0.00    -0.452 C  
HETATM    6  O   UNL     1     -13.475  10.356  72.086  1.00  0.00    -0.396 OA 
ENDBRANCH   3   4
ENDBRANCH   2   3
BRANCH   2   7
HETATM    7  C   UNL     1     -10.576   9.416  70.914  1.00  0.00    -0.320 C  
BRANCH   7   8
HETATM    8  N   UNL     1     -10.829   7.923  71.269  1.00  0.00    -0.232 N  
HETATM    9  C   UNL     1      -9.885   7.082  70.402  1.00  0.00    -0.179 C  
HETATM   10  C   UNL     1     -10.518   7.616  72.728  1.00  0.00    -0.311 C  
HETATM   11  C   UNL     1     -12.263   7.513  70.959  1.00  0.00    -0.259 C  
ENDBRANCH   7   8
ENDBRANCH   2   7
TORSDOF 4
ENDMDL
MODEL       90
REMARK 921   NORMALIZED FREE ENERGY PREDICTED BY IDOCK:   -2.62 KCAL/MOL
REMARK 922        TOTAL FREE ENERGY PREDICTED BY IDOCK:   -3.64 KCAL/MOL
REMARK 923 INTER-LIGAND FREE ENERGY PREDICTED BY IDOCK:   -3.32 KCAL/MOL
REMARK 924 INTRA-LIGAND FREE ENERGY PREDICTED BY IDOCK:   -0.32 KCAL/MOL
REMARK 927      BINDING AFFINITY PREDICTED BY RF-SCORE:    0.00 PKD
ROOT
HETATM    1  C   UNL     1      -9.135  10.217  63.928  1.00  0.00    -0.293 C  
HETATM    2  C   UNL     1      -9.897  10.908  65.059  1.00  0.00    -0.281 C  
ENDROOT
BRANCH   2   3
HETATM    3  O   UNL     1     -10.348  12.187  64.567  1.00  0.00    -0.279 OA 
BRANCH   3   4
HETATM    4  C   UNL     1     -11.682  12.440  64.735  1.00  0.00    -0.368 C  
HETATM    5  C   UNL     1     -12.285  12.967  63.472  1.00  0.00    -0.595 C  
HETATM    6  O   UNL     1     -12.295  12.255  65.776  1.00  0.00    -0.622 OA 
ENDBRANCH   3   4
ENDBRANCH   2   3
BRANCH   2   7
HETATM    7  C   UNL     1      -8.942  11.124  66.255  1.00  0.00    -0.193 C  
BRANCH   7   8
HETATM    8  N   UNL     1      -9.347  10.416  67.579  1.00  0.00    -0.148 N  
HETATM    9  C   UNL     1     -10.655   9.663  67.312  1.00  0.00    -0.247 C  
HETATM   10  C   UNL     1      -8.308   9.398  68.031  1.00  0.00    -0.119 C  
HETATM   11  C   UNL     1      -9.589  11.423  68.696  1.00  0.00    -0.173 C  
ENDBRANCH   7   8
ENDBRANCH   2   7
TORSDOF 4
ENDMDL
MODEL       91
REMARK 921   NORMALIZED FREE ENERGY PREDICTED BY IDOCK:   -2.62 KCAL/MOL
REMARK 922        TOTAL FREE ENERGY PREDICTED BY IDOCK:   -3.63 KCAL/MOL
REMARK 923 INTER-LIGAND FREE ENERGY PREDICTED BY IDOCK:   -3.35 KCAL/MOL
REMARK 924 INTRA-LIGAND FREE ENERGY PREDICTED BY IDOCK:   -0.28 KCAL/MOL
REMARK 927      BINDING AFFINITY PREDICTED BY RF-SCORE:    0.00 PKD
ROOT
HETATM    1  C   UNL     1      -8.947   8.194  69.786  1.00  0.00    -0.144 C  
HETATM    2  C   UNL     1     -10.445   8.256  69.491  1.00  0.00    -0.227 C  
ENDROOT
BRANCH   2   3
HETATM    3  O   UNL     1     -10.618   8.954  68.241  1.00  0.00    -0.212 OA 
BRANCH   3   4
HETATM    4  C   UNL     1     -10.507   8.179  67.119  1.00  0.00    -0.326 C  
HETATM    5  C   UNL     1      -9.634   8.840  66.101  1.00  0.00    -0.323 C  
HETATM    6  O   UNL     1     -11.046   7.091  66.974  1.00  0.00    -0.373 OA 
ENDBRANCH   3   4
ENDBRANCH   2   3
BRANCH   2   7
HETATM    7  C   UNL     1     -11.152   9.041  70.620  1.00  0.00    -0.265 C  
BRANCH   7   8
HETATM    8  N   UNL     1     -11.879   8.178  71.691  1.00  0.00    -0.278 N  
HETATM    9  C   UNL     1     -12.283   6.861  71.017  1.00  0.00    -0.377 C  
HETATM   10  C   UNL     1     -10.977   7.839  72.870  1.00  0.00    -0.407 C  
HETATM   11  C   UNL     1     -13.139   8.867  72.197  1.00  0.00    -0.421 C  
ENDBRANCH   7   8
ENDBRANCH   2   7
TORSDOF 4
ENDMDL
MODEL       92
REMARK 921   NORMALIZED FREE ENERGY PREDICTED BY IDOCK:   -2.60 KCAL/MOL
REMARK 922        TOTAL FREE ENERGY PREDICTED BY IDOCK:   -3.62 KCAL/MOL
REMARK 923 INTER-LIGAND FREE ENERGY PREDICTED BY IDOCK:   -3.24 KCAL/MOL
REMARK 924 INTRA-LIGAND FREE ENERGY PREDICTED BY IDOCK:   -0.38 KCAL/MOL
REMARK 927      BINDING AFFINITY PREDICTED BY RF-SCORE:    0.00 PKD
ROOT
HETATM    1  C   UNL     1     -13.549   7.221  71.579  1.00  0.00    -0.442 C  
HETATM    2  C   UNL     1     -12.032   7.039  71.639  1.00  0.00    -0.329 C  
ENDROOT
BRANCH   2   3
HETATM    3  O   UNL     1     -11.535   7.853  72.721  1.00  0.00    -0.390 OA 
BRANCH   3   4
HETATM    4  C   UNL     1     -10.519   7.298  73.451  1.00  0.00    -0.377 C  
HETATM    5  C   UNL     1      -9.244   8.053  73.246  1.00  0.00    -0.347 C  
HETATM    6  O   UNL     1     -10.642   6.321  74.175  1.00  0.00    -0.267 OA 
ENDBRANCH   3   4
ENDBRANCH   2   3
BRANCH   2   7
HETATM    7  C   UNL     1     -11.411   7.520  70.307  1.00  0.00    -0.199 C  
BRANCH   7   8
HETATM    8  N   UNL     1     -10.377   6.556  69.658  1.00  0.00    -0.185 N  
HETATM    9  C   UNL     1     -10.802   6.348  68.199  1.00  0.00    -0.308 C  
HETATM   10  C   UNL     1      -8.969   7.136  69.655  1.00  0.00    -0.141 C  
HETATM   11  C   UNL     1     -10.366   5.202  70.355  1.00  0.00    -0.256 C  
ENDBRANCH   7   8
ENDBRANCH   2   7
TORSDOF 4
ENDMDL
MODEL       93
REMARK 921   NORMALIZED FREE ENERGY PREDICTED BY IDOCK:   -2.60 KCAL/MOL
REMARK 922        TOTAL FREE ENERGY PREDICTED BY IDOCK:   -3.61 KCAL/MOL
REMARK 923 INTER-LIGAND FREE ENERGY PREDICTED BY IDOCK:   -3.32 KCAL/MOL
REMARK 924 INTRA-LIGAND FREE ENERGY PREDICTED BY IDOCK:   -0.30 KCAL/MOL
REMARK 927      BINDING AFFINITY PREDICTED BY RF-SCORE:    0.00 PKD
ROOT
HETATM    1  C   UNL     1      -7.276  15.760  67.250  1.00  0.00    -0.254 C  
HETATM    2  C   UNL     1      -8.384  16.694  66.764  1.00  0.00    -0.235 C  
ENDROOT
BRANCH   2   3
HETATM    3  O   UNL     1      -9.104  16.011  65.717  1.00  0.00    -0.349 OA 
BRANCH   3   4
HETATM    4  C   UNL     1     -10.439  15.824  65.952  1.00  0.00    -0.352 C  
HETATM    5  C   UNL     1     -11.142  15.387  64.706  1.00  0.00    -0.416 C  
HETATM    6  O   UNL     1     -10.979  15.988  67.036  1.00  0.00    -0.273 OA 
ENDBRANCH   3   4
ENDBRANCH   2   3
BRANCH   2   7
HETATM    7  C   UNL     1      -7.747  17.982  66.194  1.00  0.00    -0.231 C  
BRANCH   7   8
HETATM    8  N   UNL     1      -8.351  19.319  66.710  1.00  0.00    -0.282 N  
HETATM    9  C   UNL     1      -7.534  20.458  66.090  1.00  0.00    -0.157 C  
HETATM   10  C   UNL     1      -9.802  19.501  66.282  1.00  0.00    -0.429 C  
HETATM   11  C   UNL     1      -8.253  19.424  68.226  1.00  0.00    -0.337 C  
ENDBRANCH   7   8
ENDBRANCH   2   7
TORSDOF 4
ENDMDL
MODEL       94
REMARK 921   NORMALIZED FREE ENERGY PREDICTED BY IDOCK:   -2.60 KCAL/MOL
REMARK 922        TOTAL FREE ENERGY PREDICTED BY IDOCK:   -3.61 KCAL/MOL
REMARK 923 INTER-LIGAND FREE ENERGY PREDICTED BY IDOCK:   -3.31 KCAL/MOL
REMARK 924 INTRA-LIGAND FREE ENERGY PREDICTED BY IDOCK:   -0.30 KCAL/MOL
REMARK 927      BINDING AFFINITY PREDICTED BY RF-SCORE:    0.00 PKD
ROOT
HETATM    1  C   UNL     1     -11.305   5.557  72.833  1.00  0.00    -0.348 C  
HETATM    2  C   UNL     1     -11.194   6.730  71.859  1.00  0.00    -0.260 C  
ENDROOT
BRANCH   2   3
HETATM    3  O   UNL     1     -12.096   7.761  72.309  1.00  0.00    -0.311 OA 
BRANCH   3   4
HETATM    4  C   UNL     1     -11.909   8.992  71.741  1.00  0.00    -0.372 C  
HETATM    5  C   UNL     1     -13.218   9.606  71.360  1.00  0.00    -0.469 C  
HETATM    6  O   UNL     1     -10.818   9.517  71.574  1.00  0.00    -0.355 OA 
ENDBRANCH   3   4
ENDBRANCH   2   3
BRANCH   2   7
HETATM    7  C   UNL     1     -11.614   6.259  70.448  1.00  0.00    -0.300 C  
BRANCH   7   8
HETATM    8  N   UNL     1     -10.460   6.103  69.417  1.00  0.00    -0.227 N  
HETATM    9  C   UNL     1      -9.941   4.665  69.528  1.00  0.00    -0.196 C  
HETATM   10  C   UNL     1     -10.932   6.317  67.985  1.00  0.00    -0.327 C  
HETATM   11  C   UNL     1      -9.311   7.056  69.720  1.00  0.00    -0.146 C  
ENDBRANCH   7   8
ENDBRANCH   2   7
TORSDOF 4
ENDMDL
MODEL       95
REMARK 921   NORMALIZED FREE ENERGY PREDICTED BY IDOCK:   -2.60 KCAL/MOL
REMARK 922        TOTAL FREE ENERGY PREDICTED BY IDOCK:   -3.61 KCAL/MOL
REMARK 923 INTER-LIGAND FREE ENERGY PREDICTED BY IDOCK:   -3.28 KCAL/MOL
REMARK 924 INTRA-LIGAND FREE ENERGY PREDICTED BY IDOCK:   -0.33 KCAL/MOL
REMARK 927      BINDING AFFINITY PREDICTED BY RF-SCORE:    0.00 PKD
ROOT
HETATM    1  C   UNL     1     -10.535   5.470  70.353  1.00  0.00    -0.356 C  
HETATM    2  C   UNL     1     -10.993   6.401  71.475  1.00  0.00    -0.263 C  
ENDROOT
BRANCH   2   3
HETATM    3  O   UNL     1     -11.775   5.619  72.402  1.00  0.00    -0.277 OA 
BRANCH   3   4
HETATM    4  C   UNL     1     -11.071   5.060  73.433  1.00  0.00    -0.335 C  
HETATM    5  C   UNL     1     -10.318   6.106  74.191  1.00  0.00    -0.308 C  
HETATM    6  O   UNL     1     -11.065   3.867  73.699  1.00  0.00    -0.243 OA 
ENDBRANCH   3   4
ENDBRANCH   2   3
BRANCH   2   7
HETATM    7  C   UNL     1     -11.874   7.521  70.875  1.00  0.00    -0.267 C  
BRANCH   7   8
HETATM    8  N   UNL     1     -11.246   8.944  70.869  1.00  0.00    -0.266 N  
HETATM    9  C   UNL     1     -10.022   8.906  71.790  1.00  0.00    -0.327 C  
HETATM   10  C   UNL     1     -10.772   9.359  69.482  1.00  0.00    -0.222 C  
HETATM   11  C   UNL     1     -12.222   9.984  71.404  1.00  0.00    -0.416 C  
ENDBRANCH   7   8
ENDBRANCH   2   7
TORSDOF 4
ENDMDL
MODEL       96
REMARK 921   NORMALIZED FREE ENERGY PREDICTED BY IDOCK:   -2.58 KCAL/MOL
REMARK 922        TOTAL FREE ENERGY PREDICTED BY IDOCK:   -3.59 KCAL/MOL
REMARK 923 INTER-LIGAND FREE ENERGY PREDICTED BY IDOCK:   -3.20 KCAL/MOL
REMARK 924 INTRA-LIGAND FREE ENERGY PREDICTED BY IDOCK:   -0.39 KCAL/MOL
REMARK 927      BINDING AFFINITY PREDICTED BY RF-SCORE:    0.00 PKD
ROOT
HETATM    1  C   UNL     1     -11.622  15.302  69.343  1.00  0.00    -0.347 C  
HETATM    2  C   UNL     1     -11.145  14.561  68.095  1.00  0.00    -0.266 C  
ENDROOT
BRANCH   2   3
HETATM    3  O   UNL     1     -11.453  15.384  66.951  1.00  0.00    -0.224 OA 
BRANCH   3   4
HETATM    4  C   UNL     1     -10.386  15.703  66.156  1.00  0.00    -0.316 C  
HETATM    5  C   UNL     1     -10.274  17.185  65.989  1.00  0.00    -0.332 C  
HETATM    6  O   UNL     1      -9.627  14.886  65.658  1.00  0.00    -0.325 OA 
ENDBRANCH   3   4
ENDBRANCH   2   3
BRANCH   2   7
HETATM    7  C   UNL     1     -11.903  13.219  67.982  1.00  0.00    -0.355 C  
BRANCH   7   8
HETATM    8  N   UNL     1     -11.044  11.990  67.568  1.00  0.00    -0.258 N  
HETATM    9  C   UNL     1     -11.219  11.800  66.057  1.00  0.00    -0.296 C  
HETATM   10  C   UNL     1      -9.562  12.203  67.842  1.00  0.00    -0.198 C  
HETATM   11  C   UNL     1     -11.512  10.723  68.272  1.00  0.00    -0.280 C  
ENDBRANCH   7   8
ENDBRANCH   2   7
TORSDOF 4
ENDMDL
MODEL       97
REMARK 921   NORMALIZED FREE ENERGY PREDICTED BY IDOCK:   -2.58 KCAL/MOL
REMARK 922        TOTAL FREE ENERGY PREDICTED BY IDOCK:   -3.58 KCAL/MOL
REMARK 923 INTER-LIGAND FREE ENERGY PREDICTED BY IDOCK:   -3.35 KCAL/MOL
REMARK 924 INTRA-LIGAND FREE ENERGY PREDICTED BY IDOCK:   -0.23 KCAL/MOL
REMARK 927      BINDING AFFINITY PREDICTED BY RF-SCORE:    0.00 PKD
ROOT
HETATM    1  C   UNL     1     -10.593  13.774  68.447  1.00  0.00    -0.261 C  
HETATM    2  C   UNL     1     -10.568  14.818  67.331  1.00  0.00    -0.268 C  
ENDROOT
BRANCH   2   3
HETATM    3  O   UNL     1     -10.420  14.118  66.078  1.00  0.00    -0.289 OA 
BRANCH   3   4
HETATM    4  C   UNL     1     -11.555  13.516  65.607  1.00  0.00    -0.325 C  
HETATM    5  C   UNL     1     -11.233  12.204  64.965  1.00  0.00    -0.372 C  
HETATM    6  O   UNL     1     -12.678  13.987  65.705  1.00  0.00    -0.526 OA 
ENDBRANCH   3   4
ENDBRANCH   2   3
BRANCH   2   7
HETATM    7  C   UNL     1      -9.358  15.756  67.541  1.00  0.00    -0.209 C  
BRANCH   7   8
HETATM    8  N   UNL     1      -9.674  17.280  67.525  1.00  0.00    -0.259 N  
HETATM    9  C   UNL     1      -8.342  18.022  67.680  1.00  0.00    -0.238 C  
HETATM   10  C   UNL     1     -10.305  17.724  66.212  1.00  0.00    -0.358 C  
HETATM   11  C   UNL     1     -10.583  17.671  68.683  1.00  0.00    -0.244 C  
ENDBRANCH   7   8
ENDBRANCH   2   7
TORSDOF 4
ENDMDL
MODEL       98
REMARK 921   NORMALIZED FREE ENERGY PREDICTED BY IDOCK:   -2.58 KCAL/MOL
REMARK 922        TOTAL FREE ENERGY PREDICTED BY IDOCK:   -3.58 KCAL/MOL
REMARK 923 INTER-LIGAND FREE ENERGY PREDICTED BY IDOCK:   -3.24 KCAL/MOL
REMARK 924 INTRA-LIGAND FREE ENERGY PREDICTED BY IDOCK:   -0.35 KCAL/MOL
REMARK 927      BINDING AFFINITY PREDICTED BY RF-SCORE:    0.00 PKD
ROOT
HETATM    1  C   UNL     1     -11.594   6.585  70.144  1.00  0.00    -0.466 C  
HETATM    2  C   UNL     1     -11.084   7.279  71.407  1.00  0.00    -0.243 C  
ENDROOT
BRANCH   2   3
HETATM    3  O   UNL     1     -11.191   8.702  71.199  1.00  0.00    -0.250 OA 
BRANCH   3   4
HETATM    4  C   UNL     1     -12.260   9.303  71.807  1.00  0.00    -0.385 C  
HETATM    5  C   UNL     1     -12.498  10.665  71.238  1.00  0.00    -0.515 C  
HETATM    6  O   UNL     1     -12.930   8.790  72.691  1.00  0.00    -0.389 OA 
ENDBRANCH   3   4
ENDBRANCH   2   3
BRANCH   2   7
HETATM    7  C   UNL     1      -9.601   6.902  71.628  1.00  0.00    -0.161 C  
BRANCH   7   8
HETATM    8  N   UNL     1      -9.130   6.851  73.110  1.00  0.00    -0.130 N  
HETATM    9  C   UNL     1     -10.368   6.581  73.972  1.00  0.00    -0.340 C  
HETATM   10  C   UNL     1      -8.134   5.728  73.361  1.00  0.00    -0.113 C  
HETATM   11  C   UNL     1      -8.519   8.177  73.544  1.00  0.00    -0.246 C  
ENDBRANCH   7   8
ENDBRANCH   2   7
TORSDOF 4
ENDMDL
MODEL       99
REMARK 921   NORMALIZED FREE ENERGY PREDICTED BY IDOCK:   -2.57 KCAL/MOL
REMARK 922        TOTAL FREE ENERGY PREDICTED BY IDOCK:   -3.57 KCAL/MOL
REMARK 923 INTER-LIGAND FREE ENERGY PREDICTED BY IDOCK:   -3.27 KCAL/MOL
REMARK 924 INTRA-LIGAND FREE ENERGY PREDICTED BY IDOCK:   -0.31 KCAL/MOL
REMARK 927      BINDING AFFINITY PREDICTED BY RF-SCORE:    0.00 PKD
ROOT
HETATM    1  C   UNL     1     -11.003  15.804  64.895  1.00  0.00    -0.443 C  
HETATM    2  C   UNL     1     -10.525  15.699  66.344  1.00  0.00    -0.305 C  
ENDROOT
BRANCH   2   3
HETATM    3  O   UNL     1      -9.427  16.620  66.511  1.00  0.00    -0.239 OA 
BRANCH   3   4
HETATM    4  C   UNL     1      -9.341  17.209  67.743  1.00  0.00    -0.245 C  
HETATM    5  C   UNL     1      -7.925  17.576  68.058  1.00  0.00    -0.234 C  
HETATM    6  O   UNL     1     -10.294  17.411  68.481  1.00  0.00    -0.337 OA 
ENDBRANCH   3   4
ENDBRANCH   2   3
BRANCH   2   7
HETATM    7  C   UNL     1     -10.034  14.258  66.612  1.00  0.00    -0.275 C  
BRANCH   7   8
HETATM    8  N   UNL     1     -11.023  13.341  67.386  1.00  0.00    -0.267 N  
HETATM    9  C   UNL     1     -11.874  14.244  68.286  1.00  0.00    -0.335 C  
HETATM   10  C   UNL     1     -11.966  12.592  66.453  1.00  0.00    -0.357 C  
HETATM   11  C   UNL     1     -10.282  12.343  68.266  1.00  0.00    -0.229 C  
ENDBRANCH   7   8
ENDBRANCH   2   7
TORSDOF 4
ENDMDL
MODEL      100
REMARK 921   NORMALIZED FREE ENERGY PREDICTED BY IDOCK:   -2.55 KCAL/MOL
REMARK 922        TOTAL FREE ENERGY PREDICTED BY IDOCK:   -3.55 KCAL/MOL
REMARK 923 INTER-LIGAND FREE ENERGY PREDICTED BY IDOCK:   -3.24 KCAL/MOL
REMARK 924 INTRA-LIGAND FREE ENERGY PREDICTED BY IDOCK:   -0.31 KCAL/MOL
REMARK 927      BINDING AFFINITY PREDICTED BY RF-SCORE:    0.00 PKD
ROOT
HETATM    1  C   UNL     1     -11.232  10.828  67.595  1.00  0.00    -0.370 C  
HETATM    2  C   UNL     1     -10.522  11.472  66.404  1.00  0.00    -0.250 C  
ENDROOT
BRANCH   2   3
HETATM    3  O   UNL     1      -9.133  11.088  66.462  1.00  0.00    -0.164 OA 
BRANCH   3   4
HETATM    4  C   UNL     1      -8.858   9.821  66.027  1.00  0.00    -0.147 C  
HETATM    5  C   UNL     1      -9.255   9.653  64.594  1.00  0.00    -0.293 C  
HETATM    6  O   UNL     1      -8.351   8.948  66.716  1.00  0.00    -0.110 OA 
ENDBRANCH   3   4
ENDBRANCH   2   3
BRANCH   2   7
HETATM    7  C   UNL     1     -10.636  13.009  66.517  1.00  0.00    -0.282 C  
BRANCH   7   8
HETATM    8  N   UNL     1     -11.161  13.743  65.250  1.00  0.00    -0.300 N  
HETATM    9  C   UNL     1     -12.674  13.921  65.420  1.00  0.00    -0.490 C  
HETATM   10  C   UNL     1     -10.545  15.126  65.087  1.00  0.00    -0.424 C  
HETATM   11  C   UNL     1     -10.910  12.924  63.991  1.00  0.00    -0.410 C  
ENDBRANCH   7   8
ENDBRANCH   2   7
TORSDOF 4
ENDMDL
MODEL      101
REMARK 921   NORMALIZED FREE ENERGY PREDICTED BY IDOCK:   -2.55 KCAL/MOL
REMARK 922        TOTAL FREE ENERGY PREDICTED BY IDOCK:   -3.55 KCAL/MOL
REMARK 923 INTER-LIGAND FREE ENERGY PREDICTED BY IDOCK:   -3.22 KCAL/MOL
REMARK 924 INTRA-LIGAND FREE ENERGY PREDICTED BY IDOCK:   -0.33 KCAL/MOL
REMARK 927      BINDING AFFINITY PREDICTED BY RF-SCORE:    0.00 PKD
ROOT
HETATM    1  C   UNL     1     -10.572   9.689  70.348  1.00  0.00    -0.354 C  
HETATM    2  C   UNL     1     -10.871   8.684  71.460  1.00  0.00    -0.282 C  
ENDROOT
BRANCH   2   3
HETATM    3  O   UNL     1     -11.987   9.190  72.221  1.00  0.00    -0.321 OA 
BRANCH   3   4
HETATM    4  C   UNL     1     -13.182   8.562  71.995  1.00  0.00    -0.369 C  
HETATM    5  C   UNL     1     -12.962   7.186  71.451  1.00  0.00    -0.419 C  
HETATM    6  O   UNL     1     -14.276   9.058  72.215  1.00  0.00    -0.436 OA 
ENDBRANCH   3   4
ENDBRANCH   2   3
BRANCH   2   7
HETATM    7  C   UNL     1      -9.635   8.564  72.380  1.00  0.00    -0.286 C  
BRANCH   7   8
HETATM    8  N   UNL     1      -9.305   7.130  72.885  1.00  0.00    -0.143 N  
HETATM    9  C   UNL     1      -9.435   6.184  71.686  1.00  0.00    -0.148 C  
HETATM   10  C   UNL     1      -7.882   7.017  73.415  1.00  0.00    -0.093 C  
HETATM   11  C   UNL     1     -10.284   6.682  73.962  1.00  0.00    -0.369 C  
ENDBRANCH   7   8
ENDBRANCH   2   7
TORSDOF 4
ENDMDL
MODEL      102
REMARK 921   NORMALIZED FREE ENERGY PREDICTED BY IDOCK:   -2.54 KCAL/MOL
REMARK 922        TOTAL FREE ENERGY PREDICTED BY IDOCK:   -3.53 KCAL/MOL
REMARK 923 INTER-LIGAND FREE ENERGY PREDICTED BY IDOCK:   -3.19 KCAL/MOL
REMARK 924 INTRA-LIGAND FREE ENERGY PREDICTED BY IDOCK:   -0.34 KCAL/MOL
REMARK 927      BINDING AFFINITY PREDICTED BY RF-SCORE:    0.00 PKD
ROOT
HETATM    1  C   UNL     1     -10.564  18.632  66.064  1.00  0.00    -0.410 C  
HETATM    2  C   UNL     1      -9.955  17.747  67.152  1.00  0.00    -0.322 C  
ENDROOT
BRANCH   2   3
HETATM    3  O   UNL     1     -11.006  17.405  68.079  1.00  0.00    -0.341 OA 
BRANCH   3   4
HETATM    4  C   UNL     1     -10.977  16.120  68.548  1.00  0.00    -0.338 C  
HETATM    5  C   UNL     1     -10.877  15.145  67.419  1.00  0.00    -0.302 C  
HETATM    6  O   UNL     1     -11.020  15.816  69.731  1.00  0.00    -0.260 OA 
ENDBRANCH   3   4
ENDBRANCH   2   3
BRANCH   2   7
HETATM    7  C   UNL     1      -8.854  18.540  67.892  1.00  0.00    -0.284 C  
BRANCH   7   8
HETATM    8  N   UNL     1      -7.425  17.927  67.834  1.00  0.00    -0.212 N  
HETATM    9  C   UNL     1      -7.350  16.843  68.915  1.00  0.00    -0.236 C  
HETATM   10  C   UNL     1      -7.134  17.268  66.493  1.00  0.00    -0.265 C  
HETATM   11  C   UNL     1      -6.360  18.975  68.127  1.00  0.00    -0.218 C  
ENDBRANCH   7   8
ENDBRANCH   2   7
TORSDOF 4
ENDMDL
MODEL      103
REMARK 921   NORMALIZED FREE ENERGY PREDICTED BY IDOCK:   -2.50 KCAL/MOL
REMARK 922        TOTAL FREE ENERGY PREDICTED BY IDOCK:   -3.49 KCAL/MOL
REMARK 923 INTER-LIGAND FREE ENERGY PREDICTED BY IDOCK:   -3.21 KCAL/MOL
REMARK 924 INTRA-LIGAND FREE ENERGY PREDICTED BY IDOCK:   -0.29 KCAL/MOL
REMARK 927      BINDING AFFINITY PREDICTED BY RF-SCORE:    0.00 PKD
ROOT
HETATM    1  C   UNL     1     -11.965  10.532  70.720  1.00  0.00    -0.472 C  
HETATM    2  C   UNL     1     -11.220  10.708  69.397  1.00  0.00    -0.270 C  
ENDROOT
BRANCH   2   3
HETATM    3  O   UNL     1     -12.171  11.168  68.415  1.00  0.00    -0.610 OA 
BRANCH   3   4
HETATM    4  C   UNL     1     -11.773  12.249  67.677  1.00  0.00    -0.334 C  
HETATM    5  C   UNL     1     -11.685  13.473  68.533  1.00  0.00    -0.392 C  
HETATM    6  O   UNL     1     -11.519  12.214  66.482  1.00  0.00    -0.344 OA 
ENDBRANCH   3   4
ENDBRANCH   2   3
BRANCH   2   7
HETATM    7  C   UNL     1     -10.644   9.343  68.955  1.00  0.00    -0.213 C  
BRANCH   7   8
HETATM    8  N   UNL     1      -9.105   9.298  68.734  1.00  0.00    -0.135 N  
HETATM    9  C   UNL     1      -8.797  10.150  67.498  1.00  0.00    -0.125 C  
HETATM   10  C   UNL     1      -8.336   9.888  69.909  1.00  0.00    -0.183 C  
HETATM   11  C   UNL     1      -8.623   7.877  68.474  1.00  0.00    -0.128 C  
ENDBRANCH   7   8
ENDBRANCH   2   7
TORSDOF 4
ENDMDL
MODEL      104
REMARK 921   NORMALIZED FREE ENERGY PREDICTED BY IDOCK:   -2.50 KCAL/MOL
REMARK 922        TOTAL FREE ENERGY PREDICTED BY IDOCK:   -3.49 KCAL/MOL
REMARK 923 INTER-LIGAND FREE ENERGY PREDICTED BY IDOCK:   -3.23 KCAL/MOL
REMARK 924 INTRA-LIGAND FREE ENERGY PREDICTED BY IDOCK:   -0.26 KCAL/MOL
REMARK 927      BINDING AFFINITY PREDICTED BY RF-SCORE:    0.00 PKD
ROOT
HETATM    1  C   UNL     1     -11.948  11.255  70.455  1.00  0.00    -0.471 C  
HETATM    2  C   UNL     1     -11.820  12.625  69.788  1.00  0.00    -0.309 C  
ENDROOT
BRANCH   2   3
HETATM    3  O   UNL     1     -12.852  13.475  70.331  1.00  0.00    -0.152 OA 
BRANCH   3   4
HETATM    4  C   UNL     1     -12.454  14.305  71.343  1.00  0.00    -0.360 C  
HETATM    5  C   UNL     1     -11.337  15.192  70.893  1.00  0.00    -0.345 C  
HETATM    6  O   UNL     1     -12.950  14.320  72.460  1.00  0.00    -0.392 OA 
ENDBRANCH   3   4
ENDBRANCH   2   3
BRANCH   2   7
HETATM    7  C   UNL     1     -12.030  12.469  68.265  1.00  0.00    -0.221 C  
BRANCH   7   8
HETATM    8  N   UNL     1     -10.791  12.777  67.377  1.00  0.00    -0.236 N  
HETATM    9  C   UNL     1      -9.758  13.481  68.265  1.00  0.00    -0.224 C  
HETATM   10  C   UNL     1     -10.146  11.512  66.827  1.00  0.00    -0.215 C  
HETATM   11  C   UNL     1     -11.150  13.705  66.225  1.00  0.00    -0.301 C  
ENDBRANCH   7   8
ENDBRANCH   2   7
TORSDOF 4
ENDMDL
MODEL      105
REMARK 921   NORMALIZED FREE ENERGY PREDICTED BY IDOCK:   -2.50 KCAL/MOL
REMARK 922        TOTAL FREE ENERGY PREDICTED BY IDOCK:   -3.49 KCAL/MOL
REMARK 923 INTER-LIGAND FREE ENERGY PREDICTED BY IDOCK:   -3.17 KCAL/MOL
REMARK 924 INTRA-LIGAND FREE ENERGY PREDICTED BY IDOCK:   -0.32 KCAL/MOL
REMARK 927      BINDING AFFINITY PREDICTED BY RF-SCORE:    0.00 PKD
ROOT
HETATM    1  C   UNL     1      -9.924   9.349  66.508  1.00  0.00    -0.339 C  
HETATM    2  C   UNL     1     -10.261  10.297  67.659  1.00  0.00    -0.205 C  
ENDROOT
BRANCH   2   3
HETATM    3  O   UNL     1     -10.885   9.519  68.701  1.00  0.00    -0.209 OA 
BRANCH   3   4
HETATM    4  C   UNL     1     -10.447   9.782  69.970  1.00  0.00    -0.270 C  
HETATM    5  C   UNL     1     -11.592  10.139  70.863  1.00  0.00    -0.459 C  
HETATM    6  O   UNL     1      -9.278   9.727  70.323  1.00  0.00    -0.246 OA 
ENDBRANCH   3   4
ENDBRANCH   2   3
BRANCH   2   7
HETATM    7  C   UNL     1     -11.251  11.373  67.157  1.00  0.00    -0.296 C  
BRANCH   7   8
HETATM    8  N   UNL     1     -10.726  12.837  67.180  1.00  0.00    -0.243 N  
HETATM    9  C   UNL     1     -10.182  13.148  65.781  1.00  0.00    -0.289 C  
HETATM   10  C   UNL     1     -11.830  13.841  67.483  1.00  0.00    -0.387 C  
HETATM   11  C   UNL     1      -9.596  13.006  68.186  1.00  0.00    -0.227 C  
ENDBRANCH   7   8
ENDBRANCH   2   7
TORSDOF 4
ENDMDL
MODEL      106
REMARK 921   NORMALIZED FREE ENERGY PREDICTED BY IDOCK:   -2.50 KCAL/MOL
REMARK 922        TOTAL FREE ENERGY PREDICTED BY IDOCK:   -3.48 KCAL/MOL
REMARK 923 INTER-LIGAND FREE ENERGY PREDICTED BY IDOCK:   -3.17 KCAL/MOL
REMARK 924 INTRA-LIGAND FREE ENERGY PREDICTED BY IDOCK:   -0.31 KCAL/MOL
REMARK 927      BINDING AFFINITY PREDICTED BY RF-SCORE:    0.00 PKD
ROOT
HETATM    1  C   UNL     1      -9.232  15.884  65.862  1.00  0.00    -0.332 C  
HETATM    2  C   UNL     1      -8.839  16.974  66.858  1.00  0.00    -0.230 C  
ENDROOT
BRANCH   2   3
HETATM    3  O   UNL     1      -9.915  17.934  66.905  1.00  0.00    -0.304 OA 
BRANCH   3   4
HETATM    4  C   UNL     1     -10.179  18.457  68.141  1.00  0.00    -0.384 C  
HETATM    5  C   UNL     1     -10.256  19.949  68.081  1.00  0.00    -0.564 C  
HETATM    6  O   UNL     1     -10.336  17.791  69.154  1.00  0.00    -0.350 OA 
ENDBRANCH   3   4
ENDBRANCH   2   3
BRANCH   2   7
HETATM    7  C   UNL     1      -7.550  17.670  66.366  1.00  0.00    -0.287 C  
BRANCH   7   8
HETATM    8  N   UNL     1      -6.407  17.796  67.414  1.00  0.00    -0.152 N  
HETATM    9  C   UNL     1      -6.041  19.281  67.512  1.00  0.00    -0.194 C  
HETATM   10  C   UNL     1      -6.840  17.330  68.798  1.00  0.00    -0.219 C  
HETATM   11  C   UNL     1      -5.170  17.021  66.982  1.00  0.00    -0.155 C  
ENDBRANCH   7   8
ENDBRANCH   2   7
TORSDOF 4
ENDMDL
MODEL      107
REMARK 921   NORMALIZED FREE ENERGY PREDICTED BY IDOCK:   -2.49 KCAL/MOL
REMARK 922        TOTAL FREE ENERGY PREDICTED BY IDOCK:   -3.48 KCAL/MOL
REMARK 923 INTER-LIGAND FREE ENERGY PREDICTED BY IDOCK:   -3.20 KCAL/MOL
REMARK 924 INTRA-LIGAND FREE ENERGY PREDICTED BY IDOCK:   -0.28 KCAL/MOL
REMARK 927      BINDING AFFINITY PREDICTED BY RF-SCORE:    0.00 PKD
ROOT
HETATM    1  C   UNL     1     -10.112  16.920  65.996  1.00  0.00    -0.336 C  
HETATM    2  C   UNL     1     -10.252  15.466  66.446  1.00  0.00    -0.286 C  
ENDROOT
BRANCH   2   3
HETATM    3  O   UNL     1      -9.158  15.177  67.341  1.00  0.00    -0.182 OA 
BRANCH   3   4
HETATM    4  C   UNL     1      -9.317  15.629  68.623  1.00  0.00    -0.201 C  
HETATM    5  C   UNL     1      -8.094  16.355  69.085  1.00  0.00    -0.198 C  
HETATM    6  O   UNL     1     -10.325  15.464  69.294  1.00  0.00    -0.225 OA 
ENDBRANCH   3   4
ENDBRANCH   2   3
BRANCH   2   7
HETATM    7  C   UNL     1     -10.164  14.542  65.211  1.00  0.00    -0.402 C  
BRANCH   7   8
HETATM    8  N   UNL     1     -11.218  13.400  65.144  1.00  0.00    -0.299 N  
HETATM    9  C   UNL     1     -10.463  12.101  64.841  1.00  0.00    -0.288 C  
HETATM   10  C   UNL     1     -11.952  13.215  66.465  1.00  0.00    -0.398 C  
HETATM   11  C   UNL     1     -12.229  13.642  64.031  1.00  0.00    -0.390 C  
ENDBRANCH   7   8
ENDBRANCH   2   7
TORSDOF 4
ENDMDL
MODEL      108
REMARK 921   NORMALIZED FREE ENERGY PREDICTED BY IDOCK:   -2.48 KCAL/MOL
REMARK 922        TOTAL FREE ENERGY PREDICTED BY IDOCK:   -3.47 KCAL/MOL
REMARK 923 INTER-LIGAND FREE ENERGY PREDICTED BY IDOCK:   -3.17 KCAL/MOL
REMARK 924 INTRA-LIGAND FREE ENERGY PREDICTED BY IDOCK:   -0.30 KCAL/MOL
REMARK 927      BINDING AFFINITY PREDICTED BY RF-SCORE:    0.00 PKD
ROOT
HETATM    1  C   UNL     1     -10.252   8.314  66.885  1.00  0.00    -0.388 C  
HETATM    2  C   UNL     1     -10.613   8.857  68.269  1.00  0.00    -0.152 C  
ENDROOT
BRANCH   2   3
HETATM    3  O   UNL     1     -10.298  10.264  68.284  1.00  0.00    -0.165 OA 
BRANCH   3   4
HETATM    4  C   UNL     1     -11.348  11.101  68.019  1.00  0.00    -0.312 C  
HETATM    5  C   UNL     1     -11.069  11.937  66.810  1.00  0.00    -0.359 C  
HETATM    6  O   UNL     1     -12.375  11.152  68.679  1.00  0.00    -0.549 OA 
ENDBRANCH   3   4
ENDBRANCH   2   3
BRANCH   2   7
HETATM    7  C   UNL     1      -9.765   8.128  69.335  1.00  0.00    -0.170 C  
BRANCH   7   8
HETATM    8  N   UNL     1     -10.559   7.501  70.517  1.00  0.00    -0.221 N  
HETATM    9  C   UNL     1     -11.313   6.285  69.965  1.00  0.00    -0.416 C  
HETATM   10  C   UNL     1      -9.644   7.013  71.633  1.00  0.00    -0.156 C  
HETATM   11  C   UNL     1     -11.575   8.482  71.086  1.00  0.00    -0.281 C  
ENDBRANCH   7   8
ENDBRANCH   2   7
TORSDOF 4
ENDMDL
MODEL      109
REMARK 921   NORMALIZED FREE ENERGY PREDICTED BY IDOCK:   -2.48 KCAL/MOL
REMARK 922        TOTAL FREE ENERGY PREDICTED BY IDOCK:   -3.46 KCAL/MOL
REMARK 923 INTER-LIGAND FREE ENERGY PREDICTED BY IDOCK:   -3.14 KCAL/MOL
REMARK 924 INTRA-LIGAND FREE ENERGY PREDICTED BY IDOCK:   -0.32 KCAL/MOL
REMARK 927      BINDING AFFINITY PREDICTED BY RF-SCORE:    0.00 PKD
ROOT
HETATM    1  C   UNL     1     -12.056  15.315  69.213  1.00  0.00    -0.280 C  
HETATM    2  C   UNL     1     -10.830  15.972  68.579  1.00  0.00    -0.304 C  
ENDROOT
BRANCH   2   3
HETATM    3  O   UNL     1      -9.716  15.071  68.742  1.00  0.00    -0.212 OA 
BRANCH   3   4
HETATM    4  C   UNL     1      -9.646  14.055  67.828  1.00  0.00    -0.216 C  
HETATM    5  C   UNL     1      -9.563  14.599  66.437  1.00  0.00    -0.323 C  
HETATM    6  O   UNL     1      -9.646  12.867  68.113  1.00  0.00    -0.214 OA 
ENDBRANCH   3   4
ENDBRANCH   2   3
BRANCH   2   7
HETATM    7  C   UNL     1     -10.530  17.299  69.312  1.00  0.00    -0.220 C  
BRANCH   7   8
HETATM    8  N   UNL     1      -9.776  18.375  68.479  1.00  0.00    -0.345 N  
HETATM    9  C   UNL     1     -10.292  18.281  67.039  1.00  0.00    -0.389 C  
HETATM   10  C   UNL     1     -10.048  19.787  68.979  1.00  0.00    -0.334 C  
HETATM   11  C   UNL     1      -8.274  18.120  68.472  1.00  0.00    -0.307 C  
ENDBRANCH   7   8
ENDBRANCH   2   7
TORSDOF 4
ENDMDL
MODEL      110
REMARK 921   NORMALIZED FREE ENERGY PREDICTED BY IDOCK:   -2.46 KCAL/MOL
REMARK 922        TOTAL FREE ENERGY PREDICTED BY IDOCK:   -3.44 KCAL/MOL
REMARK 923 INTER-LIGAND FREE ENERGY PREDICTED BY IDOCK:   -3.07 KCAL/MOL
REMARK 924 INTRA-LIGAND FREE ENERGY PREDICTED BY IDOCK:   -0.37 KCAL/MOL
REMARK 927      BINDING AFFINITY PREDICTED BY RF-SCORE:    0.00 PKD
ROOT
HETATM    1  C   UNL     1      -8.045  11.289  66.359  1.00  0.00    -0.138 C  
HETATM    2  C   UNL     1      -9.456  11.505  66.904  1.00  0.00    -0.182 C  
ENDROOT
BRANCH   2   3
HETATM    3  O   UNL     1      -9.874  12.833  66.524  1.00  0.00    -0.245 OA 
BRANCH   3   4
HETATM    4  C   UNL     1     -11.067  12.901  65.857  1.00  0.00    -0.283 C  
HETATM    5  C   UNL     1     -10.960  13.807  64.671  1.00  0.00    -0.406 C  
HETATM    6  O   UNL     1     -12.078  12.299  66.186  1.00  0.00    -0.625 OA 
ENDBRANCH   3   4
ENDBRANCH   2   3
BRANCH   2   7
HETATM    7  C   UNL     1      -9.426  11.397  68.446  1.00  0.00    -0.194 C  
BRANCH   7   8
HETATM    8  N   UNL     1     -10.443  10.401  69.073  1.00  0.00    -0.205 N  
HETATM    9  C   UNL     1     -10.766   9.348  68.008  1.00  0.00    -0.190 C  
HETATM   10  C   UNL     1      -9.871   9.678  70.285  1.00  0.00    -0.266 C  
HETATM   11  C   UNL     1     -11.737  11.103  69.466  1.00  0.00    -0.335 C  
ENDBRANCH   7   8
ENDBRANCH   2   7
TORSDOF 4
ENDMDL
MODEL      111
REMARK 921   NORMALIZED FREE ENERGY PREDICTED BY IDOCK:   -2.45 KCAL/MOL
REMARK 922        TOTAL FREE ENERGY PREDICTED BY IDOCK:   -3.43 KCAL/MOL
REMARK 923 INTER-LIGAND FREE ENERGY PREDICTED BY IDOCK:   -3.15 KCAL/MOL
REMARK 924 INTRA-LIGAND FREE ENERGY PREDICTED BY IDOCK:   -0.28 KCAL/MOL
REMARK 927      BINDING AFFINITY PREDICTED BY RF-SCORE:    0.00 PKD
ROOT
HETATM    1  C   UNL     1      -7.911  19.951  67.825  1.00  0.00    -0.326 C  
HETATM    2  C   UNL     1      -7.967  18.622  67.071  1.00  0.00    -0.246 C  
ENDROOT
BRANCH   2   3
HETATM    3  O   UNL     1      -7.722  18.898  65.677  1.00  0.00    -0.478 OA 
BRANCH   3   4
HETATM    4  C   UNL     1      -6.420  18.775  65.276  1.00  0.00    -0.255 C  
HETATM    5  C   UNL     1      -6.018  19.930  64.414  1.00  0.00    -0.308 C  
HETATM    6  O   UNL     1      -5.685  17.849  65.587  1.00  0.00    -0.184 OA 
ENDBRANCH   3   4
ENDBRANCH   2   3
BRANCH   2   7
HETATM    7  C   UNL     1      -9.375  18.005  67.234  1.00  0.00    -0.256 C  
BRANCH   7   8
HETATM    8  N   UNL     1      -9.417  16.465  67.447  1.00  0.00    -0.226 N  
HETATM    9  C   UNL     1     -10.874  16.085  67.734  1.00  0.00    -0.324 C  
HETATM   10  C   UNL     1      -8.972  15.698  66.209  1.00  0.00    -0.342 C  
HETATM   11  C   UNL     1      -8.564  16.045  68.637  1.00  0.00    -0.206 C  
ENDBRANCH   7   8
ENDBRANCH   2   7
TORSDOF 4
ENDMDL
MODEL      112
REMARK 921   NORMALIZED FREE ENERGY PREDICTED BY IDOCK:   -2.42 KCAL/MOL
REMARK 922        TOTAL FREE ENERGY PREDICTED BY IDOCK:   -3.39 KCAL/MOL
REMARK 923 INTER-LIGAND FREE ENERGY PREDICTED BY IDOCK:   -3.12 KCAL/MOL
REMARK 924 INTRA-LIGAND FREE ENERGY PREDICTED BY IDOCK:   -0.27 KCAL/MOL
REMARK 927      BINDING AFFINITY PREDICTED BY RF-SCORE:    0.00 PKD
ROOT
HETATM    1  C   UNL     1      -8.733   9.880  69.572  1.00  0.00    -0.200 C  
HETATM    2  C   UNL     1     -10.123   9.245  69.524  1.00  0.00    -0.198 C  
ENDROOT
BRANCH   2   3
HETATM    3  O   UNL     1     -10.801   9.763  68.360  1.00  0.00    -0.233 OA 
BRANCH   3   4
HETATM    4  C   UNL     1     -10.585   9.069  67.201  1.00  0.00    -0.220 C  
HETATM    5  C   UNL     1     -10.021   9.963  66.144  1.00  0.00    -0.331 C  
HETATM    6  O   UNL     1     -10.818   7.878  67.055  1.00  0.00    -0.305 OA 
ENDBRANCH   3   4
ENDBRANCH   2   3
BRANCH   2   7
HETATM    7  C   UNL     1     -10.906   9.644  70.795  1.00  0.00    -0.330 C  
BRANCH   7   8
HETATM    8  N   UNL     1     -11.437   8.464  71.659  1.00  0.00    -0.270 N  
HETATM    9  C   UNL     1     -12.767   8.913  72.274  1.00  0.00    -0.397 C  
HETATM   10  C   UNL     1     -11.705   7.216  70.829  1.00  0.00    -0.323 C  
HETATM   11  C   UNL     1     -10.472   8.125  72.788  1.00  0.00    -0.315 C  
ENDBRANCH   7   8
ENDBRANCH   2   7
TORSDOF 4
ENDMDL
MODEL      113
REMARK 921   NORMALIZED FREE ENERGY PREDICTED BY IDOCK:   -2.41 KCAL/MOL
REMARK 922        TOTAL FREE ENERGY PREDICTED BY IDOCK:   -3.38 KCAL/MOL
REMARK 923 INTER-LIGAND FREE ENERGY PREDICTED BY IDOCK:   -3.10 KCAL/MOL
REMARK 924 INTRA-LIGAND FREE ENERGY PREDICTED BY IDOCK:   -0.28 KCAL/MOL
REMARK 927      BINDING AFFINITY PREDICTED BY RF-SCORE:    0.00 PKD
ROOT
HETATM    1  C   UNL     1     -12.037  10.309  70.941  1.00  0.00    -0.468 C  
HETATM    2  C   UNL     1     -11.193   9.205  70.304  1.00  0.00    -0.218 C  
ENDROOT
BRANCH   2   3
HETATM    3  O   UNL     1     -11.066   8.139  71.268  1.00  0.00    -0.239 OA 
BRANCH   3   4
HETATM    4  C   UNL     1     -11.818   7.025  71.010  1.00  0.00    -0.351 C  
HETATM    5  C   UNL     1     -11.207   6.216  69.910  1.00  0.00    -0.484 C  
HETATM    6  O   UNL     1     -12.846   6.732  71.602  1.00  0.00    -0.358 OA 
ENDBRANCH   3   4
ENDBRANCH   2   3
BRANCH   2   7
HETATM    7  C   UNL     1      -9.792   9.767  69.971  1.00  0.00    -0.251 C  
BRANCH   7   8
HETATM    8  N   UNL     1      -9.570  10.191  68.491  1.00  0.00    -0.150 N  
HETATM    9  C   UNL     1      -9.721  11.716  68.427  1.00  0.00    -0.199 C  
HETATM   10  C   UNL     1      -8.174   9.841  67.994  1.00  0.00    -0.109 C  
HETATM   11  C   UNL     1     -10.608   9.564  67.571  1.00  0.00    -0.275 C  
ENDBRANCH   7   8
ENDBRANCH   2   7
TORSDOF 4
ENDMDL
MODEL      114
REMARK 921   NORMALIZED FREE ENERGY PREDICTED BY IDOCK:   -2.41 KCAL/MOL
REMARK 922        TOTAL FREE ENERGY PREDICTED BY IDOCK:   -3.38 KCAL/MOL
REMARK 923 INTER-LIGAND FREE ENERGY PREDICTED BY IDOCK:   -3.12 KCAL/MOL
REMARK 924 INTRA-LIGAND FREE ENERGY PREDICTED BY IDOCK:   -0.25 KCAL/MOL
REMARK 927      BINDING AFFINITY PREDICTED BY RF-SCORE:    0.00 PKD
ROOT
HETATM    1  C   UNL     1      -8.859  10.477  68.994  1.00  0.00    -0.174 C  
HETATM    2  C   UNL     1     -10.044   9.517  69.106  1.00  0.00    -0.195 C  
ENDROOT
BRANCH   2   3
HETATM    3  O   UNL     1     -10.933  10.033  70.117  1.00  0.00    -0.265 OA 
BRANCH   3   4
HETATM    4  C   UNL     1     -11.853  10.945  69.676  1.00  0.00    -0.344 C  
HETATM    5  C   UNL     1     -12.249  11.875  70.778  1.00  0.00    -0.401 C  
HETATM    6  O   UNL     1     -12.286  10.993  68.534  1.00  0.00    -0.582 OA 
ENDBRANCH   3   4
ENDBRANCH   2   3
BRANCH   2   7
HETATM    7  C   UNL     1      -9.528   8.125  69.536  1.00  0.00    -0.156 C  
BRANCH   7   8
HETATM    8  N   UNL     1     -10.095   6.917  68.736  1.00  0.00    -0.161 N  
HETATM    9  C   UNL     1      -8.980   5.869  68.643  1.00  0.00    -0.116 C  
HETATM   10  C   UNL     1     -11.285   6.271  69.431  1.00  0.00    -0.420 C  
HETATM   11  C   UNL     1     -10.492   7.325  67.323  1.00  0.00    -0.310 C  
ENDBRANCH   7   8
ENDBRANCH   2   7
TORSDOF 4
ENDMDL
MODEL      115
REMARK 921   NORMALIZED FREE ENERGY PREDICTED BY IDOCK:   -2.39 KCAL/MOL
REMARK 922        TOTAL FREE ENERGY PREDICTED BY IDOCK:   -3.35 KCAL/MOL
REMARK 923 INTER-LIGAND FREE ENERGY PREDICTED BY IDOCK:   -2.98 KCAL/MOL
REMARK 924 INTRA-LIGAND FREE ENERGY PREDICTED BY IDOCK:   -0.37 KCAL/MOL
REMARK 927      BINDING AFFINITY PREDICTED BY RF-SCORE:    0.00 PKD
ROOT
HETATM    1  C   UNL     1     -10.798  15.465  66.621  1.00  0.00    -0.302 C  
HETATM    2  C   UNL     1      -9.623  16.306  67.121  1.00  0.00    -0.233 C  
ENDROOT
BRANCH   2   3
HETATM    3  O   UNL     1      -8.924  15.533  68.117  1.00  0.00    -0.175 OA 
BRANCH   3   4
HETATM    4  C   UNL     1      -7.559  15.615  68.068  1.00  0.00    -0.124 C  
HETATM    5  C   UNL     1      -7.019  16.247  69.311  1.00  0.00    -0.217 C  
HETATM    6  O   UNL     1      -6.876  15.218  67.135  1.00  0.00    -0.254 OA 
ENDBRANCH   3   4
ENDBRANCH   2   3
BRANCH   2   7
HETATM    7  C   UNL     1     -10.166  17.603  67.763  1.00  0.00    -0.354 C  
BRANCH   7   8
HETATM    8  N   UNL     1      -9.481  18.922  67.305  1.00  0.00    -0.297 N  
HETATM    9  C   UNL     1      -8.831  19.551  68.543  1.00  0.00    -0.342 C  
HETATM   10  C   UNL     1      -8.384  18.676  66.278  1.00  0.00    -0.230 C  
HETATM   11  C   UNL     1     -10.495  19.907  66.739  1.00  0.00    -0.451 C  
ENDBRANCH   7   8
ENDBRANCH   2   7
TORSDOF 4
ENDMDL
MODEL      116
REMARK 921   NORMALIZED FREE ENERGY PREDICTED BY IDOCK:   -2.39 KCAL/MOL
REMARK 922        TOTAL FREE ENERGY PREDICTED BY IDOCK:   -3.35 KCAL/MOL
REMARK 923 INTER-LIGAND FREE ENERGY PREDICTED BY IDOCK:   -3.07 KCAL/MOL
REMARK 924 INTRA-LIGAND FREE ENERGY PREDICTED BY IDOCK:   -0.29 KCAL/MOL
REMARK 927      BINDING AFFINITY PREDICTED BY RF-SCORE:    0.00 PKD
ROOT
HETATM    1  C   UNL     1     -10.988   6.023  68.797  1.00  0.00    -0.384 C  
HETATM    2  C   UNL     1     -10.833   6.176  70.310  1.00  0.00    -0.319 C  
ENDROOT
BRANCH   2   3
HETATM    3  O   UNL     1     -10.784   4.852  70.881  1.00  0.00    -0.085 OA 
BRANCH   3   4
HETATM    4  C   UNL     1      -9.690   4.592  71.660  1.00  0.00    -0.175 C  
HETATM    5  C   UNL     1      -9.995   3.527  72.666  1.00  0.00    -0.225 C  
HETATM    6  O   UNL     1      -8.610   5.151  71.543  1.00  0.00    -0.125 OA 
ENDBRANCH   3   4
ENDBRANCH   2   3
BRANCH   2   7
HETATM    7  C   UNL     1     -12.058   6.934  70.871  1.00  0.00    -0.373 C  
BRANCH   7   8
HETATM    8  N   UNL     1     -11.739   8.186  71.737  1.00  0.00    -0.279 N  
HETATM    9  C   UNL     1     -13.073   8.732  72.256  1.00  0.00    -0.409 C  
HETATM   10  C   UNL     1     -10.873   7.848  72.943  1.00  0.00    -0.386 C  
HETATM   11  C   UNL     1     -11.059   9.272  70.914  1.00  0.00    -0.306 C  
ENDBRANCH   7   8
ENDBRANCH   2   7
TORSDOF 4
ENDMDL
MODEL      117
REMARK 921   NORMALIZED FREE ENERGY PREDICTED BY IDOCK:   -2.39 KCAL/MOL
REMARK 922        TOTAL FREE ENERGY PREDICTED BY IDOCK:   -3.35 KCAL/MOL
REMARK 923 INTER-LIGAND FREE ENERGY PREDICTED BY IDOCK:   -3.05 KCAL/MOL
REMARK 924 INTRA-LIGAND FREE ENERGY PREDICTED BY IDOCK:   -0.30 KCAL/MOL
REMARK 927      BINDING AFFINITY PREDICTED BY RF-SCORE:    0.00 PKD
ROOT
HETATM    1  C   UNL     1     -10.409  17.462  69.019  1.00  0.00    -0.319 C  
HETATM    2  C   UNL     1     -10.263  15.964  69.286  1.00  0.00    -0.250 C  
ENDROOT
BRANCH   2   3
HETATM    3  O   UNL     1     -10.902  15.679  70.547  1.00  0.00    -0.318 OA 
BRANCH   3   4
HETATM    4  C   UNL     1     -12.187  15.217  70.460  1.00  0.00    -0.371 C  
HETATM    5  C   UNL     1     -12.247  13.963  69.647  1.00  0.00    -0.374 C  
HETATM    6  O   UNL     1     -13.152  15.756  70.981  1.00  0.00    -0.505 OA 
ENDBRANCH   3   4
ENDBRANCH   2   3
BRANCH   2   7
HETATM    7  C   UNL     1      -8.761  15.610  69.379  1.00  0.00    -0.249 C  
BRANCH   7   8
HETATM    8  N   UNL     1      -8.187  14.785  68.192  1.00  0.00    -0.135 N  
HETATM    9  C   UNL     1      -9.359  14.443  67.265  1.00  0.00    -0.208 C  
HETATM   10  C   UNL     1      -7.167  15.574  67.381  1.00  0.00    -0.209 C  
HETATM   11  C   UNL     1      -7.556  13.485  68.673  1.00  0.00    -0.108 C  
ENDBRANCH   7   8
ENDBRANCH   2   7
TORSDOF 4
ENDMDL
MODEL      118
REMARK 921   NORMALIZED FREE ENERGY PREDICTED BY IDOCK:   -2.38 KCAL/MOL
REMARK 922        TOTAL FREE ENERGY PREDICTED BY IDOCK:   -3.34 KCAL/MOL
REMARK 923 INTER-LIGAND FREE ENERGY PREDICTED BY IDOCK:   -2.96 KCAL/MOL
REMARK 924 INTRA-LIGAND FREE ENERGY PREDICTED BY IDOCK:   -0.38 KCAL/MOL
REMARK 927      BINDING AFFINITY PREDICTED BY RF-SCORE:    0.00 PKD
ROOT
HETATM    1  C   UNL     1     -11.908  10.834  69.342  1.00  0.00    -0.370 C  
HETATM    2  C   UNL     1     -11.042  11.375  68.204  1.00  0.00    -0.248 C  
ENDROOT
BRANCH   2   3
HETATM    3  O   UNL     1      -9.874  10.534  68.104  1.00  0.00    -0.149 OA 
BRANCH   3   4
HETATM    4  C   UNL     1      -9.921   9.583  67.122  1.00  0.00    -0.204 C  
HETATM    5  C   UNL     1     -10.127  10.213  65.782  1.00  0.00    -0.324 C  
HETATM    6  O   UNL     1      -9.805   8.382  67.317  1.00  0.00    -0.170 OA 
ENDBRANCH   3   4
ENDBRANCH   2   3
BRANCH   2   7
HETATM    7  C   UNL     1     -10.609  12.820  68.540  1.00  0.00    -0.252 C  
BRANCH   7   8
HETATM    8  N   UNL     1     -10.771  13.858  67.393  1.00  0.00    -0.270 N  
HETATM    9  C   UNL     1     -12.021  13.466  66.597  1.00  0.00    -0.399 C  
HETATM   10  C   UNL     1     -10.978  15.272  67.918  1.00  0.00    -0.306 C  
HETATM   11  C   UNL     1      -9.573  13.837  66.453  1.00  0.00    -0.272 C  
ENDBRANCH   7   8
ENDBRANCH   2   7
TORSDOF 4
ENDMDL
MODEL      119
REMARK 921   NORMALIZED FREE ENERGY PREDICTED BY IDOCK:   -2.35 KCAL/MOL
REMARK 922        TOTAL FREE ENERGY PREDICTED BY IDOCK:   -3.30 KCAL/MOL
REMARK 923 INTER-LIGAND FREE ENERGY PREDICTED BY IDOCK:   -2.96 KCAL/MOL
REMARK 924 INTRA-LIGAND FREE ENERGY PREDICTED BY IDOCK:   -0.34 KCAL/MOL
REMARK 927      BINDING AFFINITY PREDICTED BY RF-SCORE:    0.00 PKD
ROOT
HETATM    1  C   UNL     1     -10.391   5.202  70.148  1.00  0.00    -0.340 C  
HETATM    2  C   UNL     1     -10.828   6.667  70.131  1.00  0.00    -0.279 C  
ENDROOT
BRANCH   2   3
HETATM    3  O   UNL     1     -12.145   6.739  70.714  1.00  0.00    -0.387 OA 
BRANCH   3   4
HETATM    4  C   UNL     1     -12.375   7.830  71.507  1.00  0.00    -0.320 C  
HETATM    5  C   UNL     1     -11.226   8.061  72.436  1.00  0.00    -0.432 C  
HETATM    6  O   UNL     1     -13.381   8.521  71.457  1.00  0.00    -0.331 OA 
ENDBRANCH   3   4
ENDBRANCH   2   3
BRANCH   2   7
HETATM    7  C   UNL     1     -10.885   7.161  68.667  1.00  0.00    -0.108 C  
BRANCH   7   8
HETATM    8  N   UNL     1     -10.032   8.421  68.346  1.00  0.00    -0.181 N  
HETATM    9  C   UNL     1      -8.664   8.226  69.008  1.00  0.00    -0.143 C  
HETATM   10  C   UNL     1      -9.804   8.598  66.851  1.00  0.00    -0.238 C  
HETATM   11  C   UNL     1     -10.669   9.683  68.914  1.00  0.00    -0.206 C  
ENDBRANCH   7   8
ENDBRANCH   2   7
TORSDOF 4
ENDMDL
MODEL      120
REMARK 921   NORMALIZED FREE ENERGY PREDICTED BY IDOCK:   -2.34 KCAL/MOL
REMARK 922        TOTAL FREE ENERGY PREDICTED BY IDOCK:   -3.29 KCAL/MOL
REMARK 923 INTER-LIGAND FREE ENERGY PREDICTED BY IDOCK:   -2.97 KCAL/MOL
REMARK 924 INTRA-LIGAND FREE ENERGY PREDICTED BY IDOCK:   -0.32 KCAL/MOL
REMARK 927      BINDING AFFINITY PREDICTED BY RF-SCORE:    0.00 PKD
ROOT
HETATM    1  C   UNL     1      -6.559  19.866  69.765  1.00  0.00    -0.353 C  
HETATM    2  C   UNL     1      -6.879  18.944  68.588  1.00  0.00    -0.276 C  
ENDROOT
BRANCH   2   3
HETATM    3  O   UNL     1      -5.650  18.709  67.870  1.00  0.00    -0.173 OA 
BRANCH   3   4
HETATM    4  C   UNL     1      -5.678  17.658  66.993  1.00  0.00    -0.145 C  
HETATM    5  C   UNL     1      -5.261  18.097  65.625  1.00  0.00    -0.221 C  
HETATM    6  O   UNL     1      -5.996  16.517  67.293  1.00  0.00    -0.144 OA 
ENDBRANCH   3   4
ENDBRANCH   2   3
BRANCH   2   7
HETATM    7  C   UNL     1      -7.894  19.645  67.657  1.00  0.00    -0.282 C  
BRANCH   7   8
HETATM    8  N   UNL     1      -9.332  19.054  67.659  1.00  0.00    -0.294 N  
HETATM    9  C   UNL     1      -9.227  17.602  68.140  1.00  0.00    -0.282 C  
HETATM   10  C   UNL     1     -10.260  19.795  68.612  1.00  0.00    -0.405 C  
HETATM   11  C   UNL     1      -9.935  19.056  66.260  1.00  0.00    -0.398 C  
ENDBRANCH   7   8
ENDBRANCH   2   7
TORSDOF 4
ENDMDL
MODEL      121
REMARK 921   NORMALIZED FREE ENERGY PREDICTED BY IDOCK:   -2.34 KCAL/MOL
REMARK 922        TOTAL FREE ENERGY PREDICTED BY IDOCK:   -3.29 KCAL/MOL
REMARK 923 INTER-LIGAND FREE ENERGY PREDICTED BY IDOCK:   -2.99 KCAL/MOL
REMARK 924 INTRA-LIGAND FREE ENERGY PREDICTED BY IDOCK:   -0.31 KCAL/MOL
REMARK 927      BINDING AFFINITY PREDICTED BY RF-SCORE:    0.00 PKD
ROOT
HETATM    1  C   UNL     1      -8.583  14.789  67.246  1.00  0.00    -0.230 C  
HETATM    2  C   UNL     1      -9.831  14.144  67.847  1.00  0.00    -0.224 C  
ENDROOT
BRANCH   2   3
HETATM    3  O   UNL     1     -10.008  14.682  69.174  1.00  0.00    -0.210 OA 
BRANCH   3   4
HETATM    4  C   UNL     1     -11.279  15.089  69.475  1.00  0.00    -0.276 C  
HETATM    5  C   UNL     1     -11.689  14.592  70.825  1.00  0.00    -0.325 C  
HETATM    6  O   UNL     1     -11.979  15.770  68.741  1.00  0.00    -0.374 OA 
ENDBRANCH   3   4
ENDBRANCH   2   3
BRANCH   2   7
HETATM    7  C   UNL     1      -9.619  12.615  67.936  1.00  0.00    -0.211 C  
BRANCH   7   8
HETATM    8  N   UNL     1     -10.467  11.758  66.954  1.00  0.00    -0.216 N  
HETATM    9  C   UNL     1     -11.610  12.644  66.445  1.00  0.00    -0.384 C  
HETATM   10  C   UNL     1      -9.663  11.296  65.747  1.00  0.00    -0.227 C  
HETATM   11  C   UNL     1     -11.070  10.546  67.654  1.00  0.00    -0.309 C  
ENDBRANCH   7   8
ENDBRANCH   2   7
TORSDOF 4
ENDMDL
MODEL      122
REMARK 921   NORMALIZED FREE ENERGY PREDICTED BY IDOCK:   -2.34 KCAL/MOL
REMARK 922        TOTAL FREE ENERGY PREDICTED BY IDOCK:   -3.29 KCAL/MOL
REMARK 923 INTER-LIGAND FREE ENERGY PREDICTED BY IDOCK:   -2.92 KCAL/MOL
REMARK 924 INTRA-LIGAND FREE ENERGY PREDICTED BY IDOCK:   -0.37 KCAL/MOL
REMARK 927      BINDING AFFINITY PREDICTED BY RF-SCORE:    0.00 PKD
ROOT
HETATM    1  C   UNL     1     -10.887   5.216  73.475  1.00  0.00    -0.360 C  
HETATM    2  C   UNL     1     -10.285   6.481  72.861  1.00  0.00    -0.193 C  
ENDROOT
BRANCH   2   3
HETATM    3  O   UNL     1      -9.119   6.831  73.634  1.00  0.00    -0.132 OA 
BRANCH   3   4
HETATM    4  C   UNL     1      -8.257   7.704  73.029  1.00  0.00    -0.127 C  
HETATM    5  C   UNL     1      -7.892   7.226  71.659  1.00  0.00    -0.091 C  
HETATM    6  O   UNL     1      -7.847   8.736  73.539  1.00  0.00    -0.408 OA 
ENDBRANCH   3   4
ENDBRANCH   2   3
BRANCH   2   7
HETATM    7  C   UNL     1     -11.320   7.626  72.944  1.00  0.00    -0.341 C  
BRANCH   7   8
HETATM    8  N   UNL     1     -11.832   8.174  71.581  1.00  0.00    -0.278 N  
HETATM    9  C   UNL     1     -11.561   7.096  70.526  1.00  0.00    -0.290 C  
HETATM   10  C   UNL     1     -13.330   8.447  71.594  1.00  0.00    -0.338 C  
HETATM   11  C   UNL     1     -11.089   9.442  71.179  1.00  0.00    -0.362 C  
ENDBRANCH   7   8
ENDBRANCH   2   7
TORSDOF 4
ENDMDL
MODEL      123
REMARK 921   NORMALIZED FREE ENERGY PREDICTED BY IDOCK:   -2.32 KCAL/MOL
REMARK 922        TOTAL FREE ENERGY PREDICTED BY IDOCK:   -3.26 KCAL/MOL
REMARK 923 INTER-LIGAND FREE ENERGY PREDICTED BY IDOCK:   -2.96 KCAL/MOL
REMARK 924 INTRA-LIGAND FREE ENERGY PREDICTED BY IDOCK:   -0.31 KCAL/MOL
REMARK 927      BINDING AFFINITY PREDICTED BY RF-SCORE:    0.00 PKD
ROOT
HETATM    1  C   UNL     1     -10.011  14.644  66.355  1.00  0.00    -0.296 C  
HETATM    2  C   UNL     1      -9.855  13.125  66.273  1.00  0.00    -0.283 C  
ENDROOT
BRANCH   2   3
HETATM    3  O   UNL     1     -11.042  12.595  65.647  1.00  0.00    -0.279 OA 
BRANCH   3   4
HETATM    4  C   UNL     1     -10.966  12.437  64.290  1.00  0.00    -0.351 C  
HETATM    5  C   UNL     1     -12.329  12.477  63.674  1.00  0.00    -0.618 C  
HETATM    6  O   UNL     1      -9.925  12.289  63.669  1.00  0.00    -0.382 OA 
ENDBRANCH   3   4
ENDBRANCH   2   3
BRANCH   2   7
HETATM    7  C   UNL     1      -9.727  12.551  67.702  1.00  0.00    -0.196 C  
BRANCH   7   8
HETATM    8  N   UNL     1      -8.515  11.608  67.945  1.00  0.00    -0.141 N  
HETATM    9  C   UNL     1      -7.445  12.422  68.682  1.00  0.00    -0.095 C  
HETATM   10  C   UNL     1      -8.877  10.416  68.820  1.00  0.00    -0.157 C  
HETATM   11  C   UNL     1      -7.925  11.112  66.631  1.00  0.00    -0.159 C  
ENDBRANCH   7   8
ENDBRANCH   2   7
TORSDOF 4
ENDMDL
MODEL      124
REMARK 921   NORMALIZED FREE ENERGY PREDICTED BY IDOCK:   -2.30 KCAL/MOL
REMARK 922        TOTAL FREE ENERGY PREDICTED BY IDOCK:   -3.25 KCAL/MOL
REMARK 923 INTER-LIGAND FREE ENERGY PREDICTED BY IDOCK:   -2.87 KCAL/MOL
REMARK 924 INTRA-LIGAND FREE ENERGY PREDICTED BY IDOCK:   -0.38 KCAL/MOL
REMARK 927      BINDING AFFINITY PREDICTED BY RF-SCORE:    0.00 PKD
ROOT
HETATM    1  C   UNL     1      -8.484   7.946  74.126  1.00  0.00    -0.312 C  
HETATM    2  C   UNL     1      -9.578   7.508  73.151  1.00  0.00    -0.233 C  
ENDROOT
BRANCH   2   3
HETATM    3  O   UNL     1      -9.193   6.229  72.607  1.00  0.00    -0.143 OA 
BRANCH   3   4
HETATM    4  C   UNL     1     -10.133   5.240  72.718  1.00  0.00    -0.168 C  
HETATM    5  C   UNL     1      -9.820   4.105  71.795  1.00  0.00    -0.252 C  
HETATM    6  O   UNL     1     -11.092   5.280  73.473  1.00  0.00    -0.302 OA 
ENDBRANCH   3   4
ENDBRANCH   2   3
BRANCH   2   7
HETATM    7  C   UNL     1      -9.683   8.543  72.008  1.00  0.00    -0.307 C  
BRANCH   7   8
HETATM    8  N   UNL     1     -11.081   8.671  71.339  1.00  0.00    -0.255 N  
HETATM    9  C   UNL     1     -11.175  10.082  70.746  1.00  0.00    -0.352 C  
HETATM   10  C   UNL     1     -11.270   7.676  70.203  1.00  0.00    -0.180 C  
HETATM   11  C   UNL     1     -12.201   8.499  72.356  1.00  0.00    -0.366 C  
ENDBRANCH   7   8
ENDBRANCH   2   7
TORSDOF 4
ENDMDL
MODEL      125
REMARK 921   NORMALIZED FREE ENERGY PREDICTED BY IDOCK:   -2.30 KCAL/MOL
REMARK 922        TOTAL FREE ENERGY PREDICTED BY IDOCK:   -3.24 KCAL/MOL
REMARK 923 INTER-LIGAND FREE ENERGY PREDICTED BY IDOCK:   -3.00 KCAL/MOL
REMARK 924 INTRA-LIGAND FREE ENERGY PREDICTED BY IDOCK:   -0.24 KCAL/MOL
REMARK 927      BINDING AFFINITY PREDICTED BY RF-SCORE:    0.00 PKD
ROOT
HETATM    1  C   UNL     1     -10.104   9.501  66.015  1.00  0.00    -0.319 C  
HETATM    2  C   UNL     1      -9.636  10.422  64.888  1.00  0.00    -0.289 C  
ENDROOT
BRANCH   2   3
HETATM    3  O   UNL     1      -8.277  10.063  64.565  1.00  0.00    -0.150 OA 
BRANCH   3   4
HETATM    4  C   UNL     1      -7.981  10.036  63.229  1.00  0.00    -0.154 C  
HETATM    5  C   UNL     1      -9.177   9.626  62.429  1.00  0.00    -0.248 C  
HETATM    6  O   UNL     1      -6.888  10.314  62.758  1.00  0.00    -0.133 OA 
ENDBRANCH   3   4
ENDBRANCH   2   3
BRANCH   2   7
HETATM    7  C   UNL     1      -9.679  11.887  65.379  1.00  0.00    -0.207 C  
BRANCH   7   8
HETATM    8  N   UNL     1     -10.912  12.717  64.922  1.00  0.00    -0.283 N  
HETATM    9  C   UNL     1     -11.342  12.177  63.553  1.00  0.00    -0.453 C  
HETATM   10  C   UNL     1     -12.092  12.569  65.873  1.00  0.00    -0.352 C  
HETATM   11  C   UNL     1     -10.563  14.192  64.772  1.00  0.00    -0.418 C  
ENDBRANCH   7   8
ENDBRANCH   2   7
TORSDOF 4
ENDMDL
MODEL      126
REMARK 921   NORMALIZED FREE ENERGY PREDICTED BY IDOCK:   -2.29 KCAL/MOL
REMARK 922        TOTAL FREE ENERGY PREDICTED BY IDOCK:   -3.23 KCAL/MOL
REMARK 923 INTER-LIGAND FREE ENERGY PREDICTED BY IDOCK:   -3.07 KCAL/MOL
REMARK 924 INTRA-LIGAND FREE ENERGY PREDICTED BY IDOCK:   -0.16 KCAL/MOL
REMARK 927      BINDING AFFINITY PREDICTED BY RF-SCORE:    0.00 PKD
ROOT
HETATM    1  C   UNL     1      -6.634  18.690  68.945  1.00  0.00    -0.282 C  
HETATM    2  C   UNL     1      -7.788  17.779  68.527  1.00  0.00    -0.290 C  
ENDROOT
BRANCH   2   3
HETATM    3  O   UNL     1      -7.227  16.503  68.157  1.00  0.00    -0.145 OA 
BRANCH   3   4
HETATM    4  C   UNL     1      -8.035  15.422  68.382  1.00  0.00    -0.131 C  
HETATM    5  C   UNL     1      -8.054  14.516  67.191  1.00  0.00    -0.196 C  
HETATM    6  O   UNL     1      -8.652  15.224  69.418  1.00  0.00    -0.238 OA 
ENDBRANCH   3   4
ENDBRANCH   2   3
BRANCH   2   7
HETATM    7  C   UNL     1      -8.506  18.399  67.306  1.00  0.00    -0.254 C  
BRANCH   7   8
HETATM    8  N   UNL     1     -10.006  18.752  67.512  1.00  0.00    -0.323 N  
HETATM    9  C   UNL     1     -10.727  17.462  67.920  1.00  0.00    -0.351 C  
HETATM   10  C   UNL     1     -10.212  19.771  68.625  1.00  0.00    -0.405 C  
HETATM   11  C   UNL     1     -10.636  19.272  66.226  1.00  0.00    -0.454 C  
ENDBRANCH   7   8
ENDBRANCH   2   7
TORSDOF 4
ENDMDL
MODEL      127
REMARK 921   NORMALIZED FREE ENERGY PREDICTED BY IDOCK:   -2.29 KCAL/MOL
REMARK 922        TOTAL FREE ENERGY PREDICTED BY IDOCK:   -3.23 KCAL/MOL
REMARK 923 INTER-LIGAND FREE ENERGY PREDICTED BY IDOCK:   -2.94 KCAL/MOL
REMARK 924 INTRA-LIGAND FREE ENERGY PREDICTED BY IDOCK:   -0.28 KCAL/MOL
REMARK 927      BINDING AFFINITY PREDICTED BY RF-SCORE:    0.00 PKD
ROOT
HETATM    1  C   UNL     1     -12.112  11.115  69.706  1.00  0.00    -0.414 C  
HETATM    2  C   UNL     1     -11.362  11.992  68.703  1.00  0.00    -0.277 C  
ENDROOT
BRANCH   2   3
HETATM    3  O   UNL     1     -12.068  13.247  68.605  1.00  0.00    -0.337 OA 
BRANCH   3   4
HETATM    4  C   UNL     1     -11.291  14.366  68.733  1.00  0.00    -0.273 C  
HETATM    5  C   UNL     1     -10.913  14.906  67.390  1.00  0.00    -0.314 C  
HETATM    6  O   UNL     1     -10.958  14.857  69.801  1.00  0.00    -0.259 OA 
ENDBRANCH   3   4
ENDBRANCH   2   3
BRANCH   2   7
HETATM    7  C   UNL     1     -11.359  11.295  67.324  1.00  0.00    -0.255 C  
BRANCH   7   8
HETATM    8  N   UNL     1      -9.973  10.801  66.820  1.00  0.00    -0.199 N  
HETATM    9  C   UNL     1      -9.756  11.398  65.425  1.00  0.00    -0.230 C  
HETATM   10  C   UNL     1      -8.832  11.274  67.712  1.00  0.00    -0.141 C  
HETATM   11  C   UNL     1      -9.932   9.283  66.708  1.00  0.00    -0.245 C  
ENDBRANCH   7   8
ENDBRANCH   2   7
TORSDOF 4
ENDMDL
MODEL      128
REMARK 921   NORMALIZED FREE ENERGY PREDICTED BY IDOCK:   -2.28 KCAL/MOL
REMARK 922        TOTAL FREE ENERGY PREDICTED BY IDOCK:   -3.21 KCAL/MOL
REMARK 923 INTER-LIGAND FREE ENERGY PREDICTED BY IDOCK:   -2.90 KCAL/MOL
REMARK 924 INTRA-LIGAND FREE ENERGY PREDICTED BY IDOCK:   -0.32 KCAL/MOL
REMARK 927      BINDING AFFINITY PREDICTED BY RF-SCORE:    0.00 PKD
ROOT
HETATM    1  C   UNL     1      -9.398   6.631  69.600  1.00  0.00    -0.143 C  
HETATM    2  C   UNL     1     -10.540   7.589  69.943  1.00  0.00    -0.237 C  
ENDROOT
BRANCH   2   3
HETATM    3  O   UNL     1     -11.703   6.792  70.248  1.00  0.00    -0.363 OA 
BRANCH   3   4
HETATM    4  C   UNL     1     -12.423   7.201  71.337  1.00  0.00    -0.388 C  
HETATM    5  C   UNL     1     -11.517   7.512  72.486  1.00  0.00    -0.376 C  
HETATM    6  O   UNL     1     -13.640   7.303  71.362  1.00  0.00    -0.388 OA 
ENDBRANCH   3   4
ENDBRANCH   2   3
BRANCH   2   7
HETATM    7  C   UNL     1     -10.835   8.484  68.719  1.00  0.00     0.043 C  
BRANCH   7   8
HETATM    8  N   UNL     1     -10.645  10.012  68.938  1.00  0.00    -0.209 N  
HETATM    9  C   UNL     1     -11.113  10.717  67.659  1.00  0.00    -0.319 C  
HETATM   10  C   UNL     1     -11.484  10.539  70.094  1.00  0.00    -0.325 C  
HETATM   11  C   UNL     1      -9.181  10.361  69.173  1.00  0.00    -0.191 C  
ENDBRANCH   7   8
ENDBRANCH   2   7
TORSDOF 4
ENDMDL
MODEL      129
REMARK 921   NORMALIZED FREE ENERGY PREDICTED BY IDOCK:   -2.28 KCAL/MOL
REMARK 922        TOTAL FREE ENERGY PREDICTED BY IDOCK:   -3.21 KCAL/MOL
REMARK 923 INTER-LIGAND FREE ENERGY PREDICTED BY IDOCK:   -2.85 KCAL/MOL
REMARK 924 INTRA-LIGAND FREE ENERGY PREDICTED BY IDOCK:   -0.36 KCAL/MOL
REMARK 927      BINDING AFFINITY PREDICTED BY RF-SCORE:    0.00 PKD
ROOT
HETATM    1  C   UNL     1      -8.918  14.975  66.546  1.00  0.00    -0.310 C  
HETATM    2  C   UNL     1      -9.517  13.652  67.024  1.00  0.00    -0.252 C  
ENDROOT
BRANCH   2   3
HETATM    3  O   UNL     1     -10.757  13.949  67.698  1.00  0.00    -0.247 OA 
BRANCH   3   4
HETATM    4  C   UNL     1     -11.538  12.865  67.992  1.00  0.00    -0.342 C  
HETATM    5  C   UNL     1     -11.774  12.764  69.465  1.00  0.00    -0.383 C  
HETATM    6  O   UNL     1     -11.984  12.089  67.160  1.00  0.00    -0.601 OA 
ENDBRANCH   3   4
ENDBRANCH   2   3
BRANCH   2   7
HETATM    7  C   UNL     1      -8.539  12.984  68.018  1.00  0.00    -0.186 C  
BRANCH   7   8
HETATM    8  N   UNL     1      -8.133  11.520  67.685  1.00  0.00    -0.124 N  
HETATM    9  C   UNL     1      -8.688  10.628  68.802  1.00  0.00    -0.157 C  
HETATM   10  C   UNL     1      -8.727  11.041  66.368  1.00  0.00    -0.173 C  
HETATM   11  C   UNL     1      -6.619  11.360  67.646  1.00  0.00    -0.074 C  
ENDBRANCH   7   8
ENDBRANCH   2   7
TORSDOF 4
ENDMDL
MODEL      130
REMARK 921   NORMALIZED FREE ENERGY PREDICTED BY IDOCK:   -2.27 KCAL/MOL
REMARK 922        TOTAL FREE ENERGY PREDICTED BY IDOCK:   -3.21 KCAL/MOL
REMARK 923 INTER-LIGAND FREE ENERGY PREDICTED BY IDOCK:   -2.88 KCAL/MOL
REMARK 924 INTRA-LIGAND FREE ENERGY PREDICTED BY IDOCK:   -0.33 KCAL/MOL
REMARK 927      BINDING AFFINITY PREDICTED BY RF-SCORE:    0.00 PKD
ROOT
HETATM    1  C   UNL     1      -8.378   6.049  69.940  1.00  0.00    -0.123 C  
HETATM    2  C   UNL     1      -9.585   6.844  69.442  1.00  0.00    -0.147 C  
ENDROOT
BRANCH   2   3
HETATM    3  O   UNL     1      -9.291   7.293  68.103  1.00  0.00    -0.132 OA 
BRANCH   3   4
HETATM    4  C   UNL     1     -10.384   7.550  67.320  1.00  0.00    -0.296 C  
HETATM    5  C   UNL     1     -10.357   8.958  66.817  1.00  0.00    -0.317 C  
HETATM    6  O   UNL     1     -11.258   6.735  67.064  1.00  0.00    -0.393 OA 
ENDBRANCH   3   4
ENDBRANCH   2   3
BRANCH   2   7
HETATM    7  C   UNL     1      -9.800   8.069  70.360  1.00  0.00    -0.183 C  
BRANCH   7   8
HETATM    8  N   UNL     1     -11.109   8.062  71.199  1.00  0.00    -0.247 N  
HETATM    9  C   UNL     1     -11.860   9.361  70.882  1.00  0.00    -0.294 C  
HETATM   10  C   UNL     1     -12.021   6.898  70.838  1.00  0.00    -0.381 C  
HETATM   11  C   UNL     1     -10.811   8.029  72.692  1.00  0.00    -0.368 C  
ENDBRANCH   7   8
ENDBRANCH   2   7
TORSDOF 4
ENDMDL
MODEL      131
REMARK 921   NORMALIZED FREE ENERGY PREDICTED BY IDOCK:   -2.26 KCAL/MOL
REMARK 922        TOTAL FREE ENERGY PREDICTED BY IDOCK:   -3.19 KCAL/MOL
REMARK 923 INTER-LIGAND FREE ENERGY PREDICTED BY IDOCK:   -3.10 KCAL/MOL
REMARK 924 INTRA-LIGAND FREE ENERGY PREDICTED BY IDOCK:   -0.09 KCAL/MOL
REMARK 927      BINDING AFFINITY PREDICTED BY RF-SCORE:    0.00 PKD
ROOT
HETATM    1  C   UNL     1      -7.089  16.074  67.037  1.00  0.00    -0.233 C  
HETATM    2  C   UNL     1      -7.586  17.519  67.061  1.00  0.00    -0.207 C  
ENDROOT
BRANCH   2   3
HETATM    3  O   UNL     1      -8.744  17.600  66.204  1.00  0.00    -0.445 OA 
BRANCH   3   4
HETATM    4  C   UNL     1      -9.877  18.086  66.797  1.00  0.00    -0.335 C  
HETATM    5  C   UNL     1     -10.517  19.133  65.941  1.00  0.00    -0.500 C  
HETATM    6  O   UNL     1     -10.308  17.709  67.877  1.00  0.00    -0.337 OA 
ENDBRANCH   3   4
ENDBRANCH   2   3
BRANCH   2   7
HETATM    7  C   UNL     1      -6.476  18.446  66.515  1.00  0.00    -0.191 C  
BRANCH   7   8
HETATM    8  N   UNL     1      -6.332  19.821  67.229  1.00  0.00    -0.189 N  
HETATM    9  C   UNL     1      -6.116  20.878  66.140  1.00  0.00    -0.254 C  
HETATM   10  C   UNL     1      -7.584  20.202  68.007  1.00  0.00    -0.243 C  
HETATM   11  C   UNL     1      -5.129  19.837  68.163  1.00  0.00    -0.171 C  
ENDBRANCH   7   8
ENDBRANCH   2   7
TORSDOF 4
ENDMDL
MODEL      132
REMARK 921   NORMALIZED FREE ENERGY PREDICTED BY IDOCK:   -2.26 KCAL/MOL
REMARK 922        TOTAL FREE ENERGY PREDICTED BY IDOCK:   -3.19 KCAL/MOL
REMARK 923 INTER-LIGAND FREE ENERGY PREDICTED BY IDOCK:   -2.88 KCAL/MOL
REMARK 924 INTRA-LIGAND FREE ENERGY PREDICTED BY IDOCK:   -0.31 KCAL/MOL
REMARK 927      BINDING AFFINITY PREDICTED BY RF-SCORE:    0.00 PKD
ROOT
HETATM    1  C   UNL     1     -11.768  11.164  67.872  1.00  0.00    -0.260 C  
HETATM    2  C   UNL     1     -11.390  10.815  69.312  1.00  0.00    -0.286 C  
ENDROOT
BRANCH   2   3
HETATM    3  O   UNL     1     -11.833  11.897  70.156  1.00  0.00    -0.329 OA 
BRANCH   3   4
HETATM    4  C   UNL     1     -12.777  11.562  71.089  1.00  0.00    -0.356 C  
HETATM    5  C   UNL     1     -13.249  12.775  71.825  1.00  0.00    -0.471 C  
HETATM    6  O   UNL     1     -13.180  10.425  71.286  1.00  0.00    -0.374 OA 
ENDBRANCH   3   4
ENDBRANCH   2   3
BRANCH   2   7
HETATM    7  C   UNL     1      -9.854  10.678  69.413  1.00  0.00    -0.139 C  
BRANCH   7   8
HETATM    8  N   UNL     1      -9.317   9.234  69.624  1.00  0.00    -0.169 N  
HETATM    9  C   UNL     1     -10.331   8.494  70.505  1.00  0.00    -0.200 C  
HETATM   10  C   UNL     1      -9.191   8.467  68.314  1.00  0.00    -0.138 C  
HETATM   11  C   UNL     1      -7.971   9.241  70.338  1.00  0.00    -0.156 C  
ENDBRANCH   7   8
ENDBRANCH   2   7
TORSDOF 4
ENDMDL
MODEL      133
REMARK 921   NORMALIZED FREE ENERGY PREDICTED BY IDOCK:   -2.25 KCAL/MOL
REMARK 922        TOTAL FREE ENERGY PREDICTED BY IDOCK:   -3.17 KCAL/MOL
REMARK 923 INTER-LIGAND FREE ENERGY PREDICTED BY IDOCK:   -2.84 KCAL/MOL
REMARK 924 INTRA-LIGAND FREE ENERGY PREDICTED BY IDOCK:   -0.33 KCAL/MOL
REMARK 927      BINDING AFFINITY PREDICTED BY RF-SCORE:    0.00 PKD
ROOT
HETATM    1  C   UNL     1      -7.840   9.219  70.092  1.00  0.00    -0.129 C  
HETATM    2  C   UNL     1      -9.311   8.837  70.254  1.00  0.00    -0.174 C  
ENDROOT
BRANCH   2   3
HETATM    3  O   UNL     1     -10.103   9.857  69.612  1.00  0.00    -0.202 OA 
BRANCH   3   4
HETATM    4  C   UNL     1     -10.578   9.532  68.370  1.00  0.00    -0.219 C  
HETATM    5  C   UNL     1     -11.190  10.725  67.708  1.00  0.00    -0.385 C  
HETATM    6  O   UNL     1     -10.506   8.418  67.872  1.00  0.00    -0.219 OA 
ENDBRANCH   3   4
ENDBRANCH   2   3
BRANCH   2   7
HETATM    7  C   UNL     1      -9.658   8.788  71.760  1.00  0.00    -0.301 C  
BRANCH   7   8
HETATM    8  N   UNL     1     -10.728   7.737  72.172  1.00  0.00    -0.232 N  
HETATM    9  C   UNL     1     -10.683   6.609  71.134  1.00  0.00    -0.234 C  
HETATM   10  C   UNL     1     -10.440   7.125  73.537  1.00  0.00    -0.380 C  
HETATM   11  C   UNL     1     -12.127   8.339  72.171  1.00  0.00    -0.367 C  
ENDBRANCH   7   8
ENDBRANCH   2   7
TORSDOF 4
ENDMDL
MODEL      134
REMARK 921   NORMALIZED FREE ENERGY PREDICTED BY IDOCK:   -2.24 KCAL/MOL
REMARK 922        TOTAL FREE ENERGY PREDICTED BY IDOCK:   -3.17 KCAL/MOL
REMARK 923 INTER-LIGAND FREE ENERGY PREDICTED BY IDOCK:   -2.88 KCAL/MOL
REMARK 924 INTRA-LIGAND FREE ENERGY PREDICTED BY IDOCK:   -0.28 KCAL/MOL
REMARK 927      BINDING AFFINITY PREDICTED BY RF-SCORE:    0.00 PKD
ROOT
HETATM    1  C   UNL     1     -11.299   6.261  69.667  1.00  0.00    -0.492 C  
HETATM    2  C   UNL     1     -10.598   6.147  71.021  1.00  0.00    -0.246 C  
ENDROOT
BRANCH   2   3
HETATM    3  O   UNL     1      -9.567   7.155  71.067  1.00  0.00    -0.160 OA 
BRANCH   3   4
HETATM    4  C   UNL     1      -9.683   8.064  72.084  1.00  0.00    -0.221 C  
HETATM    5  C   UNL     1     -11.056   8.026  72.676  1.00  0.00    -0.453 C  
HETATM    6  O   UNL     1      -8.783   8.800  72.458  1.00  0.00    -0.406 OA 
ENDBRANCH   3   4
ENDBRANCH   2   3
BRANCH   2   7
HETATM    7  C   UNL     1      -9.955   4.747  71.143  1.00  0.00    -0.202 C  
BRANCH   7   8
HETATM    8  N   UNL     1      -9.932   4.136  72.573  1.00  0.00    -0.155 N  
HETATM    9  C   UNL     1      -9.826   2.615  72.417  1.00  0.00    -0.154 C  
HETATM   10  C   UNL     1      -8.731   4.606  73.383  1.00  0.00    -0.100 C  
HETATM   11  C   UNL     1     -11.212   4.456  73.334  1.00  0.00    -0.295 C  
ENDBRANCH   7   8
ENDBRANCH   2   7
TORSDOF 4
ENDMDL
MODEL      135
REMARK 921   NORMALIZED FREE ENERGY PREDICTED BY IDOCK:   -2.22 KCAL/MOL
REMARK 922        TOTAL FREE ENERGY PREDICTED BY IDOCK:   -3.15 KCAL/MOL
REMARK 923 INTER-LIGAND FREE ENERGY PREDICTED BY IDOCK:   -2.83 KCAL/MOL
REMARK 924 INTRA-LIGAND FREE ENERGY PREDICTED BY IDOCK:   -0.32 KCAL/MOL
REMARK 927      BINDING AFFINITY PREDICTED BY RF-SCORE:    0.00 PKD
ROOT
HETATM    1  C   UNL     1      -9.654   3.662  71.669  1.00  0.00    -0.226 C  
HETATM    2  C   UNL     1     -10.172   5.061  71.335  1.00  0.00    -0.200 C  
ENDROOT
BRANCH   2   3
HETATM    3  O   UNL     1     -10.509   5.080  69.932  1.00  0.00    -0.280 OA 
BRANCH   3   4
HETATM    4  C   UNL     1     -11.208   6.180  69.514  1.00  0.00    -0.411 C  
HETATM    5  C   UNL     1     -10.843   6.538  68.108  1.00  0.00    -0.370 C  
HETATM    6  O   UNL     1     -12.023   6.782  70.198  1.00  0.00    -0.328 OA 
ENDBRANCH   3   4
ENDBRANCH   2   3
BRANCH   2   7
HETATM    7  C   UNL     1      -9.057   6.094  71.611  1.00  0.00    -0.145 C  
BRANCH   7   8
HETATM    8  N   UNL     1      -9.278   7.013  72.846  1.00  0.00    -0.137 N  
HETATM    9  C   UNL     1      -9.253   8.462  72.347  1.00  0.00    -0.275 C  
HETATM   10  C   UNL     1     -10.627   6.773  73.511  1.00  0.00    -0.332 C  
HETATM   11  C   UNL     1      -8.168   6.838  73.874  1.00  0.00    -0.125 C  
ENDBRANCH   7   8
ENDBRANCH   2   7
TORSDOF 4
ENDMDL
MODEL      136
REMARK 921   NORMALIZED FREE ENERGY PREDICTED BY IDOCK:   -2.22 KCAL/MOL
REMARK 922        TOTAL FREE ENERGY PREDICTED BY IDOCK:   -3.14 KCAL/MOL
REMARK 923 INTER-LIGAND FREE ENERGY PREDICTED BY IDOCK:   -2.86 KCAL/MOL
REMARK 924 INTRA-LIGAND FREE ENERGY PREDICTED BY IDOCK:   -0.29 KCAL/MOL
REMARK 927      BINDING AFFINITY PREDICTED BY RF-SCORE:    0.00 PKD
ROOT
HETATM    1  C   UNL     1     -10.795  10.080  67.442  1.00  0.00    -0.313 C  
HETATM    2  C   UNL     1     -10.456  10.695  68.800  1.00  0.00    -0.194 C  
ENDROOT
BRANCH   2   3
HETATM    3  O   UNL     1      -9.623  11.848  68.564  1.00  0.00    -0.200 OA 
BRANCH   3   4
HETATM    4  C   UNL     1     -10.273  12.949  68.076  1.00  0.00    -0.229 C  
HETATM    5  C   UNL     1     -11.362  13.379  69.007  1.00  0.00    -0.335 C  
HETATM    6  O   UNL     1      -9.995  13.506  67.024  1.00  0.00    -0.238 OA 
ENDBRANCH   3   4
ENDBRANCH   2   3
BRANCH   2   7
HETATM    7  C   UNL     1      -9.677   9.661  69.644  1.00  0.00    -0.213 C  
BRANCH   7   8
HETATM    8  N   UNL     1     -10.509   8.898  70.714  1.00  0.00    -0.212 N  
HETATM    9  C   UNL     1     -11.707   9.782  71.076  1.00  0.00    -0.370 C  
HETATM   10  C   UNL     1     -11.049   7.574  70.190  1.00  0.00    -0.231 C  
HETATM   11  C   UNL     1      -9.694   8.648  71.977  1.00  0.00    -0.321 C  
ENDBRANCH   7   8
ENDBRANCH   2   7
TORSDOF 4
ENDMDL
MODEL      137
REMARK 921   NORMALIZED FREE ENERGY PREDICTED BY IDOCK:   -2.22 KCAL/MOL
REMARK 922        TOTAL FREE ENERGY PREDICTED BY IDOCK:   -3.14 KCAL/MOL
REMARK 923 INTER-LIGAND FREE ENERGY PREDICTED BY IDOCK:   -3.67 KCAL/MOL
REMARK 924 INTRA-LIGAND FREE ENERGY PREDICTED BY IDOCK:    0.52 KCAL/MOL
REMARK 927      BINDING AFFINITY PREDICTED BY RF-SCORE:    0.00 PKD
ROOT
HETATM    1  C   UNL     1     -10.777  13.200  68.537  1.00  0.00    -0.277 C  
HETATM    2  C   UNL     1     -11.587  12.295  67.608  1.00  0.00    -0.354 C  
ENDROOT
BRANCH   2   3
HETATM    3  O   UNL     1     -11.974  11.127  68.361  1.00  0.00    -0.561 OA 
BRANCH   3   4
HETATM    4  C   UNL     1     -11.076  10.095  68.339  1.00  0.00    -0.218 C  
HETATM    5  C   UNL     1     -10.442   9.914  69.682  1.00  0.00    -0.273 C  
HETATM    6  O   UNL     1     -10.833   9.411  67.356  1.00  0.00    -0.263 OA 
ENDBRANCH   3   4
ENDBRANCH   2   3
BRANCH   2   7
HETATM    7  C   UNL     1     -10.700  11.869  66.417  1.00  0.00    -0.266 C  
BRANCH   7   8
HETATM    8  N   UNL     1     -11.161  12.371  65.018  1.00  0.00    -0.295 N  
HETATM    9  C   UNL     1     -10.881  11.245  64.015  1.00  0.00    -0.344 C  
HETATM   10  C   UNL     1     -12.653  12.671  64.975  1.00  0.00    -0.430 C  
HETATM   11  C   UNL     1     -10.382  13.607  64.587  1.00  0.00    -0.384 C  
ENDBRANCH   7   8
ENDBRANCH   2   7
TORSDOF 4
ENDMDL
MODEL      138
REMARK 921   NORMALIZED FREE ENERGY PREDICTED BY IDOCK:   -2.21 KCAL/MOL
REMARK 922        TOTAL FREE ENERGY PREDICTED BY IDOCK:   -3.13 KCAL/MOL
REMARK 923 INTER-LIGAND FREE ENERGY PREDICTED BY IDOCK:   -3.64 KCAL/MOL
REMARK 924 INTRA-LIGAND FREE ENERGY PREDICTED BY IDOCK:    0.51 KCAL/MOL
REMARK 927      BINDING AFFINITY PREDICTED BY RF-SCORE:    0.00 PKD
ROOT
HETATM    1  C   UNL     1     -11.845  14.529  66.670  1.00  0.00    -0.383 C  
HETATM    2  C   UNL     1     -10.515  14.851  65.987  1.00  0.00    -0.316 C  
ENDROOT
BRANCH   2   3
HETATM    3  O   UNL     1     -10.603  14.397  64.621  1.00  0.00    -0.415 OA 
BRANCH   3   4
HETATM    4  C   UNL     1     -11.728  13.680  64.314  1.00  0.00    -0.403 C  
HETATM    5  C   UNL     1     -11.431  12.215  64.282  1.00  0.00    -0.437 C  
HETATM    6  O   UNL     1     -12.825  14.174  64.101  1.00  0.00    -0.574 OA 
ENDBRANCH   3   4
ENDBRANCH   2   3
BRANCH   2   7
HETATM    7  C   UNL     1      -9.379  14.092  66.709  1.00  0.00    -0.282 C  
BRANCH   7   8
HETATM    8  N   UNL     1      -8.320  14.982  67.422  1.00  0.00    -0.176 N  
HETATM    9  C   UNL     1      -8.127  16.237  66.564  1.00  0.00    -0.302 C  
HETATM   10  C   UNL     1      -8.777  15.428  68.804  1.00  0.00    -0.195 C  
HETATM   11  C   UNL     1      -6.981  14.265  67.538  1.00  0.00    -0.155 C  
ENDBRANCH   7   8
ENDBRANCH   2   7
TORSDOF 4
ENDMDL
MODEL      139
REMARK 921   NORMALIZED FREE ENERGY PREDICTED BY IDOCK:   -2.19 KCAL/MOL
REMARK 922        TOTAL FREE ENERGY PREDICTED BY IDOCK:   -3.10 KCAL/MOL
REMARK 923 INTER-LIGAND FREE ENERGY PREDICTED BY IDOCK:   -2.70 KCAL/MOL
REMARK 924 INTRA-LIGAND FREE ENERGY PREDICTED BY IDOCK:   -0.40 KCAL/MOL
REMARK 927      BINDING AFFINITY PREDICTED BY RF-SCORE:    0.00 PKD
ROOT
HETATM    1  C   UNL     1     -10.394   7.513  67.981  1.00  0.00    -0.254 C  
HETATM    2  C   UNL     1     -10.034   7.986  69.390  1.00  0.00    -0.190 C  
ENDROOT
BRANCH   2   3
HETATM    3  O   UNL     1      -8.615   7.797  69.567  1.00  0.00    -0.133 OA 
BRANCH   3   4
HETATM    4  C   UNL     1      -7.944   8.865  70.096  1.00  0.00    -0.111 C  
HETATM    5  C   UNL     1      -7.115   9.542  69.050  1.00  0.00    -0.066 C  
HETATM    6  O   UNL     1      -8.018   9.219  71.263  1.00  0.00    -0.322 OA 
ENDBRANCH   3   4
ENDBRANCH   2   3
BRANCH   2   7
HETATM    7  C   UNL     1     -10.800   7.130  70.423  1.00  0.00    -0.246 C  
BRANCH   7   8
HETATM    8  N   UNL     1     -11.573   7.922  71.516  1.00  0.00    -0.263 N  
HETATM    9  C   UNL     1     -10.885   7.638  72.856  1.00  0.00    -0.389 C  
HETATM   10  C   UNL     1     -11.530   9.425  71.279  1.00  0.00    -0.363 C  
HETATM   11  C   UNL     1     -13.023   7.465  71.612  1.00  0.00    -0.366 C  
ENDBRANCH   7   8
ENDBRANCH   2   7
TORSDOF 4
ENDMDL
MODEL      140
REMARK 921   NORMALIZED FREE ENERGY PREDICTED BY IDOCK:   -2.18 KCAL/MOL
REMARK 922        TOTAL FREE ENERGY PREDICTED BY IDOCK:   -3.09 KCAL/MOL
REMARK 923 INTER-LIGAND FREE ENERGY PREDICTED BY IDOCK:   -2.89 KCAL/MOL
REMARK 924 INTRA-LIGAND FREE ENERGY PREDICTED BY IDOCK:   -0.19 KCAL/MOL
REMARK 927      BINDING AFFINITY PREDICTED BY RF-SCORE:    0.00 PKD
ROOT
HETATM    1  C   UNL     1      -8.778  13.027  66.615  1.00  0.00    -0.030 C  
HETATM    2  C   UNL     1      -9.576  14.229  67.122  1.00  0.00    -0.245 C  
ENDROOT
BRANCH   2   3
HETATM    3  O   UNL     1      -8.663  15.339  67.248  1.00  0.00    -0.175 OA 
BRANCH   3   4
HETATM    4  C   UNL     1      -8.834  16.342  66.333  1.00  0.00    -0.311 C  
HETATM    5  C   UNL     1     -10.281  16.700  66.202  1.00  0.00    -0.360 C  
HETATM    6  O   UNL     1      -7.926  16.875  65.714  1.00  0.00    -0.374 OA 
ENDBRANCH   3   4
ENDBRANCH   2   3
BRANCH   2   7
HETATM    7  C   UNL     1     -10.172  13.893  68.508  1.00  0.00    -0.240 C  
BRANCH   7   8
HETATM    8  N   UNL     1     -11.690  13.553  68.526  1.00  0.00    -0.336 N  
HETATM    9  C   UNL     1     -12.283  14.046  67.201  1.00  0.00    -0.321 C  
HETATM   10  C   UNL     1     -11.945  12.055  68.622  1.00  0.00    -0.235 C  
HETATM   11  C   UNL     1     -12.404  14.263  69.669  1.00  0.00    -0.266 C  
ENDBRANCH   7   8
ENDBRANCH   2   7
TORSDOF 4
ENDMDL
MODEL      141
REMARK 921   NORMALIZED FREE ENERGY PREDICTED BY IDOCK:   -2.17 KCAL/MOL
REMARK 922        TOTAL FREE ENERGY PREDICTED BY IDOCK:   -3.08 KCAL/MOL
REMARK 923 INTER-LIGAND FREE ENERGY PREDICTED BY IDOCK:   -2.86 KCAL/MOL
REMARK 924 INTRA-LIGAND FREE ENERGY PREDICTED BY IDOCK:   -0.21 KCAL/MOL
REMARK 927      BINDING AFFINITY PREDICTED BY RF-SCORE:    0.00 PKD
ROOT
HETATM    1  C   UNL     1     -10.159   9.392  66.188  1.00  0.00    -0.324 C  
HETATM    2  C   UNL     1      -9.414  10.686  65.860  1.00  0.00    -0.196 C  
ENDROOT
BRANCH   2   3
HETATM    3  O   UNL     1      -8.244  10.744  66.701  1.00  0.00    -0.129 OA 
BRANCH   3   4
HETATM    4  C   UNL     1      -7.046  10.694  66.041  1.00  0.00    -0.127 C  
HETATM    5  C   UNL     1      -6.012  11.504  66.757  1.00  0.00    -0.139 C  
HETATM    6  O   UNL     1      -6.851  10.068  65.010  1.00  0.00    -0.120 OA 
ENDBRANCH   3   4
ENDBRANCH   2   3
BRANCH   2   7
HETATM    7  C   UNL     1     -10.331  11.891  66.169  1.00  0.00    -0.226 C  
BRANCH   7   8
HETATM    8  N   UNL     1     -10.887  12.652  64.932  1.00  0.00    -0.287 N  
HETATM    9  C   UNL     1     -12.417  12.587  65.007  1.00  0.00    -0.420 C  
HETATM   10  C   UNL     1     -10.483  14.120  64.928  1.00  0.00    -0.438 C  
HETATM   11  C   UNL     1     -10.438  11.999  63.631  1.00  0.00    -0.454 C  
ENDBRANCH   7   8
ENDBRANCH   2   7
TORSDOF 4
ENDMDL
MODEL      142
REMARK 921   NORMALIZED FREE ENERGY PREDICTED BY IDOCK:   -2.16 KCAL/MOL
REMARK 922        TOTAL FREE ENERGY PREDICTED BY IDOCK:   -3.07 KCAL/MOL
REMARK 923 INTER-LIGAND FREE ENERGY PREDICTED BY IDOCK:   -2.83 KCAL/MOL
REMARK 924 INTRA-LIGAND FREE ENERGY PREDICTED BY IDOCK:   -0.23 KCAL/MOL
REMARK 927      BINDING AFFINITY PREDICTED BY RF-SCORE:    0.00 PKD
ROOT
HETATM    1  C   UNL     1      -8.987   9.629  70.086  1.00  0.00    -0.273 C  
HETATM    2  C   UNL     1      -9.933   8.498  69.680  1.00  0.00    -0.192 C  
ENDROOT
BRANCH   2   3
HETATM    3  O   UNL     1     -10.239   7.736  70.866  1.00  0.00    -0.198 OA 
BRANCH   3   4
HETATM    4  C   UNL     1     -11.563   7.441  71.046  1.00  0.00    -0.288 C  
HETATM    5  C   UNL     1     -12.153   8.289  72.128  1.00  0.00    -0.425 C  
HETATM    6  O   UNL     1     -12.177   6.602  70.404  1.00  0.00    -0.332 OA 
ENDBRANCH   3   4
ENDBRANCH   2   3
BRANCH   2   7
HETATM    7  C   UNL     1      -9.222   7.588  68.653  1.00  0.00    -0.144 C  
BRANCH   7   8
HETATM    8  N   UNL     1      -9.848   7.560  67.229  1.00  0.00    -0.163 N  
HETATM    9  C   UNL     1     -10.518   8.920  66.999  1.00  0.00    -0.256 C  
HETATM   10  C   UNL     1      -8.800   7.367  66.141  1.00  0.00    -0.160 C  
HETATM   11  C   UNL     1     -10.909   6.473  67.110  1.00  0.00    -0.401 C  
ENDBRANCH   7   8
ENDBRANCH   2   7
TORSDOF 4
ENDMDL
MODEL      143
REMARK 921   NORMALIZED FREE ENERGY PREDICTED BY IDOCK:   -2.15 KCAL/MOL
REMARK 922        TOTAL FREE ENERGY PREDICTED BY IDOCK:   -3.05 KCAL/MOL
REMARK 923 INTER-LIGAND FREE ENERGY PREDICTED BY IDOCK:   -2.77 KCAL/MOL
REMARK 924 INTRA-LIGAND FREE ENERGY PREDICTED BY IDOCK:   -0.28 KCAL/MOL
REMARK 927      BINDING AFFINITY PREDICTED BY RF-SCORE:    0.00 PKD
ROOT
HETATM    1  C   UNL     1     -10.805   9.489  71.380  1.00  0.00    -0.382 C  
HETATM    2  C   UNL     1     -10.861  10.048  69.958  1.00  0.00    -0.302 C  
ENDROOT
BRANCH   2   3
HETATM    3  O   UNL     1     -12.130  10.716  69.800  1.00  0.00    -0.300 OA 
BRANCH   3   4
HETATM    4  C   UNL     1     -12.141  12.039  70.148  1.00  0.00    -0.298 C  
HETATM    5  C   UNL     1     -11.365  12.854  69.162  1.00  0.00    -0.329 C  
HETATM    6  O   UNL     1     -12.713  12.491  71.129  1.00  0.00    -0.354 OA 
ENDBRANCH   3   4
ENDBRANCH   2   3
BRANCH   2   7
HETATM    7  C   UNL     1     -10.765   8.880  68.951  1.00  0.00    -0.106 C  
BRANCH   7   8
HETATM    8  N   UNL     1      -9.599   8.967  67.925  1.00  0.00    -0.145 N  
HETATM    9  C   UNL     1     -10.045   8.217  66.664  1.00  0.00    -0.281 C  
HETATM   10  C   UNL     1      -9.287  10.403  67.527  1.00  0.00    -0.149 C  
HETATM   11  C   UNL     1      -8.337   8.303  68.461  1.00  0.00    -0.129 C  
ENDBRANCH   7   8
ENDBRANCH   2   7
TORSDOF 4
ENDMDL
MODEL      144
REMARK 921   NORMALIZED FREE ENERGY PREDICTED BY IDOCK:   -2.15 KCAL/MOL
REMARK 922        TOTAL FREE ENERGY PREDICTED BY IDOCK:   -3.05 KCAL/MOL
REMARK 923 INTER-LIGAND FREE ENERGY PREDICTED BY IDOCK:   -2.93 KCAL/MOL
REMARK 924 INTRA-LIGAND FREE ENERGY PREDICTED BY IDOCK:   -0.13 KCAL/MOL
REMARK 927      BINDING AFFINITY PREDICTED BY RF-SCORE:    0.00 PKD
ROOT
HETATM    1  C   UNL     1      -9.943   8.701  71.848  1.00  0.00    -0.392 C  
HETATM    2  C   UNL     1     -10.754   8.792  70.555  1.00  0.00    -0.223 C  
ENDROOT
BRANCH   2   3
HETATM    3  O   UNL     1     -12.118   9.094  70.913  1.00  0.00    -0.283 OA 
BRANCH   3   4
HETATM    4  C   UNL     1     -12.451  10.421  70.877  1.00  0.00    -0.381 C  
HETATM    5  C   UNL     1     -12.033  11.038  69.581  1.00  0.00    -0.424 C  
HETATM    6  O   UNL     1     -13.018  11.016  71.782  1.00  0.00    -0.455 OA 
ENDBRANCH   3   4
ENDBRANCH   2   3
BRANCH   2   7
HETATM    7  C   UNL     1     -10.704   7.428  69.829  1.00  0.00    -0.241 C  
BRANCH   7   8
HETATM    8  N   UNL     1      -9.477   7.203  68.899  1.00  0.00    -0.143 N  
HETATM    9  C   UNL     1      -9.163   8.544  68.226  1.00  0.00    -0.138 C  
HETATM   10  C   UNL     1      -8.239   6.768  69.671  1.00  0.00    -0.131 C  
HETATM   11  C   UNL     1      -9.784   6.178  67.814  1.00  0.00    -0.116 C  
ENDBRANCH   7   8
ENDBRANCH   2   7
TORSDOF 4
ENDMDL
MODEL      145
REMARK 921   NORMALIZED FREE ENERGY PREDICTED BY IDOCK:   -2.15 KCAL/MOL
REMARK 922        TOTAL FREE ENERGY PREDICTED BY IDOCK:   -3.05 KCAL/MOL
REMARK 923 INTER-LIGAND FREE ENERGY PREDICTED BY IDOCK:   -2.71 KCAL/MOL
REMARK 924 INTRA-LIGAND FREE ENERGY PREDICTED BY IDOCK:   -0.34 KCAL/MOL
REMARK 927      BINDING AFFINITY PREDICTED BY RF-SCORE:    0.00 PKD
ROOT
HETATM    1  C   UNL     1      -9.175   8.460  67.274  1.00  0.00    -0.165 C  
HETATM    2  C   UNL     1      -9.936   9.416  68.193  1.00  0.00    -0.175 C  
ENDROOT
BRANCH   2   3
HETATM    3  O   UNL     1     -10.672   8.617  69.143  1.00  0.00    -0.206 OA 
BRANCH   3   4
HETATM    4  C   UNL     1     -10.912   9.217  70.349  1.00  0.00    -0.248 C  
HETATM    5  C   UNL     1      -9.710   9.128  71.235  1.00  0.00    -0.351 C  
HETATM    6  O   UNL     1     -11.965   9.756  70.655  1.00  0.00    -0.277 OA 
ENDBRANCH   3   4
ENDBRANCH   2   3
BRANCH   2   7
HETATM    7  C   UNL     1     -10.925  10.251  67.349  1.00  0.00    -0.252 C  
BRANCH   7   8
HETATM    8  N   UNL     1     -10.542  11.745  67.143  1.00  0.00    -0.223 N  
HETATM    9  C   UNL     1      -9.812  12.207  68.409  1.00  0.00    -0.200 C  
HETATM   10  C   UNL     1      -9.599  11.942  65.964  1.00  0.00    -0.235 C  
HETATM   11  C   UNL     1     -11.779  12.614  66.954  1.00  0.00    -0.383 C  
ENDBRANCH   7   8
ENDBRANCH   2   7
TORSDOF 4
ENDMDL
MODEL      146
REMARK 921   NORMALIZED FREE ENERGY PREDICTED BY IDOCK:   -2.14 KCAL/MOL
REMARK 922        TOTAL FREE ENERGY PREDICTED BY IDOCK:   -3.04 KCAL/MOL
REMARK 923 INTER-LIGAND FREE ENERGY PREDICTED BY IDOCK:   -2.79 KCAL/MOL
REMARK 924 INTRA-LIGAND FREE ENERGY PREDICTED BY IDOCK:   -0.26 KCAL/MOL
REMARK 927      BINDING AFFINITY PREDICTED BY RF-SCORE:    0.00 PKD
ROOT
HETATM    1  C   UNL     1      -8.954   8.256  66.207  1.00  0.00    -0.221 C  
HETATM    2  C   UNL     1     -10.044   8.352  67.275  1.00  0.00    -0.253 C  
ENDROOT
BRANCH   2   3
HETATM    3  O   UNL     1     -11.047   7.363  66.967  1.00  0.00    -0.268 OA 
BRANCH   3   4
HETATM    4  C   UNL     1     -11.011   6.232  67.737  1.00  0.00    -0.332 C  
HETATM    5  C   UNL     1     -10.465   5.077  66.959  1.00  0.00    -0.208 C  
HETATM    6  O   UNL     1     -11.370   6.179  68.904  1.00  0.00    -0.367 OA 
ENDBRANCH   3   4
ENDBRANCH   2   3
BRANCH   2   7
HETATM    7  C   UNL     1     -10.678   9.760  67.227  1.00  0.00    -0.227 C  
BRANCH   7   8
HETATM    8  N   UNL     1     -10.608  10.578  68.548  1.00  0.00    -0.192 N  
HETATM    9  C   UNL     1     -11.614  11.728  68.426  1.00  0.00    -0.318 C  
HETATM   10  C   UNL     1     -10.996   9.747  69.763  1.00  0.00    -0.256 C  
HETATM   11  C   UNL     1      -9.221  11.171  68.761  1.00  0.00    -0.145 C  
ENDBRANCH   7   8
ENDBRANCH   2   7
TORSDOF 4
ENDMDL
MODEL      147
REMARK 921   NORMALIZED FREE ENERGY PREDICTED BY IDOCK:   -2.11 KCAL/MOL
REMARK 922        TOTAL FREE ENERGY PREDICTED BY IDOCK:   -3.01 KCAL/MOL
REMARK 923 INTER-LIGAND FREE ENERGY PREDICTED BY IDOCK:   -3.42 KCAL/MOL
REMARK 924 INTRA-LIGAND FREE ENERGY PREDICTED BY IDOCK:    0.41 KCAL/MOL
REMARK 927      BINDING AFFINITY PREDICTED BY RF-SCORE:    0.00 PKD
ROOT
HETATM    1  C   UNL     1      -9.402  15.837  66.110  1.00  0.00    -0.381 C  
HETATM    2  C   UNL     1     -10.610  15.261  66.848  1.00  0.00    -0.304 C  
ENDROOT
BRANCH   2   3
HETATM    3  O   UNL     1     -10.941  16.167  67.920  1.00  0.00    -0.331 OA 
BRANCH   3   4
HETATM    4  C   UNL     1      -9.910  16.948  68.366  1.00  0.00    -0.266 C  
HETATM    5  C   UNL     1     -10.190  18.394  68.110  1.00  0.00    -0.410 C  
HETATM    6  O   UNL     1      -8.901  16.518  68.905  1.00  0.00    -0.241 OA 
ENDBRANCH   3   4
ENDBRANCH   2   3
BRANCH   2   7
HETATM    7  C   UNL     1     -10.233  13.882  67.437  1.00  0.00    -0.252 C  
BRANCH   7   8
HETATM    8  N   UNL     1     -11.047  12.672  66.897  1.00  0.00    -0.262 N  
HETATM    9  C   UNL     1     -12.126  13.229  65.961  1.00  0.00    -0.436 C  
HETATM   10  C   UNL     1     -10.184  11.710  66.091  1.00  0.00    -0.226 C  
HETATM   11  C   UNL     1     -11.731  11.914  68.027  1.00  0.00    -0.312 C  
ENDBRANCH   7   8
ENDBRANCH   2   7
TORSDOF 4
ENDMDL
MODEL      148
REMARK 921   NORMALIZED FREE ENERGY PREDICTED BY IDOCK:   -2.11 KCAL/MOL
REMARK 922        TOTAL FREE ENERGY PREDICTED BY IDOCK:   -3.01 KCAL/MOL
REMARK 923 INTER-LIGAND FREE ENERGY PREDICTED BY IDOCK:   -2.61 KCAL/MOL
REMARK 924 INTRA-LIGAND FREE ENERGY PREDICTED BY IDOCK:   -0.40 KCAL/MOL
REMARK 927      BINDING AFFINITY PREDICTED BY RF-SCORE:    0.00 PKD
ROOT
HETATM    1  C   UNL     1     -10.765   5.821  66.802  1.00  0.00    -0.369 C  
HETATM    2  C   UNL     1     -10.603   6.785  67.978  1.00  0.00    -0.231 C  
ENDROOT
BRANCH   2   3
HETATM    3  O   UNL     1      -9.703   7.834  67.564  1.00  0.00    -0.145 OA 
BRANCH   3   4
HETATM    4  C   UNL     1     -10.256   9.083  67.490  1.00  0.00    -0.241 C  
HETATM    5  C   UNL     1      -9.966   9.714  66.165  1.00  0.00    -0.346 C  
HETATM    6  O   UNL     1     -10.902   9.607  68.385  1.00  0.00    -0.219 OA 
ENDBRANCH   3   4
ENDBRANCH   2   3
BRANCH   2   7
HETATM    7  C   UNL     1      -9.992   6.025  69.176  1.00  0.00    -0.162 C  
BRANCH   7   8
HETATM    8  N   UNL     1     -10.508   6.449  70.581  1.00  0.00    -0.211 N  
HETATM    9  C   UNL     1      -9.635   7.618  71.053  1.00  0.00    -0.163 C  
HETATM   10  C   UNL     1     -11.952   6.932  70.543  1.00  0.00    -0.305 C  
HETATM   11  C   UNL     1     -10.380   5.313  71.586  1.00  0.00    -0.216 C  
ENDBRANCH   7   8
ENDBRANCH   2   7
TORSDOF 4
ENDMDL
MODEL      149
REMARK 921   NORMALIZED FREE ENERGY PREDICTED BY IDOCK:   -2.10 KCAL/MOL
REMARK 922        TOTAL FREE ENERGY PREDICTED BY IDOCK:   -2.99 KCAL/MOL
REMARK 923 INTER-LIGAND FREE ENERGY PREDICTED BY IDOCK:   -2.68 KCAL/MOL
REMARK 924 INTRA-LIGAND FREE ENERGY PREDICTED BY IDOCK:   -0.31 KCAL/MOL
REMARK 927      BINDING AFFINITY PREDICTED BY RF-SCORE:    0.00 PKD
ROOT
HETATM    1  C   UNL     1     -10.415   8.904  67.055  1.00  0.00    -0.326 C  
HETATM    2  C   UNL     1      -9.751  10.190  66.561  1.00  0.00    -0.200 C  
ENDROOT
BRANCH   2   3
HETATM    3  O   UNL     1     -10.501  10.660  65.422  1.00  0.00    -0.258 OA 
BRANCH   3   4
HETATM    4  C   UNL     1     -11.157  11.848  65.604  1.00  0.00    -0.310 C  
HETATM    5  C   UNL     1     -10.634  12.892  64.670  1.00  0.00    -0.384 C  
HETATM    6  O   UNL     1     -12.052  12.025  66.417  1.00  0.00    -0.610 OA 
ENDBRANCH   3   4
ENDBRANCH   2   3
BRANCH   2   7
HETATM    7  C   UNL     1      -8.301   9.878  66.128  1.00  0.00    -0.122 C  
BRANCH   7   8
HETATM    8  N   UNL     1      -7.187  10.654  66.888  1.00  0.00    -0.104 N  
HETATM    9  C   UNL     1      -7.745  12.043  67.218  1.00  0.00    -0.168 C  
HETATM   10  C   UNL     1      -6.806   9.981  68.200  1.00  0.00    -0.064 C  
HETATM   11  C   UNL     1      -5.943  10.826  66.026  1.00  0.00    -0.138 C  
ENDBRANCH   7   8
ENDBRANCH   2   7
TORSDOF 4
ENDMDL
MODEL      150
REMARK 921   NORMALIZED FREE ENERGY PREDICTED BY IDOCK:   -2.07 KCAL/MOL
REMARK 922        TOTAL FREE ENERGY PREDICTED BY IDOCK:   -2.96 KCAL/MOL
REMARK 923 INTER-LIGAND FREE ENERGY PREDICTED BY IDOCK:   -3.38 KCAL/MOL
REMARK 924 INTRA-LIGAND FREE ENERGY PREDICTED BY IDOCK:    0.42 KCAL/MOL
REMARK 927      BINDING AFFINITY PREDICTED BY RF-SCORE:    0.00 PKD
ROOT
HETATM    1  C   UNL     1     -12.140  13.002  69.949  1.00  0.00    -0.347 C  
HETATM    2  C   UNL     1     -11.744  13.010  68.472  1.00  0.00    -0.342 C  
ENDROOT
BRANCH   2   3
HETATM    3  O   UNL     1     -12.067  11.716  67.924  1.00  0.00    -0.613 OA 
BRANCH   3   4
HETATM    4  C   UNL     1     -11.268  10.687  68.345  1.00  0.00    -0.288 C  
HETATM    5  C   UNL     1     -10.389  10.209  67.233  1.00  0.00    -0.291 C  
HETATM    6  O   UNL     1     -11.273  10.228  69.477  1.00  0.00    -0.241 OA 
ENDBRANCH   3   4
ENDBRANCH   2   3
BRANCH   2   7
HETATM    7  C   UNL     1     -10.221  13.252  68.358  1.00  0.00    -0.249 C  
BRANCH   7   8
HETATM    8  N   UNL     1      -9.793  14.701  67.986  1.00  0.00    -0.213 N  
HETATM    9  C   UNL     1      -9.349  15.391  69.281  1.00  0.00    -0.254 C  
HETATM   10  C   UNL     1      -8.617  14.725  67.019  1.00  0.00    -0.234 C  
HETATM   11  C   UNL     1     -10.954  15.487  67.393  1.00  0.00    -0.306 C  
ENDBRANCH   7   8
ENDBRANCH   2   7
TORSDOF 4
ENDMDL
MODEL      151
REMARK 921   NORMALIZED FREE ENERGY PREDICTED BY IDOCK:   -2.07 KCAL/MOL
REMARK 922        TOTAL FREE ENERGY PREDICTED BY IDOCK:   -2.95 KCAL/MOL
REMARK 923 INTER-LIGAND FREE ENERGY PREDICTED BY IDOCK:   -2.66 KCAL/MOL
REMARK 924 INTRA-LIGAND FREE ENERGY PREDICTED BY IDOCK:   -0.29 KCAL/MOL
REMARK 927      BINDING AFFINITY PREDICTED BY RF-SCORE:    0.00 PKD
ROOT
HETATM    1  C   UNL     1     -12.224  12.370  65.119  1.00  0.00    -0.449 C  
HETATM    2  C   UNL     1     -11.027  12.208  66.055  1.00  0.00    -0.293 C  
ENDROOT
BRANCH   2   3
HETATM    3  O   UNL     1     -10.899  13.425  66.819  1.00  0.00    -0.279 OA 
BRANCH   3   4
HETATM    4  C   UNL     1     -10.626  13.254  68.149  1.00  0.00    -0.249 C  
HETATM    5  C   UNL     1     -10.146  14.532  68.760  1.00  0.00    -0.239 C  
HETATM    6  O   UNL     1     -10.762  12.201  68.753  1.00  0.00    -0.227 OA 
ENDBRANCH   3   4
ENDBRANCH   2   3
BRANCH   2   7
HETATM    7  C   UNL     1      -9.749  11.993  65.212  1.00  0.00    -0.164 C  
BRANCH   7   8
HETATM    8  N   UNL     1      -9.043  10.619  65.393  1.00  0.00    -0.182 N  
HETATM    9  C   UNL     1      -9.851   9.824  66.425  1.00  0.00    -0.235 C  
HETATM   10  C   UNL     1      -9.012   9.811  64.103  1.00  0.00    -0.239 C  
HETATM   11  C   UNL     1      -7.623  10.790  65.919  1.00  0.00    -0.106 C  
ENDBRANCH   7   8
ENDBRANCH   2   7
TORSDOF 4
ENDMDL
MODEL      152
REMARK 921   NORMALIZED FREE ENERGY PREDICTED BY IDOCK:   -2.06 KCAL/MOL
REMARK 922        TOTAL FREE ENERGY PREDICTED BY IDOCK:   -2.95 KCAL/MOL
REMARK 923 INTER-LIGAND FREE ENERGY PREDICTED BY IDOCK:   -2.57 KCAL/MOL
REMARK 924 INTRA-LIGAND FREE ENERGY PREDICTED BY IDOCK:   -0.38 KCAL/MOL
REMARK 927      BINDING AFFINITY PREDICTED BY RF-SCORE:    0.00 PKD
ROOT
HETATM    1  C   UNL     1     -10.635  10.150  69.494  1.00  0.00    -0.269 C  
HETATM    2  C   UNL     1     -10.329   8.655  69.409  1.00  0.00    -0.218 C  
ENDROOT
BRANCH   2   3
HETATM    3  O   UNL     1     -10.611   8.225  68.061  1.00  0.00    -0.201 OA 
BRANCH   3   4
HETATM    4  C   UNL     1     -10.029   7.044  67.689  1.00  0.00    -0.154 C  
HETATM    5  C   UNL     1     -11.032   6.134  67.055  1.00  0.00    -0.414 C  
HETATM    6  O   UNL     1      -8.848   6.775  67.851  1.00  0.00    -0.120 OA 
ENDBRANCH   3   4
ENDBRANCH   2   3
BRANCH   2   7
HETATM    7  C   UNL     1     -11.245   7.893  70.393  1.00  0.00    -0.234 C  
BRANCH   7   8
HETATM    8  N   UNL     1     -10.518   7.096  71.513  1.00  0.00    -0.204 N  
HETATM    9  C   UNL     1      -9.032   7.466  71.445  1.00  0.00    -0.137 C  
HETATM   10  C   UNL     1     -11.025   7.458  72.903  1.00  0.00    -0.361 C  
HETATM   11  C   UNL     1     -10.651   5.593  71.301  1.00  0.00    -0.255 C  
ENDBRANCH   7   8
ENDBRANCH   2   7
TORSDOF 4
ENDMDL
MODEL      153
REMARK 921   NORMALIZED FREE ENERGY PREDICTED BY IDOCK:   -2.06 KCAL/MOL
REMARK 922        TOTAL FREE ENERGY PREDICTED BY IDOCK:   -2.94 KCAL/MOL
REMARK 923 INTER-LIGAND FREE ENERGY PREDICTED BY IDOCK:   -2.65 KCAL/MOL
REMARK 924 INTRA-LIGAND FREE ENERGY PREDICTED BY IDOCK:   -0.29 KCAL/MOL
REMARK 927      BINDING AFFINITY PREDICTED BY RF-SCORE:    0.00 PKD
ROOT
HETATM    1  C   UNL     1      -8.776   5.440  71.639  1.00  0.00    -0.139 C  
HETATM    2  C   UNL     1      -9.935   6.010  70.822  1.00  0.00    -0.191 C  
ENDROOT
BRANCH   2   3
HETATM    3  O   UNL     1     -11.142   5.835  71.592  1.00  0.00    -0.265 OA 
BRANCH   3   4
HETATM    4  C   UNL     1     -11.982   6.915  71.616  1.00  0.00    -0.339 C  
HETATM    5  C   UNL     1     -11.446   7.984  72.515  1.00  0.00    -0.471 C  
HETATM    6  O   UNL     1     -13.025   6.994  70.984  1.00  0.00    -0.326 OA 
ENDBRANCH   3   4
ENDBRANCH   2   3
BRANCH   2   7
HETATM    7  C   UNL     1     -10.053   5.226  69.495  1.00  0.00    -0.252 C  
BRANCH   7   8
HETATM    8  N   UNL     1      -9.610   5.993  68.216  1.00  0.00    -0.117 N  
HETATM    9  C   UNL     1     -10.735   5.846  67.185  1.00  0.00    -0.306 C  
HETATM   10  C   UNL     1      -9.407   7.479  68.475  1.00  0.00    -0.142 C  
HETATM   11  C   UNL     1      -8.336   5.401  67.628  1.00  0.00    -0.099 C  
ENDBRANCH   7   8
ENDBRANCH   2   7
TORSDOF 4
ENDMDL
MODEL      154
REMARK 921   NORMALIZED FREE ENERGY PREDICTED BY IDOCK:   -2.05 KCAL/MOL
REMARK 922        TOTAL FREE ENERGY PREDICTED BY IDOCK:   -2.93 KCAL/MOL
REMARK 923 INTER-LIGAND FREE ENERGY PREDICTED BY IDOCK:   -2.72 KCAL/MOL
REMARK 924 INTRA-LIGAND FREE ENERGY PREDICTED BY IDOCK:   -0.21 KCAL/MOL
REMARK 927      BINDING AFFINITY PREDICTED BY RF-SCORE:    0.00 PKD
ROOT
HETATM    1  C   UNL     1     -12.041  10.503  70.044  1.00  0.00    -0.351 C  
HETATM    2  C   UNL     1     -11.201  10.700  68.782  1.00  0.00    -0.279 C  
ENDROOT
BRANCH   2   3
HETATM    3  O   UNL     1     -10.151   9.711  68.795  1.00  0.00    -0.167 OA 
BRANCH   3   4
HETATM    4  C   UNL     1      -9.806   9.208  67.571  1.00  0.00    -0.177 C  
HETATM    5  C   UNL     1      -8.566   8.377  67.668  1.00  0.00    -0.130 C  
HETATM    6  O   UNL     1     -10.432   9.407  66.540  1.00  0.00    -0.215 OA 
ENDBRANCH   3   4
ENDBRANCH   2   3
BRANCH   2   7
HETATM    7  C   UNL     1     -10.577  12.114  68.804  1.00  0.00    -0.201 C  
BRANCH   7   8
HETATM    8  N   UNL     1     -11.046  13.076  67.675  1.00  0.00    -0.257 N  
HETATM    9  C   UNL     1      -9.788  13.690  67.049  1.00  0.00    -0.251 C  
HETATM   10  C   UNL     1     -11.806  12.349  66.575  1.00  0.00    -0.339 C  
HETATM   11  C   UNL     1     -11.909  14.202  68.229  1.00  0.00    -0.356 C  
ENDBRANCH   7   8
ENDBRANCH   2   7
TORSDOF 4
ENDMDL
MODEL      155
REMARK 921   NORMALIZED FREE ENERGY PREDICTED BY IDOCK:   -2.04 KCAL/MOL
REMARK 922        TOTAL FREE ENERGY PREDICTED BY IDOCK:   -2.91 KCAL/MOL
REMARK 923 INTER-LIGAND FREE ENERGY PREDICTED BY IDOCK:   -2.63 KCAL/MOL
REMARK 924 INTRA-LIGAND FREE ENERGY PREDICTED BY IDOCK:   -0.29 KCAL/MOL
REMARK 927      BINDING AFFINITY PREDICTED BY RF-SCORE:    0.00 PKD
ROOT
HETATM    1  C   UNL     1      -9.840   6.335  66.739  1.00  0.00    -0.208 C  
HETATM    2  C   UNL     1     -10.190   7.137  67.993  1.00  0.00    -0.185 C  
ENDROOT
BRANCH   2   3
HETATM    3  O   UNL     1     -11.277   6.460  68.657  1.00  0.00    -0.329 OA 
BRANCH   3   4
HETATM    4  C   UNL     1     -11.062   6.164  69.976  1.00  0.00    -0.392 C  
HETATM    5  C   UNL     1     -12.140   6.747  70.833  1.00  0.00    -0.421 C  
HETATM    6  O   UNL     1     -10.119   5.507  70.392  1.00  0.00    -0.196 OA 
ENDBRANCH   3   4
ENDBRANCH   2   3
BRANCH   2   7
HETATM    7  C   UNL     1     -10.645   8.555  67.577  1.00  0.00    -0.214 C  
BRANCH   7   8
HETATM    8  N   UNL     1      -9.934   9.733  68.302  1.00  0.00    -0.149 N  
HETATM    9  C   UNL     1      -9.097   9.130  69.436  1.00  0.00    -0.148 C  
HETATM   10  C   UNL     1      -8.990  10.492  67.379  1.00  0.00    -0.135 C  
HETATM   11  C   UNL     1     -10.941  10.702  68.906  1.00  0.00    -0.249 C  
ENDBRANCH   7   8
ENDBRANCH   2   7
TORSDOF 4
ENDMDL
MODEL      156
REMARK 921   NORMALIZED FREE ENERGY PREDICTED BY IDOCK:   -2.03 KCAL/MOL
REMARK 922        TOTAL FREE ENERGY PREDICTED BY IDOCK:   -2.91 KCAL/MOL
REMARK 923 INTER-LIGAND FREE ENERGY PREDICTED BY IDOCK:   -3.36 KCAL/MOL
REMARK 924 INTRA-LIGAND FREE ENERGY PREDICTED BY IDOCK:    0.45 KCAL/MOL
REMARK 927      BINDING AFFINITY PREDICTED BY RF-SCORE:    0.00 PKD
ROOT
HETATM    1  C   UNL     1     -10.563  15.847  67.559  1.00  0.00    -0.315 C  
HETATM    2  C   UNL     1      -9.968  17.018  66.778  1.00  0.00    -0.295 C  
ENDROOT
BRANCH   2   3
HETATM    3  O   UNL     1      -8.961  16.488  65.892  1.00  0.00    -0.461 OA 
BRANCH   3   4
HETATM    4  C   UNL     1      -7.700  16.413  66.419  1.00  0.00    -0.214 C  
HETATM    5  C   UNL     1      -6.850  17.540  65.925  1.00  0.00    -0.203 C  
HETATM    6  O   UNL     1      -7.325  15.544  67.192  1.00  0.00    -0.208 OA 
ENDBRANCH   3   4
ENDBRANCH   2   3
BRANCH   2   7
HETATM    7  C   UNL     1      -9.313  18.007  67.769  1.00  0.00    -0.263 C  
BRANCH   7   8
HETATM    8  N   UNL     1      -9.552  19.516  67.476  1.00  0.00    -0.315 N  
HETATM    9  C   UNL     1     -10.357  19.604  66.174  1.00  0.00    -0.530 C  
HETATM   10  C   UNL     1     -10.363  20.195  68.571  1.00  0.00    -0.216 C  
HETATM   11  C   UNL     1      -8.237  20.259  67.283  1.00  0.00    -0.343 C  
ENDBRANCH   7   8
ENDBRANCH   2   7
TORSDOF 4
ENDMDL
MODEL      157
REMARK 921   NORMALIZED FREE ENERGY PREDICTED BY IDOCK:   -1.98 KCAL/MOL
REMARK 922        TOTAL FREE ENERGY PREDICTED BY IDOCK:   -2.84 KCAL/MOL
REMARK 923 INTER-LIGAND FREE ENERGY PREDICTED BY IDOCK:   -2.63 KCAL/MOL
REMARK 924 INTRA-LIGAND FREE ENERGY PREDICTED BY IDOCK:   -0.21 KCAL/MOL
REMARK 927      BINDING AFFINITY PREDICTED BY RF-SCORE:    0.00 PKD
ROOT
HETATM    1  C   UNL     1      -9.383   8.430  66.141  1.00  0.00    -0.267 C  
HETATM    2  C   UNL     1      -9.939   8.850  67.502  1.00  0.00    -0.203 C  
ENDROOT
BRANCH   2   3
HETATM    3  O   UNL     1      -9.950  10.292  67.544  1.00  0.00    -0.177 OA 
BRANCH   3   4
HETATM    4  C   UNL     1     -11.171  10.860  67.790  1.00  0.00    -0.317 C  
HETATM    5  C   UNL     1     -11.548  10.706  69.229  1.00  0.00    -0.346 C  
HETATM    6  O   UNL     1     -11.855  11.420  66.946  1.00  0.00    -0.489 OA 
ENDBRANCH   3   4
ENDBRANCH   2   3
BRANCH   2   7
HETATM    7  C   UNL     1      -9.013   8.310  68.616  1.00  0.00    -0.137 C  
BRANCH   7   8
HETATM    8  N   UNL     1      -9.513   7.033  69.349  1.00  0.00    -0.146 N  
HETATM    9  C   UNL     1      -9.516   7.342  70.851  1.00  0.00    -0.165 C  
HETATM   10  C   UNL     1     -10.933   6.656  68.949  1.00  0.00    -0.267 C  
HETATM   11  C   UNL     1      -8.585   5.851  69.101  1.00  0.00    -0.115 C  
ENDBRANCH   7   8
ENDBRANCH   2   7
TORSDOF 4
ENDMDL
MODEL      158
REMARK 921   NORMALIZED FREE ENERGY PREDICTED BY IDOCK:   -1.95 KCAL/MOL
REMARK 922        TOTAL FREE ENERGY PREDICTED BY IDOCK:   -2.81 KCAL/MOL
REMARK 923 INTER-LIGAND FREE ENERGY PREDICTED BY IDOCK:   -2.79 KCAL/MOL
REMARK 924 INTRA-LIGAND FREE ENERGY PREDICTED BY IDOCK:   -0.02 KCAL/MOL
REMARK 927      BINDING AFFINITY PREDICTED BY RF-SCORE:    0.00 PKD
ROOT
HETATM    1  C   UNL     1     -10.390  10.937  65.603  1.00  0.00    -0.305 C  
HETATM    2  C   UNL     1     -10.217  12.329  66.210  1.00  0.00    -0.229 C  
ENDROOT
BRANCH   2   3
HETATM    3  O   UNL     1     -10.939  13.262  65.380  1.00  0.00    -0.279 OA 
BRANCH   3   4
HETATM    4  C   UNL     1     -12.113  13.727  65.907  1.00  0.00    -0.433 C  
HETATM    5  C   UNL     1     -11.934  14.115  67.341  1.00  0.00    -0.439 C  
HETATM    6  O   UNL     1     -13.162  13.816  65.286  1.00  0.00    -0.755 OA 
ENDBRANCH   3   4
ENDBRANCH   2   3
BRANCH   2   7
HETATM    7  C   UNL     1      -8.716  12.697  66.214  1.00  0.00     0.196 C  
BRANCH   7   8
HETATM    8  N   UNL     1      -7.873  12.083  67.367  1.00  0.00    -0.153 N  
HETATM    9  C   UNL     1      -7.163  10.846  66.804  1.00  0.00    -0.134 C  
HETATM   10  C   UNL     1      -6.804  13.042  67.875  1.00  0.00    -0.130 C  
HETATM   11  C   UNL     1      -8.755  11.646  68.529  1.00  0.00    -0.130 C  
ENDBRANCH   7   8
ENDBRANCH   2   7
TORSDOF 4
ENDMDL
MODEL      159
REMARK 921   NORMALIZED FREE ENERGY PREDICTED BY IDOCK:   -1.95 KCAL/MOL
REMARK 922        TOTAL FREE ENERGY PREDICTED BY IDOCK:   -2.81 KCAL/MOL
REMARK 923 INTER-LIGAND FREE ENERGY PREDICTED BY IDOCK:   -3.19 KCAL/MOL
REMARK 924 INTRA-LIGAND FREE ENERGY PREDICTED BY IDOCK:    0.39 KCAL/MOL
REMARK 927      BINDING AFFINITY PREDICTED BY RF-SCORE:    0.00 PKD
ROOT
HETATM    1  C   UNL     1     -11.176  12.916  69.101  1.00  0.00    -0.293 C  
HETATM    2  C   UNL     1     -11.697  11.758  68.250  1.00  0.00    -0.310 C  
ENDROOT
BRANCH   2   3
HETATM    3  O   UNL     1     -12.426  10.868  69.120  1.00  0.00    -0.409 OA 
BRANCH   3   4
HETATM    4  C   UNL     1     -11.909  10.728  70.379  1.00  0.00    -0.358 C  
HETATM    5  C   UNL     1     -12.795  11.379  71.393  1.00  0.00    -0.502 C  
HETATM    6  O   UNL     1     -10.866  10.145  70.637  1.00  0.00    -0.308 OA 
ENDBRANCH   3   4
ENDBRANCH   2   3
BRANCH   2   7
HETATM    7  C   UNL     1     -10.498  11.004  67.631  1.00  0.00    -0.204 C  
BRANCH   7   8
HETATM    8  N   UNL     1     -10.265  11.238  66.111  1.00  0.00    -0.237 N  
HETATM    9  C   UNL     1      -9.009  12.105  65.971  1.00  0.00     0.020 C  
HETATM   10  C   UNL     1     -10.019   9.938  65.358  1.00  0.00    -0.279 C  
HETATM   11  C   UNL     1     -11.436  11.977  65.477  1.00  0.00    -0.313 C  
ENDBRANCH   7   8
ENDBRANCH   2   7
TORSDOF 4
ENDMDL
MODEL      160
REMARK 921   NORMALIZED FREE ENERGY PREDICTED BY IDOCK:   -1.93 KCAL/MOL
REMARK 922        TOTAL FREE ENERGY PREDICTED BY IDOCK:   -2.78 KCAL/MOL
REMARK 923 INTER-LIGAND FREE ENERGY PREDICTED BY IDOCK:   -2.48 KCAL/MOL
REMARK 924 INTRA-LIGAND FREE ENERGY PREDICTED BY IDOCK:   -0.31 KCAL/MOL
REMARK 927      BINDING AFFINITY PREDICTED BY RF-SCORE:    0.00 PKD
ROOT
HETATM    1  C   UNL     1      -9.554   9.489  70.339  1.00  0.00    -0.326 C  
HETATM    2  C   UNL     1      -9.429  10.432  69.142  1.00  0.00    -0.208 C  
ENDROOT
BRANCH   2   3
HETATM    3  O   UNL     1     -10.424  10.044  68.172  1.00  0.00    -0.186 OA 
BRANCH   3   4
HETATM    4  C   UNL     1     -11.438  10.944  67.984  1.00  0.00    -0.281 C  
HETATM    5  C   UNL     1     -11.256  11.685  66.697  1.00  0.00    -0.362 C  
HETATM    6  O   UNL     1     -12.366  11.112  68.760  1.00  0.00    -0.539 OA 
ENDBRANCH   3   4
ENDBRANCH   2   3
BRANCH   2   7
HETATM    7  C   UNL     1      -8.021  10.280  68.522  1.00  0.00    -0.107 C  
BRANCH   7   8
HETATM    8  N   UNL     1      -7.227  11.602  68.316  1.00  0.00    -0.079 N  
HETATM    9  C   UNL     1      -6.219  11.712  69.466  1.00  0.00    -0.113 C  
HETATM   10  C   UNL     1      -6.446  11.608  67.009  1.00  0.00    -0.148 C  
HETATM   11  C   UNL     1      -8.147  12.814  68.362  1.00  0.00    -0.129 C  
ENDBRANCH   7   8
ENDBRANCH   2   7
TORSDOF 4
ENDMDL
MODEL      161
REMARK 921   NORMALIZED FREE ENERGY PREDICTED BY IDOCK:   -1.93 KCAL/MOL
REMARK 922        TOTAL FREE ENERGY PREDICTED BY IDOCK:   -2.78 KCAL/MOL
REMARK 923 INTER-LIGAND FREE ENERGY PREDICTED BY IDOCK:   -2.46 KCAL/MOL
REMARK 924 INTRA-LIGAND FREE ENERGY PREDICTED BY IDOCK:   -0.32 KCAL/MOL
REMARK 927      BINDING AFFINITY PREDICTED BY RF-SCORE:    0.00 PKD
ROOT
HETATM    1  C   UNL     1      -8.983   9.490  70.432  1.00  0.00    -0.291 C  
HETATM    2  C   UNL     1      -9.513   8.099  70.779  1.00  0.00    -0.162 C  
ENDROOT
BRANCH   2   3
HETATM    3  O   UNL     1      -9.417   7.937  72.209  1.00  0.00    -0.159 OA 
BRANCH   3   4
HETATM    4  C   UNL     1     -10.554   7.489  72.824  1.00  0.00    -0.313 C  
HETATM    5  C   UNL     1     -11.709   8.393  72.529  1.00  0.00    -0.429 C  
HETATM    6  O   UNL     1     -10.616   6.482  73.514  1.00  0.00    -0.264 OA 
ENDBRANCH   3   4
ENDBRANCH   2   3
BRANCH   2   7
HETATM    7  C   UNL     1      -8.636   7.035  70.080  1.00  0.00    -0.140 C  
BRANCH   7   8
HETATM    8  N   UNL     1      -9.405   5.941  69.286  1.00  0.00    -0.127 N  
HETATM    9  C   UNL     1     -10.615   6.618  68.633  1.00  0.00    -0.234 C  
HETATM   10  C   UNL     1      -8.559   5.331  68.176  1.00  0.00    -0.099 C  
HETATM   11  C   UNL     1      -9.907   4.836  70.206  1.00  0.00    -0.242 C  
ENDBRANCH   7   8
ENDBRANCH   2   7
TORSDOF 4
ENDMDL
MODEL      162
REMARK 921   NORMALIZED FREE ENERGY PREDICTED BY IDOCK:   -1.92 KCAL/MOL
REMARK 922        TOTAL FREE ENERGY PREDICTED BY IDOCK:   -2.77 KCAL/MOL
REMARK 923 INTER-LIGAND FREE ENERGY PREDICTED BY IDOCK:   -2.44 KCAL/MOL
REMARK 924 INTRA-LIGAND FREE ENERGY PREDICTED BY IDOCK:   -0.33 KCAL/MOL
REMARK 927      BINDING AFFINITY PREDICTED BY RF-SCORE:    0.00 PKD
ROOT
HETATM    1  C   UNL     1      -8.871   7.159  73.719  1.00  0.00    -0.214 C  
HETATM    2  C   UNL     1      -9.490   7.178  72.322  1.00  0.00    -0.138 C  
ENDROOT
BRANCH   2   3
HETATM    3  O   UNL     1      -8.479   6.748  71.387  1.00  0.00    -0.120 OA 
BRANCH   3   4
HETATM    4  C   UNL     1      -8.461   5.406  71.121  1.00  0.00    -0.125 C  
HETATM    5  C   UNL     1      -9.704   4.991  70.401  1.00  0.00    -0.280 C  
HETATM    6  O   UNL     1      -7.548   4.653  71.428  1.00  0.00    -0.073 OA 
ENDBRANCH   3   4
ENDBRANCH   2   3
BRANCH   2   7
HETATM    7  C   UNL     1      -9.926   8.621  71.981  1.00  0.00    -0.329 C  
BRANCH   7   8
HETATM    8  N   UNL     1     -11.132   8.750  71.006  1.00  0.00    -0.256 N  
HETATM    9  C   UNL     1     -12.042   7.540  71.245  1.00  0.00    -0.323 C  
HETATM   10  C   UNL     1     -11.951  10.008  71.264  1.00  0.00    -0.394 C  
HETATM   11  C   UNL     1     -10.676   8.732  69.553  1.00  0.00    -0.188 C  
ENDBRANCH   7   8
ENDBRANCH   2   7
TORSDOF 4
ENDMDL
MODEL      163
REMARK 921   NORMALIZED FREE ENERGY PREDICTED BY IDOCK:   -1.88 KCAL/MOL
REMARK 922        TOTAL FREE ENERGY PREDICTED BY IDOCK:   -2.72 KCAL/MOL
REMARK 923 INTER-LIGAND FREE ENERGY PREDICTED BY IDOCK:   -2.84 KCAL/MOL
REMARK 924 INTRA-LIGAND FREE ENERGY PREDICTED BY IDOCK:    0.13 KCAL/MOL
REMARK 927      BINDING AFFINITY PREDICTED BY RF-SCORE:    0.00 PKD
ROOT
HETATM    1  C   UNL     1     -12.943  10.575  71.627  1.00  0.00    -0.581 C  
HETATM    2  C   UNL     1     -12.441  12.004  71.414  1.00  0.00    -0.135 C  
ENDROOT
BRANCH   2   3
HETATM    3  O   UNL     1     -13.277  12.883  72.195  1.00  0.00    -0.465 OA 
BRANCH   3   4
HETATM    4  C   UNL     1     -12.947  14.210  72.133  1.00  0.00    -0.376 C  
HETATM    5  C   UNL     1     -14.123  15.029  71.705  1.00  0.00    -0.619 C  
HETATM    6  O   UNL     1     -11.843  14.661  72.397  1.00  0.00    -0.224 OA 
ENDBRANCH   3   4
ENDBRANCH   2   3
BRANCH   2   7
HETATM    7  C   UNL     1     -12.569  12.367  69.917  1.00  0.00     0.243 C  
BRANCH   7   8
HETATM    8  N   UNL     1     -11.339  12.020  69.031  1.00  0.00    -0.255 N  
HETATM    9  C   UNL     1     -10.546  13.315  68.822  1.00  0.00    -0.201 C  
HETATM   10  C   UNL     1     -10.414  11.010  69.696  1.00  0.00    -0.023 C  
HETATM   11  C   UNL     1     -11.768  11.492  67.668  1.00  0.00    -0.208 C  
ENDBRANCH   7   8
ENDBRANCH   2   7
TORSDOF 4
ENDMDL
MODEL      164
REMARK 921   NORMALIZED FREE ENERGY PREDICTED BY IDOCK:   -1.84 KCAL/MOL
REMARK 922        TOTAL FREE ENERGY PREDICTED BY IDOCK:   -2.67 KCAL/MOL
REMARK 923 INTER-LIGAND FREE ENERGY PREDICTED BY IDOCK:   -2.40 KCAL/MOL
REMARK 924 INTRA-LIGAND FREE ENERGY PREDICTED BY IDOCK:   -0.28 KCAL/MOL
REMARK 927      BINDING AFFINITY PREDICTED BY RF-SCORE:    0.00 PKD
ROOT
HETATM    1  C   UNL     1      -9.666   9.226  70.554  1.00  0.00    -0.316 C  
HETATM    2  C   UNL     1      -9.683   8.636  69.143  1.00  0.00    -0.173 C  
ENDROOT
BRANCH   2   3
HETATM    3  O   UNL     1      -9.310   7.247  69.244  1.00  0.00    -0.154 OA 
BRANCH   3   4
HETATM    4  C   UNL     1     -10.311   6.352  68.979  1.00  0.00    -0.199 C  
HETATM    5  C   UNL     1     -10.896   6.597  67.624  1.00  0.00    -0.393 C  
HETATM    6  O   UNL     1     -10.670   5.470  69.745  1.00  0.00    -0.322 OA 
ENDBRANCH   3   4
ENDBRANCH   2   3
BRANCH   2   7
HETATM    7  C   UNL     1      -8.651   9.384  68.269  1.00  0.00    -0.120 C  
BRANCH   7   8
HETATM    8  N   UNL     1      -9.221  10.522  67.375  1.00  0.00    -0.142 N  
HETATM    9  C   UNL     1      -8.562  10.393  65.997  1.00  0.00    -0.151 C  
HETATM   10  C   UNL     1     -10.727  10.406  67.183  1.00  0.00    -0.256 C  
HETATM   11  C   UNL     1      -8.887  11.895  67.943  1.00  0.00    -0.172 C  
ENDBRANCH   7   8
ENDBRANCH   2   7
TORSDOF 4
ENDMDL
MODEL      165
REMARK 921   NORMALIZED FREE ENERGY PREDICTED BY IDOCK:   -1.83 KCAL/MOL
REMARK 922        TOTAL FREE ENERGY PREDICTED BY IDOCK:   -2.66 KCAL/MOL
REMARK 923 INTER-LIGAND FREE ENERGY PREDICTED BY IDOCK:   -2.37 KCAL/MOL
REMARK 924 INTRA-LIGAND FREE ENERGY PREDICTED BY IDOCK:   -0.28 KCAL/MOL
REMARK 927      BINDING AFFINITY PREDICTED BY RF-SCORE:    0.00 PKD
ROOT
HETATM    1  C   UNL     1      -8.932   7.688  66.594  1.00  0.00    -0.181 C  
HETATM    2  C   UNL     1      -9.651   8.309  67.793  1.00  0.00    -0.148 C  
ENDROOT
BRANCH   2   3
HETATM    3  O   UNL     1     -10.443   7.274  68.412  1.00  0.00    -0.195 OA 
BRANCH   3   4
HETATM    4  C   UNL     1     -10.303   7.165  69.769  1.00  0.00    -0.214 C  
HETATM    5  C   UNL     1     -11.252   6.148  70.320  1.00  0.00    -0.439 C  
HETATM    6  O   UNL     1      -9.507   7.809  70.436  1.00  0.00    -0.163 OA 
ENDBRANCH   3   4
ENDBRANCH   2   3
BRANCH   2   7
HETATM    7  C   UNL     1     -10.579   9.440  67.296  1.00  0.00    -0.244 C  
BRANCH   7   8
HETATM    8  N   UNL     1     -10.040  10.887  67.483  1.00  0.00    -0.180 N  
HETATM    9  C   UNL     1      -9.459  11.334  66.137  1.00  0.00    -0.208 C  
HETATM   10  C   UNL     1     -11.140  11.869  67.863  1.00  0.00    -0.242 C  
HETATM   11  C   UNL     1      -8.933  10.936  68.528  1.00  0.00    -0.157 C  
ENDBRANCH   7   8
ENDBRANCH   2   7
TORSDOF 4
ENDMDL
MODEL      166
REMARK 921   NORMALIZED FREE ENERGY PREDICTED BY IDOCK:   -1.81 KCAL/MOL
REMARK 922        TOTAL FREE ENERGY PREDICTED BY IDOCK:   -2.63 KCAL/MOL
REMARK 923 INTER-LIGAND FREE ENERGY PREDICTED BY IDOCK:   -2.31 KCAL/MOL
REMARK 924 INTRA-LIGAND FREE ENERGY PREDICTED BY IDOCK:   -0.32 KCAL/MOL
REMARK 927      BINDING AFFINITY PREDICTED BY RF-SCORE:    0.00 PKD
ROOT
HETATM    1  C   UNL     1     -11.639   6.414  70.210  1.00  0.00    -0.451 C  
HETATM    2  C   UNL     1     -10.568   6.948  71.162  1.00  0.00    -0.222 C  
ENDROOT
BRANCH   2   3
HETATM    3  O   UNL     1     -10.000   8.131  70.565  1.00  0.00    -0.185 OA 
BRANCH   3   4
HETATM    4  C   UNL     1      -9.073   8.785  71.330  1.00  0.00    -0.243 C  
HETATM    5  C   UNL     1      -7.888   9.179  70.507  1.00  0.00    -0.155 C  
HETATM    6  O   UNL     1      -9.203   9.019  72.523  1.00  0.00    -0.259 OA 
ENDBRANCH   3   4
ENDBRANCH   2   3
BRANCH   2   7
HETATM    7  C   UNL     1      -9.465   5.878  71.334  1.00  0.00    -0.150 C  
BRANCH   7   8
HETATM    8  N   UNL     1      -9.380   5.216  72.739  1.00  0.00    -0.136 N  
HETATM    9  C   UNL     1     -10.502   5.815  73.594  1.00  0.00    -0.265 C  
HETATM   10  C   UNL     1      -9.593   3.709  72.680  1.00  0.00    -0.134 C  
HETATM   11  C   UNL     1      -8.047   5.513  73.413  1.00  0.00    -0.114 C  
ENDBRANCH   7   8
ENDBRANCH   2   7
TORSDOF 4
ENDMDL
MODEL      167
REMARK 921   NORMALIZED FREE ENERGY PREDICTED BY IDOCK:   -1.80 KCAL/MOL
REMARK 922        TOTAL FREE ENERGY PREDICTED BY IDOCK:   -2.62 KCAL/MOL
REMARK 923 INTER-LIGAND FREE ENERGY PREDICTED BY IDOCK:   -2.38 KCAL/MOL
REMARK 924 INTRA-LIGAND FREE ENERGY PREDICTED BY IDOCK:   -0.24 KCAL/MOL
REMARK 927      BINDING AFFINITY PREDICTED BY RF-SCORE:    0.00 PKD
ROOT
HETATM    1  C   UNL     1     -11.828  10.476  69.945  1.00  0.00    -0.358 C  
HETATM    2  C   UNL     1     -10.822   9.856  68.975  1.00  0.00    -0.215 C  
ENDROOT
BRANCH   2   3
HETATM    3  O   UNL     1     -10.613   8.487  69.376  1.00  0.00    -0.221 OA 
BRANCH   3   4
HETATM    4  C   UNL     1     -10.530   7.583  68.352  1.00  0.00    -0.175 C  
HETATM    5  C   UNL     1     -10.037   6.261  68.849  1.00  0.00    -0.200 C  
HETATM    6  O   UNL     1     -10.825   7.826  67.191  1.00  0.00    -0.313 OA 
ENDBRANCH   3   4
ENDBRANCH   2   3
BRANCH   2   7
HETATM    7  C   UNL     1      -9.487  10.629  69.066  1.00  0.00    -0.191 C  
BRANCH   7   8
HETATM    8  N   UNL     1      -9.137  11.520  67.840  1.00  0.00    -0.162 N  
HETATM    9  C   UNL     1      -9.813  12.878  68.056  1.00  0.00    -0.223 C  
HETATM   10  C   UNL     1      -7.639  11.761  67.711  1.00  0.00    -0.127 C  
HETATM   11  C   UNL     1      -9.667  10.917  66.546  1.00  0.00    -0.198 C  
ENDBRANCH   7   8
ENDBRANCH   2   7
TORSDOF 4
ENDMDL
MODEL      168
REMARK 921   NORMALIZED FREE ENERGY PREDICTED BY IDOCK:   -1.80 KCAL/MOL
REMARK 922        TOTAL FREE ENERGY PREDICTED BY IDOCK:   -2.62 KCAL/MOL
REMARK 923 INTER-LIGAND FREE ENERGY PREDICTED BY IDOCK:   -2.46 KCAL/MOL
REMARK 924 INTRA-LIGAND FREE ENERGY PREDICTED BY IDOCK:   -0.16 KCAL/MOL
REMARK 927      BINDING AFFINITY PREDICTED BY RF-SCORE:    0.00 PKD
ROOT
HETATM    1  C   UNL     1      -9.994  11.522  66.475  1.00  0.00    -0.240 C  
HETATM    2  C   UNL     1      -9.934  11.514  68.003  1.00  0.00    -0.189 C  
ENDROOT
BRANCH   2   3
HETATM    3  O   UNL     1     -10.638  12.681  68.475  1.00  0.00    -0.236 OA 
BRANCH   3   4
HETATM    4  C   UNL     1     -11.600  12.442  69.419  1.00  0.00    -0.307 C  
HETATM    5  C   UNL     1     -11.994  10.999  69.420  1.00  0.00    -0.408 C  
HETATM    6  O   UNL     1     -12.066  13.292  70.162  1.00  0.00    -0.336 OA 
ENDBRANCH   3   4
ENDBRANCH   2   3
BRANCH   2   7
HETATM    7  C   UNL     1      -8.457  11.588  68.452  1.00  0.00    -0.159 C  
BRANCH   7   8
HETATM    8  N   UNL     1      -7.884  10.296  69.103  1.00  0.00    -0.115 N  
HETATM    9  C   UNL     1      -6.684  10.712  69.961  1.00  0.00    -0.156 C  
HETATM   10  C   UNL     1      -8.893   9.612  70.015  1.00  0.00    -0.232 C  
HETATM   11  C   UNL     1      -7.404   9.309  68.047  1.00  0.00    -0.080 C  
ENDBRANCH   7   8
ENDBRANCH   2   7
TORSDOF 4
ENDMDL
MODEL      169
REMARK 921   NORMALIZED FREE ENERGY PREDICTED BY IDOCK:   -1.77 KCAL/MOL
REMARK 922        TOTAL FREE ENERGY PREDICTED BY IDOCK:   -2.59 KCAL/MOL
REMARK 923 INTER-LIGAND FREE ENERGY PREDICTED BY IDOCK:   -2.96 KCAL/MOL
REMARK 924 INTRA-LIGAND FREE ENERGY PREDICTED BY IDOCK:    0.37 KCAL/MOL
REMARK 927      BINDING AFFINITY PREDICTED BY RF-SCORE:    0.00 PKD
ROOT
HETATM    1  C   UNL     1      -9.137  10.908  65.813  1.00  0.00    -0.214 C  
HETATM    2  C   UNL     1     -10.109  12.014  66.225  1.00  0.00    -0.222 C  
ENDROOT
BRANCH   2   3
HETATM    3  O   UNL     1      -9.643  13.247  65.638  1.00  0.00    -0.143 OA 
BRANCH   3   4
HETATM    4  C   UNL     1     -10.433  13.757  64.644  1.00  0.00    -0.412 C  
HETATM    5  C   UNL     1     -10.728  12.714  63.613  1.00  0.00    -0.410 C  
HETATM    6  O   UNL     1     -10.845  14.907  64.610  1.00  0.00    -0.370 OA 
ENDBRANCH   3   4
ENDBRANCH   2   3
BRANCH   2   7
HETATM    7  C   UNL     1     -10.106  12.143  67.765  1.00  0.00    -0.199 C  
BRANCH   7   8
HETATM    8  N   UNL     1     -11.142  13.138  68.361  1.00  0.00    -0.254 N  
HETATM    9  C   UNL     1     -12.282  13.272  67.345  1.00  0.00    -0.186 C  
HETATM   10  C   UNL     1     -11.740  12.635  69.668  1.00  0.00    -0.303 C  
HETATM   11  C   UNL     1     -10.527  14.514  68.581  1.00  0.00    -0.247 C  
ENDBRANCH   7   8
ENDBRANCH   2   7
TORSDOF 4
ENDMDL
MODEL      170
REMARK 921   NORMALIZED FREE ENERGY PREDICTED BY IDOCK:   -1.77 KCAL/MOL
REMARK 922        TOTAL FREE ENERGY PREDICTED BY IDOCK:   -2.59 KCAL/MOL
REMARK 923 INTER-LIGAND FREE ENERGY PREDICTED BY IDOCK:   -2.16 KCAL/MOL
REMARK 924 INTRA-LIGAND FREE ENERGY PREDICTED BY IDOCK:   -0.43 KCAL/MOL
REMARK 927      BINDING AFFINITY PREDICTED BY RF-SCORE:    0.00 PKD
ROOT
HETATM    1  C   UNL     1     -10.709  11.268  65.884  1.00  0.00    -0.291 C  
HETATM    2  C   UNL     1     -10.050  10.010  66.450  1.00  0.00    -0.241 C  
ENDROOT
BRANCH   2   3
HETATM    3  O   UNL     1     -10.835   9.574  67.579  1.00  0.00    -0.280 OA 
BRANCH   3   4
HETATM    4  C   UNL     1     -10.522   8.334  68.065  1.00  0.00    -0.181 C  
HETATM    5  C   UNL     1     -10.662   7.295  66.998  1.00  0.00    -0.406 C  
HETATM    6  O   UNL     1     -10.171   8.110  69.214  1.00  0.00    -0.204 OA 
ENDBRANCH   3   4
ENDBRANCH   2   3
BRANCH   2   7
HETATM    7  C   UNL     1      -8.619  10.355  66.920  1.00  0.00    -0.127 C  
BRANCH   7   8
HETATM    8  N   UNL     1      -7.468   9.616  66.179  1.00  0.00    -0.097 N  
HETATM    9  C   UNL     1      -6.944   8.528  67.123  1.00  0.00    -0.075 C  
HETATM   10  C   UNL     1      -7.946   8.936  64.903  1.00  0.00    -0.129 C  
HETATM   11  C   UNL     1      -6.322  10.564  65.850  1.00  0.00    -0.128 C  
ENDBRANCH   7   8
ENDBRANCH   2   7
TORSDOF 4
ENDMDL
MODEL      171
REMARK 921   NORMALIZED FREE ENERGY PREDICTED BY IDOCK:   -1.76 KCAL/MOL
REMARK 922        TOTAL FREE ENERGY PREDICTED BY IDOCK:   -2.58 KCAL/MOL
REMARK 923 INTER-LIGAND FREE ENERGY PREDICTED BY IDOCK:   -2.25 KCAL/MOL
REMARK 924 INTRA-LIGAND FREE ENERGY PREDICTED BY IDOCK:   -0.33 KCAL/MOL
REMARK 927      BINDING AFFINITY PREDICTED BY RF-SCORE:    0.00 PKD
ROOT
HETATM    1  C   UNL     1      -8.067   5.672  71.472  1.00  0.00    -0.118 C  
HETATM    2  C   UNL     1      -9.159   6.258  70.576  1.00  0.00    -0.154 C  
ENDROOT
BRANCH   2   3
HETATM    3  O   UNL     1      -8.634   6.332  69.235  1.00  0.00    -0.123 OA 
BRANCH   3   4
HETATM    4  C   UNL     1      -9.080   5.362  68.378  1.00  0.00    -0.109 C  
HETATM    5  C   UNL     1      -7.952   4.815  67.563  1.00  0.00    -0.094 C  
HETATM    6  O   UNL     1     -10.242   4.993  68.298  1.00  0.00    -0.145 OA 
ENDBRANCH   3   4
ENDBRANCH   2   3
BRANCH   2   7
HETATM    7  C   UNL     1      -9.510   7.680  71.070  1.00  0.00    -0.159 C  
BRANCH   7   8
HETATM    8  N   UNL     1     -10.928   7.851  71.685  1.00  0.00    -0.233 N  
HETATM    9  C   UNL     1     -11.859   6.871  70.962  1.00  0.00    -0.364 C  
HETATM   10  C   UNL     1     -10.958   7.512  73.170  1.00  0.00    -0.367 C  
HETATM   11  C   UNL     1     -11.457   9.264  71.477  1.00  0.00    -0.384 C  
ENDBRANCH   7   8
ENDBRANCH   2   7
TORSDOF 4
ENDMDL
MODEL      172
REMARK 921   NORMALIZED FREE ENERGY PREDICTED BY IDOCK:   -1.74 KCAL/MOL
REMARK 922        TOTAL FREE ENERGY PREDICTED BY IDOCK:   -2.55 KCAL/MOL
REMARK 923 INTER-LIGAND FREE ENERGY PREDICTED BY IDOCK:   -2.25 KCAL/MOL
REMARK 924 INTRA-LIGAND FREE ENERGY PREDICTED BY IDOCK:   -0.30 KCAL/MOL
REMARK 927      BINDING AFFINITY PREDICTED BY RF-SCORE:    0.00 PKD
ROOT
HETATM    1  C   UNL     1     -10.649   7.480  69.318  1.00  0.00    -0.215 C  
HETATM    2  C   UNL     1     -10.215   7.493  67.852  1.00  0.00    -0.194 C  
ENDROOT
BRANCH   2   3
HETATM    3  O   UNL     1     -10.695   8.720  67.263  1.00  0.00    -0.276 OA 
BRANCH   3   4
HETATM    4  C   UNL     1      -9.725   9.617  66.909  1.00  0.00    -0.186 C  
HETATM    5  C   UNL     1      -9.873  10.891  67.678  1.00  0.00    -0.192 C  
HETATM    6  O   UNL     1      -8.854   9.401  66.079  1.00  0.00    -0.142 OA 
ENDBRANCH   3   4
ENDBRANCH   2   3
BRANCH   2   7
HETATM    7  C   UNL     1     -10.854   6.289  67.123  1.00  0.00    -0.381 C  
BRANCH   7   8
HETATM    8  N   UNL     1      -9.858   5.248  66.538  1.00  0.00    -0.168 N  
HETATM    9  C   UNL     1      -9.390   4.362  67.698  1.00  0.00    -0.154 C  
HETATM   10  C   UNL     1     -10.509   4.347  65.497  1.00  0.00    -0.199 C  
HETATM   11  C   UNL     1      -8.639   5.928  65.928  1.00  0.00    -0.145 C  
ENDBRANCH   7   8
ENDBRANCH   2   7
TORSDOF 4
ENDMDL
MODEL      173
REMARK 921   NORMALIZED FREE ENERGY PREDICTED BY IDOCK:   -1.74 KCAL/MOL
REMARK 922        TOTAL FREE ENERGY PREDICTED BY IDOCK:   -2.54 KCAL/MOL
REMARK 923 INTER-LIGAND FREE ENERGY PREDICTED BY IDOCK:   -2.26 KCAL/MOL
REMARK 924 INTRA-LIGAND FREE ENERGY PREDICTED BY IDOCK:   -0.29 KCAL/MOL
REMARK 927      BINDING AFFINITY PREDICTED BY RF-SCORE:    0.00 PKD
ROOT
HETATM    1  C   UNL     1      -7.946   4.623  69.851  1.00  0.00    -0.068 C  
HETATM    2  C   UNL     1      -9.142   4.792  68.913  1.00  0.00    -0.115 C  
ENDROOT
BRANCH   2   3
HETATM    3  O   UNL     1     -10.339   4.753  69.717  1.00  0.00    -0.227 OA 
BRANCH   3   4
HETATM    4  C   UNL     1     -11.015   5.938  69.817  1.00  0.00    -0.382 C  
HETATM    5  C   UNL     1     -11.142   6.358  71.247  1.00  0.00    -0.334 C  
HETATM    6  O   UNL     1     -11.449   6.568  68.864  1.00  0.00    -0.266 OA 
ENDBRANCH   3   4
ENDBRANCH   2   3
BRANCH   2   7
HETATM    7  C   UNL     1      -9.163   3.622  67.903  1.00  0.00    -0.176 C  
BRANCH   7   8
HETATM    8  N   UNL     1      -9.177   4.027  66.401  1.00  0.00    -0.152 N  
HETATM    9  C   UNL     1      -7.954   4.920  66.158  1.00  0.00    -0.107 C  
HETATM   10  C   UNL     1      -9.064   2.822  65.477  1.00  0.00    -0.137 C  
HETATM   11  C   UNL     1     -10.430   4.819  66.051  1.00  0.00    -0.292 C  
ENDBRANCH   7   8
ENDBRANCH   2   7
TORSDOF 4
ENDMDL
MODEL      174
REMARK 921   NORMALIZED FREE ENERGY PREDICTED BY IDOCK:   -1.73 KCAL/MOL
REMARK 922        TOTAL FREE ENERGY PREDICTED BY IDOCK:   -2.53 KCAL/MOL
REMARK 923 INTER-LIGAND FREE ENERGY PREDICTED BY IDOCK:   -2.19 KCAL/MOL
REMARK 924 INTRA-LIGAND FREE ENERGY PREDICTED BY IDOCK:   -0.34 KCAL/MOL
REMARK 927      BINDING AFFINITY PREDICTED BY RF-SCORE:    0.00 PKD
ROOT
HETATM    1  C   UNL     1     -10.376  10.668  65.452  1.00  0.00    -0.303 C  
HETATM    2  C   UNL     1      -9.654  11.426  66.566  1.00  0.00    -0.198 C  
ENDROOT
BRANCH   2   3
HETATM    3  O   UNL     1     -10.033  12.815  66.468  1.00  0.00    -0.241 OA 
BRANCH   3   4
HETATM    4  C   UNL     1     -10.844  13.271  67.470  1.00  0.00    -0.263 C  
HETATM    5  C   UNL     1     -12.149  13.753  66.918  1.00  0.00    -0.454 C  
HETATM    6  O   UNL     1     -10.543  13.278  68.654  1.00  0.00    -0.253 OA 
ENDBRANCH   3   4
ENDBRANCH   2   3
BRANCH   2   7
HETATM    7  C   UNL     1      -8.128  11.293  66.362  1.00  0.00    -0.138 C  
BRANCH   7   8
HETATM    8  N   UNL     1      -7.303  10.956  67.637  1.00  0.00    -0.092 N  
HETATM    9  C   UNL     1      -8.082   9.888  68.414  1.00  0.00    -0.101 C  
HETATM   10  C   UNL     1      -5.933  10.381  67.303  1.00  0.00    -0.053 C  
HETATM   11  C   UNL     1      -7.137  12.178  68.530  1.00  0.00    -0.099 C  
ENDBRANCH   7   8
ENDBRANCH   2   7
TORSDOF 4
ENDMDL
MODEL      175
REMARK 921   NORMALIZED FREE ENERGY PREDICTED BY IDOCK:   -1.72 KCAL/MOL
REMARK 922        TOTAL FREE ENERGY PREDICTED BY IDOCK:   -2.53 KCAL/MOL
REMARK 923 INTER-LIGAND FREE ENERGY PREDICTED BY IDOCK:   -2.22 KCAL/MOL
REMARK 924 INTRA-LIGAND FREE ENERGY PREDICTED BY IDOCK:   -0.31 KCAL/MOL
REMARK 927      BINDING AFFINITY PREDICTED BY RF-SCORE:    0.00 PKD
ROOT
HETATM    1  C   UNL     1     -10.033   9.558  65.968  1.00  0.00    -0.348 C  
HETATM    2  C   UNL     1      -9.577   8.279  66.670  1.00  0.00    -0.233 C  
ENDROOT
BRANCH   2   3
HETATM    3  O   UNL     1     -10.596   7.915  67.624  1.00  0.00    -0.240 OA 
BRANCH   3   4
HETATM    4  C   UNL     1     -10.887   6.579  67.688  1.00  0.00    -0.337 C  
HETATM    5  C   UNL     1     -11.180   6.166  69.095  1.00  0.00    -0.409 C  
HETATM    6  O   UNL     1     -10.908   5.830  66.722  1.00  0.00    -0.298 OA 
ENDBRANCH   3   4
ENDBRANCH   2   3
BRANCH   2   7
HETATM    7  C   UNL     1      -8.250   8.554  67.413  1.00  0.00    -0.109 C  
BRANCH   7   8
HETATM    8  N   UNL     1      -7.032   7.698  66.961  1.00  0.00    -0.077 N  
HETATM    9  C   UNL     1      -6.272   7.284  68.226  1.00  0.00    -0.036 C  
HETATM   10  C   UNL     1      -7.456   6.428  66.236  1.00  0.00    -0.085 C  
HETATM   11  C   UNL     1      -6.090   8.500  66.072  1.00  0.00    -0.048 C  
ENDBRANCH   7   8
ENDBRANCH   2   7
TORSDOF 4
ENDMDL
MODEL      176
REMARK 921   NORMALIZED FREE ENERGY PREDICTED BY IDOCK:   -1.70 KCAL/MOL
REMARK 922        TOTAL FREE ENERGY PREDICTED BY IDOCK:   -2.50 KCAL/MOL
REMARK 923 INTER-LIGAND FREE ENERGY PREDICTED BY IDOCK:   -2.29 KCAL/MOL
REMARK 924 INTRA-LIGAND FREE ENERGY PREDICTED BY IDOCK:   -0.22 KCAL/MOL
REMARK 927      BINDING AFFINITY PREDICTED BY RF-SCORE:    0.00 PKD
ROOT
HETATM    1  C   UNL     1     -10.537  11.051  64.404  1.00  0.00    -0.395 C  
HETATM    2  C   UNL     1      -9.888   9.957  65.253  1.00  0.00    -0.303 C  
ENDROOT
BRANCH   2   3
HETATM    3  O   UNL     1     -10.542   9.954  66.538  1.00  0.00    -0.176 OA 
BRANCH   3   4
HETATM    4  C   UNL     1     -10.385   8.809  67.271  1.00  0.00    -0.290 C  
HETATM    5  C   UNL     1     -10.049   9.130  68.692  1.00  0.00    -0.212 C  
HETATM    6  O   UNL     1     -10.508   7.679  66.822  1.00  0.00    -0.314 OA 
ENDBRANCH   3   4
ENDBRANCH   2   3
BRANCH   2   7
HETATM    7  C   UNL     1      -8.389  10.284  65.439  1.00  0.00    -0.162 C  
BRANCH   7   8
HETATM    8  N   UNL     1      -7.397   9.374  64.660  1.00  0.00    -0.101 N  
HETATM    9  C   UNL     1      -6.191  10.238  64.276  1.00  0.00    -0.109 C  
HETATM   10  C   UNL     1      -6.889   8.215  65.507  1.00  0.00    -0.062 C  
HETATM   11  C   UNL     1      -8.027   8.830  63.384  1.00  0.00    -0.161 C  
ENDBRANCH   7   8
ENDBRANCH   2   7
TORSDOF 4
ENDMDL
MODEL      177
REMARK 921   NORMALIZED FREE ENERGY PREDICTED BY IDOCK:   -1.68 KCAL/MOL
REMARK 922        TOTAL FREE ENERGY PREDICTED BY IDOCK:   -2.47 KCAL/MOL
REMARK 923 INTER-LIGAND FREE ENERGY PREDICTED BY IDOCK:   -2.16 KCAL/MOL
REMARK 924 INTRA-LIGAND FREE ENERGY PREDICTED BY IDOCK:   -0.32 KCAL/MOL
REMARK 927      BINDING AFFINITY PREDICTED BY RF-SCORE:    0.00 PKD
ROOT
HETATM    1  C   UNL     1      -9.020   6.367  67.252  1.00  0.00    -0.107 C  
HETATM    2  C   UNL     1      -9.654   5.747  68.497  1.00  0.00    -0.126 C  
ENDROOT
BRANCH   2   3
HETATM    3  O   UNL     1     -10.013   4.387  68.176  1.00  0.00    -0.102 OA 
BRANCH   3   4
HETATM    4  C   UNL     1      -9.253   3.423  68.781  1.00  0.00    -0.166 C  
HETATM    5  C   UNL     1      -9.292   2.148  68.000  1.00  0.00    -0.244 C  
HETATM    6  O   UNL     1      -8.626   3.588  69.816  1.00  0.00    -0.058 OA 
ENDBRANCH   3   4
ENDBRANCH   2   3
BRANCH   2   7
HETATM    7  C   UNL     1     -10.927   6.542  68.866  1.00  0.00    -0.314 C  
BRANCH   7   8
HETATM    8  N   UNL     1     -10.934   7.187  70.281  1.00  0.00    -0.256 N  
HETATM    9  C   UNL     1     -10.809   8.703  70.091  1.00  0.00    -0.233 C  
HETATM   10  C   UNL     1     -12.231   6.917  71.033  1.00  0.00    -0.377 C  
HETATM   11  C   UNL     1      -9.754   6.706  71.116  1.00  0.00    -0.174 C  
ENDBRANCH   7   8
ENDBRANCH   2   7
TORSDOF 4
ENDMDL
MODEL      178
REMARK 921   NORMALIZED FREE ENERGY PREDICTED BY IDOCK:   -1.67 KCAL/MOL
REMARK 922        TOTAL FREE ENERGY PREDICTED BY IDOCK:   -2.46 KCAL/MOL
REMARK 923 INTER-LIGAND FREE ENERGY PREDICTED BY IDOCK:   -2.12 KCAL/MOL
REMARK 924 INTRA-LIGAND FREE ENERGY PREDICTED BY IDOCK:   -0.33 KCAL/MOL
REMARK 927      BINDING AFFINITY PREDICTED BY RF-SCORE:    0.00 PKD
ROOT
HETATM    1  C   UNL     1      -8.117   8.633  63.341  1.00  0.00    -0.168 C  
HETATM    2  C   UNL     1      -8.631   9.098  64.704  1.00  0.00    -0.182 C  
ENDROOT
BRANCH   2   3
HETATM    3  O   UNL     1      -8.352  10.508  64.820  1.00  0.00    -0.170 OA 
BRANCH   3   4
HETATM    4  C   UNL     1      -9.426  11.292  65.143  1.00  0.00    -0.215 C  
HETATM    5  C   UNL     1     -10.582  11.008  64.238  1.00  0.00    -0.402 C  
HETATM    6  O   UNL     1      -9.437  12.108  66.053  1.00  0.00    -0.239 OA 
ENDBRANCH   3   4
ENDBRANCH   2   3
BRANCH   2   7
HETATM    7  C   UNL     1      -7.880   8.332  65.817  1.00  0.00    -0.098 C  
BRANCH   7   8
HETATM    8  N   UNL     1      -8.726   7.956  67.067  1.00  0.00    -0.126 N  
HETATM    9  C   UNL     1      -8.573   9.096  68.080  1.00  0.00    -0.129 C  
HETATM   10  C   UNL     1     -10.207   7.818  66.742  1.00  0.00    -0.276 C  
HETATM   11  C   UNL     1      -8.225   6.669  67.709  1.00  0.00    -0.119 C  
ENDBRANCH   7   8
ENDBRANCH   2   7
TORSDOF 4
ENDMDL
MODEL      179
REMARK 921   NORMALIZED FREE ENERGY PREDICTED BY IDOCK:   -1.66 KCAL/MOL
REMARK 922        TOTAL FREE ENERGY PREDICTED BY IDOCK:   -2.45 KCAL/MOL
REMARK 923 INTER-LIGAND FREE ENERGY PREDICTED BY IDOCK:   -2.19 KCAL/MOL
REMARK 924 INTRA-LIGAND FREE ENERGY PREDICTED BY IDOCK:   -0.26 KCAL/MOL
REMARK 927      BINDING AFFINITY PREDICTED BY RF-SCORE:    0.00 PKD
ROOT
HETATM    1  C   UNL     1      -7.813   8.190  73.583  1.00  0.00    -0.240 C  
HETATM    2  C   UNL     1      -8.888   7.401  72.835  1.00  0.00    -0.134 C  
ENDROOT
BRANCH   2   3
HETATM    3  O   UNL     1      -8.249   6.724  71.734  1.00  0.00    -0.106 OA 
BRANCH   3   4
HETATM    4  C   UNL     1      -7.773   5.471  72.014  1.00  0.00    -0.101 C  
HETATM    5  C   UNL     1      -6.372   5.312  71.518  1.00  0.00    -0.034 C  
HETATM    6  O   UNL     1      -8.410   4.605  72.596  1.00  0.00    -0.111 OA 
ENDBRANCH   3   4
ENDBRANCH   2   3
BRANCH   2   7
HETATM    7  C   UNL     1      -9.950   8.382  72.289  1.00  0.00    -0.313 C  
BRANCH   7   8
HETATM    8  N   UNL     1     -11.303   7.745  71.862  1.00  0.00    -0.259 N  
HETATM    9  C   UNL     1     -11.261   7.564  70.341  1.00  0.00    -0.253 C  
HETATM   10  C   UNL     1     -11.518   6.373  72.488  1.00  0.00    -0.247 C  
HETATM   11  C   UNL     1     -12.477   8.650  72.210  1.00  0.00    -0.395 C  
ENDBRANCH   7   8
ENDBRANCH   2   7
TORSDOF 4
ENDMDL
MODEL      180
REMARK 921   NORMALIZED FREE ENERGY PREDICTED BY IDOCK:   -1.66 KCAL/MOL
REMARK 922        TOTAL FREE ENERGY PREDICTED BY IDOCK:   -2.45 KCAL/MOL
REMARK 923 INTER-LIGAND FREE ENERGY PREDICTED BY IDOCK:   -2.11 KCAL/MOL
REMARK 924 INTRA-LIGAND FREE ENERGY PREDICTED BY IDOCK:   -0.34 KCAL/MOL
REMARK 927      BINDING AFFINITY PREDICTED BY RF-SCORE:    0.00 PKD
ROOT
HETATM    1  C   UNL     1      -7.624   5.504  71.311  1.00  0.00    -0.099 C  
HETATM    2  C   UNL     1      -8.520   6.580  70.698  1.00  0.00    -0.134 C  
ENDROOT
BRANCH   2   3
HETATM    3  O   UNL     1      -9.598   6.833  71.622  1.00  0.00    -0.163 OA 
BRANCH   3   4
HETATM    4  C   UNL     1      -9.794   8.148  71.946  1.00  0.00    -0.212 C  
HETATM    5  C   UNL     1     -11.248   8.432  72.152  1.00  0.00    -0.431 C  
HETATM    6  O   UNL     1      -8.900   8.973  72.056  1.00  0.00    -0.373 OA 
ENDBRANCH   3   4
ENDBRANCH   2   3
BRANCH   2   7
HETATM    7  C   UNL     1      -9.099   6.057  69.363  1.00  0.00    -0.133 C  
BRANCH   7   8
HETATM    8  N   UNL     1      -9.022   7.041  68.161  1.00  0.00    -0.128 N  
HETATM    9  C   UNL     1     -10.444   7.548  67.896  1.00  0.00    -0.204 C  
HETATM   10  C   UNL     1      -8.144   8.249  68.459  1.00  0.00    -0.123 C  
HETATM   11  C   UNL     1      -8.516   6.344  66.905  1.00  0.00    -0.110 C  
ENDBRANCH   7   8
ENDBRANCH   2   7
TORSDOF 4
ENDMDL
MODEL      181
REMARK 921   NORMALIZED FREE ENERGY PREDICTED BY IDOCK:   -1.66 KCAL/MOL
REMARK 922        TOTAL FREE ENERGY PREDICTED BY IDOCK:   -2.45 KCAL/MOL
REMARK 923 INTER-LIGAND FREE ENERGY PREDICTED BY IDOCK:   -2.18 KCAL/MOL
REMARK 924 INTRA-LIGAND FREE ENERGY PREDICTED BY IDOCK:   -0.27 KCAL/MOL
REMARK 927      BINDING AFFINITY PREDICTED BY RF-SCORE:    0.00 PKD
ROOT
HETATM    1  C   UNL     1     -10.268   5.562  66.481  1.00  0.00    -0.273 C  
HETATM    2  C   UNL     1      -9.792   6.741  67.330  1.00  0.00    -0.145 C  
ENDROOT
BRANCH   2   3
HETATM    3  O   UNL     1      -9.216   7.719  66.438  1.00  0.00    -0.169 OA 
BRANCH   3   4
HETATM    4  C   UNL     1      -9.934   8.875  66.296  1.00  0.00    -0.266 C  
HETATM    5  C   UNL     1     -10.658   9.209  67.562  1.00  0.00    -0.317 C  
HETATM    6  O   UNL     1      -9.973   9.543  65.274  1.00  0.00    -0.247 OA 
ENDBRANCH   3   4
ENDBRANCH   2   3
BRANCH   2   7
HETATM    7  C   UNL     1      -8.712   6.249  68.320  1.00  0.00    -0.115 C  
BRANCH   7   8
HETATM    8  N   UNL     1      -9.054   6.413  69.828  1.00  0.00    -0.141 N  
HETATM    9  C   UNL     1     -10.578   6.323  69.962  1.00  0.00    -0.248 C  
HETATM   10  C   UNL     1      -8.446   5.307  70.681  1.00  0.00    -0.117 C  
HETATM   11  C   UNL     1      -8.601   7.767  70.357  1.00  0.00    -0.137 C  
ENDBRANCH   7   8
ENDBRANCH   2   7
TORSDOF 4
ENDMDL
MODEL      182
REMARK 921   NORMALIZED FREE ENERGY PREDICTED BY IDOCK:   -1.61 KCAL/MOL
REMARK 922        TOTAL FREE ENERGY PREDICTED BY IDOCK:   -2.40 KCAL/MOL
REMARK 923 INTER-LIGAND FREE ENERGY PREDICTED BY IDOCK:   -2.57 KCAL/MOL
REMARK 924 INTRA-LIGAND FREE ENERGY PREDICTED BY IDOCK:    0.17 KCAL/MOL
REMARK 927      BINDING AFFINITY PREDICTED BY RF-SCORE:    0.00 PKD
ROOT
HETATM    1  C   UNL     1     -10.937   6.382  68.583  1.00  0.00    -0.404 C  
HETATM    2  C   UNL     1     -10.348   7.060  69.821  1.00  0.00    -0.212 C  
ENDROOT
BRANCH   2   3
HETATM    3  O   UNL     1     -11.340   7.003  70.866  1.00  0.00    -0.267 OA 
BRANCH   3   4
HETATM    4  C   UNL     1     -11.274   8.009  71.791  1.00  0.00    -0.266 C  
HETATM    5  C   UNL     1     -12.493   8.872  71.724  1.00  0.00    -0.425 C  
HETATM    6  O   UNL     1     -10.345   8.174  72.568  1.00  0.00    -0.282 OA 
ENDBRANCH   3   4
ENDBRANCH   2   3
BRANCH   2   7
HETATM    7  C   UNL     1     -10.035   8.537  69.489  1.00  0.00    -0.193 C  
BRANCH   7   8
HETATM    8  N   UNL     1      -8.554   8.849  69.129  1.00  0.00    -0.132 N  
HETATM    9  C   UNL     1      -8.548   9.478  67.731  1.00  0.00    -0.115 C  
HETATM   10  C   UNL     1      -7.924   9.847  70.092  1.00  0.00    -0.162 C  
HETATM   11  C   UNL     1      -7.712   7.580  69.092  1.00  0.00    -0.113 C  
ENDBRANCH   7   8
ENDBRANCH   2   7
TORSDOF 4
ENDMDL
MODEL      183
REMARK 921   NORMALIZED FREE ENERGY PREDICTED BY IDOCK:   -1.61 KCAL/MOL
REMARK 922        TOTAL FREE ENERGY PREDICTED BY IDOCK:   -2.38 KCAL/MOL
REMARK 923 INTER-LIGAND FREE ENERGY PREDICTED BY IDOCK:   -2.07 KCAL/MOL
REMARK 924 INTRA-LIGAND FREE ENERGY PREDICTED BY IDOCK:   -0.31 KCAL/MOL
REMARK 927      BINDING AFFINITY PREDICTED BY RF-SCORE:    0.00 PKD
ROOT
HETATM    1  C   UNL     1     -10.252  11.231  65.432  1.00  0.00    -0.323 C  
HETATM    2  C   UNL     1      -9.557  10.211  66.334  1.00  0.00    -0.191 C  
ENDROOT
BRANCH   2   3
HETATM    3  O   UNL     1     -10.384   9.031  66.381  1.00  0.00    -0.261 OA 
BRANCH   3   4
HETATM    4  C   UNL     1      -9.735   7.876  66.725  1.00  0.00    -0.234 C  
HETATM    5  C   UNL     1     -10.301   7.305  67.986  1.00  0.00    -0.243 C  
HETATM    6  O   UNL     1      -8.822   7.379  66.083  1.00  0.00    -0.156 OA 
ENDBRANCH   3   4
ENDBRANCH   2   3
BRANCH   2   7
HETATM    7  C   UNL     1      -9.422  10.802  67.756  1.00  0.00    -0.155 C  
BRANCH   7   8
HETATM    8  N   UNL     1      -7.969  11.072  68.241  1.00  0.00    -0.118 N  
HETATM    9  C   UNL     1      -7.022  10.561  67.149  1.00  0.00    -0.089 C  
HETATM   10  C   UNL     1      -7.693  12.556  68.440  1.00  0.00    -0.136 C  
HETATM   11  C   UNL     1      -7.667  10.323  69.532  1.00  0.00    -0.165 C  
ENDBRANCH   7   8
ENDBRANCH   2   7
TORSDOF 4
ENDMDL
MODEL      184
REMARK 921   NORMALIZED FREE ENERGY PREDICTED BY IDOCK:   -1.58 KCAL/MOL
REMARK 922        TOTAL FREE ENERGY PREDICTED BY IDOCK:   -2.36 KCAL/MOL
REMARK 923 INTER-LIGAND FREE ENERGY PREDICTED BY IDOCK:   -2.04 KCAL/MOL
REMARK 924 INTRA-LIGAND FREE ENERGY PREDICTED BY IDOCK:   -0.31 KCAL/MOL
REMARK 927      BINDING AFFINITY PREDICTED BY RF-SCORE:    0.00 PKD
ROOT
HETATM    1  C   UNL     1      -9.180   9.106  70.894  1.00  0.00    -0.326 C  
HETATM    2  C   UNL     1      -9.359   7.635  70.517  1.00  0.00    -0.163 C  
ENDROOT
BRANCH   2   3
HETATM    3  O   UNL     1      -9.794   7.585  69.143  1.00  0.00    -0.165 OA 
BRANCH   3   4
HETATM    4  C   UNL     1      -8.877   7.088  68.257  1.00  0.00    -0.126 C  
HETATM    5  C   UNL     1      -8.689   8.025  67.106  1.00  0.00    -0.134 C  
HETATM    6  O   UNL     1      -8.290   6.025  68.394  1.00  0.00    -0.112 OA 
ENDBRANCH   3   4
ENDBRANCH   2   3
BRANCH   2   7
HETATM    7  C   UNL     1     -10.444   7.008  71.423  1.00  0.00    -0.208 C  
BRANCH   7   8
HETATM    8  N   UNL     1     -10.056   5.669  72.113  1.00  0.00    -0.182 N  
HETATM    9  C   UNL     1     -11.179   5.321  73.096  1.00  0.00    -0.318 C  
HETATM   10  C   UNL     1      -9.934   4.522  71.120  1.00  0.00    -0.187 C  
HETATM   11  C   UNL     1      -8.755   5.804  72.894  1.00  0.00    -0.124 C  
ENDBRANCH   7   8
ENDBRANCH   2   7
TORSDOF 4
ENDMDL
MODEL      185
REMARK 921   NORMALIZED FREE ENERGY PREDICTED BY IDOCK:   -1.57 KCAL/MOL
REMARK 922        TOTAL FREE ENERGY PREDICTED BY IDOCK:   -2.34 KCAL/MOL
REMARK 923 INTER-LIGAND FREE ENERGY PREDICTED BY IDOCK:   -2.03 KCAL/MOL
REMARK 924 INTRA-LIGAND FREE ENERGY PREDICTED BY IDOCK:   -0.31 KCAL/MOL
REMARK 927      BINDING AFFINITY PREDICTED BY RF-SCORE:    0.00 PKD
ROOT
HETATM    1  C   UNL     1      -9.340   3.108  68.976  1.00  0.00    -0.230 C  
HETATM    2  C   UNL     1      -9.442   4.445  68.241  1.00  0.00    -0.153 C  
ENDROOT
BRANCH   2   3
HETATM    3  O   UNL     1     -10.622   5.120  68.721  1.00  0.00    -0.114 OA 
BRANCH   3   4
HETATM    4  C   UNL     1     -10.390   6.201  69.527  1.00  0.00    -0.219 C  
HETATM    5  C   UNL     1     -11.583   6.492  70.381  1.00  0.00    -0.470 C  
HETATM    6  O   UNL     1      -9.347   6.836  69.548  1.00  0.00    -0.147 OA 
ENDBRANCH   3   4
ENDBRANCH   2   3
BRANCH   2   7
HETATM    7  C   UNL     1      -9.581   4.179  66.725  1.00  0.00    -0.208 C  
BRANCH   7   8
HETATM    8  N   UNL     1      -8.621   4.988  65.807  1.00  0.00    -0.127 N  
HETATM    9  C   UNL     1      -8.960   4.621  64.357  1.00  0.00    -0.142 C  
HETATM   10  C   UNL     1      -8.804   6.491  65.961  1.00  0.00    -0.143 C  
HETATM   11  C   UNL     1      -7.165   4.624  66.069  1.00  0.00    -0.076 C  
ENDBRANCH   7   8
ENDBRANCH   2   7
TORSDOF 4
ENDMDL
MODEL      186
REMARK 921   NORMALIZED FREE ENERGY PREDICTED BY IDOCK:   -1.50 KCAL/MOL
REMARK 922        TOTAL FREE ENERGY PREDICTED BY IDOCK:   -2.25 KCAL/MOL
REMARK 923 INTER-LIGAND FREE ENERGY PREDICTED BY IDOCK:   -1.94 KCAL/MOL
REMARK 924 INTRA-LIGAND FREE ENERGY PREDICTED BY IDOCK:   -0.31 KCAL/MOL
REMARK 927      BINDING AFFINITY PREDICTED BY RF-SCORE:    0.00 PKD
ROOT
HETATM    1  C   UNL     1      -7.244   7.471  67.381  1.00  0.00    -0.087 C  
HETATM    2  C   UNL     1      -8.574   8.212  67.247  1.00  0.00    -0.124 C  
ENDROOT
BRANCH   2   3
HETATM    3  O   UNL     1      -9.605   7.364  67.793  1.00  0.00    -0.138 OA 
BRANCH   3   4
HETATM    4  C   UNL     1     -10.273   7.876  68.872  1.00  0.00    -0.205 C  
HETATM    5  C   UNL     1     -10.319   6.882  69.989  1.00  0.00    -0.219 C  
HETATM    6  O   UNL     1     -10.760   8.996  68.915  1.00  0.00    -0.205 OA 
ENDBRANCH   3   4
ENDBRANCH   2   3
BRANCH   2   7
HETATM    7  C   UNL     1      -8.861   8.471  65.750  1.00  0.00    -0.190 C  
BRANCH   7   8
HETATM    8  N   UNL     1      -8.718   9.947  65.282  1.00  0.00    -0.150 N  
HETATM    9  C   UNL     1      -7.429  10.041  64.457  1.00  0.00    -0.142 C  
HETATM   10  C   UNL     1      -9.873  10.385  64.391  1.00  0.00    -0.328 C  
HETATM   11  C   UNL     1      -8.603  10.898  66.466  1.00  0.00    -0.156 C  
ENDBRANCH   7   8
ENDBRANCH   2   7
TORSDOF 4
ENDMDL
MODEL      187
REMARK 921   NORMALIZED FREE ENERGY PREDICTED BY IDOCK:   -1.50 KCAL/MOL
REMARK 922        TOTAL FREE ENERGY PREDICTED BY IDOCK:   -2.25 KCAL/MOL
REMARK 923 INTER-LIGAND FREE ENERGY PREDICTED BY IDOCK:   -1.94 KCAL/MOL
REMARK 924 INTRA-LIGAND FREE ENERGY PREDICTED BY IDOCK:   -0.31 KCAL/MOL
REMARK 927      BINDING AFFINITY PREDICTED BY RF-SCORE:    0.00 PKD
ROOT
HETATM    1  C   UNL     1      -8.768   8.785  69.567  1.00  0.00    -0.138 C  
HETATM    2  C   UNL     1      -9.097   7.302  69.736  1.00  0.00    -0.141 C  
ENDROOT
BRANCH   2   3
HETATM    3  O   UNL     1      -9.927   7.168  70.907  1.00  0.00    -0.189 OA 
BRANCH   3   4
HETATM    4  C   UNL     1     -11.224   6.804  70.666  1.00  0.00    -0.312 C  
HETATM    5  C   UNL     1     -12.073   7.029  71.878  1.00  0.00    -0.358 C  
HETATM    6  O   UNL     1     -11.631   6.361  69.603  1.00  0.00    -0.417 OA 
ENDBRANCH   3   4
ENDBRANCH   2   3
BRANCH   2   7
HETATM    7  C   UNL     1      -7.785   6.512  69.942  1.00  0.00    -0.109 C  
BRANCH   7   8
HETATM    8  N   UNL     1      -7.416   5.508  68.812  1.00  0.00    -0.078 N  
HETATM    9  C   UNL     1      -8.716   5.140  68.088  1.00  0.00    -0.102 C  
HETATM   10  C   UNL     1      -6.468   6.116  67.787  1.00  0.00    -0.046 C  
HETATM   11  C   UNL     1      -6.801   4.236  69.380  1.00  0.00    -0.046 C  
ENDBRANCH   7   8
ENDBRANCH   2   7
TORSDOF 4
ENDMDL
MODEL      188
REMARK 921   NORMALIZED FREE ENERGY PREDICTED BY IDOCK:   -1.49 KCAL/MOL
REMARK 922        TOTAL FREE ENERGY PREDICTED BY IDOCK:   -2.24 KCAL/MOL
REMARK 923 INTER-LIGAND FREE ENERGY PREDICTED BY IDOCK:   -1.92 KCAL/MOL
REMARK 924 INTRA-LIGAND FREE ENERGY PREDICTED BY IDOCK:   -0.32 KCAL/MOL
REMARK 927      BINDING AFFINITY PREDICTED BY RF-SCORE:    0.00 PKD
ROOT
HETATM    1  C   UNL     1      -6.904   6.760  69.076  1.00  0.00    -0.069 C  
HETATM    2  C   UNL     1      -8.418   6.641  68.896  1.00  0.00    -0.123 C  
ENDROOT
BRANCH   2   3
HETATM    3  O   UNL     1      -8.993   6.369  70.191  1.00  0.00    -0.151 OA 
BRANCH   3   4
HETATM    4  C   UNL     1     -10.287   6.781  70.354  1.00  0.00    -0.198 C  
HETATM    5  C   UNL     1     -10.967   5.987  71.424  1.00  0.00    -0.336 C  
HETATM    6  O   UNL     1     -10.812   7.681  69.714  1.00  0.00    -0.249 OA 
ENDBRANCH   3   4
ENDBRANCH   2   3
BRANCH   2   7
HETATM    7  C   UNL     1      -8.724   5.467  67.940  1.00  0.00    -0.106 C  
BRANCH   7   8
HETATM    8  N   UNL     1      -9.246   5.863  66.529  1.00  0.00    -0.142 N  
HETATM    9  C   UNL     1     -10.599   5.170  66.333  1.00  0.00    -0.276 C  
HETATM   10  C   UNL     1      -9.466   7.363  66.395  1.00  0.00    -0.134 C  
HETATM   11  C   UNL     1      -8.298   5.390  65.434  1.00  0.00    -0.139 C  
ENDBRANCH   7   8
ENDBRANCH   2   7
TORSDOF 4
ENDMDL
MODEL      189
REMARK 921   NORMALIZED FREE ENERGY PREDICTED BY IDOCK:   -1.47 KCAL/MOL
REMARK 922        TOTAL FREE ENERGY PREDICTED BY IDOCK:   -2.22 KCAL/MOL
REMARK 923 INTER-LIGAND FREE ENERGY PREDICTED BY IDOCK:   -1.90 KCAL/MOL
REMARK 924 INTRA-LIGAND FREE ENERGY PREDICTED BY IDOCK:   -0.32 KCAL/MOL
REMARK 927      BINDING AFFINITY PREDICTED BY RF-SCORE:    0.00 PKD
ROOT
HETATM    1  C   UNL     1      -9.689   3.667  64.657  1.00  0.00    -0.179 C  
HETATM    2  C   UNL     1      -9.410   4.157  66.078  1.00  0.00    -0.164 C  
ENDROOT
BRANCH   2   3
HETATM    3  O   UNL     1      -9.421   3.007  66.948  1.00  0.00    -0.150 OA 
BRANCH   3   4
HETATM    4  C   UNL     1      -8.221   2.702  67.529  1.00  0.00    -0.077 C  
HETATM    5  C   UNL     1      -8.319   2.775  69.020  1.00  0.00    -0.085 C  
HETATM    6  O   UNL     1      -7.209   2.406  66.911  1.00  0.00    -0.051 OA 
ENDBRANCH   3   4
ENDBRANCH   2   3
BRANCH   2   7
HETATM    7  C   UNL     1     -10.528   5.136  66.504  1.00  0.00    -0.294 C  
BRANCH   7   8
HETATM    8  N   UNL     1     -10.094   6.277  67.468  1.00  0.00    -0.139 N  
HETATM    9  C   UNL     1     -10.767   6.013  68.820  1.00  0.00    -0.308 C  
HETATM   10  C   UNL     1      -8.589   6.301  67.694  1.00  0.00    -0.114 C  
HETATM   11  C   UNL     1     -10.552   7.638  66.959  1.00  0.00    -0.336 C  
ENDBRANCH   7   8
ENDBRANCH   2   7
TORSDOF 4
ENDMDL
MODEL      190
REMARK 921   NORMALIZED FREE ENERGY PREDICTED BY IDOCK:   -1.46 KCAL/MOL
REMARK 922        TOTAL FREE ENERGY PREDICTED BY IDOCK:   -2.21 KCAL/MOL
REMARK 923 INTER-LIGAND FREE ENERGY PREDICTED BY IDOCK:   -1.87 KCAL/MOL
REMARK 924 INTRA-LIGAND FREE ENERGY PREDICTED BY IDOCK:   -0.34 KCAL/MOL
REMARK 927      BINDING AFFINITY PREDICTED BY RF-SCORE:    0.00 PKD
ROOT
HETATM    1  C   UNL     1      -6.834   4.396  67.673  1.00  0.00    -0.055 C  
HETATM    2  C   UNL     1      -8.328   4.708  67.573  1.00  0.00    -0.104 C  
ENDROOT
BRANCH   2   3
HETATM    3  O   UNL     1      -8.645   4.893  66.178  1.00  0.00    -0.115 OA 
BRANCH   3   4
HETATM    4  C   UNL     1      -9.710   4.166  65.719  1.00  0.00    -0.204 C  
HETATM    5  C   UNL     1      -9.257   2.852  65.167  1.00  0.00    -0.145 C  
HETATM    6  O   UNL     1     -10.872   4.542  65.762  1.00  0.00    -0.247 OA 
ENDBRANCH   3   4
ENDBRANCH   2   3
BRANCH   2   7
HETATM    7  C   UNL     1      -8.625   6.014  68.345  1.00  0.00    -0.111 C  
BRANCH   7   8
HETATM    8  N   UNL     1      -9.756   5.926  69.410  1.00  0.00    -0.146 N  
HETATM    9  C   UNL     1      -9.793   4.479  69.916  1.00  0.00    -0.227 C  
HETATM   10  C   UNL     1      -9.493   6.831  70.606  1.00  0.00    -0.169 C  
HETATM   11  C   UNL     1     -11.114   6.262  68.808  1.00  0.00    -0.346 C  
ENDBRANCH   7   8
ENDBRANCH   2   7
TORSDOF 4
ENDMDL
MODEL      191
REMARK 921   NORMALIZED FREE ENERGY PREDICTED BY IDOCK:   -1.46 KCAL/MOL
REMARK 922        TOTAL FREE ENERGY PREDICTED BY IDOCK:   -2.21 KCAL/MOL
REMARK 923 INTER-LIGAND FREE ENERGY PREDICTED BY IDOCK:   -1.85 KCAL/MOL
REMARK 924 INTRA-LIGAND FREE ENERGY PREDICTED BY IDOCK:   -0.35 KCAL/MOL
REMARK 927      BINDING AFFINITY PREDICTED BY RF-SCORE:    0.00 PKD
ROOT
HETATM    1  C   UNL     1      -8.482   9.894  69.719  1.00  0.00    -0.206 C  
HETATM    2  C   UNL     1      -8.903   8.444  69.478  1.00  0.00    -0.145 C  
ENDROOT
BRANCH   2   3
HETATM    3  O   UNL     1      -8.437   7.661  70.596  1.00  0.00    -0.124 OA 
BRANCH   3   4
HETATM    4  C   UNL     1      -9.331   7.518  71.623  1.00  0.00    -0.145 C  
HETATM    5  C   UNL     1     -10.632   6.976  71.122  1.00  0.00    -0.237 C  
HETATM    6  O   UNL     1      -9.093   7.792  72.790  1.00  0.00    -0.151 OA 
ENDBRANCH   3   4
ENDBRANCH   2   3
BRANCH   2   7
HETATM    7  C   UNL     1      -8.239   7.932  68.180  1.00  0.00    -0.123 C  
BRANCH   7   8
HETATM    8  N   UNL     1      -9.118   7.006  67.291  1.00  0.00    -0.124 N  
HETATM    9  C   UNL     1      -8.412   6.870  65.937  1.00  0.00    -0.144 C  
HETATM   10  C   UNL     1      -9.267   5.611  67.881  1.00  0.00    -0.106 C  
HETATM   11  C   UNL     1     -10.498   7.607  67.058  1.00  0.00    -0.349 C  
ENDBRANCH   7   8
ENDBRANCH   2   7
TORSDOF 4
ENDMDL
MODEL      192
REMARK 921   NORMALIZED FREE ENERGY PREDICTED BY IDOCK:   -1.43 KCAL/MOL
REMARK 922        TOTAL FREE ENERGY PREDICTED BY IDOCK:   -2.16 KCAL/MOL
REMARK 923 INTER-LIGAND FREE ENERGY PREDICTED BY IDOCK:   -2.48 KCAL/MOL
REMARK 924 INTRA-LIGAND FREE ENERGY PREDICTED BY IDOCK:    0.32 KCAL/MOL
REMARK 927      BINDING AFFINITY PREDICTED BY RF-SCORE:    0.00 PKD
ROOT
HETATM    1  C   UNL     1      -9.781   8.757  68.182  1.00  0.00    -0.177 C  
HETATM    2  C   UNL     1     -10.328   9.732  67.139  1.00  0.00    -0.248 C  
ENDROOT
BRANCH   2   3
HETATM    3  O   UNL     1     -10.105   9.152  65.837  1.00  0.00    -0.273 OA 
BRANCH   3   4
HETATM    4  C   UNL     1      -9.129   9.752  65.089  1.00  0.00    -0.222 C  
HETATM    5  C   UNL     1      -9.729  10.595  64.010  1.00  0.00    -0.373 C  
HETATM    6  O   UNL     1      -7.929   9.618  65.284  1.00  0.00    -0.108 OA 
ENDBRANCH   3   4
ENDBRANCH   2   3
BRANCH   2   7
HETATM    7  C   UNL     1      -9.559  11.070  67.244  1.00  0.00    -0.165 C  
BRANCH   7   8
HETATM    8  N   UNL     1     -10.426  12.357  67.135  1.00  0.00    -0.219 N  
HETATM    9  C   UNL     1     -10.461  13.002  68.525  1.00  0.00    -0.249 C  
HETATM   10  C   UNL     1      -9.834  13.371  66.165  1.00  0.00    -0.281 C  
HETATM   11  C   UNL     1     -11.854  12.031  66.718  1.00  0.00    -0.164 C  
ENDBRANCH   7   8
ENDBRANCH   2   7
TORSDOF 4
ENDMDL
MODEL      193
REMARK 921   NORMALIZED FREE ENERGY PREDICTED BY IDOCK:   -1.42 KCAL/MOL
REMARK 922        TOTAL FREE ENERGY PREDICTED BY IDOCK:   -2.16 KCAL/MOL
REMARK 923 INTER-LIGAND FREE ENERGY PREDICTED BY IDOCK:   -1.84 KCAL/MOL
REMARK 924 INTRA-LIGAND FREE ENERGY PREDICTED BY IDOCK:   -0.31 KCAL/MOL
REMARK 927      BINDING AFFINITY PREDICTED BY RF-SCORE:    0.00 PKD
ROOT
HETATM    1  C   UNL     1      -6.791   7.507  68.735  1.00  0.00    -0.065 C  
HETATM    2  C   UNL     1      -8.082   7.040  69.408  1.00  0.00    -0.130 C  
ENDROOT
BRANCH   2   3
HETATM    3  O   UNL     1      -7.720   6.138  70.473  1.00  0.00    -0.096 OA 
BRANCH   3   4
HETATM    4  C   UNL     1      -8.319   6.387  71.678  1.00  0.00    -0.125 C  
HETATM    5  C   UNL     1      -8.349   5.152  72.522  1.00  0.00    -0.117 C  
HETATM    6  O   UNL     1      -8.762   7.474  72.018  1.00  0.00    -0.108 OA 
ENDBRANCH   3   4
ENDBRANCH   2   3
BRANCH   2   7
HETATM    7  C   UNL     1      -8.951   6.290  68.372  1.00  0.00    -0.116 C  
BRANCH   7   8
HETATM    8  N   UNL     1     -10.396   6.834  68.182  1.00  0.00    -0.174 N  
HETATM    9  C   UNL     1     -11.235   6.314  69.354  1.00  0.00    -0.420 C  
HETATM   10  C   UNL     1     -10.449   8.355  68.209  1.00  0.00    -0.163 C  
HETATM   11  C   UNL     1     -11.013   6.328  66.884  1.00  0.00    -0.329 C  
ENDBRANCH   7   8
ENDBRANCH   2   7
TORSDOF 4
ENDMDL
MODEL      194
REMARK 921   NORMALIZED FREE ENERGY PREDICTED BY IDOCK:   -1.40 KCAL/MOL
REMARK 922        TOTAL FREE ENERGY PREDICTED BY IDOCK:   -2.13 KCAL/MOL
REMARK 923 INTER-LIGAND FREE ENERGY PREDICTED BY IDOCK:   -1.88 KCAL/MOL
REMARK 924 INTRA-LIGAND FREE ENERGY PREDICTED BY IDOCK:   -0.25 KCAL/MOL
REMARK 927      BINDING AFFINITY PREDICTED BY RF-SCORE:    0.00 PKD
ROOT
HETATM    1  C   UNL     1      -9.013   4.183  71.571  1.00  0.00    -0.163 C  
HETATM    2  C   UNL     1      -9.016   5.707  71.450  1.00  0.00    -0.140 C  
ENDROOT
BRANCH   2   3
HETATM    3  O   UNL     1      -9.106   6.035  70.048  1.00  0.00    -0.143 OA 
BRANCH   3   4
HETATM    4  C   UNL     1     -10.125   6.883  69.711  1.00  0.00    -0.184 C  
HETATM    5  C   UNL     1     -11.408   6.132  69.548  1.00  0.00    -0.426 C  
HETATM    6  O   UNL     1     -10.002   8.090  69.568  1.00  0.00    -0.179 OA 
ENDBRANCH   3   4
ENDBRANCH   2   3
BRANCH   2   7
HETATM    7  C   UNL     1      -7.693   6.263  72.024  1.00  0.00    -0.096 C  
BRANCH   7   8
HETATM    8  N   UNL     1      -7.784   6.888  73.446  1.00  0.00    -0.090 N  
HETATM    9  C   UNL     1      -7.404   5.794  74.450  1.00  0.00    -0.088 C  
HETATM   10  C   UNL     1      -6.814   8.047  73.631  1.00  0.00    -0.117 C  
HETATM   11  C   UNL     1      -9.199   7.358  73.756  1.00  0.00    -0.257 C  
ENDBRANCH   7   8
ENDBRANCH   2   7
TORSDOF 4
ENDMDL
MODEL      195
REMARK 921   NORMALIZED FREE ENERGY PREDICTED BY IDOCK:   -1.40 KCAL/MOL
REMARK 922        TOTAL FREE ENERGY PREDICTED BY IDOCK:   -2.13 KCAL/MOL
REMARK 923 INTER-LIGAND FREE ENERGY PREDICTED BY IDOCK:   -1.77 KCAL/MOL
REMARK 924 INTRA-LIGAND FREE ENERGY PREDICTED BY IDOCK:   -0.36 KCAL/MOL
REMARK 927      BINDING AFFINITY PREDICTED BY RF-SCORE:    0.00 PKD
ROOT
HETATM    1  C   UNL     1      -7.041   4.498  67.123  1.00  0.00    -0.068 C  
HETATM    2  C   UNL     1      -8.333   5.250  66.802  1.00  0.00    -0.108 C  
ENDROOT
BRANCH   2   3
HETATM    3  O   UNL     1      -8.335   5.535  65.388  1.00  0.00    -0.129 OA 
BRANCH   3   4
HETATM    4  C   UNL     1      -8.984   4.616  64.608  1.00  0.00    -0.151 C  
HETATM    5  C   UNL     1     -10.293   4.230  65.219  1.00  0.00    -0.220 C  
HETATM    6  O   UNL     1      -8.551   4.177  63.553  1.00  0.00    -0.095 OA 
ENDBRANCH   3   4
ENDBRANCH   2   3
BRANCH   2   7
HETATM    7  C   UNL     1      -8.357   6.577  67.594  1.00  0.00    -0.121 C  
BRANCH   7   8
HETATM    8  N   UNL     1      -9.745   7.010  68.146  1.00  0.00    -0.132 N  
HETATM    9  C   UNL     1      -9.500   8.106  69.189  1.00  0.00    -0.155 C  
HETATM   10  C   UNL     1     -10.642   7.591  67.061  1.00  0.00    -0.339 C  
HETATM   11  C   UNL     1     -10.459   5.848  68.825  1.00  0.00    -0.249 C  
ENDBRANCH   7   8
ENDBRANCH   2   7
TORSDOF 4
ENDMDL
MODEL      196
REMARK 921   NORMALIZED FREE ENERGY PREDICTED BY IDOCK:   -1.39 KCAL/MOL
REMARK 922        TOTAL FREE ENERGY PREDICTED BY IDOCK:   -2.12 KCAL/MOL
REMARK 923 INTER-LIGAND FREE ENERGY PREDICTED BY IDOCK:   -1.75 KCAL/MOL
REMARK 924 INTRA-LIGAND FREE ENERGY PREDICTED BY IDOCK:   -0.37 KCAL/MOL
REMARK 927      BINDING AFFINITY PREDICTED BY RF-SCORE:    0.00 PKD
ROOT
HETATM    1  C   UNL     1      -7.526   5.663  68.853  1.00  0.00    -0.084 C  
HETATM    2  C   UNL     1      -8.438   6.640  69.595  1.00  0.00    -0.132 C  
ENDROOT
BRANCH   2   3
HETATM    3  O   UNL     1      -8.057   7.976  69.208  1.00  0.00    -0.114 OA 
BRANCH   3   4
HETATM    4  C   UNL     1      -9.068   8.898  69.216  1.00  0.00    -0.145 C  
HETATM    5  C   UNL     1     -10.158   8.499  68.273  1.00  0.00    -0.225 C  
HETATM    6  O   UNL     1      -9.077   9.907  69.906  1.00  0.00    -0.218 OA 
ENDBRANCH   3   4
ENDBRANCH   2   3
BRANCH   2   7
HETATM    7  C   UNL     1      -8.234   6.467  71.117  1.00  0.00    -0.121 C  
BRANCH   7   8
HETATM    8  N   UNL     1      -9.459   5.921  71.906  1.00  0.00    -0.151 N  
HETATM    9  C   UNL     1      -9.729   6.895  73.059  1.00  0.00    -0.166 C  
HETATM   10  C   UNL     1     -10.715   5.856  71.048  1.00  0.00    -0.267 C  
HETATM   11  C   UNL     1      -9.173   4.545  72.492  1.00  0.00    -0.127 C  
ENDBRANCH   7   8
ENDBRANCH   2   7
TORSDOF 4
ENDMDL
MODEL      197
REMARK 921   NORMALIZED FREE ENERGY PREDICTED BY IDOCK:   -1.16 KCAL/MOL
REMARK 922        TOTAL FREE ENERGY PREDICTED BY IDOCK:   -1.84 KCAL/MOL
REMARK 923 INTER-LIGAND FREE ENERGY PREDICTED BY IDOCK:   -1.51 KCAL/MOL
REMARK 924 INTRA-LIGAND FREE ENERGY PREDICTED BY IDOCK:   -0.33 KCAL/MOL
REMARK 927      BINDING AFFINITY PREDICTED BY RF-SCORE:    0.00 PKD
ROOT
HETATM    1  C   UNL     1      -9.185   5.231  65.852  1.00  0.00    -0.166 C  
HETATM    2  C   UNL     1      -9.240   4.551  67.220  1.00  0.00    -0.136 C  
ENDROOT
BRANCH   2   3
HETATM    3  O   UNL     1      -9.789   3.230  67.031  1.00  0.00    -0.013 OA 
BRANCH   3   4
HETATM    4  C   UNL     1      -9.154   2.230  67.716  1.00  0.00    -0.177 C  
HETATM    5  C   UNL     1      -7.732   2.101  67.270  1.00  0.00    -0.065 C  
HETATM    6  O   UNL     1      -9.679   1.542  68.579  1.00  0.00    -0.176 OA 
ENDBRANCH   3   4
ENDBRANCH   2   3
BRANCH   2   7
HETATM    7  C   UNL     1     -10.166   5.364  68.153  1.00  0.00    -0.165 C  
BRANCH   7   8
HETATM    8  N   UNL     1      -9.489   5.969  69.416  1.00  0.00    -0.133 N  
HETATM    9  C   UNL     1      -8.009   5.573  69.373  1.00  0.00    -0.094 C  
HETATM   10  C   UNL     1      -9.564   7.490  69.438  1.00  0.00    -0.155 C  
HETATM   11  C   UNL     1     -10.101   5.413  70.694  1.00  0.00    -0.231 C  
ENDBRANCH   7   8
ENDBRANCH   2   7
TORSDOF 4
ENDMDL
MODEL      198
REMARK 921   NORMALIZED FREE ENERGY PREDICTED BY IDOCK:   -1.15 KCAL/MOL
REMARK 922        TOTAL FREE ENERGY PREDICTED BY IDOCK:   -1.82 KCAL/MOL
REMARK 923 INTER-LIGAND FREE ENERGY PREDICTED BY IDOCK:   -1.52 KCAL/MOL
REMARK 924 INTRA-LIGAND FREE ENERGY PREDICTED BY IDOCK:   -0.30 KCAL/MOL
REMARK 927      BINDING AFFINITY PREDICTED BY RF-SCORE:    0.00 PKD
ROOT
HETATM    1  C   UNL     1      -7.656   8.028  63.639  1.00  0.00    -0.129 C  
HETATM    2  C   UNL     1      -8.249   7.720  65.015  1.00  0.00    -0.120 C  
ENDROOT
BRANCH   2   3
HETATM    3  O   UNL     1      -7.998   8.857  65.865  1.00  0.00    -0.102 OA 
BRANCH   3   4
HETATM    4  C   UNL     1      -9.096   9.359  66.510  1.00  0.00    -0.153 C  
HETATM    5  C   UNL     1      -8.938   9.247  67.993  1.00  0.00    -0.128 C  
HETATM    6  O   UNL     1     -10.070   9.837  65.947  1.00  0.00    -0.282 OA 
ENDBRANCH   3   4
ENDBRANCH   2   3
BRANCH   2   7
HETATM    7  C   UNL     1      -7.546   6.474  65.601  1.00  0.00    -0.086 C  
BRANCH   7   8
HETATM    8  N   UNL     1      -8.438   5.211  65.768  1.00  0.00    -0.120 N  
HETATM    9  C   UNL     1      -9.741   5.659  66.440  1.00  0.00    -0.156 C  
HETATM   10  C   UNL     1      -8.798   4.578  64.431  1.00  0.00    -0.152 C  
HETATM   11  C   UNL     1      -7.768   4.172  66.657  1.00  0.00    -0.089 C  
ENDBRANCH   7   8
ENDBRANCH   2   7
TORSDOF 4
ENDMDL
MODEL      199
REMARK 921   NORMALIZED FREE ENERGY PREDICTED BY IDOCK:   -1.13 KCAL/MOL
REMARK 922        TOTAL FREE ENERGY PREDICTED BY IDOCK:   -1.80 KCAL/MOL
REMARK 923 INTER-LIGAND FREE ENERGY PREDICTED BY IDOCK:   -1.44 KCAL/MOL
REMARK 924 INTRA-LIGAND FREE ENERGY PREDICTED BY IDOCK:   -0.36 KCAL/MOL
REMARK 927      BINDING AFFINITY PREDICTED BY RF-SCORE:    0.00 PKD
ROOT
HETATM    1  C   UNL     1     -10.286   6.256  69.106  1.00  0.00    -0.262 C  
HETATM    2  C   UNL     1      -9.372   6.861  68.040  1.00  0.00    -0.123 C  
ENDROOT
BRANCH   2   3
HETATM    3  O   UNL     1     -10.145   7.823  67.294  1.00  0.00    -0.188 OA 
BRANCH   3   4
HETATM    4  C   UNL     1      -9.445   8.908  66.838  1.00  0.00    -0.177 C  
HETATM    5  C   UNL     1      -8.922   9.720  67.980  1.00  0.00    -0.118 C  
HETATM    6  O   UNL     1      -9.269   9.170  65.658  1.00  0.00    -0.210 OA 
ENDBRANCH   3   4
ENDBRANCH   2   3
BRANCH   2   7
HETATM    7  C   UNL     1      -8.891   5.740  67.090  1.00  0.00    -0.107 C  
BRANCH   7   8
HETATM    8  N   UNL     1      -7.350   5.550  66.995  1.00  0.00    -0.078 N  
HETATM    9  C   UNL     1      -6.997   4.287  67.789  1.00  0.00    -0.059 C  
HETATM   10  C   UNL     1      -6.881   5.344  65.561  1.00  0.00    -0.060 C  
HETATM   11  C   UNL     1      -6.607   6.729  67.608  1.00  0.00    -0.058 C  
ENDBRANCH   7   8
ENDBRANCH   2   7
TORSDOF 4
ENDMDL
MODEL      200
REMARK 921   NORMALIZED FREE ENERGY PREDICTED BY IDOCK:   -1.13 KCAL/MOL
REMARK 922        TOTAL FREE ENERGY PREDICTED BY IDOCK:   -1.79 KCAL/MOL
REMARK 923 INTER-LIGAND FREE ENERGY PREDICTED BY IDOCK:   -2.66 KCAL/MOL
REMARK 924 INTRA-LIGAND FREE ENERGY PREDICTED BY IDOCK:    0.86 KCAL/MOL
REMARK 927      BINDING AFFINITY PREDICTED BY RF-SCORE:    0.00 PKD
ROOT
HETATM    1  C   UNL     1      -8.904  11.909  68.394  1.00  0.00    -0.159 C  
HETATM    2  C   UNL     1      -9.587  12.393  67.115  1.00  0.00    -0.206 C  
ENDROOT
BRANCH   2   3
HETATM    3  O   UNL     1     -10.975  12.004  67.186  1.00  0.00    -0.243 OA 
BRANCH   3   4
HETATM    4  C   UNL     1     -11.808  12.918  67.771  1.00  0.00    -0.339 C  
HETATM    5  C   UNL     1     -12.209  13.975  66.792  1.00  0.00    -0.439 C  
HETATM    6  O   UNL     1     -12.177  12.870  68.935  1.00  0.00    -0.213 OA 
ENDBRANCH   3   4
ENDBRANCH   2   3
BRANCH   2   7
HETATM    7  C   UNL     1      -8.924  11.711  65.897  1.00  0.00    -0.108 C  
BRANCH   7   8
HETATM    8  N   UNL     1      -9.814  10.698  65.122  1.00  0.00    -0.261 N  
HETATM    9  C   UNL     1      -8.957  10.107  63.996  1.00  0.00    -0.238 C  
HETATM   10  C   UNL     1     -10.282   9.548  66.003  1.00  0.00    -0.172 C  
HETATM   11  C   UNL     1     -11.023  11.385  64.500  1.00  0.00    -0.277 C  
ENDBRANCH   7   8
ENDBRANCH   2   7
TORSDOF 4
ENDMDL
MODEL      201
REMARK 921   NORMALIZED FREE ENERGY PREDICTED BY IDOCK:   -1.10 KCAL/MOL
REMARK 922        TOTAL FREE ENERGY PREDICTED BY IDOCK:   -1.76 KCAL/MOL
REMARK 923 INTER-LIGAND FREE ENERGY PREDICTED BY IDOCK:   -2.23 KCAL/MOL
REMARK 924 INTRA-LIGAND FREE ENERGY PREDICTED BY IDOCK:    0.47 KCAL/MOL
REMARK 927      BINDING AFFINITY PREDICTED BY RF-SCORE:    0.00 PKD
ROOT
HETATM    1  C   UNL     1     -12.249  13.788  67.505  1.00  0.00    -0.262 C  
HETATM    2  C   UNL     1     -11.329  12.901  68.343  1.00  0.00    -0.294 C  
ENDROOT
BRANCH   2   3
HETATM    3  O   UNL     1     -10.125  12.673  67.581  1.00  0.00    -0.211 OA 
BRANCH   3   4
HETATM    4  C   UNL     1      -9.964  13.481  66.488  1.00  0.00    -0.287 C  
HETATM    5  C   UNL     1      -9.329  14.779  66.876  1.00  0.00    -0.256 C  
HETATM    6  O   UNL     1     -10.291  13.178  65.350  1.00  0.00    -0.291 OA 
ENDBRANCH   3   4
ENDBRANCH   2   3
BRANCH   2   7
HETATM    7  C   UNL     1     -12.032  11.550  68.609  1.00  0.00    -0.246 C  
BRANCH   7   8
HETATM    8  N   UNL     1     -12.047  11.077  70.091  1.00  0.00    -0.326 N  
HETATM    9  C   UNL     1     -12.198  12.326  70.966  1.00  0.00    -0.108 C  
HETATM   10  C   UNL     1     -13.221  10.154  70.390  1.00  0.00     0.078 C  
HETATM   11  C   UNL     1     -10.746  10.379  70.464  1.00  0.00    -0.027 C  
ENDBRANCH   7   8
ENDBRANCH   2   7
TORSDOF 4
ENDMDL
MODEL      202
REMARK 921   NORMALIZED FREE ENERGY PREDICTED BY IDOCK:   -1.09 KCAL/MOL
REMARK 922        TOTAL FREE ENERGY PREDICTED BY IDOCK:   -1.75 KCAL/MOL
REMARK 923 INTER-LIGAND FREE ENERGY PREDICTED BY IDOCK:   -1.39 KCAL/MOL
REMARK 924 INTRA-LIGAND FREE ENERGY PREDICTED BY IDOCK:   -0.36 KCAL/MOL
REMARK 927      BINDING AFFINITY PREDICTED BY RF-SCORE:    0.00 PKD
ROOT
HETATM    1  C   UNL     1      -7.710   8.649  63.045  1.00  0.00    -0.126 C  
HETATM    2  C   UNL     1      -7.935   9.037  64.507  1.00  0.00    -0.131 C  
ENDROOT
BRANCH   2   3
HETATM    3  O   UNL     1      -8.149  10.463  64.554  1.00  0.00    -0.164 OA 
BRANCH   3   4
HETATM    4  C   UNL     1      -8.932  10.902  65.586  1.00  0.00    -0.194 C  
HETATM    5  C   UNL     1     -10.347  10.452  65.408  1.00  0.00    -0.270 C  
HETATM    6  O   UNL     1      -8.525  11.567  66.528  1.00  0.00    -0.170 OA 
ENDBRANCH   3   4
ENDBRANCH   2   3
BRANCH   2   7
HETATM    7  C   UNL     1      -6.674   8.679  65.326  1.00  0.00    -0.067 C  
BRANCH   7   8
HETATM    8  N   UNL     1      -6.846   7.535  66.366  1.00  0.00    -0.060 N  
HETATM    9  C   UNL     1      -6.168   6.288  65.788  1.00  0.00    -0.037 C  
HETATM   10  C   UNL     1      -6.175   7.857  67.694  1.00  0.00    -0.051 C  
HETATM   11  C   UNL     1      -8.317   7.219  66.604  1.00  0.00    -0.121 C  
ENDBRANCH   7   8
ENDBRANCH   2   7
TORSDOF 4
ENDMDL
MODEL      203
REMARK 921   NORMALIZED FREE ENERGY PREDICTED BY IDOCK:   -0.99 KCAL/MOL
REMARK 922        TOTAL FREE ENERGY PREDICTED BY IDOCK:   -1.63 KCAL/MOL
REMARK 923 INTER-LIGAND FREE ENERGY PREDICTED BY IDOCK:   -3.13 KCAL/MOL
REMARK 924 INTRA-LIGAND FREE ENERGY PREDICTED BY IDOCK:    1.50 KCAL/MOL
REMARK 927      BINDING AFFINITY PREDICTED BY RF-SCORE:    0.00 PKD
ROOT
HETATM    1  C   UNL     1      -9.432  20.188  66.811  1.00  0.00    -0.533 C  
HETATM    2  C   UNL     1      -8.399  19.823  67.878  1.00  0.00    -0.304 C  
ENDROOT
BRANCH   2   3
HETATM    3  O   UNL     1      -7.148  19.568  67.208  1.00  0.00    -0.203 OA 
BRANCH   3   4
HETATM    4  C   UNL     1      -6.054  20.175  67.763  1.00  0.00    -0.221 C  
HETATM    5  C   UNL     1      -5.250  19.196  68.557  1.00  0.00    -0.190 C  
HETATM    6  O   UNL     1      -5.773  21.356  67.621  1.00  0.00    -0.318 OA 
ENDBRANCH   3   4
ENDBRANCH   2   3
BRANCH   2   7
HETATM    7  C   UNL     1      -8.860  18.543  68.612  1.00  0.00    -0.298 C  
BRANCH   7   8
HETATM    8  N   UNL     1      -9.514  17.451  67.718  1.00  0.00    -0.257 N  
HETATM    9  C   UNL     1     -10.253  16.482  68.649  1.00  0.00    -0.264 C  
HETATM   10  C   UNL     1     -10.533  18.032  66.747  1.00  0.00    -0.328 C  
HETATM   11  C   UNL     1      -8.464  16.667  66.941  1.00  0.00    -0.215 C  
ENDBRANCH   7   8
ENDBRANCH   2   7
TORSDOF 4
ENDMDL
MODEL      204
REMARK 921   NORMALIZED FREE ENERGY PREDICTED BY IDOCK:   -0.89 KCAL/MOL
REMARK 922        TOTAL FREE ENERGY PREDICTED BY IDOCK:   -1.50 KCAL/MOL
REMARK 923 INTER-LIGAND FREE ENERGY PREDICTED BY IDOCK:   -1.07 KCAL/MOL
REMARK 924 INTRA-LIGAND FREE ENERGY PREDICTED BY IDOCK:   -0.43 KCAL/MOL
REMARK 927      BINDING AFFINITY PREDICTED BY RF-SCORE:    0.00 PKD
ROOT
HETATM    1  C   UNL     1      -8.455   1.939  64.609  1.00  0.00    -0.087 C  
HETATM    2  C   UNL     1      -7.965   2.683  65.852  1.00  0.00    -0.082 C  
ENDROOT
BRANCH   2   3
HETATM    3  O   UNL     1      -7.330   1.720  66.717  1.00  0.00    -0.054 OA 
BRANCH   3   4
HETATM    4  C   UNL     1      -6.479   2.246  67.651  1.00  0.00    -0.032 C  
HETATM    5  C   UNL     1      -6.635   1.548  68.964  1.00  0.00    -0.029 C  
HETATM    6  O   UNL     1      -5.694   3.158  67.435  1.00  0.00    -0.021 OA 
ENDBRANCH   3   4
ENDBRANCH   2   3
BRANCH   2   7
HETATM    7  C   UNL     1      -9.178   3.307  66.579  1.00  0.00    -0.154 C  
BRANCH   7   8
HETATM    8  N   UNL     1      -9.073   4.828  66.885  1.00  0.00    -0.114 N  
HETATM    9  C   UNL     1     -10.429   5.457  66.543  1.00  0.00    -0.294 C  
HETATM   10  C   UNL     1      -8.790   5.103  68.356  1.00  0.00    -0.101 C  
HETATM   11  C   UNL     1      -8.003   5.494  66.030  1.00  0.00    -0.106 C  
ENDBRANCH   7   8
ENDBRANCH   2   7
TORSDOF 4
ENDMDL
MODEL      205
REMARK 921   NORMALIZED FREE ENERGY PREDICTED BY IDOCK:   -0.83 KCAL/MOL
REMARK 922        TOTAL FREE ENERGY PREDICTED BY IDOCK:   -1.43 KCAL/MOL
REMARK 923 INTER-LIGAND FREE ENERGY PREDICTED BY IDOCK:   -1.20 KCAL/MOL
REMARK 924 INTRA-LIGAND FREE ENERGY PREDICTED BY IDOCK:   -0.23 KCAL/MOL
REMARK 927      BINDING AFFINITY PREDICTED BY RF-SCORE:    0.00 PKD
ROOT
HETATM    1  C   UNL     1      -9.527   5.893  66.471  1.00  0.00    -0.171 C  
HETATM    2  C   UNL     1      -8.521   6.845  67.117  1.00  0.00    -0.121 C  
ENDROOT
BRANCH   2   3
HETATM    3  O   UNL     1      -7.239   6.616  66.495  1.00  0.00    -0.070 OA 
BRANCH   3   4
HETATM    4  C   UNL     1      -6.666   7.715  65.916  1.00  0.00    -0.046 C  
HETATM    5  C   UNL     1      -7.442   8.148  64.713  1.00  0.00    -0.094 C  
HETATM    6  O   UNL     1      -5.659   8.269  66.332  1.00  0.00    -0.031 OA 
ENDBRANCH   3   4
ENDBRANCH   2   3
BRANCH   2   7
HETATM    7  C   UNL     1      -8.423   6.531  68.627  1.00  0.00    -0.121 C  
BRANCH   7   8
HETATM    8  N   UNL     1      -8.794   7.698  69.585  1.00  0.00    -0.140 N  
HETATM    9  C   UNL     1      -9.091   8.925  68.715  1.00  0.00    -0.134 C  
HETATM   10  C   UNL     1     -10.040   7.397  70.407  1.00  0.00    -0.192 C  
HETATM   11  C   UNL     1      -7.640   8.037  70.520  1.00  0.00    -0.076 C  
ENDBRANCH   7   8
ENDBRANCH   2   7
TORSDOF 4
ENDMDL
MODEL      206
REMARK 921   NORMALIZED FREE ENERGY PREDICTED BY IDOCK:   -0.81 KCAL/MOL
REMARK 922        TOTAL FREE ENERGY PREDICTED BY IDOCK:   -1.41 KCAL/MOL
REMARK 923 INTER-LIGAND FREE ENERGY PREDICTED BY IDOCK:   -1.17 KCAL/MOL
REMARK 924 INTRA-LIGAND FREE ENERGY PREDICTED BY IDOCK:   -0.24 KCAL/MOL
REMARK 927      BINDING AFFINITY PREDICTED BY RF-SCORE:    0.00 PKD
ROOT
HETATM    1  C   UNL     1      -5.917   8.299  63.678  1.00  0.00    -0.071 C  
HETATM    2  C   UNL     1      -6.993   7.752  64.616  1.00  0.00    -0.063 C  
ENDROOT
BRANCH   2   3
HETATM    3  O   UNL     1      -7.417   8.832  65.473  1.00  0.00    -0.083 OA 
BRANCH   3   4
HETATM    4  C   UNL     1      -8.659   9.340  65.202  1.00  0.00    -0.172 C  
HETATM    5  C   UNL     1      -9.353   9.745  66.464  1.00  0.00    -0.207 C  
HETATM    6  O   UNL     1      -9.130   9.451  64.081  1.00  0.00    -0.206 OA 
ENDBRANCH   3   4
ENDBRANCH   2   3
BRANCH   2   7
HETATM    7  C   UNL     1      -6.387   6.620  65.477  1.00  0.00    -0.045 C  
BRANCH   7   8
HETATM    8  N   UNL     1      -7.166   5.274  65.467  1.00  0.00    -0.067 N  
HETATM    9  C   UNL     1      -6.784   4.536  64.179  1.00  0.00    -0.044 C  
HETATM   10  C   UNL     1      -6.792   4.382  66.643  1.00  0.00    -0.055 C  
HETATM   11  C   UNL     1      -8.672   5.503  65.464  1.00  0.00    -0.154 C  
ENDBRANCH   7   8
ENDBRANCH   2   7
TORSDOF 4
ENDMDL
MODEL      207
REMARK 921   NORMALIZED FREE ENERGY PREDICTED BY IDOCK:   -0.26 KCAL/MOL
REMARK 922        TOTAL FREE ENERGY PREDICTED BY IDOCK:   -0.72 KCAL/MOL
REMARK 923 INTER-LIGAND FREE ENERGY PREDICTED BY IDOCK:   -1.32 KCAL/MOL
REMARK 924 INTRA-LIGAND FREE ENERGY PREDICTED BY IDOCK:    0.59 KCAL/MOL
REMARK 927      BINDING AFFINITY PREDICTED BY RF-SCORE:    0.00 PKD
ROOT
HETATM    1  C   UNL     1      -8.885  13.404  68.068  1.00  0.00    -0.183 C  
HETATM    2  C   UNL     1      -9.912  12.295  68.297  1.00  0.00    -0.216 C  
ENDROOT
BRANCH   2   3
HETATM    3  O   UNL     1     -10.502  12.506  69.597  1.00  0.00     0.380 OA 
BRANCH   3   4
HETATM    4  C   UNL     1     -11.755  13.056  69.587  1.00  0.00    -0.297 C  
HETATM    5  C   UNL     1     -11.744  14.389  68.909  1.00  0.00    -0.357 C  
HETATM    6  O   UNL     1     -12.747  12.526  70.065  1.00  0.00     0.106 OA 
ENDBRANCH   3   4
ENDBRANCH   2   3
BRANCH   2   7
HETATM    7  C   UNL     1      -9.195  10.926  68.274  1.00  0.00    -0.161 C  
BRANCH   7   8
HETATM    8  N   UNL     1      -8.597  10.500  66.902  1.00  0.00    -0.124 N  
HETATM    9  C   UNL     1      -8.772   8.982  66.781  1.00  0.00    -0.123 C  
HETATM   10  C   UNL     1      -9.323  11.148  65.730  1.00  0.00    -0.214 C  
HETATM   11  C   UNL     1      -7.111  10.824  66.820  1.00  0.00    -0.127 C  
ENDBRANCH   7   8
ENDBRANCH   2   7
TORSDOF 4
ENDMDL
MODEL      208
REMARK 921   NORMALIZED FREE ENERGY PREDICTED BY IDOCK:   -0.03 KCAL/MOL
REMARK 922        TOTAL FREE ENERGY PREDICTED BY IDOCK:   -0.43 KCAL/MOL
REMARK 923 INTER-LIGAND FREE ENERGY PREDICTED BY IDOCK:   -1.50 KCAL/MOL
REMARK 924 INTRA-LIGAND FREE ENERGY PREDICTED BY IDOCK:    1.07 KCAL/MOL
REMARK 927      BINDING AFFINITY PREDICTED BY RF-SCORE:    0.00 PKD
ROOT
HETATM    1  C   UNL     1      -6.312  13.203  67.428  1.00  0.00    -0.063 C  
HETATM    2  C   UNL     1      -7.140  12.868  68.669  1.00  0.00    -0.103 C  
ENDROOT
BRANCH   2   3
HETATM    3  O   UNL     1      -8.151  11.917  68.277  1.00  0.00    -0.141 OA 
BRANCH   3   4
HETATM    4  C   UNL     1      -7.887  10.614  68.604  1.00  0.00    -0.121 C  
HETATM    5  C   UNL     1      -7.043  10.537  69.836  1.00  0.00    -0.148 C  
HETATM    6  O   UNL     1      -8.292   9.648  67.975  1.00  0.00    -0.116 OA 
ENDBRANCH   3   4
ENDBRANCH   2   3
BRANCH   2   7
HETATM    7  C   UNL     1      -7.818  14.156  69.188  1.00  0.00     0.063 C  
BRANCH   7   8
HETATM    8  N   UNL     1      -9.165  14.531  68.507  1.00  0.00    -0.192 N  
HETATM    9  C   UNL     1      -9.717  15.762  69.236  1.00  0.00    -0.263 C  
HETATM   10  C   UNL     1      -8.988  14.900  67.040  1.00  0.00    -0.236 C  
HETATM   11  C   UNL     1     -10.182  13.403  68.627  1.00  0.00    -0.182 C  
ENDBRANCH   7   8
ENDBRANCH   2   7
TORSDOF 4
ENDMDL
MODEL      209
REMARK 921   NORMALIZED FREE ENERGY PREDICTED BY IDOCK:    0.47 KCAL/MOL
REMARK 922        TOTAL FREE ENERGY PREDICTED BY IDOCK:    0.18 KCAL/MOL
REMARK 923 INTER-LIGAND FREE ENERGY PREDICTED BY IDOCK:    0.16 KCAL/MOL
REMARK 924 INTRA-LIGAND FREE ENERGY PREDICTED BY IDOCK:    0.02 KCAL/MOL
REMARK 927      BINDING AFFINITY PREDICTED BY RF-SCORE:    0.00 PKD
ROOT
HETATM    1  C   UNL     1      -6.223  13.156  67.295  1.00  0.00     0.112 C  
HETATM    2  C   UNL     1      -6.853  13.159  68.689  1.00  0.00    -0.099 C  
ENDROOT
BRANCH   2   3
HETATM    3  O   UNL     1      -8.010  12.298  68.649  1.00  0.00    -0.124 OA 
BRANCH   3   4
HETATM    4  C   UNL     1      -7.807  11.025  69.106  1.00  0.00    -0.091 C  
HETATM    5  C   UNL     1      -6.702  10.992  70.114  1.00  0.00    -0.031 C  
HETATM    6  O   UNL     1      -8.447  10.050  68.742  1.00  0.00    -0.114 OA 
ENDBRANCH   3   4
ENDBRANCH   2   3
BRANCH   2   7
HETATM    7  C   UNL     1      -7.293  14.598  69.042  1.00  0.00    -0.134 C  
BRANCH   7   8
HETATM    8  N   UNL     1      -6.181  15.523  69.614  1.00  0.00    -0.147 N  
HETATM    9  C   UNL     1      -5.444  16.141  68.421  1.00  0.00    -0.102 C  
HETATM   10  C   UNL     1      -6.751  16.662  70.450  1.00  0.00     1.007 C  
HETATM   11  C   UNL     1      -5.178  14.736  70.447  1.00  0.00    -0.114 C  
ENDBRANCH   7   8
ENDBRANCH   2   7
TORSDOF 4
ENDMDL
