MODEL        1
REMARK 921   NORMALIZED FREE ENERGY PREDICTED BY IDOCK:   -7.78 KCAL/MOL
REMARK 922        TOTAL FREE ENERGY PREDICTED BY IDOCK:   -9.20 KCAL/MOL
REMARK 923 INTER-LIGAND FREE ENERGY PREDICTED BY IDOCK:   -8.69 KCAL/MOL
REMARK 924 INTRA-LIGAND FREE ENERGY PREDICTED BY IDOCK:   -0.51 KCAL/MOL
REMARK 927      BINDING AFFINITY PREDICTED BY RF-SCORE:    0.00 PKD
ROOT
HETATM    1  C   UNL     1      -7.193  17.266  69.014  1.00  0.00    -0.227 C  
HETATM    2  N   UNL     1      -7.835  18.517  68.447  1.00  0.00    -0.302 N  
HETATM    3  C   UNL     1      -9.384  18.629  68.530  1.00  0.00    -0.346 C  
HETATM    4  C   UNL     1      -7.192  19.693  69.229  1.00  0.00    -0.299 C  
HETATM    5  C   UNL     1     -10.024  17.343  67.956  1.00  0.00    -0.302 C  
HETATM    6  C   UNL     1      -9.662  17.102  66.478  1.00  0.00    -0.287 C  
HETATM    7  C   UNL     1      -8.193  17.460  66.157  1.00  0.00    -0.237 C  
HETATM    8  O   UNL     1      -9.942  19.801  66.306  1.00  0.00    -0.409 OA 
HETATM    9  C   UNL     1      -7.694  18.730  66.913  1.00  0.00    -0.236 C  
HETATM   10  C   UNL     1      -9.691  19.878  67.702  1.00  0.00    -0.385 C  
HETATM   11  C   UNL     1      -8.577  19.952  66.654  1.00  0.00    -0.337 C  
ENDROOT
BRANCH   6  12
HETATM   12  O   UNL     1     -10.157  15.866  65.909  1.00  0.00    -0.304 OA 
BRANCH  12  13
HETATM   13  C   UNL     1     -11.019  15.841  64.871  1.00  0.00    -0.427 C  
HETATM   14  C   UNL     1     -10.795  13.214  64.638  1.00  0.00    -0.383 A  
HETATM   15  C   UNL     1     -11.664  14.475  64.631  1.00  0.00    -0.438 C  
HETATM   16  C   UNL     1     -12.900  14.305  65.522  1.00  0.00    -0.312 C  
HETATM   17  C   UNL     1     -11.011  12.249  63.634  1.00  0.00    -0.532 A  
HETATM   18  O   UNL     1     -12.571  13.994  66.874  1.00  0.00    -0.513 OA 
HETATM   19  O   UNL     1     -11.288  16.842  64.220  1.00  0.00    -1.202 OA 
HETATM   20  C   UNL     1     -10.407  10.989  63.691  1.00  0.00    -0.415 A  
HETATM   21  H   UNL     1     -13.336  13.889  67.427  1.00  0.00     0.000 HD 
HETATM   22  C   UNL     1      -9.564  10.669  64.751  1.00  0.00    -0.334 A  
HETATM   23  C   UNL     1      -9.308  11.619  65.736  1.00  0.00    -0.220 A  
HETATM   24  C   UNL     1      -9.917  12.879  65.682  1.00  0.00    -0.245 A  
ENDBRANCH  12  13
ENDBRANCH   6  12
TORSDOF 2
ENDMDL
MODEL        2
REMARK 921   NORMALIZED FREE ENERGY PREDICTED BY IDOCK:   -7.11 KCAL/MOL
REMARK 922        TOTAL FREE ENERGY PREDICTED BY IDOCK:   -8.46 KCAL/MOL
REMARK 923 INTER-LIGAND FREE ENERGY PREDICTED BY IDOCK:   -8.00 KCAL/MOL
REMARK 924 INTRA-LIGAND FREE ENERGY PREDICTED BY IDOCK:   -0.46 KCAL/MOL
REMARK 927      BINDING AFFINITY PREDICTED BY RF-SCORE:    0.00 PKD
ROOT
HETATM    1  C   UNL     1      -6.775  18.200  67.220  1.00  0.00    -0.190 C  
HETATM    2  N   UNL     1      -7.962  19.060  66.829  1.00  0.00    -0.250 N  
HETATM    3  C   UNL     1      -8.723  19.793  67.970  1.00  0.00    -0.302 C  
HETATM    4  C   UNL     1      -7.394  20.107  65.834  1.00  0.00    -0.272 C  
HETATM    5  C   UNL     1      -9.088  18.779  69.079  1.00  0.00    -0.157 C  
HETATM    6  C   UNL     1     -10.000  17.643  68.576  1.00  0.00    -0.368 C  
HETATM    7  C   UNL     1      -9.622  17.156  67.159  1.00  0.00    -0.255 C  
HETATM    8  O   UNL     1     -11.160  19.646  67.148  1.00  0.00    -0.420 OA 
HETATM    9  C   UNL     1      -9.179  18.315  66.212  1.00  0.00    -0.203 C  
HETATM   10  C   UNL     1      -9.946  20.376  67.258  1.00  0.00    -0.424 C  
HETATM   11  C   UNL     1     -10.234  19.417  66.099  1.00  0.00    -0.484 C  
ENDROOT
BRANCH   6  12
HETATM   12  O   UNL     1     -10.304  16.612  69.546  1.00  0.00    -0.287 OA 
BRANCH  12  13
HETATM   13  C   UNL     1      -9.816  15.358  69.448  1.00  0.00    -0.273 C  
HETATM   14  C   UNL     1     -12.009  14.329  70.513  1.00  0.00    -0.402 A  
HETATM   15  C   UNL     1     -10.889  14.269  69.469  1.00  0.00    -0.148 C  
HETATM   16  C   UNL     1     -11.451  14.045  68.061  1.00  0.00    -0.311 C  
HETATM   17  C   UNL     1     -12.369  13.138  71.174  1.00  0.00    -0.295 A  
HETATM   18  O   UNL     1     -12.378  15.054  67.667  1.00  0.00    -0.421 OA 
HETATM   19  O   UNL     1      -8.621  15.130  69.304  1.00  0.00    -0.218 OA 
HETATM   20  C   UNL     1     -13.509  13.067  71.982  1.00  0.00    -0.584 A  
HETATM   21  H   UNL     1     -12.727  14.917  66.794  1.00  0.00     0.000 HD 
HETATM   22  C   UNL     1     -14.310  14.191  72.153  1.00  0.00    -0.606 A  
HETATM   23  C   UNL     1     -13.955  15.389  71.538  1.00  0.00    -0.601 A  
HETATM   24  C   UNL     1     -12.816  15.458  70.724  1.00  0.00    -0.524 A  
ENDBRANCH  12  13
ENDBRANCH   6  12
TORSDOF 2
ENDMDL
MODEL        3
REMARK 921   NORMALIZED FREE ENERGY PREDICTED BY IDOCK:   -6.98 KCAL/MOL
REMARK 922        TOTAL FREE ENERGY PREDICTED BY IDOCK:   -8.31 KCAL/MOL
REMARK 923 INTER-LIGAND FREE ENERGY PREDICTED BY IDOCK:   -7.66 KCAL/MOL
REMARK 924 INTRA-LIGAND FREE ENERGY PREDICTED BY IDOCK:   -0.65 KCAL/MOL
REMARK 927      BINDING AFFINITY PREDICTED BY RF-SCORE:    0.00 PKD
ROOT
HETATM    1  C   UNL     1      -6.682  18.268  67.343  1.00  0.00    -0.196 C  
HETATM    2  N   UNL     1      -7.897  19.173  67.263  1.00  0.00    -0.251 N  
HETATM    3  C   UNL     1      -8.881  19.159  68.468  1.00  0.00    -0.367 C  
HETATM    4  C   UNL     1      -7.326  20.604  67.081  1.00  0.00    -0.337 C  
HETATM    5  C   UNL     1      -9.271  17.699  68.798  1.00  0.00    -0.215 C  
HETATM    6  C   UNL     1      -9.973  16.988  67.625  1.00  0.00    -0.280 C  
HETATM    7  C   UNL     1      -9.358  17.347  66.253  1.00  0.00    -0.240 C  
HETATM    8  O   UNL     1     -11.155  19.413  67.286  1.00  0.00    -0.458 OA 
HETATM    9  C   UNL     1      -8.929  18.844  66.148  1.00  0.00    -0.157 C  
HETATM   10  C   UNL     1     -10.057  20.001  67.969  1.00  0.00    -0.420 C  
HETATM   11  C   UNL     1     -10.079  19.806  66.450  1.00  0.00    -0.491 C  
ENDROOT
BRANCH   6  12
HETATM   12  O   UNL     1     -10.283  15.590  67.840  1.00  0.00    -0.233 OA 
BRANCH  12  13
HETATM   13  C   UNL     1     -11.510  15.168  68.208  1.00  0.00    -0.336 C  
HETATM   14  C   UNL     1     -11.643  13.498  66.159  1.00  0.00    -0.371 A  
HETATM   15  C   UNL     1     -11.895  13.801  67.640  1.00  0.00    -0.413 C  
HETATM   16  C   UNL     1     -11.358  12.680  68.537  1.00  0.00    -0.296 C  
HETATM   17  C   UNL     1     -12.657  12.843  65.431  1.00  0.00    -0.440 A  
HETATM   18  O   UNL     1      -9.963  12.445  68.357  1.00  0.00    -0.220 OA 
HETATM   19  O   UNL     1     -12.222  15.810  68.970  1.00  0.00    -0.280 OA 
HETATM   20  C   UNL     1     -12.428  12.351  64.142  1.00  0.00    -0.534 A  
HETATM   21  H   UNL     1      -9.630  11.750  68.913  1.00  0.00     0.000 HD 
HETATM   22  C   UNL     1     -11.180  12.511  63.549  1.00  0.00    -0.525 A  
HETATM   23  C   UNL     1     -10.174  13.185  64.235  1.00  0.00    -0.283 A  
HETATM   24  C   UNL     1     -10.401  13.674  65.528  1.00  0.00    -0.319 A  
ENDBRANCH  12  13
ENDBRANCH   6  12
TORSDOF 2
ENDMDL
MODEL        4
REMARK 921   NORMALIZED FREE ENERGY PREDICTED BY IDOCK:   -6.98 KCAL/MOL
REMARK 922        TOTAL FREE ENERGY PREDICTED BY IDOCK:   -8.31 KCAL/MOL
REMARK 923 INTER-LIGAND FREE ENERGY PREDICTED BY IDOCK:   -8.08 KCAL/MOL
REMARK 924 INTRA-LIGAND FREE ENERGY PREDICTED BY IDOCK:   -0.22 KCAL/MOL
REMARK 927      BINDING AFFINITY PREDICTED BY RF-SCORE:    0.00 PKD
ROOT
HETATM    1  C   UNL     1      -9.066  12.213  66.582  1.00  0.00    -0.206 C  
HETATM    2  N   UNL     1     -10.077  12.244  65.452  1.00  0.00    -0.269 N  
HETATM    3  C   UNL     1     -10.321  13.608  64.746  1.00  0.00    -0.392 C  
HETATM    4  C   UNL     1      -9.559  11.213  64.415  1.00  0.00    -0.250 C  
HETATM    5  C   UNL     1     -10.612  14.693  65.809  1.00  0.00    -0.330 C  
HETATM    6  C   UNL     1     -11.864  14.384  66.653  1.00  0.00    -0.398 C  
HETATM    7  C   UNL     1     -11.993  12.885  67.004  1.00  0.00    -0.390 C  
HETATM    8  O   UNL     1     -12.851  13.506  64.276  1.00  0.00    -0.632 OA 
HETATM    9  C   UNL     1     -11.553  11.944  65.840  1.00  0.00    -0.224 C  
HETATM   10  C   UNL     1     -11.515  13.322  63.832  1.00  0.00    -0.362 C  
HETATM   11  C   UNL     1     -12.311  12.222  64.541  1.00  0.00    -0.384 C  
ENDROOT
BRANCH   6  12
HETATM   12  O   UNL     1     -12.138  15.317  67.726  1.00  0.00    -0.103 OA 
BRANCH  12  13
HETATM   13  C   UNL     1     -11.226  16.212  68.159  1.00  0.00    -0.311 C  
HETATM   14  C   UNL     1     -11.744  15.642  70.691  1.00  0.00    -0.398 A  
HETATM   15  C   UNL     1     -10.733  15.957  69.584  1.00  0.00    -0.304 C  
HETATM   16  C   UNL     1      -9.581  14.946  69.578  1.00  0.00    -0.016 C  
HETATM   17  C   UNL     1     -11.585  16.274  71.940  1.00  0.00    -0.430 A  
HETATM   18  O   UNL     1     -10.023  13.602  69.412  1.00  0.00    -0.326 OA 
HETATM   19  O   UNL     1     -10.803  17.112  67.446  1.00  0.00    -0.284 OA 
HETATM   20  C   UNL     1     -12.335  15.887  73.055  1.00  0.00    -0.605 A  
HETATM   21  H   UNL     1      -9.309  12.975  69.407  1.00  0.00     0.000 HD 
HETATM   22  C   UNL     1     -13.270  14.864  72.942  1.00  0.00    -0.590 A  
HETATM   23  C   UNL     1     -13.470  14.248  71.710  1.00  0.00    -0.464 A  
HETATM   24  C   UNL     1     -12.715  14.632  70.594  1.00  0.00    -0.417 A  
ENDBRANCH  12  13
ENDBRANCH   6  12
TORSDOF 2
ENDMDL
MODEL        5
REMARK 921   NORMALIZED FREE ENERGY PREDICTED BY IDOCK:   -6.92 KCAL/MOL
REMARK 922        TOTAL FREE ENERGY PREDICTED BY IDOCK:   -8.24 KCAL/MOL
REMARK 923 INTER-LIGAND FREE ENERGY PREDICTED BY IDOCK:   -7.75 KCAL/MOL
REMARK 924 INTRA-LIGAND FREE ENERGY PREDICTED BY IDOCK:   -0.49 KCAL/MOL
REMARK 927      BINDING AFFINITY PREDICTED BY RF-SCORE:    0.00 PKD
ROOT
HETATM    1  C   UNL     1     -12.156  13.591  63.637  1.00  0.00    -0.400 C  
HETATM    2  N   UNL     1     -11.182  12.751  64.440  1.00  0.00    -0.327 N  
HETATM    3  C   UNL     1     -11.705  12.111  65.758  1.00  0.00    -0.327 C  
HETATM    4  C   UNL     1     -10.719  11.629  63.472  1.00  0.00    -0.428 C  
HETATM    5  C   UNL     1     -12.378  13.199  66.626  1.00  0.00    -0.207 C  
HETATM    6  C   UNL     1     -11.413  14.334  67.020  1.00  0.00    -0.361 C  
HETATM    7  C   UNL     1     -10.451  14.724  65.875  1.00  0.00    -0.324 C  
HETATM    8  O   UNL     1      -9.636  12.291  67.281  1.00  0.00    -0.182 OA 
HETATM    9  C   UNL     1      -9.960  13.499  65.043  1.00  0.00    -0.166 C  
HETATM   10  C   UNL     1     -10.440  11.529  66.392  1.00  0.00    -0.250 C  
HETATM   11  C   UNL     1      -9.297  12.428  65.911  1.00  0.00    -0.062 C  
ENDROOT
BRANCH   6  12
HETATM   12  O   UNL     1     -12.006  15.429  67.758  1.00  0.00    -0.156 OA 
BRANCH  12  13
HETATM   13  C   UNL     1     -11.270  16.432  68.282  1.00  0.00    -0.300 C  
HETATM   14  C   UNL     1     -11.779  15.627  70.752  1.00  0.00    -0.408 A  
HETATM   15  C   UNL     1     -10.795  16.172  69.713  1.00  0.00    -0.333 C  
HETATM   16  C   UNL     1      -9.492  15.365  69.703  1.00  0.00    -0.216 C  
HETATM   17  C   UNL     1     -11.772  16.197  72.041  1.00  0.00    -0.574 A  
HETATM   18  O   UNL     1      -9.699  13.979  69.442  1.00  0.00    -0.383 OA 
HETATM   19  O   UNL     1     -10.976  17.432  67.641  1.00  0.00    -0.294 OA 
HETATM   20  C   UNL     1     -12.489  15.624  73.096  1.00  0.00    -0.588 A  
HETATM   21  H   UNL     1      -8.892  13.478  69.435  1.00  0.00     0.000 HD 
HETATM   22  C   UNL     1     -13.237  14.471  72.883  1.00  0.00    -0.612 A  
HETATM   23  C   UNL     1     -13.288  13.910  71.610  1.00  0.00    -0.437 A  
HETATM   24  C   UNL     1     -12.565  14.480  70.554  1.00  0.00    -0.413 A  
ENDBRANCH  12  13
ENDBRANCH   6  12
TORSDOF 2
ENDMDL
MODEL        6
REMARK 921   NORMALIZED FREE ENERGY PREDICTED BY IDOCK:   -6.84 KCAL/MOL
REMARK 922        TOTAL FREE ENERGY PREDICTED BY IDOCK:   -8.16 KCAL/MOL
REMARK 923 INTER-LIGAND FREE ENERGY PREDICTED BY IDOCK:   -7.68 KCAL/MOL
REMARK 924 INTRA-LIGAND FREE ENERGY PREDICTED BY IDOCK:   -0.47 KCAL/MOL
REMARK 927      BINDING AFFINITY PREDICTED BY RF-SCORE:    0.00 PKD
ROOT
HETATM    1  C   UNL     1      -9.933  16.134  66.063  1.00  0.00    -0.348 C  
HETATM    2  N   UNL     1     -10.943  15.163  65.482  1.00  0.00    -0.349 N  
HETATM    3  C   UNL     1     -12.105  14.699  66.407  1.00  0.00    -0.212 C  
HETATM    4  C   UNL     1     -11.531  15.884  64.240  1.00  0.00    -0.191 C  
HETATM    5  C   UNL     1     -11.524  14.192  67.747  1.00  0.00    -0.352 C  
HETATM    6  C   UNL     1     -10.571  12.994  67.572  1.00  0.00    -0.230 C  
HETATM    7  C   UNL     1      -9.670  13.124  66.324  1.00  0.00    -0.269 C  
HETATM    8  O   UNL     1     -12.387  12.241  65.693  1.00  0.00    -0.619 OA 
HETATM    9  C   UNL     1     -10.405  13.755  65.101  1.00  0.00    -0.372 C  
HETATM   10  C   UNL     1     -12.786  13.600  65.588  1.00  0.00    -0.454 C  
HETATM   11  C   UNL     1     -11.677  12.993  64.724  1.00  0.00    -0.345 C  
ENDROOT
BRANCH   6  12
HETATM   12  O   UNL     1      -9.924  12.530  68.782  1.00  0.00    -0.145 OA 
BRANCH  12  13
HETATM   13  C   UNL     1      -9.138  11.433  68.809  1.00  0.00    -0.089 C  
HETATM   14  C   UNL     1     -10.912  10.093  70.244  1.00  0.00    -0.380 A  
HETATM   15  C   UNL     1      -9.892  10.135  69.102  1.00  0.00    -0.225 C  
HETATM   16  C   UNL     1     -10.477   9.553  67.811  1.00  0.00    -0.254 C  
HETATM   17  C   UNL     1     -10.906   8.975  71.103  1.00  0.00    -0.364 A  
HETATM   18  O   UNL     1     -11.657  10.228  67.383  1.00  0.00    -0.454 OA 
HETATM   19  O   UNL     1      -7.939  11.482  68.567  1.00  0.00    -0.132 OA 
HETATM   20  C   UNL     1     -11.929   8.765  72.034  1.00  0.00    -0.446 A  
HETATM   21  H   UNL     1     -12.020   9.868  66.581  1.00  0.00     0.000 HD 
HETATM   22  C   UNL     1     -12.978   9.673  72.131  1.00  0.00    -0.493 A  
HETATM   23  C   UNL     1     -12.987  10.803  71.318  1.00  0.00    -0.502 A  
HETATM   24  C   UNL     1     -11.965  11.012  70.382  1.00  0.00    -0.459 A  
ENDBRANCH  12  13
ENDBRANCH   6  12
TORSDOF 2
ENDMDL
MODEL        7
REMARK 921   NORMALIZED FREE ENERGY PREDICTED BY IDOCK:   -6.77 KCAL/MOL
REMARK 922        TOTAL FREE ENERGY PREDICTED BY IDOCK:   -8.07 KCAL/MOL
REMARK 923 INTER-LIGAND FREE ENERGY PREDICTED BY IDOCK:   -7.35 KCAL/MOL
REMARK 924 INTRA-LIGAND FREE ENERGY PREDICTED BY IDOCK:   -0.73 KCAL/MOL
REMARK 927      BINDING AFFINITY PREDICTED BY RF-SCORE:    0.00 PKD
ROOT
HETATM    1  C   UNL     1      -6.655  17.228  68.831  1.00  0.00    -0.212 C  
HETATM    2  N   UNL     1      -6.815  18.407  67.890  1.00  0.00    -0.215 N  
HETATM    3  C   UNL     1      -8.154  19.194  67.949  1.00  0.00    -0.289 C  
HETATM    4  C   UNL     1      -5.641  19.362  68.235  1.00  0.00    -0.200 C  
HETATM    5  C   UNL     1      -9.338  18.205  67.837  1.00  0.00    -0.276 C  
HETATM    6  C   UNL     1      -9.331  17.410  66.517  1.00  0.00    -0.270 C  
HETATM    7  C   UNL     1      -7.910  16.988  66.080  1.00  0.00    -0.295 C  
HETATM    8  O   UNL     1      -8.520  19.784  65.469  1.00  0.00    -0.294 OA 
HETATM    9  C   UNL     1      -6.833  18.079  66.371  1.00  0.00    -0.235 C  
HETATM   10  C   UNL     1      -8.051  20.150  66.759  1.00  0.00    -0.306 C  
HETATM   11  C   UNL     1      -7.174  19.426  65.733  1.00  0.00    -0.280 C  
ENDROOT
BRANCH   6  12
HETATM   12  O   UNL     1     -10.364  16.402  66.391  1.00  0.00    -0.299 OA 
BRANCH  12  13
HETATM   13  C   UNL     1     -10.938  16.098  65.209  1.00  0.00    -0.270 C  
HETATM   14  C   UNL     1     -10.244  13.553  65.432  1.00  0.00    -0.316 A  
HETATM   15  C   UNL     1     -11.279  14.615  65.047  1.00  0.00    -0.388 C  
HETATM   16  C   UNL     1     -12.647  14.311  65.668  1.00  0.00    -0.410 C  
HETATM   17  C   UNL     1     -10.057  12.459  64.563  1.00  0.00    -0.276 A  
HETATM   18  O   UNL     1     -12.603  14.221  67.090  1.00  0.00    -0.546 OA 
HETATM   19  O   UNL     1     -11.203  16.950  64.371  1.00  0.00    -1.159 OA 
HETATM   20  C   UNL     1      -9.288  11.353  64.939  1.00  0.00    -0.137 A  
HETATM   21  H   UNL     1     -13.451  14.033  67.476  1.00  0.00     0.000 HD 
HETATM   22  C   UNL     1      -8.682  11.320  66.190  1.00  0.00    -0.179 A  
HETATM   23  C   UNL     1      -8.824  12.405  67.051  1.00  0.00    -0.210 A  
HETATM   24  C   UNL     1      -9.598  13.511  66.678  1.00  0.00    -0.282 A  
ENDBRANCH  12  13
ENDBRANCH   6  12
TORSDOF 2
ENDMDL
MODEL        8
REMARK 921   NORMALIZED FREE ENERGY PREDICTED BY IDOCK:   -6.72 KCAL/MOL
REMARK 922        TOTAL FREE ENERGY PREDICTED BY IDOCK:   -8.02 KCAL/MOL
REMARK 923 INTER-LIGAND FREE ENERGY PREDICTED BY IDOCK:   -7.39 KCAL/MOL
REMARK 924 INTRA-LIGAND FREE ENERGY PREDICTED BY IDOCK:   -0.63 KCAL/MOL
REMARK 927      BINDING AFFINITY PREDICTED BY RF-SCORE:    0.00 PKD
ROOT
HETATM    1  C   UNL     1      -9.242  11.658  65.823  1.00  0.00    -0.173 C  
HETATM    2  N   UNL     1     -10.496  12.196  65.162  1.00  0.00    -0.272 N  
HETATM    3  C   UNL     1     -10.413  13.603  64.505  1.00  0.00    -0.390 C  
HETATM    4  C   UNL     1     -10.869  11.145  64.083  1.00  0.00    -0.285 C  
HETATM    5  C   UNL     1      -9.819  14.610  65.518  1.00  0.00    -0.327 C  
HETATM    6  C   UNL     1     -10.672  14.750  66.793  1.00  0.00    -0.309 C  
HETATM    7  C   UNL     1     -11.255  13.402  67.274  1.00  0.00    -0.319 C  
HETATM    8  O   UNL     1     -12.741  14.566  65.038  1.00  0.00    -0.525 OA 
HETATM    9  C   UNL     1     -11.704  12.477  66.101  1.00  0.00    -0.409 C  
HETATM   10  C   UNL     1     -11.867  13.904  64.135  1.00  0.00    -0.385 C  
HETATM   11  C   UNL     1     -12.711  13.155  65.170  1.00  0.00    -0.405 C  
ENDROOT
BRANCH   6  12
HETATM   12  O   UNL     1     -10.122  15.611  67.820  1.00  0.00    -0.223 OA 
BRANCH  12  13
HETATM   13  C   UNL     1     -10.822  16.627  68.365  1.00  0.00    -0.361 C  
HETATM   14  C   UNL     1      -8.703  18.212  68.344  1.00  0.00    -0.302 A  
HETATM   15  C   UNL     1     -10.205  18.006  68.127  1.00  0.00    -0.392 C  
HETATM   16  C   UNL     1     -10.655  18.565  66.773  1.00  0.00    -0.354 C  
HETATM   17  C   UNL     1      -8.279  19.371  69.024  1.00  0.00    -0.266 A  
HETATM   18  O   UNL     1      -9.959  17.983  65.673  1.00  0.00    -0.519 OA 
HETATM   19  O   UNL     1     -11.882  16.450  68.953  1.00  0.00    -0.208 OA 
HETATM   20  C   UNL     1      -6.929  19.732  69.080  1.00  0.00    -0.364 A  
HETATM   21  H   UNL     1     -10.238  18.329  64.834  1.00  0.00     0.000 HD 
HETATM   22  C   UNL     1      -5.971  18.935  68.464  1.00  0.00    -0.224 A  
HETATM   23  C   UNL     1      -6.361  17.766  67.816  1.00  0.00    -0.180 A  
HETATM   24  C   UNL     1      -7.714  17.407  67.754  1.00  0.00    -0.200 A  
ENDBRANCH  12  13
ENDBRANCH   6  12
TORSDOF 2
ENDMDL
MODEL        9
REMARK 921   NORMALIZED FREE ENERGY PREDICTED BY IDOCK:   -6.61 KCAL/MOL
REMARK 922        TOTAL FREE ENERGY PREDICTED BY IDOCK:   -7.90 KCAL/MOL
REMARK 923 INTER-LIGAND FREE ENERGY PREDICTED BY IDOCK:   -7.58 KCAL/MOL
REMARK 924 INTRA-LIGAND FREE ENERGY PREDICTED BY IDOCK:   -0.32 KCAL/MOL
REMARK 927      BINDING AFFINITY PREDICTED BY RF-SCORE:    0.00 PKD
ROOT
HETATM    1  C   UNL     1      -9.798  19.498  66.188  1.00  0.00    -0.412 C  
HETATM    2  N   UNL     1      -8.505  19.353  66.966  1.00  0.00    -0.278 N  
HETATM    3  C   UNL     1      -7.720  18.019  66.809  1.00  0.00    -0.225 C  
HETATM    4  C   UNL     1      -7.613  20.533  66.497  1.00  0.00    -0.153 C  
HETATM    5  C   UNL     1      -8.675  16.828  67.053  1.00  0.00    -0.226 C  
HETATM    6  C   UNL     1      -9.291  16.833  68.465  1.00  0.00    -0.246 C  
HETATM    7  C   UNL     1      -9.664  18.252  68.950  1.00  0.00    -0.302 C  
HETATM    8  O   UNL     1      -6.807  17.669  69.192  1.00  0.00    -0.248 OA 
HETATM    9  C   UNL     1      -8.631  19.338  68.516  1.00  0.00    -0.365 C  
HETATM   10  C   UNL     1      -6.617  18.135  67.864  1.00  0.00    -0.195 C  
HETATM   11  C   UNL     1      -7.208  19.011  68.973  1.00  0.00    -0.316 C  
ENDROOT
BRANCH   6  12
HETATM   12  O   UNL     1     -10.264  15.793  68.725  1.00  0.00    -0.205 OA 
BRANCH  12  13
HETATM   13  C   UNL     1      -9.924  14.491  68.824  1.00  0.00    -0.232 C  
HETATM   14  C   UNL     1     -12.077  13.951  70.266  1.00  0.00    -0.423 A  
HETATM   15  C   UNL     1     -11.096  13.565  69.154  1.00  0.00    -0.271 C  
HETATM   16  C   UNL     1     -11.836  13.163  67.874  1.00  0.00    -0.348 C  
HETATM   17  C   UNL     1     -12.482  12.953  71.175  1.00  0.00    -0.344 A  
HETATM   18  O   UNL     1     -12.691  14.192  67.380  1.00  0.00    -0.402 OA 
HETATM   19  O   UNL     1      -8.784  14.095  68.617  1.00  0.00    -0.176 OA 
HETATM   20  C   UNL     1     -13.523  13.171  72.083  1.00  0.00    -0.653 A  
HETATM   21  H   UNL     1     -13.149  13.943  66.586  1.00  0.00     0.000 HD 
HETATM   22  C   UNL     1     -14.177  14.399  72.108  1.00  0.00    -0.626 A  
HETATM   23  C   UNL     1     -13.771  15.412  71.244  1.00  0.00    -0.558 A  
HETATM   24  C   UNL     1     -12.732  15.192  70.330  1.00  0.00    -0.378 A  
ENDBRANCH  12  13
ENDBRANCH   6  12
TORSDOF 2
ENDMDL
MODEL       10
REMARK 921   NORMALIZED FREE ENERGY PREDICTED BY IDOCK:   -6.59 KCAL/MOL
REMARK 922        TOTAL FREE ENERGY PREDICTED BY IDOCK:   -7.88 KCAL/MOL
REMARK 923 INTER-LIGAND FREE ENERGY PREDICTED BY IDOCK:   -7.22 KCAL/MOL
REMARK 924 INTRA-LIGAND FREE ENERGY PREDICTED BY IDOCK:   -0.65 KCAL/MOL
REMARK 927      BINDING AFFINITY PREDICTED BY RF-SCORE:    0.00 PKD
ROOT
HETATM    1  C   UNL     1     -10.338  19.225  68.182  1.00  0.00    -0.397 C  
HETATM    2  N   UNL     1      -8.986  19.001  67.532  1.00  0.00    -0.290 N  
HETATM    3  C   UNL     1      -8.952  18.167  66.220  1.00  0.00    -0.177 C  
HETATM    4  C   UNL     1      -8.430  20.423  67.252  1.00  0.00    -0.331 C  
HETATM    5  C   UNL     1      -9.714  16.838  66.435  1.00  0.00    -0.309 C  
HETATM    6  C   UNL     1      -9.098  15.968  67.548  1.00  0.00    -0.199 C  
HETATM    7  C   UNL     1      -8.611  16.799  68.756  1.00  0.00    -0.255 C  
HETATM    8  O   UNL     1      -6.753  16.855  66.496  1.00  0.00    -0.224 OA 
HETATM    9  C   UNL     1      -7.963  18.157  68.342  1.00  0.00    -0.302 C  
HETATM   10  C   UNL     1      -7.455  17.971  65.968  1.00  0.00    -0.236 C  
HETATM   11  C   UNL     1      -6.807  17.980  67.356  1.00  0.00    -0.190 C  
ENDROOT
BRANCH   6  12
HETATM   12  O   UNL     1      -9.820  14.752  67.859  1.00  0.00    -0.209 OA 
BRANCH  12  13
HETATM   13  C   UNL     1     -11.156  14.730  68.048  1.00  0.00    -0.286 C  
HETATM   14  C   UNL     1     -11.517  13.196  65.922  1.00  0.00    -0.366 A  
HETATM   15  C   UNL     1     -11.861  13.553  67.371  1.00  0.00    -0.423 C  
HETATM   16  C   UNL     1     -11.821  12.316  68.275  1.00  0.00    -0.310 C  
HETATM   17  C   UNL     1     -12.575  12.893  65.041  1.00  0.00    -0.538 A  
HETATM   18  O   UNL     1     -10.555  11.660  68.262  1.00  0.00    -0.190 OA 
HETATM   19  O   UNL     1     -11.731  15.557  68.743  1.00  0.00    -0.348 OA 
HETATM   20  C   UNL     1     -12.336  12.361  63.770  1.00  0.00    -0.625 A  
HETATM   21  H   UNL     1     -10.530  10.893  68.823  1.00  0.00     0.000 HD 
HETATM   22  C   UNL     1     -11.032  12.129  63.347  1.00  0.00    -0.480 A  
HETATM   23  C   UNL     1      -9.969  12.453  64.187  1.00  0.00    -0.244 A  
HETATM   24  C   UNL     1     -10.208  12.981  65.462  1.00  0.00    -0.296 A  
ENDBRANCH  12  13
ENDBRANCH   6  12
TORSDOF 2
ENDMDL
MODEL       11
REMARK 921   NORMALIZED FREE ENERGY PREDICTED BY IDOCK:   -6.50 KCAL/MOL
REMARK 922        TOTAL FREE ENERGY PREDICTED BY IDOCK:   -7.77 KCAL/MOL
REMARK 923 INTER-LIGAND FREE ENERGY PREDICTED BY IDOCK:   -7.13 KCAL/MOL
REMARK 924 INTRA-LIGAND FREE ENERGY PREDICTED BY IDOCK:   -0.64 KCAL/MOL
REMARK 927      BINDING AFFINITY PREDICTED BY RF-SCORE:    0.00 PKD
ROOT
HETATM    1  C   UNL     1     -10.407  12.631  68.430  1.00  0.00    -0.235 C  
HETATM    2  N   UNL     1     -10.828  13.005  67.022  1.00  0.00    -0.258 N  
HETATM    3  C   UNL     1      -9.778  13.725  66.128  1.00  0.00    -0.264 C  
HETATM    4  C   UNL     1     -11.242  11.667  66.354  1.00  0.00    -0.287 C  
HETATM    5  C   UNL     1      -9.193  14.934  66.894  1.00  0.00    -0.265 C  
HETATM    6  C   UNL     1     -10.262  15.976  67.274  1.00  0.00    -0.277 C  
HETATM    7  C   UNL     1     -11.593  15.331  67.723  1.00  0.00    -0.277 C  
HETATM    8  O   UNL     1     -11.257  15.376  64.816  1.00  0.00    -0.413 OA 
HETATM    9  C   UNL     1     -11.964  14.059  66.899  1.00  0.00    -0.447 C  
HETATM   10  C   UNL     1     -10.587  14.126  64.892  1.00  0.00    -0.430 C  
HETATM   11  C   UNL     1     -12.019  14.329  65.395  1.00  0.00    -0.383 C  
ENDROOT
BRANCH   6  12
HETATM   12  O   UNL     1      -9.791  17.090  68.072  1.00  0.00    -0.259 OA 
BRANCH  12  13
HETATM   13  C   UNL     1     -10.028  18.374  67.735  1.00  0.00    -0.346 C  
HETATM   14  C   UNL     1      -7.615  19.117  68.530  1.00  0.00    -0.369 A  
HETATM   15  C   UNL     1      -8.762  19.204  67.517  1.00  0.00    -0.322 C  
HETATM   16  C   UNL     1      -8.252  19.033  66.082  1.00  0.00    -0.231 C  
HETATM   17  C   UNL     1      -6.989  20.313  68.933  1.00  0.00    -0.159 A  
HETATM   18  O   UNL     1      -7.567  17.800  65.879  1.00  0.00    -0.487 OA 
HETATM   19  O   UNL     1     -11.161  18.810  67.572  1.00  0.00    -0.326 OA 
HETATM   20  C   UNL     1      -5.812  20.302  69.688  1.00  0.00    -0.381 A  
HETATM   21  H   UNL     1      -7.251  17.693  64.990  1.00  0.00     0.000 HD 
HETATM   22  C   UNL     1      -5.239  19.092  70.064  1.00  0.00    -0.213 A  
HETATM   23  C   UNL     1      -5.859  17.897  69.708  1.00  0.00    -0.243 A  
HETATM   24  C   UNL     1      -7.035  17.908  68.947  1.00  0.00    -0.260 A  
ENDBRANCH  12  13
ENDBRANCH   6  12
TORSDOF 2
ENDMDL
MODEL       12
REMARK 921   NORMALIZED FREE ENERGY PREDICTED BY IDOCK:   -6.49 KCAL/MOL
REMARK 922        TOTAL FREE ENERGY PREDICTED BY IDOCK:   -7.76 KCAL/MOL
REMARK 923 INTER-LIGAND FREE ENERGY PREDICTED BY IDOCK:   -7.05 KCAL/MOL
REMARK 924 INTRA-LIGAND FREE ENERGY PREDICTED BY IDOCK:   -0.71 KCAL/MOL
REMARK 927      BINDING AFFINITY PREDICTED BY RF-SCORE:    0.00 PKD
ROOT
HETATM    1  C   UNL     1     -10.444  12.812  63.947  1.00  0.00    -0.372 C  
HETATM    2  N   UNL     1     -10.549  12.159  65.312  1.00  0.00    -0.271 N  
HETATM    3  C   UNL     1     -11.791  12.509  66.180  1.00  0.00    -0.397 C  
HETATM    4  C   UNL     1     -10.528  10.632  65.035  1.00  0.00    -0.208 C  
HETATM    5  C   UNL     1     -11.944  14.046  66.263  1.00  0.00    -0.454 C  
HETATM    6  C   UNL     1     -10.726  14.735  66.908  1.00  0.00    -0.308 C  
HETATM    7  C   UNL     1      -9.383  14.101  66.479  1.00  0.00    -0.285 C  
HETATM    8  O   UNL     1     -10.774  12.565  68.546  1.00  0.00    -0.228 OA 
HETATM    9  C   UNL     1      -9.456  12.548  66.347  1.00  0.00    -0.233 C  
HETATM   10  C   UNL     1     -11.471  11.860  67.528  1.00  0.00    -0.326 C  
HETATM   11  C   UNL     1      -9.943  11.871  67.630  1.00  0.00    -0.189 C  
ENDROOT
BRANCH   6  12
HETATM   12  O   UNL     1     -10.769  16.183  66.933  1.00  0.00    -0.314 OA 
BRANCH  12  13
HETATM   13  C   UNL     1     -10.885  16.884  68.079  1.00  0.00    -0.338 C  
HETATM   14  C   UNL     1      -8.566  18.094  67.672  1.00  0.00    -0.252 A  
HETATM   15  C   UNL     1     -10.029  18.152  68.122  1.00  0.00    -0.368 C  
HETATM   16  C   UNL     1     -10.770  19.318  67.459  1.00  0.00    -0.463 C  
HETATM   17  C   UNL     1      -7.600  18.756  68.457  1.00  0.00    -0.357 A  
HETATM   18  O   UNL     1     -10.740  19.257  66.035  1.00  0.00    -0.442 OA 
HETATM   19  O   UNL     1     -11.648  16.551  68.977  1.00  0.00    -0.216 OA 
HETATM   20  C   UNL     1      -6.286  18.924  68.008  1.00  0.00    -0.220 A  
HETATM   21  H   UNL     1     -11.200  19.980  65.624  1.00  0.00     0.000 HD 
HETATM   22  C   UNL     1      -5.906  18.424  66.767  1.00  0.00    -0.170 A  
HETATM   23  C   UNL     1      -6.833  17.735  65.990  1.00  0.00    -0.327 A  
HETATM   24  C   UNL     1      -8.151  17.572  66.436  1.00  0.00    -0.309 A  
ENDBRANCH  12  13
ENDBRANCH   6  12
TORSDOF 2
ENDMDL
MODEL       13
REMARK 921   NORMALIZED FREE ENERGY PREDICTED BY IDOCK:   -6.47 KCAL/MOL
REMARK 922        TOTAL FREE ENERGY PREDICTED BY IDOCK:   -7.74 KCAL/MOL
REMARK 923 INTER-LIGAND FREE ENERGY PREDICTED BY IDOCK:   -7.17 KCAL/MOL
REMARK 924 INTRA-LIGAND FREE ENERGY PREDICTED BY IDOCK:   -0.57 KCAL/MOL
REMARK 927      BINDING AFFINITY PREDICTED BY RF-SCORE:    0.00 PKD
ROOT
HETATM    1  C   UNL     1      -7.078  19.539  69.327  1.00  0.00    -0.337 C  
HETATM    2  N   UNL     1      -7.776  19.465  67.983  1.00  0.00    -0.286 N  
HETATM    3  C   UNL     1      -9.329  19.387  67.985  1.00  0.00    -0.336 C  
HETATM    4  C   UNL     1      -7.326  20.741  67.221  1.00  0.00    -0.343 C  
HETATM    5  C   UNL     1      -9.786  18.254  68.934  1.00  0.00    -0.341 C  
HETATM    6  C   UNL     1      -9.258  16.870  68.510  1.00  0.00    -0.260 C  
HETATM    7  C   UNL     1      -7.806  16.918  67.986  1.00  0.00    -0.180 C  
HETATM    8  O   UNL     1      -9.773  17.799  66.007  1.00  0.00    -0.496 OA 
HETATM    9  C   UNL     1      -7.505  18.191  67.134  1.00  0.00    -0.209 C  
HETATM   10  C   UNL     1      -9.669  19.120  66.517  1.00  0.00    -0.359 C  
HETATM   11  C   UNL     1      -8.469  18.351  65.958  1.00  0.00    -0.008 C  
ENDROOT
BRANCH   6  12
HETATM   12  O   UNL     1      -9.577  15.779  69.409  1.00  0.00    -0.256 OA 
BRANCH  12  13
HETATM   13  C   UNL     1      -9.840  14.532  68.969  1.00  0.00    -0.138 C  
HETATM   14  C   UNL     1     -11.960  14.334  70.542  1.00  0.00    -0.402 A  
HETATM   15  C   UNL     1     -11.288  14.088  69.188  1.00  0.00    -0.323 C  
HETATM   16  C   UNL     1     -12.173  14.566  68.031  1.00  0.00    -0.092 C  
HETATM   17  C   UNL     1     -12.731  13.295  71.103  1.00  0.00    -0.404 A  
HETATM   18  O   UNL     1     -12.505  15.950  68.123  1.00  0.00    -0.021 OA 
HETATM   19  O   UNL     1      -8.999  13.846  68.403  1.00  0.00    -0.186 OA 
HETATM   20  C   UNL     1     -13.537  13.510  72.225  1.00  0.00    -0.690 A  
HETATM   21  H   UNL     1     -13.054  16.247  67.406  1.00  0.00     0.000 HD 
HETATM   22  C   UNL     1     -13.584  14.767  72.817  1.00  0.00    -0.542 A  
HETATM   23  C   UNL     1     -12.804  15.799  72.303  1.00  0.00    -0.525 A  
HETATM   24  C   UNL     1     -12.000  15.587  71.175  1.00  0.00    -0.432 A  
ENDBRANCH  12  13
ENDBRANCH   6  12
TORSDOF 2
ENDMDL
MODEL       14
REMARK 921   NORMALIZED FREE ENERGY PREDICTED BY IDOCK:   -6.46 KCAL/MOL
REMARK 922        TOTAL FREE ENERGY PREDICTED BY IDOCK:   -7.72 KCAL/MOL
REMARK 923 INTER-LIGAND FREE ENERGY PREDICTED BY IDOCK:   -7.21 KCAL/MOL
REMARK 924 INTRA-LIGAND FREE ENERGY PREDICTED BY IDOCK:   -0.51 KCAL/MOL
REMARK 927      BINDING AFFINITY PREDICTED BY RF-SCORE:    0.00 PKD
ROOT
HETATM    1  C   UNL     1     -11.257  12.502  68.906  1.00  0.00    -0.281 C  
HETATM    2  N   UNL     1     -10.956  12.092  67.477  1.00  0.00    -0.244 N  
HETATM    3  C   UNL     1      -9.614  12.579  66.860  1.00  0.00    -0.229 C  
HETATM    4  C   UNL     1     -10.986  10.540  67.486  1.00  0.00    -0.303 C  
HETATM    5  C   UNL     1      -9.480  14.107  67.060  1.00  0.00    -0.256 C  
HETATM    6  C   UNL     1     -10.612  14.902  66.381  1.00  0.00    -0.307 C  
HETATM    7  C   UNL     1     -11.988  14.210  66.508  1.00  0.00    -0.466 C  
HETATM    8  O   UNL     1     -10.302  13.042  64.421  1.00  0.00    -0.388 OA 
HETATM    9  C   UNL     1     -11.906  12.657  66.383  1.00  0.00    -0.402 C  
HETATM   10  C   UNL     1      -9.737  12.171  65.390  1.00  0.00    -0.162 C  
HETATM   11  C   UNL     1     -11.237  12.207  65.083  1.00  0.00    -0.329 C  
ENDROOT
BRANCH   6  12
HETATM   12  O   UNL     1     -10.592  16.332  66.608  1.00  0.00    -0.304 OA 
BRANCH  12  13
HETATM   13  C   UNL     1     -10.769  16.873  67.831  1.00  0.00    -0.344 C  
HETATM   14  C   UNL     1      -8.443  18.129  67.704  1.00  0.00    -0.245 A  
HETATM   15  C   UNL     1      -9.926  18.125  68.085  1.00  0.00    -0.368 C  
HETATM   16  C   UNL     1     -10.643  19.369  67.549  1.00  0.00    -0.474 C  
HETATM   17  C   UNL     1      -7.521  18.682  68.616  1.00  0.00    -0.332 A  
HETATM   18  O   UNL     1     -10.544  19.499  66.133  1.00  0.00    -0.468 OA 
HETATM   19  O   UNL     1     -11.572  16.422  68.637  1.00  0.00    -0.311 OA 
HETATM   20  C   UNL     1      -6.188  18.910  68.259  1.00  0.00    -0.228 A  
HETATM   21  H   UNL     1     -10.989  20.270  65.800  1.00  0.00     0.000 HD 
HETATM   22  C   UNL     1      -5.745  18.581  66.982  1.00  0.00    -0.159 A  
HETATM   23  C   UNL     1      -6.628  18.002  66.075  1.00  0.00    -0.310 A  
HETATM   24  C   UNL     1      -7.965  17.779  66.431  1.00  0.00    -0.306 A  
ENDBRANCH  12  13
ENDBRANCH   6  12
TORSDOF 2
ENDMDL
MODEL       15
REMARK 921   NORMALIZED FREE ENERGY PREDICTED BY IDOCK:   -6.44 KCAL/MOL
REMARK 922        TOTAL FREE ENERGY PREDICTED BY IDOCK:   -7.71 KCAL/MOL
REMARK 923 INTER-LIGAND FREE ENERGY PREDICTED BY IDOCK:   -7.12 KCAL/MOL
REMARK 924 INTRA-LIGAND FREE ENERGY PREDICTED BY IDOCK:   -0.59 KCAL/MOL
REMARK 927      BINDING AFFINITY PREDICTED BY RF-SCORE:    0.00 PKD
ROOT
HETATM    1  C   UNL     1      -7.065  18.120  65.830  1.00  0.00    -0.221 C  
HETATM    2  N   UNL     1      -7.804  18.961  66.853  1.00  0.00    -0.240 N  
HETATM    3  C   UNL     1      -8.313  18.244  68.136  1.00  0.00    -0.284 C  
HETATM    4  C   UNL     1      -6.809  20.084  67.251  1.00  0.00    -0.223 C  
HETATM    5  C   UNL     1      -9.117  16.985  67.737  1.00  0.00    -0.228 C  
HETATM    6  C   UNL     1     -10.351  17.310  66.874  1.00  0.00    -0.310 C  
HETATM    7  C   UNL     1     -10.081  18.430  65.844  1.00  0.00    -0.175 C  
HETATM    8  O   UNL     1     -10.554  19.444  68.547  1.00  0.00    -0.260 OA 
HETATM    9  C   UNL     1      -9.163  19.563  66.398  1.00  0.00    -0.371 C  
HETATM   10  C   UNL     1      -9.166  19.315  68.820  1.00  0.00    -0.371 C  
HETATM   11  C   UNL     1      -9.710  20.186  67.683  1.00  0.00    -0.415 C  
ENDROOT
BRANCH   6  12
HETATM   12  O   UNL     1     -11.095  16.164  66.393  1.00  0.00    -0.110 OA 
BRANCH  12  13
HETATM   13  C   UNL     1     -10.515  15.164  65.698  1.00  0.00    -0.359 C  
HETATM   14  C   UNL     1     -11.234  13.374  67.510  1.00  0.00    -0.309 A  
HETATM   15  C   UNL     1     -11.052  13.774  66.042  1.00  0.00    -0.291 C  
HETATM   16  C   UNL     1     -12.311  13.470  65.222  1.00  0.00    -0.467 C  
HETATM   17  C   UNL     1     -10.814  12.088  67.907  1.00  0.00    -0.254 A  
HETATM   18  O   UNL     1     -13.473  14.125  65.726  1.00  0.00    -0.670 OA 
HETATM   19  O   UNL     1      -9.671  15.371  64.835  1.00  0.00    -0.157 OA 
HETATM   20  C   UNL     1     -11.131  11.575  69.169  1.00  0.00    -0.316 A  
HETATM   21  H   UNL     1     -14.254  13.938  65.217  1.00  0.00     0.000 HD 
HETATM   22  C   UNL     1     -11.867  12.342  70.066  1.00  0.00    -0.372 A  
HETATM   23  C   UNL     1     -12.262  13.628  69.709  1.00  0.00    -0.350 A  
HETATM   24  C   UNL     1     -11.950  14.140  68.443  1.00  0.00    -0.366 A  
ENDBRANCH  12  13
ENDBRANCH   6  12
TORSDOF 2
ENDMDL
MODEL       16
REMARK 921   NORMALIZED FREE ENERGY PREDICTED BY IDOCK:   -6.29 KCAL/MOL
REMARK 922        TOTAL FREE ENERGY PREDICTED BY IDOCK:   -7.53 KCAL/MOL
REMARK 923 INTER-LIGAND FREE ENERGY PREDICTED BY IDOCK:   -6.72 KCAL/MOL
REMARK 924 INTRA-LIGAND FREE ENERGY PREDICTED BY IDOCK:   -0.81 KCAL/MOL
REMARK 927      BINDING AFFINITY PREDICTED BY RF-SCORE:    0.00 PKD
ROOT
HETATM    1  C   UNL     1      -8.278  13.593  68.225  1.00  0.00    -0.156 C  
HETATM    2  N   UNL     1      -8.693  15.026  68.497  1.00  0.00    -0.168 N  
HETATM    3  C   UNL     1     -10.140  15.267  69.016  1.00  0.00    -0.239 C  
HETATM    4  C   UNL     1      -7.676  15.552  69.545  1.00  0.00    -0.197 C  
HETATM    5  C   UNL     1     -11.145  14.542  68.092  1.00  0.00    -0.280 C  
HETATM    6  C   UNL     1     -11.092  15.045  66.637  1.00  0.00    -0.326 C  
HETATM    7  C   UNL     1      -9.651  15.336  66.157  1.00  0.00    -0.353 C  
HETATM    8  O   UNL     1     -10.759  17.467  67.829  1.00  0.00    -0.373 OA 
HETATM    9  C   UNL     1      -8.755  15.972  67.264  1.00  0.00    -0.185 C  
HETATM   10  C   UNL     1     -10.276  16.791  68.981  1.00  0.00    -0.310 C  
HETATM   11  C   UNL     1      -9.358  17.252  67.845  1.00  0.00    -0.258 C  
ENDROOT
BRANCH   6  12
HETATM   12  O   UNL     1     -11.947  14.343  65.702  1.00  0.00    -0.364 OA 
BRANCH  12  13
HETATM   13  C   UNL     1     -11.851  14.511  64.367  1.00  0.00    -0.403 C  
HETATM   14  C   UNL     1     -10.614  12.189  64.079  1.00  0.00    -0.429 A  
HETATM   15  C   UNL     1     -11.647  13.209  63.590  1.00  0.00    -0.445 C  
HETATM   16  C   UNL     1     -12.996  12.541  63.302  1.00  0.00     0.225 C  
HETATM   17  C   UNL     1      -9.769  11.586  63.126  1.00  0.00    -0.412 A  
HETATM   18  O   UNL     1     -13.534  11.866  64.436  1.00  0.00    -0.447 OA 
HETATM   19  O   UNL     1     -11.970  15.607  63.834  1.00  0.00    -0.524 OA 
HETATM   20  C   UNL     1      -8.948  10.503  63.459  1.00  0.00    -0.231 A  
HETATM   21  H   UNL     1     -14.371  11.452  64.258  1.00  0.00     0.000 HD 
HETATM   22  C   UNL     1      -8.947  10.006  64.758  1.00  0.00    -0.247 A  
HETATM   23  C   UNL     1      -9.747  10.608  65.725  1.00  0.00    -0.272 A  
HETATM   24  C   UNL     1     -10.574  11.688  65.390  1.00  0.00    -0.331 A  
ENDBRANCH  12  13
ENDBRANCH   6  12
TORSDOF 2
ENDMDL
MODEL       17
REMARK 921   NORMALIZED FREE ENERGY PREDICTED BY IDOCK:   -6.28 KCAL/MOL
REMARK 922        TOTAL FREE ENERGY PREDICTED BY IDOCK:   -7.53 KCAL/MOL
REMARK 923 INTER-LIGAND FREE ENERGY PREDICTED BY IDOCK:   -6.91 KCAL/MOL
REMARK 924 INTRA-LIGAND FREE ENERGY PREDICTED BY IDOCK:   -0.62 KCAL/MOL
REMARK 927      BINDING AFFINITY PREDICTED BY RF-SCORE:    0.00 PKD
ROOT
HETATM    1  C   UNL     1      -9.774  18.922  68.655  1.00  0.00    -0.400 C  
HETATM    2  N   UNL     1      -8.409  18.363  68.301  1.00  0.00    -0.295 N  
HETATM    3  C   UNL     1      -8.072  18.198  66.792  1.00  0.00    -0.246 C  
HETATM    4  C   UNL     1      -7.391  19.337  68.953  1.00  0.00    -0.356 C  
HETATM    5  C   UNL     1      -9.211  17.420  66.092  1.00  0.00    -0.171 C  
HETATM    6  C   UNL     1      -9.417  16.008  66.673  1.00  0.00    -0.237 C  
HETATM    7  C   UNL     1      -9.265  15.966  68.210  1.00  0.00    -0.189 C  
HETATM    8  O   UNL     1      -6.700  16.018  66.802  1.00  0.00    -0.259 OA 
HETATM    9  C   UNL     1      -8.130  16.897  68.738  1.00  0.00    -0.251 C  
HETATM   10  C   UNL     1      -6.744  17.437  66.811  1.00  0.00    -0.213 C  
HETATM   11  C   UNL     1      -6.776  16.599  68.092  1.00  0.00    -0.144 C  
ENDROOT
BRANCH   6  12
HETATM   12  O   UNL     1     -10.529  15.262  66.120  1.00  0.00    -0.285 OA 
BRANCH  12  13
HETATM   13  C   UNL     1     -10.362  14.103  65.451  1.00  0.00    -0.365 C  
HETATM   14  C   UNL     1     -11.412  12.706  67.439  1.00  0.00    -0.397 A  
HETATM   15  C   UNL     1     -11.266  12.969  65.937  1.00  0.00    -0.315 C  
HETATM   16  C   UNL     1     -12.634  13.045  65.249  1.00  0.00    -0.457 C  
HETATM   17  C   UNL     1     -11.374  11.372  67.890  1.00  0.00    -0.371 A  
HETATM   18  O   UNL     1     -13.477  14.053  65.801  1.00  0.00    -0.669 OA 
HETATM   19  O   UNL     1      -9.588  13.997  64.508  1.00  0.00     0.227 OA 
HETATM   20  C   UNL     1     -11.704  11.037  69.207  1.00  0.00    -0.397 A  
HETATM   21  H   UNL     1     -14.325  14.101  65.375  1.00  0.00     0.000 HD 
HETATM   22  C   UNL     1     -12.069  12.032  70.106  1.00  0.00    -0.377 A  
HETATM   23  C   UNL     1     -12.080  13.362  69.694  1.00  0.00    -0.349 A  
HETATM   24  C   UNL     1     -11.756  13.697  68.373  1.00  0.00    -0.393 A  
ENDBRANCH  12  13
ENDBRANCH   6  12
TORSDOF 2
ENDMDL
MODEL       18
REMARK 921   NORMALIZED FREE ENERGY PREDICTED BY IDOCK:   -6.24 KCAL/MOL
REMARK 922        TOTAL FREE ENERGY PREDICTED BY IDOCK:   -7.48 KCAL/MOL
REMARK 923 INTER-LIGAND FREE ENERGY PREDICTED BY IDOCK:   -6.96 KCAL/MOL
REMARK 924 INTRA-LIGAND FREE ENERGY PREDICTED BY IDOCK:   -0.52 KCAL/MOL
REMARK 927      BINDING AFFINITY PREDICTED BY RF-SCORE:    0.00 PKD
ROOT
HETATM    1  C   UNL     1      -9.479  15.041  66.107  1.00  0.00    -0.313 C  
HETATM    2  N   UNL     1     -10.792  14.733  65.413  1.00  0.00    -0.338 N  
HETATM    3  C   UNL     1     -11.963  14.209  66.293  1.00  0.00    -0.429 C  
HETATM    4  C   UNL     1     -11.214  16.063  64.734  1.00  0.00    -0.339 C  
HETATM    5  C   UNL     1     -11.470  13.018  67.149  1.00  0.00    -0.379 C  
HETATM    6  C   UNL     1     -10.973  11.835  66.297  1.00  0.00    -0.300 C  
HETATM    7  C   UNL     1     -10.181  12.287  65.049  1.00  0.00    -0.312 C  
HETATM    8  O   UNL     1     -13.080  12.508  64.715  1.00  0.00    -0.853 OA 
HETATM    9  C   UNL     1     -10.770  13.569  64.382  1.00  0.00    -0.388 C  
HETATM   10  C   UNL     1     -13.026  13.816  65.265  1.00  0.00    -0.278 C  
HETATM   11  C   UNL     1     -12.246  13.413  64.011  1.00  0.00    -0.405 C  
ENDROOT
BRANCH   6  12
HETATM   12  O   UNL     1     -10.415  10.724  67.039  1.00  0.00    -0.223 OA 
BRANCH  12  13
HETATM   13  C   UNL     1      -9.095  10.615  67.298  1.00  0.00    -0.143 C  
HETATM   14  C   UNL     1      -9.219   7.972  67.262  1.00  0.00    -0.164 A  
HETATM   15  C   UNL     1      -8.491   9.269  66.896  1.00  0.00    -0.128 C  
HETATM   16  C   UNL     1      -8.090   9.284  65.416  1.00  0.00    -0.122 C  
HETATM   17  C   UNL     1      -8.457   6.900  67.770  1.00  0.00    -0.123 A  
HETATM   18  O   UNL     1      -9.203   9.131  64.538  1.00  0.00    -0.430 OA 
HETATM   19  O   UNL     1      -8.442  11.539  67.767  1.00  0.00    -0.129 OA 
HETATM   20  C   UNL     1      -9.009   5.625  67.932  1.00  0.00    -0.108 A  
HETATM   21  H   UNL     1      -8.955   9.141  63.621  1.00  0.00     0.000 HD 
HETATM   22  C   UNL     1     -10.340   5.396  67.598  1.00  0.00    -0.235 A  
HETATM   23  C   UNL     1     -11.121   6.448  67.127  1.00  0.00    -0.422 A  
HETATM   24  C   UNL     1     -10.567   7.724  66.959  1.00  0.00    -0.396 A  
ENDBRANCH  12  13
ENDBRANCH   6  12
TORSDOF 2
ENDMDL
MODEL       19
REMARK 921   NORMALIZED FREE ENERGY PREDICTED BY IDOCK:   -6.23 KCAL/MOL
REMARK 922        TOTAL FREE ENERGY PREDICTED BY IDOCK:   -7.47 KCAL/MOL
REMARK 923 INTER-LIGAND FREE ENERGY PREDICTED BY IDOCK:   -6.87 KCAL/MOL
REMARK 924 INTRA-LIGAND FREE ENERGY PREDICTED BY IDOCK:   -0.60 KCAL/MOL
REMARK 927      BINDING AFFINITY PREDICTED BY RF-SCORE:    0.00 PKD
ROOT
HETATM    1  C   UNL     1     -10.636   8.171  66.963  1.00  0.00    -0.275 C  
HETATM    2  N   UNL     1      -9.385   9.028  66.983  1.00  0.00    -0.144 N  
HETATM    3  C   UNL     1      -9.119   9.878  68.258  1.00  0.00    -0.122 C  
HETATM    4  C   UNL     1      -8.210   8.036  66.771  1.00  0.00    -0.111 C  
HETATM    5  C   UNL     1     -10.384  10.699  68.602  1.00  0.00    -0.202 C  
HETATM    6  C   UNL     1     -10.790  11.672  67.479  1.00  0.00    -0.237 C  
HETATM    7  C   UNL     1     -10.604  11.069  66.069  1.00  0.00    -0.275 C  
HETATM    8  O   UNL     1      -8.103  12.021  67.252  1.00  0.00    -0.158 OA 
HETATM    9  C   UNL     1      -9.325  10.185  65.945  1.00  0.00    -0.175 C  
HETATM   10  C   UNL     1      -7.925  10.748  67.856  1.00  0.00    -0.110 C  
HETATM   11  C   UNL     1      -8.052  10.935  66.342  1.00  0.00    -0.164 C  
ENDROOT
BRANCH   6  12
HETATM   12  O   UNL     1     -12.019  12.405  67.704  1.00  0.00    -0.454 OA 
BRANCH  12  13
HETATM   13  C   UNL     1     -12.145  13.716  67.411  1.00  0.00    -0.337 C  
HETATM   14  C   UNL     1     -12.498  14.337  69.960  1.00  0.00    -0.355 A  
HETATM   15  C   UNL     1     -11.874  14.646  68.595  1.00  0.00    -0.346 C  
HETATM   16  C   UNL     1     -10.373  14.928  68.720  1.00  0.00    -0.245 C  
HETATM   17  C   UNL     1     -13.067  15.401  70.689  1.00  0.00    -0.405 A  
HETATM   18  O   UNL     1      -9.652  13.848  69.309  1.00  0.00    -0.394 OA 
HETATM   19  O   UNL     1     -12.404  14.112  66.283  1.00  0.00    -0.456 OA 
HETATM   20  C   UNL     1     -13.468  15.241  72.020  1.00  0.00    -0.547 A  
HETATM   21  H   UNL     1      -8.721  14.022  69.386  1.00  0.00     0.000 HD 
HETATM   22  C   UNL     1     -13.317  14.010  72.648  1.00  0.00    -0.643 A  
HETATM   23  C   UNL     1     -12.790  12.935  71.937  1.00  0.00    -0.315 A  
HETATM   24  C   UNL     1     -12.383  13.096  70.606  1.00  0.00    -0.405 A  
ENDBRANCH  12  13
ENDBRANCH   6  12
TORSDOF 2
ENDMDL
MODEL       20
REMARK 921   NORMALIZED FREE ENERGY PREDICTED BY IDOCK:   -6.23 KCAL/MOL
REMARK 922        TOTAL FREE ENERGY PREDICTED BY IDOCK:   -7.47 KCAL/MOL
REMARK 923 INTER-LIGAND FREE ENERGY PREDICTED BY IDOCK:   -7.01 KCAL/MOL
REMARK 924 INTRA-LIGAND FREE ENERGY PREDICTED BY IDOCK:   -0.46 KCAL/MOL
REMARK 927      BINDING AFFINITY PREDICTED BY RF-SCORE:    0.00 PKD
ROOT
HETATM    1  C   UNL     1      -9.220  11.330  65.622  1.00  0.00    -0.213 C  
HETATM    2  N   UNL     1     -10.352  11.720  64.691  1.00  0.00    -0.275 N  
HETATM    3  C   UNL     1     -10.362  13.176  64.145  1.00  0.00    -0.263 C  
HETATM    4  C   UNL     1     -10.261  10.725  63.503  1.00  0.00    -0.250 C  
HETATM    5  C   UNL     1     -10.218  14.168  65.323  1.00  0.00    -0.400 C  
HETATM    6  C   UNL     1     -11.365  14.054  66.346  1.00  0.00    -0.333 C  
HETATM    7  C   UNL     1     -11.799  12.592  66.597  1.00  0.00    -0.449 C  
HETATM    8  O   UNL     1     -12.883  13.703  64.117  1.00  0.00    -0.611 OA 
HETATM    9  C   UNL     1     -11.781  11.718  65.305  1.00  0.00    -0.065 C  
HETATM   10  C   UNL     1     -11.714  13.274  63.434  1.00  0.00    -0.258 C  
HETATM   11  C   UNL     1     -12.636  12.309  64.184  1.00  0.00    -0.394 C  
ENDROOT
BRANCH   6  12
HETATM   12  O   UNL     1     -11.241  14.895  67.519  1.00  0.00    -0.307 OA 
BRANCH  12  13
HETATM   13  C   UNL     1     -10.210  14.785  68.381  1.00  0.00    -0.224 C  
HETATM   14  C   UNL     1      -9.723  17.384  68.260  1.00  0.00    -0.299 A  
HETATM   15  C   UNL     1      -9.842  16.096  69.080  1.00  0.00    -0.245 C  
HETATM   16  C   UNL     1     -10.718  16.304  70.320  1.00  0.00    -0.188 C  
HETATM   17  C   UNL     1      -8.631  18.238  68.515  1.00  0.00    -0.323 A  
HETATM   18  O   UNL     1     -12.032  16.756  70.002  1.00  0.00     0.022 OA 
HETATM   19  O   UNL     1      -9.659  13.716  68.612  1.00  0.00    -0.193 OA 
HETATM   20  C   UNL     1      -8.563  19.521  67.960  1.00  0.00    -0.365 A  
HETATM   21  H   UNL     1     -12.575  16.885  70.771  1.00  0.00     0.000 HD 
HETATM   22  C   UNL     1      -9.583  19.974  67.130  1.00  0.00    -0.533 A  
HETATM   23  C   UNL     1     -10.654  19.135  66.836  1.00  0.00    -0.540 A  
HETATM   24  C   UNL     1     -10.725  17.852  67.396  1.00  0.00    -0.306 A  
ENDBRANCH  12  13
ENDBRANCH   6  12
TORSDOF 2
ENDMDL
MODEL       21
REMARK 921   NORMALIZED FREE ENERGY PREDICTED BY IDOCK:   -6.19 KCAL/MOL
REMARK 922        TOTAL FREE ENERGY PREDICTED BY IDOCK:   -7.43 KCAL/MOL
REMARK 923 INTER-LIGAND FREE ENERGY PREDICTED BY IDOCK:   -6.82 KCAL/MOL
REMARK 924 INTRA-LIGAND FREE ENERGY PREDICTED BY IDOCK:   -0.61 KCAL/MOL
REMARK 927      BINDING AFFINITY PREDICTED BY RF-SCORE:    0.00 PKD
ROOT
HETATM    1  C   UNL     1     -10.067  12.263  63.454  1.00  0.00    -0.255 C  
HETATM    2  N   UNL     1     -11.227  12.598  64.371  1.00  0.00    -0.326 N  
HETATM    3  C   UNL     1     -11.586  14.100  64.552  1.00  0.00    -0.389 C  
HETATM    4  C   UNL     1     -12.447  11.846  63.774  1.00  0.00    -0.427 C  
HETATM    5  C   UNL     1     -10.311  14.892  64.925  1.00  0.00    -0.347 C  
HETATM    6  C   UNL     1      -9.671  14.412  66.241  1.00  0.00    -0.310 C  
HETATM    7  C   UNL     1      -9.717  12.876  66.403  1.00  0.00    -0.263 C  
HETATM    8  O   UNL     1     -12.260  14.177  67.037  1.00  0.00    -0.432 OA 
HETATM    9  C   UNL     1     -11.042  12.245  65.874  1.00  0.00    -0.322 C  
HETATM   10  C   UNL     1     -12.632  14.078  65.670  1.00  0.00    -0.512 C  
HETATM   11  C   UNL     1     -12.284  12.855  66.524  1.00  0.00    -0.188 C  
ENDROOT
BRANCH   6  12
HETATM   12  O   UNL     1      -8.423  15.055  66.598  1.00  0.00    -0.248 OA 
BRANCH  12  13
HETATM   13  C   UNL     1      -7.940  15.050  67.858  1.00  0.00    -0.138 C  
HETATM   14  C   UNL     1      -8.023  17.693  67.988  1.00  0.00    -0.241 A  
HETATM   15  C   UNL     1      -8.245  16.326  68.645  1.00  0.00    -0.214 C  
HETATM   16  C   UNL     1      -9.632  16.237  69.290  1.00  0.00    -0.220 C  
HETATM   17  C   UNL     1      -7.401  18.704  68.747  1.00  0.00    -0.326 A  
HETATM   18  O   UNL     1     -10.691  16.467  68.364  1.00  0.00    -0.293 OA 
HETATM   19  O   UNL     1      -7.356  14.085  68.332  1.00  0.00    -0.096 OA 
HETATM   20  C   UNL     1      -7.350  20.027  68.297  1.00  0.00    -0.295 A  
HETATM   21  H   UNL     1     -11.551  16.411  68.764  1.00  0.00     0.000 HD 
HETATM   22  C   UNL     1      -7.912  20.366  67.070  1.00  0.00    -0.359 A  
HETATM   23  C   UNL     1      -8.500  19.377  66.287  1.00  0.00    -0.346 A  
HETATM   24  C   UNL     1      -8.557  18.053  66.741  1.00  0.00    -0.270 A  
ENDBRANCH  12  13
ENDBRANCH   6  12
TORSDOF 2
ENDMDL
MODEL       22
REMARK 921   NORMALIZED FREE ENERGY PREDICTED BY IDOCK:   -6.16 KCAL/MOL
REMARK 922        TOTAL FREE ENERGY PREDICTED BY IDOCK:   -7.40 KCAL/MOL
REMARK 923 INTER-LIGAND FREE ENERGY PREDICTED BY IDOCK:   -6.55 KCAL/MOL
REMARK 924 INTRA-LIGAND FREE ENERGY PREDICTED BY IDOCK:   -0.85 KCAL/MOL
REMARK 927      BINDING AFFINITY PREDICTED BY RF-SCORE:    0.00 PKD
ROOT
HETATM    1  C   UNL     1     -11.478  13.508  69.087  1.00  0.00    -0.295 C  
HETATM    2  N   UNL     1     -11.181  14.249  67.797  1.00  0.00    -0.280 N  
HETATM    3  C   UNL     1     -12.033  13.882  66.548  1.00  0.00    -0.439 C  
HETATM    4  C   UNL     1     -11.383  15.750  68.135  1.00  0.00    -0.337 C  
HETATM    5  C   UNL     1     -12.018  12.348  66.348  1.00  0.00    -0.346 C  
HETATM    6  C   UNL     1     -10.602  11.788  66.117  1.00  0.00    -0.260 C  
HETATM    7  C   UNL     1      -9.535  12.476  66.999  1.00  0.00    -0.217 C  
HETATM    8  O   UNL     1     -10.291  14.063  64.660  1.00  0.00    -0.440 OA 
HETATM    9  C   UNL     1      -9.778  14.007  67.171  1.00  0.00    -0.242 C  
HETATM   10  C   UNL     1     -11.342  14.646  65.416  1.00  0.00    -0.344 C  
HETATM   11  C   UNL     1      -9.871  14.741  65.832  1.00  0.00    -0.334 C  
ENDROOT
BRANCH   6  12
HETATM   12  O   UNL     1     -10.511  10.346  66.012  1.00  0.00    -0.219 OA 
BRANCH  12  13
HETATM   13  C   UNL     1      -9.333   9.690  66.046  1.00  0.00    -0.207 C  
HETATM   14  C   UNL     1      -9.647   9.085  68.603  1.00  0.00    -0.158 A  
HETATM   15  C   UNL     1      -9.215   8.681  67.190  1.00  0.00    -0.175 C  
HETATM   16  C   UNL     1      -9.829   7.338  66.782  1.00  0.00    -0.212 C  
HETATM   17  C   UNL     1      -8.817   8.722  69.683  1.00  0.00    -0.141 A  
HETATM   18  O   UNL     1     -11.254   7.341  66.832  1.00  0.00    -0.543 OA 
HETATM   19  O   UNL     1      -8.464   9.861  65.200  1.00  0.00    -0.135 OA 
HETATM   20  C   UNL     1      -9.238   8.870  71.009  1.00  0.00    -0.307 A  
HETATM   21  H   UNL     1     -11.635   6.508  66.579  1.00  0.00     0.000 HD 
HETATM   22  C   UNL     1     -10.497   9.393  71.284  1.00  0.00    -0.385 A  
HETATM   23  C   UNL     1     -11.320   9.791  70.234  1.00  0.00    -0.333 A  
HETATM   24  C   UNL     1     -10.901   9.638  68.906  1.00  0.00    -0.201 A  
ENDBRANCH  12  13
ENDBRANCH   6  12
TORSDOF 2
ENDMDL
MODEL       23
REMARK 921   NORMALIZED FREE ENERGY PREDICTED BY IDOCK:   -6.14 KCAL/MOL
REMARK 922        TOTAL FREE ENERGY PREDICTED BY IDOCK:   -7.37 KCAL/MOL
REMARK 923 INTER-LIGAND FREE ENERGY PREDICTED BY IDOCK:   -6.94 KCAL/MOL
REMARK 924 INTRA-LIGAND FREE ENERGY PREDICTED BY IDOCK:   -0.43 KCAL/MOL
REMARK 927      BINDING AFFINITY PREDICTED BY RF-SCORE:    0.00 PKD
ROOT
HETATM    1  C   UNL     1     -12.392  12.638  65.335  1.00  0.00    -0.436 C  
HETATM    2  N   UNL     1     -11.630  13.944  65.455  1.00  0.00    -0.318 N  
HETATM    3  C   UNL     1     -10.079  13.863  65.527  1.00  0.00    -0.298 C  
HETATM    4  C   UNL     1     -12.046  14.773  64.210  1.00  0.00    -0.394 C  
HETATM    5  C   UNL     1      -9.666  12.853  66.622  1.00  0.00    -0.254 C  
HETATM    6  C   UNL     1     -10.169  13.250  68.023  1.00  0.00    -0.240 C  
HETATM    7  C   UNL     1     -11.595  13.845  68.000  1.00  0.00    -0.368 C  
HETATM    8  O   UNL     1      -9.536  15.758  67.185  1.00  0.00    -0.209 OA 
HETATM    9  C   UNL     1     -11.857  14.756  66.761  1.00  0.00    -0.257 C  
HETATM   10  C   UNL     1      -9.667  15.302  65.846  1.00  0.00    -0.355 C  
HETATM   11  C   UNL     1     -10.838  15.890  66.640  1.00  0.00    -0.213 C  
ENDROOT
BRANCH   6  12
HETATM   12  O   UNL     1      -9.892  12.297  69.078  1.00  0.00     0.033 OA 
BRANCH  12  13
HETATM   13  C   UNL     1      -9.143  11.193  68.878  1.00  0.00    -0.089 C  
HETATM   14  C   UNL     1     -10.803   9.705  70.306  1.00  0.00    -0.339 A  
HETATM   15  C   UNL     1      -9.903   9.880  69.078  1.00  0.00    -0.193 C  
HETATM   16  C   UNL     1     -10.635   9.486  67.791  1.00  0.00    -0.261 C  
HETATM   17  C   UNL     1     -10.745   8.484  71.007  1.00  0.00    -0.278 A  
HETATM   18  O   UNL     1     -11.831  10.233  67.581  1.00  0.00    -0.464 OA 
HETATM   19  O   UNL     1      -7.973  11.251  68.521  1.00  0.00    -0.130 OA 
HETATM   20  C   UNL     1     -11.673   8.170  72.004  1.00  0.00    -0.389 A  
HETATM   21  H   UNL     1     -12.285   9.990  66.783  1.00  0.00     0.000 HD 
HETATM   22  C   UNL     1     -12.677   9.076  72.330  1.00  0.00    -0.457 A  
HETATM   23  C   UNL     1     -12.733  10.304  71.676  1.00  0.00    -0.561 A  
HETATM   24  C   UNL     1     -11.806  10.617  70.672  1.00  0.00    -0.463 A  
ENDBRANCH  12  13
ENDBRANCH   6  12
TORSDOF 2
ENDMDL
MODEL       24
REMARK 921   NORMALIZED FREE ENERGY PREDICTED BY IDOCK:   -6.13 KCAL/MOL
REMARK 922        TOTAL FREE ENERGY PREDICTED BY IDOCK:   -7.35 KCAL/MOL
REMARK 923 INTER-LIGAND FREE ENERGY PREDICTED BY IDOCK:   -7.60 KCAL/MOL
REMARK 924 INTRA-LIGAND FREE ENERGY PREDICTED BY IDOCK:    0.24 KCAL/MOL
REMARK 927      BINDING AFFINITY PREDICTED BY RF-SCORE:    0.00 PKD
ROOT
HETATM    1  C   UNL     1      -7.675  17.513  68.848  1.00  0.00    -0.207 C  
HETATM    2  N   UNL     1      -8.326  18.644  68.075  1.00  0.00    -0.270 N  
HETATM    3  C   UNL     1      -9.851  18.868  68.282  1.00  0.00    -0.374 C  
HETATM    4  C   UNL     1      -7.556  19.922  68.502  1.00  0.00    -0.250 C  
HETATM    5  C   UNL     1     -10.599  17.529  68.081  1.00  0.00    -0.366 C  
HETATM    6  C   UNL     1     -10.409  16.943  66.669  1.00  0.00    -0.299 C  
HETATM    7  C   UNL     1      -8.971  17.128  66.133  1.00  0.00    -0.217 C  
HETATM    8  O   UNL     1     -10.601  19.548  65.913  1.00  0.00    -0.504 OA 
HETATM    9  C   UNL     1      -8.344  18.501  66.527  1.00  0.00    -0.281 C  
HETATM   10  C   UNL     1     -10.197  19.918  67.224  1.00  0.00    -0.433 C  
HETATM   11  C   UNL     1      -9.201  19.688  66.084  1.00  0.00    -0.340 C  
ENDROOT
BRANCH   6  12
HETATM   12  O   UNL     1     -11.011  15.645  66.446  1.00  0.00    -0.291 OA 
BRANCH  12  13
HETATM   13  C   UNL     1     -10.586  14.805  65.480  1.00  0.00    -0.359 C  
HETATM   14  C   UNL     1     -11.254  12.682  66.912  1.00  0.00    -0.348 A  
HETATM   15  C   UNL     1     -11.194  13.403  65.562  1.00  0.00    -0.303 C  
HETATM   16  C   UNL     1     -12.550  13.366  64.850  1.00  0.00    -0.360 C  
HETATM   17  C   UNL     1     -10.899  11.319  66.957  1.00  0.00    -0.332 A  
HETATM   18  O   UNL     1     -13.599  13.947  65.621  1.00  0.00    -0.593 OA 
HETATM   19  O   UNL     1      -9.822  15.162  64.593  1.00  0.00    -0.023 OA 
HETATM   20  C   UNL     1     -11.124  10.543  68.099  1.00  0.00    -0.346 A  
HETATM   21  H   UNL     1     -14.439  13.924  65.180  1.00  0.00     0.000 HD 
HETATM   22  C   UNL     1     -11.701  11.118  69.227  1.00  0.00    -0.401 A  
HETATM   23  C   UNL     1     -12.028  12.471  69.218  1.00  0.00    -0.304 A  
HETATM   24  C   UNL     1     -11.808  13.247  68.073  1.00  0.00    -0.392 A  
ENDBRANCH  12  13
ENDBRANCH   6  12
TORSDOF 2
ENDMDL
MODEL       25
REMARK 921   NORMALIZED FREE ENERGY PREDICTED BY IDOCK:   -6.08 KCAL/MOL
REMARK 922        TOTAL FREE ENERGY PREDICTED BY IDOCK:   -7.31 KCAL/MOL
REMARK 923 INTER-LIGAND FREE ENERGY PREDICTED BY IDOCK:   -6.91 KCAL/MOL
REMARK 924 INTRA-LIGAND FREE ENERGY PREDICTED BY IDOCK:   -0.40 KCAL/MOL
REMARK 927      BINDING AFFINITY PREDICTED BY RF-SCORE:    0.00 PKD
ROOT
HETATM    1  C   UNL     1      -9.535  15.249  66.152  1.00  0.00    -0.326 C  
HETATM    2  N   UNL     1     -10.782  14.816  65.406  1.00  0.00    -0.344 N  
HETATM    3  C   UNL     1     -12.026  14.427  66.255  1.00  0.00    -0.376 C  
HETATM    4  C   UNL     1     -11.141  16.014  64.487  1.00  0.00    -0.253 C  
HETATM    5  C   UNL     1     -11.612  13.396  67.331  1.00  0.00    -0.394 C  
HETATM    6  C   UNL     1     -11.043  12.097  66.728  1.00  0.00    -0.300 C  
HETATM    7  C   UNL     1     -10.145  12.352  65.497  1.00  0.00    -0.287 C  
HETATM    8  O   UNL     1     -13.003  12.479  64.883  1.00  0.00    -0.821 OA 
HETATM    9  C   UNL     1     -10.672  13.502  64.583  1.00  0.00    -0.416 C  
HETATM   10  C   UNL     1     -12.996  13.860  65.216  1.00  0.00    -0.297 C  
HETATM   11  C   UNL     1     -12.110  13.269  64.116  1.00  0.00    -0.432 C  
ENDROOT
BRANCH   6  12
HETATM   12  O   UNL     1     -10.554  11.127  67.686  1.00  0.00    -0.190 OA 
BRANCH  12  13
HETATM   13  C   UNL     1     -11.379  10.399  68.466  1.00  0.00    -0.220 C  
HETATM   14  C   UNL     1     -10.315   8.129  67.619  1.00  0.00    -0.313 A  
HETATM   15  C   UNL     1     -10.872   8.986  68.760  1.00  0.00    -0.067 C  
HETATM   16  C   UNL     1      -9.922   8.999  69.962  1.00  0.00    -0.188 C  
HETATM   17  C   UNL     1     -10.700   6.774  67.553  1.00  0.00    -0.381 A  
HETATM   18  O   UNL     1      -8.620   9.478  69.636  1.00  0.00    -0.150 OA 
HETATM   19  O   UNL     1     -12.415  10.858  68.932  1.00  0.00    -0.431 OA 
HETATM   20  C   UNL     1     -10.080   5.882  66.672  1.00  0.00    -0.229 A  
HETATM   21  H   UNL     1      -8.031   9.487  70.381  1.00  0.00     0.000 HD 
HETATM   22  C   UNL     1      -9.066   6.327  65.831  1.00  0.00    -0.086 A  
HETATM   23  C   UNL     1      -8.693   7.668  65.854  1.00  0.00    -0.176 A  
HETATM   24  C   UNL     1      -9.309   8.561  66.740  1.00  0.00    -0.232 A  
ENDBRANCH  12  13
ENDBRANCH   6  12
TORSDOF 2
ENDMDL
MODEL       26
REMARK 921   NORMALIZED FREE ENERGY PREDICTED BY IDOCK:   -6.07 KCAL/MOL
REMARK 922        TOTAL FREE ENERGY PREDICTED BY IDOCK:   -7.30 KCAL/MOL
REMARK 923 INTER-LIGAND FREE ENERGY PREDICTED BY IDOCK:   -6.79 KCAL/MOL
REMARK 924 INTRA-LIGAND FREE ENERGY PREDICTED BY IDOCK:   -0.51 KCAL/MOL
REMARK 927      BINDING AFFINITY PREDICTED BY RF-SCORE:    0.00 PKD
ROOT
HETATM    1  C   UNL     1     -10.338  13.221  64.431  1.00  0.00    -0.351 C  
HETATM    2  N   UNL     1     -10.739  12.807  65.834  1.00  0.00    -0.267 N  
HETATM    3  C   UNL     1     -11.823  13.661  66.551  1.00  0.00    -0.404 C  
HETATM    4  C   UNL     1     -11.243  11.345  65.697  1.00  0.00    -0.076 C  
HETATM    5  C   UNL     1     -11.429  15.156  66.482  1.00  0.00    -0.171 C  
HETATM    6  C   UNL     1     -10.083  15.452  67.170  1.00  0.00    -0.245 C  
HETATM    7  C   UNL     1      -9.029  14.349  66.923  1.00  0.00    -0.263 C  
HETATM    8  O   UNL     1     -10.980  13.636  68.984  1.00  0.00    -0.252 OA 
HETATM    9  C   UNL     1      -9.636  12.912  66.925  1.00  0.00    -0.240 C  
HETATM   10  C   UNL     1     -11.825  13.102  67.975  1.00  0.00    -0.358 C  
HETATM   11  C   UNL     1     -10.398  12.598  68.213  1.00  0.00    -0.241 C  
ENDROOT
BRANCH   6  12
HETATM   12  O   UNL     1      -9.615  16.819  67.061  1.00  0.00    -0.229 OA 
BRANCH  12  13
HETATM   13  C   UNL     1      -9.948  17.772  67.956  1.00  0.00    -0.333 C  
HETATM   14  C   UNL     1      -8.198  19.470  66.926  1.00  0.00    -0.310 A  
HETATM   15  C   UNL     1      -9.584  19.191  67.517  1.00  0.00    -0.373 C  
HETATM   16  C   UNL     1     -10.693  19.779  66.638  1.00  0.00    -0.404 C  
HETATM   17  C   UNL     1      -7.509  20.622  67.355  1.00  0.00    -0.384 A  
HETATM   18  O   UNL     1     -10.667  19.281  65.303  1.00  0.00    -0.455 OA 
HETATM   19  O   UNL     1     -10.535  17.514  68.999  1.00  0.00    -0.350 OA 
HETATM   20  C   UNL     1      -6.342  21.053  66.717  1.00  0.00    -0.373 A  
HETATM   21  H   UNL     1     -11.355  19.645  64.758  1.00  0.00     0.000 HD 
HETATM   22  C   UNL     1      -5.832  20.335  65.641  1.00  0.00    -0.211 A  
HETATM   23  C   UNL     1      -6.476  19.174  65.222  1.00  0.00    -0.305 A  
HETATM   24  C   UNL     1      -7.648  18.745  65.857  1.00  0.00    -0.191 A  
ENDBRANCH  12  13
ENDBRANCH   6  12
TORSDOF 2
ENDMDL
MODEL       27
REMARK 921   NORMALIZED FREE ENERGY PREDICTED BY IDOCK:   -6.07 KCAL/MOL
REMARK 922        TOTAL FREE ENERGY PREDICTED BY IDOCK:   -7.29 KCAL/MOL
REMARK 923 INTER-LIGAND FREE ENERGY PREDICTED BY IDOCK:   -6.65 KCAL/MOL
REMARK 924 INTRA-LIGAND FREE ENERGY PREDICTED BY IDOCK:   -0.64 KCAL/MOL
REMARK 927      BINDING AFFINITY PREDICTED BY RF-SCORE:    0.00 PKD
ROOT
HETATM    1  C   UNL     1     -12.696  13.937  65.450  1.00  0.00    -0.490 C  
HETATM    2  N   UNL     1     -11.296  14.193  65.973  1.00  0.00    -0.323 N  
HETATM    3  C   UNL     1     -10.281  13.016  65.911  1.00  0.00    -0.292 C  
HETATM    4  C   UNL     1     -10.759  15.380  65.129  1.00  0.00    -0.440 C  
HETATM    5  C   UNL     1     -10.913  11.758  66.551  1.00  0.00    -0.342 C  
HETATM    6  C   UNL     1     -11.287  11.963  68.032  1.00  0.00    -0.288 C  
HETATM    7  C   UNL     1     -11.871  13.366  68.312  1.00  0.00    -0.393 C  
HETATM    8  O   UNL     1      -8.954  13.358  68.091  1.00  0.00    -0.179 OA 
HETATM    9  C   UNL     1     -11.172  14.495  67.493  1.00  0.00    -0.321 C  
HETATM   10  C   UNL     1      -9.077  13.550  66.689  1.00  0.00    -0.168 C  
HETATM   11  C   UNL     1      -9.659  14.529  67.713  1.00  0.00    -0.215 C  
ENDROOT
BRANCH   6  12
HETATM   12  O   UNL     1     -11.965  10.850  68.663  1.00  0.00    -0.484 OA 
BRANCH  12  13
HETATM   13  C   UNL     1     -11.718  10.479  69.937  1.00  0.00    -0.294 C  
HETATM   14  C   UNL     1     -10.778   8.130  69.159  1.00  0.00    -0.117 A  
HETATM   15  C   UNL     1     -10.685   9.359  70.069  1.00  0.00    -0.270 C  
HETATM   16  C   UNL     1      -9.266   9.940  70.076  1.00  0.00    -0.183 C  
HETATM   17  C   UNL     1     -10.587   6.858  69.735  1.00  0.00    -0.261 A  
HETATM   18  O   UNL     1      -8.811  10.308  68.776  1.00  0.00    -0.132 OA 
HETATM   19  O   UNL     1     -12.245  11.033  70.893  1.00  0.00    -0.339 OA 
HETATM   20  C   UNL     1     -10.452   5.712  68.945  1.00  0.00    -0.310 A  
HETATM   21  H   UNL     1      -7.932  10.669  68.780  1.00  0.00     0.000 HD 
HETATM   22  C   UNL     1     -10.516   5.812  67.559  1.00  0.00    -0.310 A  
HETATM   23  C   UNL     1     -10.740   7.053  66.969  1.00  0.00    -0.423 A  
HETATM   24  C   UNL     1     -10.869   8.202  67.760  1.00  0.00    -0.072 A  
ENDBRANCH  12  13
ENDBRANCH   6  12
TORSDOF 2
ENDMDL
MODEL       28
REMARK 921   NORMALIZED FREE ENERGY PREDICTED BY IDOCK:   -6.05 KCAL/MOL
REMARK 922        TOTAL FREE ENERGY PREDICTED BY IDOCK:   -7.27 KCAL/MOL
REMARK 923 INTER-LIGAND FREE ENERGY PREDICTED BY IDOCK:   -6.72 KCAL/MOL
REMARK 924 INTRA-LIGAND FREE ENERGY PREDICTED BY IDOCK:   -0.55 KCAL/MOL
REMARK 927      BINDING AFFINITY PREDICTED BY RF-SCORE:    0.00 PKD
ROOT
HETATM    1  C   UNL     1      -9.302  20.423  66.266  1.00  0.00    -0.143 C  
HETATM    2  N   UNL     1      -8.149  19.862  67.076  1.00  0.00    -0.296 N  
HETATM    3  C   UNL     1      -7.550  18.500  66.622  1.00  0.00    -0.238 C  
HETATM    4  C   UNL     1      -7.046  20.953  67.021  1.00  0.00    -0.315 C  
HETATM    5  C   UNL     1      -8.690  17.469  66.452  1.00  0.00    -0.273 C  
HETATM    6  C   UNL     1      -9.468  17.215  67.758  1.00  0.00    -0.253 C  
HETATM    7  C   UNL     1      -9.690  18.503  68.581  1.00  0.00    -0.398 C  
HETATM    8  O   UNL     1      -6.998  17.395  68.882  1.00  0.00    -0.224 OA 
HETATM    9  C   UNL     1      -8.466  19.470  68.547  1.00  0.00    -0.338 C  
HETATM   10  C   UNL     1      -6.581  18.149  67.753  1.00  0.00    -0.189 C  
HETATM   11  C   UNL     1      -7.172  18.797  69.008  1.00  0.00    -0.278 C  
ENDROOT
BRANCH   6  12
HETATM   12  O   UNL     1     -10.605  16.326  67.643  1.00  0.00    -0.299 OA 
BRANCH  12  13
HETATM   13  C   UNL     1     -10.754  15.235  68.423  1.00  0.00    -0.250 C  
HETATM   14  C   UNL     1     -11.297  13.708  66.330  1.00  0.00    -0.331 A  
HETATM   15  C   UNL     1     -10.594  13.910  67.676  1.00  0.00    -0.247 C  
HETATM   16  C   UNL     1      -9.114  13.518  67.595  1.00  0.00    -0.205 C  
HETATM   17  C   UNL     1     -11.948  12.481  66.095  1.00  0.00    -0.432 A  
HETATM   18  O   UNL     1      -8.400  14.249  66.601  1.00  0.00    -0.412 OA 
HETATM   19  O   UNL     1     -10.949  15.314  69.629  1.00  0.00    -0.251 OA 
HETATM   20  C   UNL     1     -12.432  12.142  64.827  1.00  0.00    -0.264 A  
HETATM   21  H   UNL     1      -7.482  14.007  66.551  1.00  0.00     0.000 HD 
HETATM   22  C   UNL     1     -12.284  13.030  63.767  1.00  0.00    -0.536 A  
HETATM   23  C   UNL     1     -11.676  14.264  63.983  1.00  0.00    -0.190 A  
HETATM   24  C   UNL     1     -11.185  14.601  65.252  1.00  0.00    -0.358 A  
ENDBRANCH  12  13
ENDBRANCH   6  12
TORSDOF 2
ENDMDL
MODEL       29
REMARK 921   NORMALIZED FREE ENERGY PREDICTED BY IDOCK:   -6.01 KCAL/MOL
REMARK 922        TOTAL FREE ENERGY PREDICTED BY IDOCK:   -7.22 KCAL/MOL
REMARK 923 INTER-LIGAND FREE ENERGY PREDICTED BY IDOCK:   -6.58 KCAL/MOL
REMARK 924 INTRA-LIGAND FREE ENERGY PREDICTED BY IDOCK:   -0.65 KCAL/MOL
REMARK 927      BINDING AFFINITY PREDICTED BY RF-SCORE:    0.00 PKD
ROOT
HETATM    1  C   UNL     1     -10.909   7.212  67.194  1.00  0.00    -0.333 C  
HETATM    2  N   UNL     1      -9.586   7.938  67.340  1.00  0.00    -0.145 N  
HETATM    3  C   UNL     1      -9.396   8.836  68.595  1.00  0.00    -0.141 C  
HETATM    4  C   UNL     1      -8.508   6.822  67.338  1.00  0.00    -0.121 C  
HETATM    5  C   UNL     1     -10.599   9.800  68.725  1.00  0.00    -0.244 C  
HETATM    6  C   UNL     1     -10.750  10.736  67.511  1.00  0.00    -0.264 C  
HETATM    7  C   UNL     1     -10.450  10.029  66.170  1.00  0.00    -0.156 C  
HETATM    8  O   UNL     1      -8.034  10.798  67.630  1.00  0.00    -0.108 OA 
HETATM    9  C   UNL     1      -9.269   9.015  66.264  1.00  0.00    -0.206 C  
HETATM   10  C   UNL     1      -8.074   9.554  68.315  1.00  0.00    -0.102 C  
HETATM   11  C   UNL     1      -7.984   9.657  66.790  1.00  0.00    -0.105 C  
ENDROOT
BRANCH   6  12
HETATM   12  O   UNL     1     -11.911  11.601  67.531  1.00  0.00    -0.622 OA 
BRANCH  12  13
HETATM   13  C   UNL     1     -11.890  12.855  67.032  1.00  0.00    -0.374 C  
HETATM   14  C   UNL     1     -12.243  13.908  69.435  1.00  0.00    -0.338 A  
HETATM   15  C   UNL     1     -11.554  13.930  68.067  1.00  0.00    -0.368 C  
HETATM   16  C   UNL     1     -10.035  14.077  68.210  1.00  0.00    -0.236 C  
HETATM   17  C   UNL     1     -12.716  15.126  69.964  1.00  0.00    -0.200 A  
HETATM   18  O   UNL     1      -9.449  13.038  68.991  1.00  0.00    -0.379 OA 
HETATM   19  O   UNL     1     -12.076  13.090  65.845  1.00  0.00    -0.412 OA 
HETATM   20  C   UNL     1     -13.166  15.221  71.284  1.00  0.00    -0.563 A  
HETATM   21  H   UNL     1      -8.507  13.128  69.080  1.00  0.00     0.000 HD 
HETATM   22  C   UNL     1     -13.163  14.097  72.103  1.00  0.00    -0.510 A  
HETATM   23  C   UNL     1     -12.734  12.875  71.592  1.00  0.00    -0.299 A  
HETATM   24  C   UNL     1     -12.277  12.780  70.271  1.00  0.00    -0.351 A  
ENDBRANCH  12  13
ENDBRANCH   6  12
TORSDOF 2
ENDMDL
MODEL       30
REMARK 921   NORMALIZED FREE ENERGY PREDICTED BY IDOCK:   -6.00 KCAL/MOL
REMARK 922        TOTAL FREE ENERGY PREDICTED BY IDOCK:   -7.22 KCAL/MOL
REMARK 923 INTER-LIGAND FREE ENERGY PREDICTED BY IDOCK:   -6.65 KCAL/MOL
REMARK 924 INTRA-LIGAND FREE ENERGY PREDICTED BY IDOCK:   -0.57 KCAL/MOL
REMARK 927      BINDING AFFINITY PREDICTED BY RF-SCORE:    0.00 PKD
ROOT
HETATM    1  C   UNL     1      -8.116  10.978  65.896  1.00  0.00    -0.075 C  
HETATM    2  N   UNL     1      -9.567  11.003  66.337  1.00  0.00    -0.193 N  
HETATM    3  C   UNL     1     -10.464  12.147  65.784  1.00  0.00    -0.253 C  
HETATM    4  C   UNL     1     -10.149   9.634  65.896  1.00  0.00    -0.234 C  
HETATM    5  C   UNL     1      -9.767  13.507  66.020  1.00  0.00    -0.233 C  
HETATM    6  C   UNL     1      -9.518  13.801  67.512  1.00  0.00    -0.220 C  
HETATM    7  C   UNL     1      -9.084  12.547  68.304  1.00  0.00    -0.183 C  
HETATM    8  O   UNL     1     -11.966  12.657  67.814  1.00  0.00    -0.347 OA 
HETATM    9  C   UNL     1      -9.824  11.251  67.851  1.00  0.00    -0.176 C  
HETATM   10  C   UNL     1     -11.764  11.988  66.577  1.00  0.00    -0.256 C  
HETATM   11  C   UNL     1     -11.345  11.387  67.923  1.00  0.00    -0.303 C  
ENDROOT
BRANCH   6  12
HETATM   12  O   UNL     1      -8.787  15.020  67.794  1.00  0.00    -0.165 OA 
BRANCH  12  13
HETATM   13  C   UNL     1      -8.725  15.558  69.029  1.00  0.00    -0.235 C  
HETATM   14  C   UNL     1      -9.842  17.808  68.197  1.00  0.00    -0.326 A  
HETATM   15  C   UNL     1      -9.706  16.710  69.256  1.00  0.00    -0.173 C  
HETATM   16  C   UNL     1     -11.076  16.169  69.677  1.00  0.00    -0.344 C  
HETATM   17  C   UNL     1      -9.900  19.148  68.629  1.00  0.00    -0.485 A  
HETATM   18  O   UNL     1     -11.827  15.647  68.584  1.00  0.00    -0.443 OA 
HETATM   19  O   UNL     1      -7.980  15.121  69.897  1.00  0.00    -0.124 OA 
HETATM   20  C   UNL     1     -10.229  20.185  67.750  1.00  0.00    -0.514 A  
HETATM   21  H   UNL     1     -12.677  15.311  68.845  1.00  0.00     0.000 HD 
HETATM   22  C   UNL     1     -10.498  19.905  66.415  1.00  0.00    -0.589 A  
HETATM   23  C   UNL     1     -10.412  18.593  65.957  1.00  0.00    -0.456 A  
HETATM   24  C   UNL     1     -10.089  17.554  66.838  1.00  0.00    -0.324 A  
ENDBRANCH  12  13
ENDBRANCH   6  12
TORSDOF 2
ENDMDL
MODEL       31
REMARK 921   NORMALIZED FREE ENERGY PREDICTED BY IDOCK:   -6.00 KCAL/MOL
REMARK 922        TOTAL FREE ENERGY PREDICTED BY IDOCK:   -7.22 KCAL/MOL
REMARK 923 INTER-LIGAND FREE ENERGY PREDICTED BY IDOCK:   -6.62 KCAL/MOL
REMARK 924 INTRA-LIGAND FREE ENERGY PREDICTED BY IDOCK:   -0.60 KCAL/MOL
REMARK 927      BINDING AFFINITY PREDICTED BY RF-SCORE:    0.00 PKD
ROOT
HETATM    1  C   UNL     1      -7.105  17.112  68.911  1.00  0.00    -0.242 C  
HETATM    2  N   UNL     1      -8.099  18.027  68.220  1.00  0.00    -0.283 N  
HETATM    3  C   UNL     1      -9.604  17.838  68.563  1.00  0.00    -0.322 C  
HETATM    4  C   UNL     1      -7.660  19.465  68.603  1.00  0.00    -0.363 C  
HETATM    5  C   UNL     1      -9.986  16.348  68.402  1.00  0.00    -0.238 C  
HETATM    6  C   UNL     1      -9.773  15.826  66.968  1.00  0.00    -0.228 C  
HETATM    7  C   UNL     1      -8.490  16.385  66.312  1.00  0.00    -0.372 C  
HETATM    8  O   UNL     1     -10.716  18.283  66.282  1.00  0.00    -0.323 OA 
HETATM    9  C   UNL     1      -8.216  17.877  66.677  1.00  0.00    -0.258 C  
HETATM   10  C   UNL     1     -10.309  18.754  67.559  1.00  0.00    -0.416 C  
HETATM   11  C   UNL     1      -9.393  18.791  66.333  1.00  0.00    -0.312 C  
ENDROOT
BRANCH   6  12
HETATM   12  O   UNL     1     -10.027  14.414  66.774  1.00  0.00    -0.251 OA 
BRANCH  12  13
HETATM   13  C   UNL     1     -11.270  13.918  66.604  1.00  0.00    -0.320 C  
HETATM   14  C   UNL     1     -10.512  11.512  67.405  1.00  0.00    -0.240 A  
HETATM   15  C   UNL     1     -11.546  12.642  67.402  1.00  0.00    -0.421 C  
HETATM   16  C   UNL     1     -11.995  12.990  68.826  1.00  0.00    -0.266 C  
HETATM   17  C   UNL     1     -10.971  10.188  67.259  1.00  0.00    -0.250 A  
HETATM   18  O   UNL     1     -10.913  13.374  69.671  1.00  0.00    -0.460 OA 
HETATM   19  O   UNL     1     -12.109  14.477  65.909  1.00  0.00    -0.354 OA 
HETATM   20  C   UNL     1     -10.120   9.095  67.456  1.00  0.00    -0.284 A  
HETATM   21  H   UNL     1     -11.192  13.590  70.553  1.00  0.00     0.000 HD 
HETATM   22  C   UNL     1      -8.788   9.303  67.796  1.00  0.00    -0.121 A  
HETATM   23  C   UNL     1      -8.303  10.603  67.912  1.00  0.00    -0.120 A  
HETATM   24  C   UNL     1      -9.156  11.698  67.720  1.00  0.00    -0.175 A  
ENDBRANCH  12  13
ENDBRANCH   6  12
TORSDOF 2
ENDMDL
MODEL       32
REMARK 921   NORMALIZED FREE ENERGY PREDICTED BY IDOCK:   -5.98 KCAL/MOL
REMARK 922        TOTAL FREE ENERGY PREDICTED BY IDOCK:   -7.19 KCAL/MOL
REMARK 923 INTER-LIGAND FREE ENERGY PREDICTED BY IDOCK:   -6.66 KCAL/MOL
REMARK 924 INTRA-LIGAND FREE ENERGY PREDICTED BY IDOCK:   -0.53 KCAL/MOL
REMARK 927      BINDING AFFINITY PREDICTED BY RF-SCORE:    0.00 PKD
ROOT
HETATM    1  C   UNL     1      -9.792  18.304  66.621  1.00  0.00    -0.352 C  
HETATM    2  N   UNL     1      -9.230  17.357  67.663  1.00  0.00    -0.232 N  
HETATM    3  C   UNL     1      -8.512  16.075  67.152  1.00  0.00    -0.196 C  
HETATM    4  C   UNL     1      -8.232  18.210  68.491  1.00  0.00    -0.307 C  
HETATM    5  C   UNL     1      -9.425  15.342  66.142  1.00  0.00    -0.371 C  
HETATM    6  C   UNL     1     -10.767  14.902  66.757  1.00  0.00    -0.312 C  
HETATM    7  C   UNL     1     -11.353  15.951  67.728  1.00  0.00    -0.199 C  
HETATM    8  O   UNL     1      -9.220  14.343  68.922  1.00  0.00    -0.174 OA 
HETATM    9  C   UNL     1     -10.264  16.661  68.592  1.00  0.00    -0.284 C  
HETATM   10  C   UNL     1      -8.267  15.276  68.435  1.00  0.00    -0.146 C  
HETATM   11  C   UNL     1      -9.405  15.672  69.381  1.00  0.00    -0.279 C  
ENDROOT
BRANCH   6  12
HETATM   12  O   UNL     1     -11.704  14.290  65.837  1.00  0.00    -0.354 OA 
BRANCH  12  13
HETATM   13  C   UNL     1     -11.647  14.491  64.505  1.00  0.00    -0.377 C  
HETATM   14  C   UNL     1     -10.674  12.065  64.093  1.00  0.00    -0.405 A  
HETATM   15  C   UNL     1     -11.613  13.203  63.681  1.00  0.00    -0.445 C  
HETATM   16  C   UNL     1     -13.036  12.690  63.434  1.00  0.00     0.238 C  
HETATM   17  C   UNL     1      -9.938  11.409  63.086  1.00  0.00    -0.402 A  
HETATM   18  O   UNL     1     -13.595  12.036  64.571  1.00  0.00    -0.355 OA 
HETATM   19  O   UNL     1     -11.671  15.611  64.011  1.00  0.00    -0.417 OA 
HETATM   20  C   UNL     1      -9.223  10.237  63.350  1.00  0.00    -0.321 A  
HETATM   21  H   UNL     1     -14.478  11.718  64.419  1.00  0.00     0.000 HD 
HETATM   22  C   UNL     1      -9.221   9.698  64.633  1.00  0.00    -0.293 A  
HETATM   23  C   UNL     1      -9.913  10.347  65.652  1.00  0.00    -0.337 A  
HETATM   24  C   UNL     1     -10.634  11.518  65.386  1.00  0.00    -0.336 A  
ENDBRANCH  12  13
ENDBRANCH   6  12
TORSDOF 2
ENDMDL
MODEL       33
REMARK 921   NORMALIZED FREE ENERGY PREDICTED BY IDOCK:   -5.98 KCAL/MOL
REMARK 922        TOTAL FREE ENERGY PREDICTED BY IDOCK:   -7.19 KCAL/MOL
REMARK 923 INTER-LIGAND FREE ENERGY PREDICTED BY IDOCK:   -6.53 KCAL/MOL
REMARK 924 INTRA-LIGAND FREE ENERGY PREDICTED BY IDOCK:   -0.66 KCAL/MOL
REMARK 927      BINDING AFFINITY PREDICTED BY RF-SCORE:    0.00 PKD
ROOT
HETATM    1  C   UNL     1      -9.649  11.530  65.221  1.00  0.00    -0.218 C  
HETATM    2  N   UNL     1     -10.393  12.744  65.743  1.00  0.00    -0.277 N  
HETATM    3  C   UNL     1      -9.744  13.533  66.916  1.00  0.00    -0.261 C  
HETATM    4  C   UNL     1     -10.550  13.682  64.517  1.00  0.00    -0.411 C  
HETATM    5  C   UNL     1      -9.374  12.552  68.053  1.00  0.00    -0.205 C  
HETATM    6  C   UNL     1     -10.597  11.807  68.623  1.00  0.00    -0.223 C  
HETATM    7  C   UNL     1     -11.610  11.398  67.530  1.00  0.00    -0.298 C  
HETATM    8  O   UNL     1     -11.812  14.217  68.290  1.00  0.00    -0.333 OA 
HETATM    9  C   UNL     1     -11.770  12.474  66.411  1.00  0.00    -0.397 C  
HETATM   10  C   UNL     1     -10.833  14.533  67.311  1.00  0.00    -0.297 C  
HETATM   11  C   UNL     1     -12.157  13.845  66.966  1.00  0.00    -0.415 C  
ENDROOT
BRANCH   6  12
HETATM   12  O   UNL     1     -10.304  10.807  69.629  1.00  0.00    -0.201 OA 
BRANCH  12  13
HETATM   13  C   UNL     1     -11.251  10.307  70.449  1.00  0.00    -0.332 C  
HETATM   14  C   UNL     1     -10.610   7.820  69.810  1.00  0.00    -0.241 A  
HETATM   15  C   UNL     1     -11.009   8.855  70.866  1.00  0.00    -0.325 C  
HETATM   16  C   UNL     1     -10.077   8.797  72.082  1.00  0.00    -0.292 C  
HETATM   17  C   UNL     1     -11.233   6.556  69.846  1.00  0.00    -0.456 A  
HETATM   18  O   UNL     1      -8.708   9.006  71.743  1.00  0.00    -0.350 OA 
HETATM   19  O   UNL     1     -12.188  10.981  70.856  1.00  0.00    -0.339 OA 
HETATM   20  C   UNL     1     -10.780   5.496  69.053  1.00  0.00    -0.231 A  
HETATM   21  H   UNL     1      -8.131   8.971  72.497  1.00  0.00     0.000 HD 
HETATM   22  C   UNL     1      -9.698   5.681  68.199  1.00  0.00    -0.153 A  
HETATM   23  C   UNL     1      -9.089   6.930  68.120  1.00  0.00    -0.124 A  
HETATM   24  C   UNL     1      -9.539   7.990  68.918  1.00  0.00    -0.152 A  
ENDBRANCH  12  13
ENDBRANCH   6  12
TORSDOF 2
ENDMDL
MODEL       34
REMARK 921   NORMALIZED FREE ENERGY PREDICTED BY IDOCK:   -5.96 KCAL/MOL
REMARK 922        TOTAL FREE ENERGY PREDICTED BY IDOCK:   -7.17 KCAL/MOL
REMARK 923 INTER-LIGAND FREE ENERGY PREDICTED BY IDOCK:   -6.71 KCAL/MOL
REMARK 924 INTRA-LIGAND FREE ENERGY PREDICTED BY IDOCK:   -0.46 KCAL/MOL
REMARK 927      BINDING AFFINITY PREDICTED BY RF-SCORE:    0.00 PKD
ROOT
HETATM    1  C   UNL     1      -7.675  18.951  69.094  1.00  0.00    -0.146 C  
HETATM    2  N   UNL     1      -7.007  19.387  67.804  1.00  0.00    -0.238 N  
HETATM    3  C   UNL     1      -7.923  19.640  66.573  1.00  0.00    -0.304 C  
HETATM    4  C   UNL     1      -6.250  20.694  68.161  1.00  0.00    -0.312 C  
HETATM    5  C   UNL     1      -8.847  18.418  66.359  1.00  0.00    -0.262 C  
HETATM    6  C   UNL     1      -8.066  17.118  66.089  1.00  0.00    -0.248 C  
HETATM    7  C   UNL     1      -6.789  16.997  66.951  1.00  0.00    -0.247 C  
HETATM    8  O   UNL     1      -6.456  18.767  64.645  1.00  0.00    -0.482 OA 
HETATM    9  C   UNL     1      -6.049  18.357  67.142  1.00  0.00    -0.164 C  
HETATM   10  C   UNL     1      -6.926  19.852  65.432  1.00  0.00    -0.293 C  
HETATM   11  C   UNL     1      -5.695  19.024  65.812  1.00  0.00    -0.160 C  
ENDROOT
BRANCH   6  12
HETATM   12  O   UNL     1      -8.872  15.920  65.969  1.00  0.00    -0.333 OA 
BRANCH  12  13
HETATM   13  C   UNL     1     -10.199  15.961  65.730  1.00  0.00    -0.365 C  
HETATM   14  C   UNL     1     -10.619  13.813  67.218  1.00  0.00    -0.275 A  
HETATM   15  C   UNL     1     -11.041  15.215  66.767  1.00  0.00    -0.307 C  
HETATM   16  C   UNL     1     -11.337  16.121  67.966  1.00  0.00    -0.234 C  
HETATM   17  C   UNL     1     -11.614  12.822  67.335  1.00  0.00    -0.415 A  
HETATM   18  O   UNL     1     -10.228  16.250  68.852  1.00  0.00    -0.228 OA 
HETATM   19  O   UNL     1     -10.676  16.586  64.792  1.00  0.00    -0.719 OA 
HETATM   20  C   UNL     1     -11.347  11.586  67.934  1.00  0.00    -0.372 A  
HETATM   21  H   UNL     1     -10.412  16.813  69.596  1.00  0.00     0.000 HD 
HETATM   22  C   UNL     1     -10.074  11.311  68.421  1.00  0.00    -0.202 A  
HETATM   23  C   UNL     1      -9.065  12.262  68.286  1.00  0.00    -0.187 A  
HETATM   24  C   UNL     1      -9.334  13.501  67.691  1.00  0.00    -0.216 A  
ENDBRANCH  12  13
ENDBRANCH   6  12
TORSDOF 2
ENDMDL
MODEL       35
REMARK 921   NORMALIZED FREE ENERGY PREDICTED BY IDOCK:   -5.94 KCAL/MOL
REMARK 922        TOTAL FREE ENERGY PREDICTED BY IDOCK:   -7.15 KCAL/MOL
REMARK 923 INTER-LIGAND FREE ENERGY PREDICTED BY IDOCK:   -6.59 KCAL/MOL
REMARK 924 INTRA-LIGAND FREE ENERGY PREDICTED BY IDOCK:   -0.56 KCAL/MOL
REMARK 927      BINDING AFFINITY PREDICTED BY RF-SCORE:    0.00 PKD
ROOT
HETATM    1  C   UNL     1      -8.954   8.424  72.895  1.00  0.00    -0.196 C  
HETATM    2  N   UNL     1     -10.217   7.639  72.601  1.00  0.00    -0.240 N  
HETATM    3  C   UNL     1     -10.192   6.669  71.385  1.00  0.00    -0.199 C  
HETATM    4  C   UNL     1     -10.504   6.832  73.896  1.00  0.00    -0.327 C  
HETATM    5  C   UNL     1      -9.681   7.425  70.136  1.00  0.00    -0.175 C  
HETATM    6  C   UNL     1     -10.574   8.619  69.751  1.00  0.00    -0.224 C  
HETATM    7  C   UNL     1     -11.096   9.397  70.981  1.00  0.00    -0.414 C  
HETATM    8  O   UNL     1     -12.583   6.930  70.463  1.00  0.00    -0.216 OA 
HETATM    9  C   UNL     1     -11.463   8.469  72.180  1.00  0.00    -0.376 C  
HETATM   10  C   UNL     1     -11.650   6.220  71.265  1.00  0.00    -0.274 C  
HETATM   11  C   UNL     1     -12.480   7.391  71.799  1.00  0.00    -0.336 C  
ENDROOT
BRANCH   6  12
HETATM   12  O   UNL     1     -10.099   9.422  68.643  1.00  0.00    -0.177 OA 
BRANCH  12  13
HETATM   13  C   UNL     1     -10.437   9.161  67.363  1.00  0.00    -0.271 C  
HETATM   14  C   UNL     1     -11.030  11.701  66.914  1.00  0.00    -0.342 A  
HETATM   15  C   UNL     1     -10.397  10.386  66.448  1.00  0.00    -0.278 C  
HETATM   16  C   UNL     1      -8.978  10.609  65.915  1.00  0.00    -0.175 C  
HETATM   17  C   UNL     1     -11.815  12.426  65.995  1.00  0.00    -0.459 A  
HETATM   18  O   UNL     1      -8.112  11.208  66.877  1.00  0.00    -0.137 OA 
HETATM   19  O   UNL     1     -10.700   8.031  66.972  1.00  0.00    -0.328 OA 
HETATM   20  C   UNL     1     -12.253  13.725  66.274  1.00  0.00    -0.489 A  
HETATM   21  H   UNL     1      -7.232  11.346  66.547  1.00  0.00     0.000 HD 
HETATM   22  C   UNL     1     -11.923  14.324  67.485  1.00  0.00    -0.411 A  
HETATM   23  C   UNL     1     -11.179  13.614  68.423  1.00  0.00    -0.306 A  
HETATM   24  C   UNL     1     -10.735  12.315  68.141  1.00  0.00    -0.241 A  
ENDBRANCH  12  13
ENDBRANCH   6  12
TORSDOF 2
ENDMDL
MODEL       36
REMARK 921   NORMALIZED FREE ENERGY PREDICTED BY IDOCK:   -5.94 KCAL/MOL
REMARK 922        TOTAL FREE ENERGY PREDICTED BY IDOCK:   -7.15 KCAL/MOL
REMARK 923 INTER-LIGAND FREE ENERGY PREDICTED BY IDOCK:   -6.88 KCAL/MOL
REMARK 924 INTRA-LIGAND FREE ENERGY PREDICTED BY IDOCK:   -0.27 KCAL/MOL
REMARK 927      BINDING AFFINITY PREDICTED BY RF-SCORE:    0.00 PKD
ROOT
HETATM    1  C   UNL     1      -7.235  18.769  68.862  1.00  0.00    -0.303 C  
HETATM    2  N   UNL     1      -8.362  19.014  67.878  1.00  0.00    -0.281 N  
HETATM    3  C   UNL     1      -9.815  18.777  68.378  1.00  0.00    -0.382 C  
HETATM    4  C   UNL     1      -8.204  20.495  67.441  1.00  0.00    -0.286 C  
HETATM    5  C   UNL     1      -9.913  17.376  69.027  1.00  0.00    -0.265 C  
HETATM    6  C   UNL     1      -9.574  16.237  68.047  1.00  0.00    -0.224 C  
HETATM    7  C   UNL     1      -8.399  16.587  67.106  1.00  0.00    -0.206 C  
HETATM    8  O   UNL     1     -10.934  17.791  66.278  1.00  0.00    -0.032 OA 
HETATM    9  C   UNL     1      -8.413  18.076  66.639  1.00  0.00    -0.262 C  
HETATM   10  C   UNL     1     -10.652  18.912  67.104  1.00  0.00    -0.458 C  
HETATM   11  C   UNL     1      -9.729  18.468  65.965  1.00  0.00    -0.115 C  
ENDROOT
BRANCH   6  12
HETATM   12  O   UNL     1      -9.560  14.906  68.619  1.00  0.00    -0.208 OA 
BRANCH  12  13
HETATM   13  C   UNL     1      -9.400  13.797  67.868  1.00  0.00    -0.211 C  
HETATM   14  C   UNL     1     -11.323  12.532  69.175  1.00  0.00    -0.331 A  
HETATM   15  C   UNL     1     -10.618  12.871  67.858  1.00  0.00    -0.232 C  
HETATM   16  C   UNL     1     -11.621  13.320  66.789  1.00  0.00    -0.365 C  
HETATM   17  C   UNL     1     -11.702  11.194  69.403  1.00  0.00    -0.402 A  
HETATM   18  O   UNL     1     -12.391  14.451  67.191  1.00  0.00    -0.598 OA 
HETATM   19  O   UNL     1      -8.384  13.588  67.217  1.00  0.00    -0.186 OA 
HETATM   20  C   UNL     1     -12.525  10.842  70.478  1.00  0.00    -0.438 A  
HETATM   21  H   UNL     1     -13.012  14.730  66.528  1.00  0.00     0.000 HD 
HETATM   22  C   UNL     1     -12.980  11.821  71.355  1.00  0.00    -0.408 A  
HETATM   23  C   UNL     1     -12.589  13.145  71.170  1.00  0.00    -0.403 A  
HETATM   24  C   UNL     1     -11.769  13.499  70.091  1.00  0.00    -0.280 A  
ENDBRANCH  12  13
ENDBRANCH   6  12
TORSDOF 2
ENDMDL
MODEL       37
REMARK 921   NORMALIZED FREE ENERGY PREDICTED BY IDOCK:   -5.92 KCAL/MOL
REMARK 922        TOTAL FREE ENERGY PREDICTED BY IDOCK:   -7.12 KCAL/MOL
REMARK 923 INTER-LIGAND FREE ENERGY PREDICTED BY IDOCK:   -6.98 KCAL/MOL
REMARK 924 INTRA-LIGAND FREE ENERGY PREDICTED BY IDOCK:   -0.14 KCAL/MOL
REMARK 927      BINDING AFFINITY PREDICTED BY RF-SCORE:    0.00 PKD
ROOT
HETATM    1  C   UNL     1      -6.601  16.488  67.205  1.00  0.00    -0.194 C  
HETATM    2  N   UNL     1      -7.807  17.407  67.158  1.00  0.00    -0.196 N  
HETATM    3  C   UNL     1      -8.634  17.571  68.465  1.00  0.00    -0.276 C  
HETATM    4  C   UNL     1      -7.248  18.788  66.725  1.00  0.00    -0.213 C  
HETATM    5  C   UNL     1      -8.996  16.175  69.024  1.00  0.00    -0.247 C  
HETATM    6  C   UNL     1      -9.845  15.340  68.047  1.00  0.00    -0.216 C  
HETATM    7  C   UNL     1      -9.402  15.507  66.576  1.00  0.00    -0.311 C  
HETATM    8  O   UNL     1     -11.034  17.734  67.545  1.00  0.00    -0.287 OA 
HETATM    9  C   UNL     1      -8.973  16.967  66.228  1.00  0.00    -0.270 C  
HETATM   10  C   UNL     1      -9.854  18.374  68.008  1.00  0.00    -0.338 C  
HETATM   11  C   UNL     1     -10.066  17.990  66.541  1.00  0.00    -0.379 C  
ENDROOT
BRANCH   6  12
HETATM   12  O   UNL     1     -10.141  13.989  68.476  1.00  0.00    -0.230 OA 
BRANCH  12  13
HETATM   13  C   UNL     1      -9.381  12.933  68.118  1.00  0.00    -0.214 C  
HETATM   14  C   UNL     1     -10.923  11.259  69.468  1.00  0.00    -0.249 A  
HETATM   15  C   UNL     1     -10.101  11.587  68.218  1.00  0.00    -0.205 C  
HETATM   16  C   UNL     1     -10.898  11.311  66.939  1.00  0.00    -0.282 C  
HETATM   17  C   UNL     1     -10.798   9.972  70.030  1.00  0.00    -0.352 A  
HETATM   18  O   UNL     1     -12.120  12.043  66.877  1.00  0.00    -0.608 OA 
HETATM   19  O   UNL     1      -8.236  13.061  67.703  1.00  0.00    -0.146 OA 
HETATM   20  C   UNL     1     -11.660   9.529  71.039  1.00  0.00    -0.419 A  
HETATM   21  H   UNL     1     -12.614  11.872  66.084  1.00  0.00     0.000 HD 
HETATM   22  C   UNL     1     -12.662  10.369  71.515  1.00  0.00    -0.564 A  
HETATM   23  C   UNL     1     -12.782  11.656  71.000  1.00  0.00    -0.395 A  
HETATM   24  C   UNL     1     -11.923  12.098  69.985  1.00  0.00    -0.391 A  
ENDBRANCH  12  13
ENDBRANCH   6  12
TORSDOF 2
ENDMDL
MODEL       38
REMARK 921   NORMALIZED FREE ENERGY PREDICTED BY IDOCK:   -5.89 KCAL/MOL
REMARK 922        TOTAL FREE ENERGY PREDICTED BY IDOCK:   -7.09 KCAL/MOL
REMARK 923 INTER-LIGAND FREE ENERGY PREDICTED BY IDOCK:   -6.78 KCAL/MOL
REMARK 924 INTRA-LIGAND FREE ENERGY PREDICTED BY IDOCK:   -0.32 KCAL/MOL
REMARK 927      BINDING AFFINITY PREDICTED BY RF-SCORE:    0.00 PKD
ROOT
HETATM    1  C   UNL     1     -12.667   8.028  71.502  1.00  0.00    -0.307 C  
HETATM    2  N   UNL     1     -11.170   7.917  71.720  1.00  0.00    -0.251 N  
HETATM    3  C   UNL     1     -10.319   9.203  71.521  1.00  0.00    -0.344 C  
HETATM    4  C   UNL     1     -11.009   7.415  73.180  1.00  0.00    -0.359 C  
HETATM    5  C   UNL     1     -10.655   9.834  70.149  1.00  0.00    -0.337 C  
HETATM    6  C   UNL     1     -10.350   8.895  68.967  1.00  0.00    -0.212 C  
HETATM    7  C   UNL     1     -10.712   7.422  69.264  1.00  0.00    -0.197 C  
HETATM    8  O   UNL     1      -8.173   8.247  70.463  1.00  0.00    -0.106 OA 
HETATM    9  C   UNL     1     -10.396   6.999  70.732  1.00  0.00    -0.206 C  
HETATM   10  C   UNL     1      -8.880   8.689  71.613  1.00  0.00    -0.223 C  
HETATM   11  C   UNL     1      -8.934   7.243  71.112  1.00  0.00    -0.147 C  
ENDROOT
BRANCH   6  12
HETATM   12  O   UNL     1     -10.727   9.394  67.661  1.00  0.00    -0.273 OA 
BRANCH  12  13
HETATM   13  C   UNL     1     -10.134   8.972  66.525  1.00  0.00    -0.283 C  
HETATM   14  C   UNL     1     -10.745  11.221  65.270  1.00  0.00    -0.302 A  
HETATM   15  C   UNL     1      -9.743  10.102  65.570  1.00  0.00    -0.344 C  
HETATM   16  C   UNL     1      -8.371  10.670  65.949  1.00  0.00    -0.161 C  
HETATM   17  C   UNL     1     -10.890  11.647  63.934  1.00  0.00    -0.471 A  
HETATM   18  O   UNL     1      -8.422  11.540  67.077  1.00  0.00    -0.151 OA 
HETATM   19  O   UNL     1      -9.892   7.791  66.313  1.00  0.00    -0.164 OA 
HETATM   20  C   UNL     1     -11.624  12.792  63.608  1.00  0.00    -0.572 A  
HETATM   21  H   UNL     1      -7.571  11.892  67.312  1.00  0.00     0.000 HD 
HETATM   22  C   UNL     1     -12.238  13.533  64.613  1.00  0.00    -0.450 A  
HETATM   23  C   UNL     1     -12.138  13.112  65.936  1.00  0.00    -0.501 A  
HETATM   24  C   UNL     1     -11.398  11.969  66.264  1.00  0.00    -0.415 A  
ENDBRANCH  12  13
ENDBRANCH   6  12
TORSDOF 2
ENDMDL
MODEL       39
REMARK 921   NORMALIZED FREE ENERGY PREDICTED BY IDOCK:   -5.88 KCAL/MOL
REMARK 922        TOTAL FREE ENERGY PREDICTED BY IDOCK:   -7.08 KCAL/MOL
REMARK 923 INTER-LIGAND FREE ENERGY PREDICTED BY IDOCK:   -6.89 KCAL/MOL
REMARK 924 INTRA-LIGAND FREE ENERGY PREDICTED BY IDOCK:   -0.20 KCAL/MOL
REMARK 927      BINDING AFFINITY PREDICTED BY RF-SCORE:    0.00 PKD
ROOT
HETATM    1  C   UNL     1      -9.544  19.492  68.687  1.00  0.00    -0.411 C  
HETATM    2  N   UNL     1      -8.303  18.678  68.377  1.00  0.00    -0.326 N  
HETATM    3  C   UNL     1      -8.001  18.372  66.883  1.00  0.00    -0.236 C  
HETATM    4  C   UNL     1      -7.125  19.487  68.985  1.00  0.00    -0.364 C  
HETATM    5  C   UNL     1      -9.262  17.774  66.215  1.00  0.00    -0.203 C  
HETATM    6  C   UNL     1      -9.719  16.456  66.870  1.00  0.00    -0.251 C  
HETATM    7  C   UNL     1      -9.576  16.472  68.409  1.00  0.00    -0.233 C  
HETATM    8  O   UNL     1      -7.045  15.984  67.024  1.00  0.00    -0.208 OA 
HETATM    9  C   UNL     1      -8.292  17.212  68.896  1.00  0.00    -0.183 C  
HETATM   10  C   UNL     1      -6.832  17.387  66.956  1.00  0.00    -0.182 C  
HETATM   11  C   UNL     1      -7.014  16.640  68.280  1.00  0.00    -0.155 C  
ENDROOT
BRANCH   6  12
HETATM   12  O   UNL     1     -10.947  15.894  66.348  1.00  0.00    -0.247 OA 
BRANCH  12  13
HETATM   13  C   UNL     1     -11.214  15.837  65.027  1.00  0.00    -0.308 C  
HETATM   14  C   UNL     1     -10.639  13.255  64.936  1.00  0.00    -0.381 A  
HETATM   15  C   UNL     1     -11.528  14.430  64.516  1.00  0.00    -0.352 C  
HETATM   16  C   UNL     1     -13.012  14.107  64.720  1.00  0.00     0.115 C  
HETATM   17  C   UNL     1     -10.259  12.321  63.951  1.00  0.00    -0.421 A  
HETATM   18  O   UNL     1     -13.325  13.767  66.068  1.00  0.00    -0.350 OA 
HETATM   19  O   UNL     1     -11.247  16.838  64.323  1.00  0.00    -1.163 OA 
HETATM   20  C   UNL     1      -9.627  11.120  64.290  1.00  0.00    -0.288 A  
HETATM   21  H   UNL     1     -14.245  13.567  66.195  1.00  0.00     0.000 HD 
HETATM   22  C   UNL     1      -9.352  10.832  65.622  1.00  0.00    -0.241 A  
HETATM   23  C   UNL     1      -9.686  11.755  66.609  1.00  0.00    -0.219 A  
HETATM   24  C   UNL     1     -10.325  12.955  66.271  1.00  0.00    -0.278 A  
ENDBRANCH  12  13
ENDBRANCH   6  12
TORSDOF 2
ENDMDL
MODEL       40
REMARK 921   NORMALIZED FREE ENERGY PREDICTED BY IDOCK:   -5.79 KCAL/MOL
REMARK 922        TOTAL FREE ENERGY PREDICTED BY IDOCK:   -6.98 KCAL/MOL
REMARK 923 INTER-LIGAND FREE ENERGY PREDICTED BY IDOCK:   -6.47 KCAL/MOL
REMARK 924 INTRA-LIGAND FREE ENERGY PREDICTED BY IDOCK:   -0.51 KCAL/MOL
REMARK 927      BINDING AFFINITY PREDICTED BY RF-SCORE:    0.00 PKD
ROOT
HETATM    1  C   UNL     1     -10.659  17.908  68.277  1.00  0.00    -0.304 C  
HETATM    2  N   UNL     1      -9.279  17.737  67.673  1.00  0.00    -0.248 N  
HETATM    3  C   UNL     1      -9.147  16.798  66.440  1.00  0.00    -0.289 C  
HETATM    4  C   UNL     1      -8.828  19.169  67.280  1.00  0.00    -0.289 C  
HETATM    5  C   UNL     1      -9.809  15.437  66.757  1.00  0.00    -0.255 C  
HETATM    6  C   UNL     1      -9.155  14.717  67.953  1.00  0.00    -0.183 C  
HETATM    7  C   UNL     1      -8.763  15.685  69.092  1.00  0.00    -0.251 C  
HETATM    8  O   UNL     1      -6.860  15.694  66.869  1.00  0.00    -0.245 OA 
HETATM    9  C   UNL     1      -8.213  17.050  68.573  1.00  0.00    -0.259 C  
HETATM   10  C   UNL     1      -7.634  16.701  66.234  1.00  0.00    -0.191 C  
HETATM   11  C   UNL     1      -7.023  16.881  67.626  1.00  0.00    -0.137 C  
ENDROOT
BRANCH   6  12
HETATM   12  O   UNL     1      -9.788  13.478  68.356  1.00  0.00    -0.232 OA 
BRANCH  12  13
HETATM   13  C   UNL     1      -9.155  12.288  68.295  1.00  0.00    -0.187 C  
HETATM   14  C   UNL     1     -11.026  11.123  69.760  1.00  0.00    -0.216 A  
HETATM   15  C   UNL     1     -10.061  11.087  68.570  1.00  0.00    -0.198 C  
HETATM   16  C   UNL     1     -10.776  10.652  67.286  1.00  0.00    -0.285 C  
HETATM   17  C   UNL     1     -11.130   9.973  70.568  1.00  0.00    -0.400 A  
HETATM   18  O   UNL     1     -11.874  11.497  66.949  1.00  0.00    -0.542 OA 
HETATM   19  O   UNL     1      -7.972  12.191  67.995  1.00  0.00    -0.132 OA 
HETATM   20  C   UNL     1     -12.129   9.852  71.540  1.00  0.00    -0.496 A  
HETATM   21  H   UNL     1     -12.318  11.228  66.153  1.00  0.00     0.000 HD 
HETATM   22  C   UNL     1     -13.041  10.885  71.731  1.00  0.00    -0.564 A  
HETATM   23  C   UNL     1     -12.936  12.045  70.969  1.00  0.00    -0.175 A  
HETATM   24  C   UNL     1     -11.939  12.164  69.991  1.00  0.00    -0.391 A  
ENDBRANCH  12  13
ENDBRANCH   6  12
TORSDOF 2
ENDMDL
MODEL       41
REMARK 921   NORMALIZED FREE ENERGY PREDICTED BY IDOCK:   -5.77 KCAL/MOL
REMARK 922        TOTAL FREE ENERGY PREDICTED BY IDOCK:   -6.95 KCAL/MOL
REMARK 923 INTER-LIGAND FREE ENERGY PREDICTED BY IDOCK:   -6.17 KCAL/MOL
REMARK 924 INTRA-LIGAND FREE ENERGY PREDICTED BY IDOCK:   -0.78 KCAL/MOL
REMARK 927      BINDING AFFINITY PREDICTED BY RF-SCORE:    0.00 PKD
ROOT
HETATM    1  C   UNL     1      -9.603  15.202  66.428  1.00  0.00    -0.284 C  
HETATM    2  N   UNL     1     -10.810  14.809  65.597  1.00  0.00    -0.322 N  
HETATM    3  C   UNL     1     -12.095  14.376  66.358  1.00  0.00    -0.369 C  
HETATM    4  C   UNL     1     -11.123  16.054  64.724  1.00  0.00    -0.365 C  
HETATM    5  C   UNL     1     -11.735  13.290  67.399  1.00  0.00    -0.419 C  
HETATM    6  C   UNL     1     -11.133  12.024  66.758  1.00  0.00    -0.305 C  
HETATM    7  C   UNL     1     -10.173  12.343  65.590  1.00  0.00    -0.285 C  
HETATM    8  O   UNL     1     -12.995  12.504  64.836  1.00  0.00    -0.821 OA 
HETATM    9  C   UNL     1     -10.654  13.540  64.712  1.00  0.00    -0.417 C  
HETATM   10  C   UNL     1     -13.008  13.865  65.242  1.00  0.00    -0.297 C  
HETATM   11  C   UNL     1     -12.065  13.333  64.160  1.00  0.00    -0.432 C  
ENDROOT
BRANCH   6  12
HETATM   12  O   UNL     1     -10.692  11.005  67.688  1.00  0.00    -0.205 OA 
BRANCH  12  13
HETATM   13  C   UNL     1     -10.060   9.883  67.286  1.00  0.00    -0.211 C  
HETATM   14  C   UNL     1      -7.686  10.932  67.805  1.00  0.00    -0.107 A  
HETATM   15  C   UNL     1      -8.642   9.735  67.840  1.00  0.00    -0.125 C  
HETATM   16  C   UNL     1      -8.676   9.090  69.230  1.00  0.00    -0.138 C  
HETATM   17  C   UNL     1      -6.354  10.711  67.402  1.00  0.00    -0.058 A  
HETATM   18  O   UNL     1      -9.061  10.002  70.256  1.00  0.00    -0.365 OA 
HETATM   19  O   UNL     1     -10.604   9.042  66.582  1.00  0.00    -0.211 OA 
HETATM   20  C   UNL     1      -5.376  11.701  67.539  1.00  0.00    -0.068 A  
HETATM   21  H   UNL     1      -9.082   9.602  71.118  1.00  0.00     0.000 HD 
HETATM   22  C   UNL     1      -5.711  12.939  68.076  1.00  0.00    -0.102 A  
HETATM   23  C   UNL     1      -7.028  13.193  68.448  1.00  0.00    -0.104 A  
HETATM   24  C   UNL     1      -8.007  12.200  68.316  1.00  0.00    -0.163 A  
ENDBRANCH  12  13
ENDBRANCH   6  12
TORSDOF 2
ENDMDL
MODEL       42
REMARK 921   NORMALIZED FREE ENERGY PREDICTED BY IDOCK:   -5.76 KCAL/MOL
REMARK 922        TOTAL FREE ENERGY PREDICTED BY IDOCK:   -6.94 KCAL/MOL
REMARK 923 INTER-LIGAND FREE ENERGY PREDICTED BY IDOCK:   -6.31 KCAL/MOL
REMARK 924 INTRA-LIGAND FREE ENERGY PREDICTED BY IDOCK:   -0.63 KCAL/MOL
REMARK 927      BINDING AFFINITY PREDICTED BY RF-SCORE:    0.00 PKD
ROOT
HETATM    1  C   UNL     1     -11.854  14.763  66.783  1.00  0.00    -0.257 C  
HETATM    2  N   UNL     1     -11.475  13.907  65.590  1.00  0.00    -0.312 N  
HETATM    3  C   UNL     1     -11.963  12.431  65.583  1.00  0.00    -0.386 C  
HETATM    4  C   UNL     1     -12.060  14.648  64.357  1.00  0.00    -0.462 C  
HETATM    5  C   UNL     1     -11.578  11.756  66.921  1.00  0.00    -0.310 C  
HETATM    6  C   UNL     1     -10.057  11.735  67.165  1.00  0.00    -0.203 C  
HETATM    7  C   UNL     1      -9.360  13.038  66.712  1.00  0.00    -0.244 C  
HETATM    8  O   UNL     1      -9.963  11.227  64.495  1.00  0.00    -0.247 OA 
HETATM    9  C   UNL     1      -9.958  13.626  65.397  1.00  0.00    -0.213 C  
HETATM   10  C   UNL     1     -11.243  11.829  64.374  1.00  0.00    -0.316 C  
HETATM   11  C   UNL     1      -9.940  12.622  64.243  1.00  0.00    -0.176 C  
ENDROOT
BRANCH   6  12
HETATM   12  O   UNL     1      -9.638  11.197  68.442  1.00  0.00    -0.178 OA 
BRANCH  12  13
HETATM   13  C   UNL     1      -8.672  10.261  68.553  1.00  0.00    -0.130 C  
HETATM   14  C   UNL     1     -10.062   8.917  70.359  1.00  0.00    -0.232 A  
HETATM   15  C   UNL     1      -9.159   8.928  69.122  1.00  0.00    -0.141 C  
HETATM   16  C   UNL     1      -9.733   8.049  68.006  1.00  0.00    -0.160 C  
HETATM   17  C   UNL     1      -9.791   7.978  71.375  1.00  0.00    -0.213 A  
HETATM   18  O   UNL     1     -11.044   8.443  67.608  1.00  0.00    -0.478 OA 
HETATM   19  O   UNL     1      -7.523  10.460  68.180  1.00  0.00    -0.087 OA 
HETATM   20  C   UNL     1     -10.684   7.767  72.431  1.00  0.00    -0.347 A  
HETATM   21  H   UNL     1     -11.400   7.898  66.915  1.00  0.00     0.000 HD 
HETATM   22  C   UNL     1     -11.865   8.499  72.499  1.00  0.00    -0.398 A  
HETATM   23  C   UNL     1     -12.137   9.457  71.527  1.00  0.00    -0.456 A  
HETATM   24  C   UNL     1     -11.246   9.665  70.466  1.00  0.00    -0.359 A  
ENDBRANCH  12  13
ENDBRANCH   6  12
TORSDOF 2
ENDMDL
MODEL       43
REMARK 921   NORMALIZED FREE ENERGY PREDICTED BY IDOCK:   -5.74 KCAL/MOL
REMARK 922        TOTAL FREE ENERGY PREDICTED BY IDOCK:   -6.93 KCAL/MOL
REMARK 923 INTER-LIGAND FREE ENERGY PREDICTED BY IDOCK:   -6.73 KCAL/MOL
REMARK 924 INTRA-LIGAND FREE ENERGY PREDICTED BY IDOCK:   -0.20 KCAL/MOL
REMARK 927      BINDING AFFINITY PREDICTED BY RF-SCORE:    0.00 PKD
ROOT
HETATM    1  C   UNL     1      -9.010  14.521  66.618  1.00  0.00    -0.219 C  
HETATM    2  N   UNL     1     -10.393  14.697  66.022  1.00  0.00    -0.291 N  
HETATM    3  C   UNL     1     -11.583  14.020  66.760  1.00  0.00    -0.386 C  
HETATM    4  C   UNL     1     -10.623  16.231  65.975  1.00  0.00    -0.281 C  
HETATM    5  C   UNL     1     -11.250  12.530  67.013  1.00  0.00    -0.353 C  
HETATM    6  C   UNL     1     -11.010  11.741  65.712  1.00  0.00    -0.301 C  
HETATM    7  C   UNL     1     -10.226  12.553  64.657  1.00  0.00    -0.315 C  
HETATM    8  O   UNL     1     -13.060  13.270  64.788  1.00  0.00    -0.709 OA 
HETATM    9  C   UNL     1     -10.627  14.061  64.623  1.00  0.00    -0.395 C  
HETATM   10  C   UNL     1     -12.754  14.222  65.797  1.00  0.00    -0.340 C  
HETATM   11  C   UNL     1     -12.127  14.264  64.400  1.00  0.00    -0.468 C  
ENDROOT
BRANCH   6  12
HETATM   12  O   UNL     1     -10.606  10.361  65.886  1.00  0.00    -0.159 OA 
BRANCH  12  13
HETATM   13  C   UNL     1      -9.311   9.985  65.927  1.00  0.00    -0.185 C  
HETATM   14  C   UNL     1      -9.482   9.374  68.497  1.00  0.00    -0.150 A  
HETATM   15  C   UNL     1      -8.971   9.050  67.089  1.00  0.00    -0.144 C  
HETATM   16  C   UNL     1      -9.269   7.596  66.709  1.00  0.00    -0.160 C  
HETATM   17  C   UNL     1      -8.592   9.227  69.580  1.00  0.00    -0.147 A  
HETATM   18  O   UNL     1     -10.659   7.282  66.765  1.00  0.00    -0.438 OA 
HETATM   19  O   UNL     1      -8.502  10.330  65.075  1.00  0.00    -0.160 OA 
HETATM   20  C   UNL     1      -9.036   9.302  70.904  1.00  0.00    -0.273 A  
HETATM   21  H   UNL     1     -10.844   6.380  66.529  1.00  0.00     0.000 HD 
HETATM   22  C   UNL     1     -10.380   9.536  71.174  1.00  0.00    -0.330 A  
HETATM   23  C   UNL     1     -11.271   9.720  70.121  1.00  0.00    -0.324 A  
HETATM   24  C   UNL     1     -10.828   9.639  68.794  1.00  0.00    -0.199 A  
ENDBRANCH  12  13
ENDBRANCH   6  12
TORSDOF 2
ENDMDL
MODEL       44
REMARK 921   NORMALIZED FREE ENERGY PREDICTED BY IDOCK:   -5.69 KCAL/MOL
REMARK 922        TOTAL FREE ENERGY PREDICTED BY IDOCK:   -6.87 KCAL/MOL
REMARK 923 INTER-LIGAND FREE ENERGY PREDICTED BY IDOCK:   -6.39 KCAL/MOL
REMARK 924 INTRA-LIGAND FREE ENERGY PREDICTED BY IDOCK:   -0.48 KCAL/MOL
REMARK 927      BINDING AFFINITY PREDICTED BY RF-SCORE:    0.00 PKD
ROOT
HETATM    1  C   UNL     1      -8.064  19.593  69.303  1.00  0.00     0.005 C  
HETATM    2  N   UNL     1      -7.265  19.787  68.029  1.00  0.00    -0.279 N  
HETATM    3  C   UNL     1      -8.043  20.228  66.756  1.00  0.00    -0.272 C  
HETATM    4  C   UNL     1      -6.200  20.860  68.378  1.00  0.00    -0.288 C  
HETATM    5  C   UNL     1      -9.251  19.287  66.540  1.00  0.00    -0.388 C  
HETATM    6  C   UNL     1      -8.836  17.816  66.337  1.00  0.00    -0.231 C  
HETATM    7  C   UNL     1      -7.665  17.394  67.253  1.00  0.00    -0.221 C  
HETATM    8  O   UNL     1      -6.803  18.925  64.912  1.00  0.00    -0.460 OA 
HETATM    9  C   UNL     1      -6.596  18.516  67.434  1.00  0.00    -0.196 C  
HETATM   10  C   UNL     1      -6.991  20.125  65.650  1.00  0.00    -0.297 C  
HETATM   11  C   UNL     1      -6.036  19.016  66.102  1.00  0.00    -0.161 C  
ENDROOT
BRANCH   6  12
HETATM   12  O   UNL     1      -9.927  16.871  66.219  1.00  0.00    -0.282 OA 
BRANCH  12  13
HETATM   13  C   UNL     1     -10.630  16.440  67.287  1.00  0.00    -0.293 C  
HETATM   14  C   UNL     1     -11.349  14.227  66.025  1.00  0.00    -0.335 A  
HETATM   15  C   UNL     1     -10.875  14.930  67.301  1.00  0.00    -0.306 C  
HETATM   16  C   UNL     1      -9.681  14.201  67.927  1.00  0.00    -0.224 C  
HETATM   17  C   UNL     1     -12.378  13.270  66.134  1.00  0.00    -0.423 A  
HETATM   18  O   UNL     1      -8.572  14.088  67.038  1.00  0.00    -0.255 OA 
HETATM   19  O   UNL     1     -10.989  17.193  68.182  1.00  0.00    -0.361 OA 
HETATM   20  C   UNL     1     -12.722  12.443  65.059  1.00  0.00    -0.170 A  
HETATM   21  H   UNL     1      -7.831  13.636  67.426  1.00  0.00     0.000 HD 
HETATM   22  C   UNL     1     -12.049  12.562  63.848  1.00  0.00    -0.581 A  
HETATM   23  C   UNL     1     -11.053  13.525  63.706  1.00  0.00     0.053 A  
HETATM   24  C   UNL     1     -10.705  14.349  64.783  1.00  0.00    -0.423 A  
ENDBRANCH  12  13
ENDBRANCH   6  12
TORSDOF 2
ENDMDL
MODEL       45
REMARK 921   NORMALIZED FREE ENERGY PREDICTED BY IDOCK:   -5.65 KCAL/MOL
REMARK 922        TOTAL FREE ENERGY PREDICTED BY IDOCK:   -6.82 KCAL/MOL
REMARK 923 INTER-LIGAND FREE ENERGY PREDICTED BY IDOCK:   -6.16 KCAL/MOL
REMARK 924 INTRA-LIGAND FREE ENERGY PREDICTED BY IDOCK:   -0.66 KCAL/MOL
REMARK 927      BINDING AFFINITY PREDICTED BY RF-SCORE:    0.00 PKD
ROOT
HETATM    1  C   UNL     1     -12.643   6.942  71.488  1.00  0.00    -0.367 C  
HETATM    2  N   UNL     1     -11.184   7.228  71.786  1.00  0.00    -0.242 N  
HETATM    3  C   UNL     1     -10.776   8.712  72.012  1.00  0.00    -0.357 C  
HETATM    4  C   UNL     1     -10.862   6.406  73.063  1.00  0.00    -0.259 C  
HETATM    5  C   UNL     1     -11.304   9.574  70.841  1.00  0.00    -0.410 C  
HETATM    6  C   UNL     1     -10.732   9.145  69.476  1.00  0.00    -0.215 C  
HETATM    7  C   UNL     1     -10.616   7.611  69.333  1.00  0.00    -0.217 C  
HETATM    8  O   UNL     1      -8.450   8.786  70.910  1.00  0.00    -0.140 OA 
HETATM    9  C   UNL     1     -10.171   6.905  70.651  1.00  0.00    -0.195 C  
HETATM   10  C   UNL     1      -9.249   8.650  72.077  1.00  0.00    -0.268 C  
HETATM   11  C   UNL     1      -8.855   7.459  71.199  1.00  0.00    -0.142 C  
ENDROOT
BRANCH   6  12
HETATM   12  O   UNL     1     -11.258   9.856  68.329  1.00  0.00    -0.195 OA 
BRANCH  12  13
HETATM   13  C   UNL     1     -10.529  10.071  67.214  1.00  0.00    -0.254 C  
HETATM   14  C   UNL     1     -10.662  12.695  67.531  1.00  0.00    -0.247 A  
HETATM   15  C   UNL     1      -9.857  11.444  67.165  1.00  0.00    -0.212 C  
HETATM   16  C   UNL     1      -8.516  11.408  67.906  1.00  0.00    -0.139 C  
HETATM   17  C   UNL     1     -10.527  13.837  66.716  1.00  0.00    -0.270 A  
HETATM   18  O   UNL     1      -8.663  11.449  69.323  1.00  0.00    -0.374 OA 
HETATM   19  O   UNL     1     -10.387   9.215  66.351  1.00  0.00    -0.258 OA 
HETATM   20  C   UNL     1     -11.062  15.072  67.095  1.00  0.00    -0.332 A  
HETATM   21  H   UNL     1      -7.831  11.426  69.782  1.00  0.00     0.000 HD 
HETATM   22  C   UNL     1     -11.754  15.190  68.297  1.00  0.00    -0.336 A  
HETATM   23  C   UNL     1     -11.930  14.068  69.102  1.00  0.00    -0.400 A  
HETATM   24  C   UNL     1     -11.389  12.832  68.724  1.00  0.00    -0.332 A  
ENDBRANCH  12  13
ENDBRANCH   6  12
TORSDOF 2
ENDMDL
MODEL       46
REMARK 921   NORMALIZED FREE ENERGY PREDICTED BY IDOCK:   -5.60 KCAL/MOL
REMARK 922        TOTAL FREE ENERGY PREDICTED BY IDOCK:   -6.76 KCAL/MOL
REMARK 923 INTER-LIGAND FREE ENERGY PREDICTED BY IDOCK:   -6.15 KCAL/MOL
REMARK 924 INTRA-LIGAND FREE ENERGY PREDICTED BY IDOCK:   -0.61 KCAL/MOL
REMARK 927      BINDING AFFINITY PREDICTED BY RF-SCORE:    0.00 PKD
ROOT
HETATM    1  C   UNL     1      -8.573   5.966  66.040  1.00  0.00    -0.142 C  
HETATM    2  N   UNL     1      -9.274   5.981  67.384  1.00  0.00    -0.110 N  
HETATM    3  C   UNL     1     -10.644   6.712  67.470  1.00  0.00    -0.281 C  
HETATM    4  C   UNL     1      -9.464   4.487  67.760  1.00  0.00    -0.156 C  
HETATM    5  C   UNL     1     -10.506   8.134  66.877  1.00  0.00    -0.379 C  
HETATM    6  C   UNL     1      -9.477   8.999  67.629  1.00  0.00    -0.140 C  
HETATM    7  C   UNL     1      -8.225   8.202  68.059  1.00  0.00    -0.129 C  
HETATM    8  O   UNL     1     -10.524   7.768  69.816  1.00  0.00    -0.223 OA 
HETATM    9  C   UNL     1      -8.555   6.751  68.528  1.00  0.00    -0.125 C  
HETATM   10  C   UNL     1     -10.950   6.710  68.970  1.00  0.00    -0.279 C  
HETATM   11  C   UNL     1      -9.583   6.720  69.661  1.00  0.00    -0.148 C  
ENDROOT
BRANCH   6  12
HETATM   12  O   UNL     1      -9.237  10.312  67.067  1.00  0.00    -0.148 OA 
BRANCH  12  13
HETATM   13  C   UNL     1      -9.129  11.419  67.830  1.00  0.00    -0.164 C  
HETATM   14  C   UNL     1     -10.850  12.737  66.311  1.00  0.00    -0.299 A  
HETATM   15  C   UNL     1     -10.311  12.381  67.700  1.00  0.00    -0.223 C  
HETATM   16  C   UNL     1     -11.443  11.968  68.647  1.00  0.00    -0.297 C  
HETATM   17  C   UNL     1     -11.159  14.085  66.040  1.00  0.00    -0.303 A  
HETATM   18  O   UNL     1     -12.197  10.860  68.161  1.00  0.00    -0.781 OA 
HETATM   19  O   UNL     1      -8.188  11.600  68.592  1.00  0.00    -0.151 OA 
HETATM   20  C   UNL     1     -11.843  14.458  64.878  1.00  0.00    -0.419 A  
HETATM   21  H   UNL     1     -12.898  10.603  68.748  1.00  0.00     0.000 HD 
HETATM   22  C   UNL     1     -12.224  13.489  63.955  1.00  0.00    -0.458 A  
HETATM   23  C   UNL     1     -11.898  12.155  64.184  1.00  0.00    -0.490 A  
HETATM   24  C   UNL     1     -11.218  11.781  65.350  1.00  0.00    -0.310 A  
ENDBRANCH  12  13
ENDBRANCH   6  12
TORSDOF 2
ENDMDL
MODEL       47
REMARK 921   NORMALIZED FREE ENERGY PREDICTED BY IDOCK:   -5.57 KCAL/MOL
REMARK 922        TOTAL FREE ENERGY PREDICTED BY IDOCK:   -6.74 KCAL/MOL
REMARK 923 INTER-LIGAND FREE ENERGY PREDICTED BY IDOCK:   -6.16 KCAL/MOL
REMARK 924 INTRA-LIGAND FREE ENERGY PREDICTED BY IDOCK:   -0.58 KCAL/MOL
REMARK 927      BINDING AFFINITY PREDICTED BY RF-SCORE:    0.00 PKD
ROOT
HETATM    1  C   UNL     1      -8.138  16.848  66.228  1.00  0.00    -0.316 C  
HETATM    2  N   UNL     1      -8.983  16.821  67.487  1.00  0.00    -0.204 N  
HETATM    3  C   UNL     1      -8.756  15.643  68.477  1.00  0.00    -0.182 C  
HETATM    4  C   UNL     1      -8.683  18.163  68.206  1.00  0.00    -0.284 C  
HETATM    5  C   UNL     1      -8.827  14.303  67.707  1.00  0.00    -0.185 C  
HETATM    6  C   UNL     1     -10.190  14.074  67.028  1.00  0.00    -0.261 C  
HETATM    7  C   UNL     1     -10.777  15.365  66.414  1.00  0.00    -0.311 C  
HETATM    8  O   UNL     1     -11.151  15.196  69.311  1.00  0.00    -0.245 OA 
HETATM    9  C   UNL     1     -10.513  16.632  67.286  1.00  0.00    -0.313 C  
HETATM   10  C   UNL     1      -9.887  15.817  69.493  1.00  0.00    -0.283 C  
HETATM   11  C   UNL     1     -11.030  16.478  68.717  1.00  0.00    -0.330 C  
ENDROOT
BRANCH   6  12
HETATM   12  O   UNL     1     -10.290  12.879  66.217  1.00  0.00    -0.259 OA 
BRANCH  12  13
HETATM   13  C   UNL     1     -11.382  12.087  66.224  1.00  0.00    -0.357 C  
HETATM   14  C   UNL     1      -9.929   9.946  66.784  1.00  0.00    -0.272 A  
HETATM   15  C   UNL     1     -11.197  10.780  66.997  1.00  0.00    -0.165 C  
HETATM   16  C   UNL     1     -11.476  10.997  68.488  1.00  0.00    -0.309 C  
HETATM   17  C   UNL     1     -10.064   8.549  66.652  1.00  0.00    -0.364 A  
HETATM   18  O   UNL     1     -10.399  11.637  69.167  1.00  0.00    -0.383 OA 
HETATM   19  O   UNL     1     -12.435  12.420  65.697  1.00  0.00    -0.640 OA 
HETATM   20  C   UNL     1      -8.949   7.705  66.662  1.00  0.00    -0.181 A  
HETATM   21  H   UNL     1     -10.572  11.773  70.092  1.00  0.00     0.000 HD 
HETATM   22  C   UNL     1      -7.673   8.240  66.795  1.00  0.00    -0.094 A  
HETATM   23  C   UNL     1      -7.512   9.620  66.891  1.00  0.00    -0.091 A  
HETATM   24  C   UNL     1      -8.629  10.466  66.887  1.00  0.00    -0.127 A  
ENDBRANCH  12  13
ENDBRANCH   6  12
TORSDOF 2
ENDMDL
MODEL       48
REMARK 921   NORMALIZED FREE ENERGY PREDICTED BY IDOCK:   -5.55 KCAL/MOL
REMARK 922        TOTAL FREE ENERGY PREDICTED BY IDOCK:   -6.71 KCAL/MOL
REMARK 923 INTER-LIGAND FREE ENERGY PREDICTED BY IDOCK:   -5.91 KCAL/MOL
REMARK 924 INTRA-LIGAND FREE ENERGY PREDICTED BY IDOCK:   -0.81 KCAL/MOL
REMARK 927      BINDING AFFINITY PREDICTED BY RF-SCORE:    0.00 PKD
ROOT
HETATM    1  C   UNL     1     -10.625  11.155  64.334  1.00  0.00    -0.343 C  
HETATM    2  N   UNL     1     -11.185  12.532  64.634  1.00  0.00    -0.300 N  
HETATM    3  C   UNL     1     -10.226  13.568  65.287  1.00  0.00    -0.306 C  
HETATM    4  C   UNL     1     -11.677  13.076  63.267  1.00  0.00    -0.286 C  
HETATM    5  C   UNL     1      -9.555  12.936  66.529  1.00  0.00    -0.259 C  
HETATM    6  C   UNL     1     -10.570  12.509  67.606  1.00  0.00    -0.217 C  
HETATM    7  C   UNL     1     -11.854  11.891  67.007  1.00  0.00    -0.192 C  
HETATM    8  O   UNL     1     -11.818  14.814  66.883  1.00  0.00    -0.354 OA 
HETATM    9  C   UNL     1     -12.318  12.599  65.696  1.00  0.00    -0.323 C  
HETATM   10  C   UNL     1     -11.154  14.736  65.630  1.00  0.00    -0.342 C  
HETATM   11  C   UNL     1     -12.525  14.102  65.882  1.00  0.00    -0.453 C  
ENDROOT
BRANCH   6  12
HETATM   12  O   UNL     1     -10.010  11.828  68.756  1.00  0.00    -0.194 OA 
BRANCH  12  13
HETATM   13  C   UNL     1     -10.752  11.047  69.567  1.00  0.00    -0.183 C  
HETATM   14  C   UNL     1      -9.990   8.855  68.295  1.00  0.00    -0.201 A  
HETATM   15  C   UNL     1     -10.303   9.585  69.605  1.00  0.00    -0.236 C  
HETATM   16  C   UNL     1      -9.179   9.398  70.630  1.00  0.00    -0.242 C  
HETATM   17  C   UNL     1     -10.472   7.541  68.132  1.00  0.00    -0.233 A  
HETATM   18  O   UNL     1      -7.914   9.852  70.155  1.00  0.00    -0.177 OA 
HETATM   19  O   UNL     1     -11.669  11.493  70.246  1.00  0.00    -0.327 OA 
HETATM   20  C   UNL     1     -10.059   6.739  67.063  1.00  0.00    -0.264 A  
HETATM   21  H   UNL     1      -7.217   9.736  70.790  1.00  0.00     0.000 HD 
HETATM   22  C   UNL     1      -9.159   7.239  66.127  1.00  0.00    -0.160 A  
HETATM   23  C   UNL     1      -8.697   8.546  66.247  1.00  0.00    -0.164 A  
HETATM   24  C   UNL     1      -9.106   9.348  67.321  1.00  0.00    -0.150 A  
ENDBRANCH  12  13
ENDBRANCH   6  12
TORSDOF 2
ENDMDL
MODEL       49
REMARK 921   NORMALIZED FREE ENERGY PREDICTED BY IDOCK:   -5.55 KCAL/MOL
REMARK 922        TOTAL FREE ENERGY PREDICTED BY IDOCK:   -6.71 KCAL/MOL
REMARK 923 INTER-LIGAND FREE ENERGY PREDICTED BY IDOCK:   -6.46 KCAL/MOL
REMARK 924 INTRA-LIGAND FREE ENERGY PREDICTED BY IDOCK:   -0.25 KCAL/MOL
REMARK 927      BINDING AFFINITY PREDICTED BY RF-SCORE:    0.00 PKD
ROOT
HETATM    1  C   UNL     1     -10.910  17.488  65.296  1.00  0.00     0.125 C  
HETATM    2  N   UNL     1      -9.968  18.013  66.363  1.00  0.00    -0.351 N  
HETATM    3  C   UNL     1      -8.616  17.268  66.554  1.00  0.00    -0.264 C  
HETATM    4  C   UNL     1      -9.692  19.488  65.969  1.00  0.00    -0.309 C  
HETATM    5  C   UNL     1      -8.882  15.753  66.716  1.00  0.00    -0.299 C  
HETATM    6  C   UNL     1      -9.762  15.427  67.938  1.00  0.00    -0.207 C  
HETATM    7  C   UNL     1     -10.900  16.451  68.146  1.00  0.00    -0.346 C  
HETATM    8  O   UNL     1      -8.305  17.403  69.108  1.00  0.00    -0.122 OA 
HETATM    9  C   UNL     1     -10.468  17.917  67.832  1.00  0.00    -0.396 C  
HETATM   10  C   UNL     1      -8.034  17.917  67.812  1.00  0.00    -0.230 C  
HETATM   11  C   UNL     1      -9.245  18.355  68.639  1.00  0.00    -0.306 C  
ENDROOT
BRANCH   6  12
HETATM   12  O   UNL     1     -10.121  14.032  68.093  1.00  0.00    -0.231 OA 
BRANCH  12  13
HETATM   13  C   UNL     1     -11.388  13.633  68.330  1.00  0.00    -0.295 C  
HETATM   14  C   UNL     1     -11.599  12.583  65.910  1.00  0.00    -0.454 A  
HETATM   15  C   UNL     1     -11.865  12.503  67.416  1.00  0.00    -0.381 C  
HETATM   16  C   UNL     1     -11.443  11.143  67.984  1.00  0.00    -0.293 C  
HETATM   17  C   UNL     1     -12.642  12.233  65.029  1.00  0.00    -0.157 A  
HETATM   18  O   UNL     1     -10.068  10.848  67.754  1.00  0.00    -0.172 OA 
HETATM   19  O   UNL     1     -12.065  14.107  69.233  1.00  0.00    -0.326 OA 
HETATM   20  C   UNL     1     -12.419  12.082  63.656  1.00  0.00    -0.637 A  
HETATM   21  H   UNL     1      -9.806  10.005  68.106  1.00  0.00     0.000 HD 
HETATM   22  C   UNL     1     -11.147  12.289  63.133  1.00  0.00    -0.217 A  
HETATM   23  C   UNL     1     -10.109  12.670  63.978  1.00  0.00    -0.280 A  
HETATM   24  C   UNL     1     -10.331  12.815  65.354  1.00  0.00    -0.310 A  
ENDBRANCH  12  13
ENDBRANCH   6  12
TORSDOF 2
ENDMDL
MODEL       50
REMARK 921   NORMALIZED FREE ENERGY PREDICTED BY IDOCK:   -5.51 KCAL/MOL
REMARK 922        TOTAL FREE ENERGY PREDICTED BY IDOCK:   -6.66 KCAL/MOL
REMARK 923 INTER-LIGAND FREE ENERGY PREDICTED BY IDOCK:   -6.04 KCAL/MOL
REMARK 924 INTRA-LIGAND FREE ENERGY PREDICTED BY IDOCK:   -0.62 KCAL/MOL
REMARK 927      BINDING AFFINITY PREDICTED BY RF-SCORE:    0.00 PKD
ROOT
HETATM    1  C   UNL     1      -7.553   7.575  68.574  1.00  0.00    -0.114 C  
HETATM    2  N   UNL     1      -8.745   7.829  69.477  1.00  0.00    -0.135 N  
HETATM    3  C   UNL     1     -10.097   8.186  68.797  1.00  0.00    -0.199 C  
HETATM    4  C   UNL     1      -8.912   6.525  70.303  1.00  0.00    -0.155 C  
HETATM    5  C   UNL     1      -9.878   9.344  67.794  1.00  0.00    -0.207 C  
HETATM    6  C   UNL     1      -9.350  10.626  68.466  1.00  0.00    -0.170 C  
HETATM    7  C   UNL     1      -8.311  10.337  69.572  1.00  0.00    -0.162 C  
HETATM    8  O   UNL     1     -11.070   9.908  70.447  1.00  0.00    -0.270 OA 
HETATM    9  C   UNL     1      -8.649   9.067  70.413  1.00  0.00    -0.193 C  
HETATM   10  C   UNL     1     -10.992   8.570  69.977  1.00  0.00    -0.196 C  
HETATM   11  C   UNL     1     -10.043   9.132  71.039  1.00  0.00    -0.303 C  
ENDROOT
BRANCH   6  12
HETATM   12  O   UNL     1      -9.040  11.718  67.567  1.00  0.00    -0.167 OA 
BRANCH  12  13
HETATM   13  C   UNL     1      -9.333  13.002  67.859  1.00  0.00    -0.212 C  
HETATM   14  C   UNL     1     -11.016  13.169  65.823  1.00  0.00    -0.295 A  
HETATM   15  C   UNL     1     -10.665  13.483  67.280  1.00  0.00    -0.272 C  
HETATM   16  C   UNL     1     -11.818  13.118  68.222  1.00  0.00    -0.349 C  
HETATM   17  C   UNL     1     -11.580  14.194  65.037  1.00  0.00    -0.362 A  
HETATM   18  O   UNL     1     -12.192  11.745  68.136  1.00  0.00    -0.507 OA 
HETATM   19  O   UNL     1      -8.611  13.694  68.566  1.00  0.00    -0.165 OA 
HETATM   20  C   UNL     1     -12.114  13.933  63.771  1.00  0.00    -0.330 A  
HETATM   21  H   UNL     1     -12.906  11.519  68.720  1.00  0.00     0.000 HD 
HETATM   22  C   UNL     1     -12.087  12.641  63.258  1.00  0.00    -0.524 A  
HETATM   23  C   UNL     1     -11.503  11.618  64.002  1.00  0.00    -0.404 A  
HETATM   24  C   UNL     1     -10.973  11.878  65.272  1.00  0.00    -0.354 A  
ENDBRANCH  12  13
ENDBRANCH   6  12
TORSDOF 2
ENDMDL
MODEL       51
REMARK 921   NORMALIZED FREE ENERGY PREDICTED BY IDOCK:   -5.46 KCAL/MOL
REMARK 922        TOTAL FREE ENERGY PREDICTED BY IDOCK:   -6.61 KCAL/MOL
REMARK 923 INTER-LIGAND FREE ENERGY PREDICTED BY IDOCK:   -6.48 KCAL/MOL
REMARK 924 INTRA-LIGAND FREE ENERGY PREDICTED BY IDOCK:   -0.12 KCAL/MOL
REMARK 927      BINDING AFFINITY PREDICTED BY RF-SCORE:    0.00 PKD
ROOT
HETATM    1  C   UNL     1      -5.621  18.699  69.628  1.00  0.00    -0.230 C  
HETATM    2  N   UNL     1      -6.137  19.372  68.371  1.00  0.00    -0.224 N  
HETATM    3  C   UNL     1      -7.668  19.315  68.104  1.00  0.00    -0.297 C  
HETATM    4  C   UNL     1      -5.691  20.854  68.492  1.00  0.00    -0.351 C  
HETATM    5  C   UNL     1      -8.155  17.850  68.214  1.00  0.00    -0.294 C  
HETATM    6  C   UNL     1      -7.477  16.916  67.193  1.00  0.00    -0.175 C  
HETATM    7  C   UNL     1      -5.977  17.234  66.997  1.00  0.00    -0.199 C  
HETATM    8  O   UNL     1      -7.740  19.060  65.542  1.00  0.00    -0.436 OA 
HETATM    9  C   UNL     1      -5.667  18.763  67.020  1.00  0.00    -0.147 C  
HETATM   10  C   UNL     1      -7.800  19.891  66.692  1.00  0.00    -0.309 C  
HETATM   11  C   UNL     1      -6.485  19.543  65.989  1.00  0.00    -0.205 C  
ENDROOT
BRANCH   6  12
HETATM   12  O   UNL     1      -7.823  15.514  67.305  1.00  0.00    -0.167 OA 
BRANCH  12  13
HETATM   13  C   UNL     1      -8.495  15.017  68.364  1.00  0.00    -0.153 C  
HETATM   14  C   UNL     1     -10.502  14.229  66.829  1.00  0.00    -0.273 A  
HETATM   15  C   UNL     1      -9.546  13.968  67.997  1.00  0.00    -0.217 C  
HETATM   16  C   UNL     1      -8.902  12.581  67.891  1.00  0.00    -0.185 C  
HETATM   17  C   UNL     1     -11.865  13.916  66.999  1.00  0.00    -0.447 A  
HETATM   18  O   UNL     1      -8.183  12.395  66.673  1.00  0.00    -0.381 OA 
HETATM   19  O   UNL     1      -8.241  15.348  69.515  1.00  0.00    -0.243 OA 
HETATM   20  C   UNL     1     -12.758  13.931  65.922  1.00  0.00    -0.466 A  
HETATM   21  H   UNL     1      -7.783  11.536  66.607  1.00  0.00     0.000 HD 
HETATM   22  C   UNL     1     -12.307  14.269  64.651  1.00  0.00    -0.433 A  
HETATM   23  C   UNL     1     -10.971  14.616  64.464  1.00  0.00    -0.247 A  
HETATM   24  C   UNL     1     -10.076  14.595  65.542  1.00  0.00    -0.405 A  
ENDBRANCH  12  13
ENDBRANCH   6  12
TORSDOF 2
ENDMDL
MODEL       52
REMARK 921   NORMALIZED FREE ENERGY PREDICTED BY IDOCK:   -5.41 KCAL/MOL
REMARK 922        TOTAL FREE ENERGY PREDICTED BY IDOCK:   -6.56 KCAL/MOL
REMARK 923 INTER-LIGAND FREE ENERGY PREDICTED BY IDOCK:   -6.31 KCAL/MOL
REMARK 924 INTRA-LIGAND FREE ENERGY PREDICTED BY IDOCK:   -0.25 KCAL/MOL
REMARK 927      BINDING AFFINITY PREDICTED BY RF-SCORE:    0.00 PKD
ROOT
HETATM    1  C   UNL     1     -10.858  15.405  65.145  1.00  0.00    -0.431 C  
HETATM    2  N   UNL     1     -11.341  14.318  66.085  1.00  0.00    -0.335 N  
HETATM    3  C   UNL     1     -11.576  14.709  67.572  1.00  0.00    -0.375 C  
HETATM    4  C   UNL     1     -12.674  13.812  65.470  1.00  0.00    -0.488 C  
HETATM    5  C   UNL     1     -10.320  15.427  68.119  1.00  0.00    -0.239 C  
HETATM    6  C   UNL     1      -9.057  14.545  68.071  1.00  0.00    -0.185 C  
HETATM    7  C   UNL     1      -8.976  13.686  66.789  1.00  0.00    -0.196 C  
HETATM    8  O   UNL     1     -10.794  12.583  68.799  1.00  0.00    -0.242 OA 
HETATM    9  C   UNL     1     -10.363  13.135  66.333  1.00  0.00    -0.287 C  
HETATM   10  C   UNL     1     -11.846  13.364  68.250  1.00  0.00    -0.358 C  
HETATM   11  C   UNL     1     -11.065  12.333  67.430  1.00  0.00    -0.282 C  
ENDROOT
BRANCH   6  12
HETATM   12  O   UNL     1      -7.829  15.191  68.486  1.00  0.00    -0.124 OA 
BRANCH  12  13
HETATM   13  C   UNL     1      -6.704  15.155  67.742  1.00  0.00    -0.165 C  
HETATM   14  C   UNL     1      -7.018  17.674  66.992  1.00  0.00    -0.209 A  
HETATM   15  C   UNL     1      -6.106  16.532  67.452  1.00  0.00    -0.192 C  
HETATM   16  C   UNL     1      -5.199  16.974  68.607  1.00  0.00    -0.132 C  
HETATM   17  C   UNL     1      -6.579  18.493  65.933  1.00  0.00    -0.299 A  
HETATM   18  O   UNL     1      -5.930  17.447  69.736  1.00  0.00    -0.236 OA 
HETATM   19  O   UNL     1      -6.193  14.103  67.381  1.00  0.00    -0.336 OA 
HETATM   20  C   UNL     1      -7.252  19.671  65.594  1.00  0.00    -0.301 A  
HETATM   21  H   UNL     1      -5.368  17.721  70.452  1.00  0.00     0.000 HD 
HETATM   22  C   UNL     1      -8.387  20.051  66.303  1.00  0.00    -0.322 A  
HETATM   23  C   UNL     1      -8.860  19.240  67.330  1.00  0.00    -0.335 A  
HETATM   24  C   UNL     1      -8.182  18.063  67.674  1.00  0.00    -0.241 A  
ENDBRANCH  12  13
ENDBRANCH   6  12
TORSDOF 2
ENDMDL
MODEL       53
REMARK 921   NORMALIZED FREE ENERGY PREDICTED BY IDOCK:   -5.41 KCAL/MOL
REMARK 922        TOTAL FREE ENERGY PREDICTED BY IDOCK:   -6.56 KCAL/MOL
REMARK 923 INTER-LIGAND FREE ENERGY PREDICTED BY IDOCK:   -6.18 KCAL/MOL
REMARK 924 INTRA-LIGAND FREE ENERGY PREDICTED BY IDOCK:   -0.38 KCAL/MOL
REMARK 927      BINDING AFFINITY PREDICTED BY RF-SCORE:    0.00 PKD
ROOT
HETATM    1  C   UNL     1     -10.074   8.059  67.737  1.00  0.00    -0.195 C  
HETATM    2  N   UNL     1      -8.734   8.325  67.077  1.00  0.00    -0.125 N  
HETATM    3  C   UNL     1      -7.973   9.616  67.495  1.00  0.00    -0.106 C  
HETATM    4  C   UNL     1      -7.864   7.084  67.410  1.00  0.00    -0.111 C  
HETATM    5  C   UNL     1      -8.922  10.832  67.382  1.00  0.00    -0.141 C  
HETATM    6  C   UNL     1      -9.445  11.052  65.949  1.00  0.00    -0.214 C  
HETATM    7  C   UNL     1      -9.773   9.729  65.222  1.00  0.00    -0.371 C  
HETATM    8  O   UNL     1      -6.912  10.340  65.263  1.00  0.00    -0.132 OA 
HETATM    9  C   UNL     1      -8.760   8.587  65.544  1.00  0.00    -0.174 C  
HETATM   10  C   UNL     1      -6.804   9.668  66.509  1.00  0.00    -0.084 C  
HETATM   11  C   UNL     1      -7.314   8.981  65.239  1.00  0.00    -0.092 C  
ENDROOT
BRANCH   6  12
HETATM   12  O   UNL     1     -10.409  12.122  65.796  1.00  0.00    -0.243 OA 
BRANCH  12  13
HETATM   13  C   UNL     1     -11.461  12.274  66.627  1.00  0.00    -0.373 C  
HETATM   14  C   UNL     1     -10.975  14.861  66.903  1.00  0.00    -0.327 A  
HETATM   15  C   UNL     1     -11.973  13.713  66.725  1.00  0.00    -0.458 C  
HETATM   16  C   UNL     1     -12.963  14.005  65.593  1.00  0.00    -0.297 C  
HETATM   17  C   UNL     1     -11.280  15.870  67.839  1.00  0.00    -0.297 A  
HETATM   18  O   UNL     1     -12.322  14.240  64.342  1.00  0.00    -0.570 OA 
HETATM   19  O   UNL     1     -11.980  11.329  67.206  1.00  0.00    -0.529 OA 
HETATM   20  C   UNL     1     -10.530  17.049  67.912  1.00  0.00    -0.354 A  
HETATM   21  H   UNL     1     -12.935  14.421  63.639  1.00  0.00     0.000 HD 
HETATM   22  C   UNL     1      -9.451  17.240  67.056  1.00  0.00    -0.264 A  
HETATM   23  C   UNL     1      -9.109  16.242  66.147  1.00  0.00    -0.377 A  
HETATM   24  C   UNL     1      -9.864  15.064  66.069  1.00  0.00    -0.347 A  
ENDBRANCH  12  13
ENDBRANCH   6  12
TORSDOF 2
ENDMDL
MODEL       54
REMARK 921   NORMALIZED FREE ENERGY PREDICTED BY IDOCK:   -5.41 KCAL/MOL
REMARK 922        TOTAL FREE ENERGY PREDICTED BY IDOCK:   -6.55 KCAL/MOL
REMARK 923 INTER-LIGAND FREE ENERGY PREDICTED BY IDOCK:   -6.07 KCAL/MOL
REMARK 924 INTRA-LIGAND FREE ENERGY PREDICTED BY IDOCK:   -0.48 KCAL/MOL
REMARK 927      BINDING AFFINITY PREDICTED BY RF-SCORE:    0.00 PKD
ROOT
HETATM    1  C   UNL     1     -12.558  13.076  65.244  1.00  0.00    -0.457 C  
HETATM    2  N   UNL     1     -11.424  13.585  66.113  1.00  0.00    -0.317 N  
HETATM    3  C   UNL     1      -9.990  13.077  65.789  1.00  0.00    -0.254 C  
HETATM    4  C   UNL     1     -11.467  15.130  65.972  1.00  0.00    -0.157 C  
HETATM    5  C   UNL     1      -9.999  11.533  65.701  1.00  0.00    -0.275 C  
HETATM    6  C   UNL     1     -10.437  10.860  67.016  1.00  0.00    -0.244 C  
HETATM    7  C   UNL     1     -11.589  11.614  67.718  1.00  0.00    -0.359 C  
HETATM    8  O   UNL     1      -8.974  12.854  68.146  1.00  0.00    -0.194 OA 
HETATM    9  C   UNL     1     -11.461  13.165  67.610  1.00  0.00    -0.324 C  
HETATM   10  C   UNL     1      -9.158  13.611  66.958  1.00  0.00    -0.248 C  
HETATM   11  C   UNL     1     -10.124  13.682  68.143  1.00  0.00    -0.245 C  
ENDROOT
BRANCH   6  12
HETATM   12  O   UNL     1     -10.552   9.417  66.969  1.00  0.00    -0.251 OA 
BRANCH  12  13
HETATM   13  C   UNL     1      -9.476   8.606  66.916  1.00  0.00    -0.180 C  
HETATM   14  C   UNL     1      -9.578   8.161  69.523  1.00  0.00    -0.168 A  
HETATM   15  C   UNL     1      -9.366   7.641  68.099  1.00  0.00    -0.146 C  
HETATM   16  C   UNL     1     -10.195   6.379  67.837  1.00  0.00    -0.168 C  
HETATM   17  C   UNL     1      -8.688   7.734  70.529  1.00  0.00    -0.140 A  
HETATM   18  O   UNL     1     -11.592   6.582  68.037  1.00  0.00    -0.598 OA 
HETATM   19  O   UNL     1      -8.693   8.617  65.975  1.00  0.00    -0.149 OA 
HETATM   20  C   UNL     1      -8.934   7.997  71.881  1.00  0.00    -0.200 A  
HETATM   21  H   UNL     1     -12.107   5.800  67.874  1.00  0.00     0.000 HD 
HETATM   22  C   UNL     1     -10.073   8.701  72.256  1.00  0.00    -0.363 A  
HETATM   23  C   UNL     1     -10.949   9.164  71.278  1.00  0.00    -0.400 A  
HETATM   24  C   UNL     1     -10.706   8.896  69.924  1.00  0.00    -0.236 A  
ENDBRANCH  12  13
ENDBRANCH   6  12
TORSDOF 2
ENDMDL
MODEL       55
REMARK 921   NORMALIZED FREE ENERGY PREDICTED BY IDOCK:   -5.40 KCAL/MOL
REMARK 922        TOTAL FREE ENERGY PREDICTED BY IDOCK:   -6.54 KCAL/MOL
REMARK 923 INTER-LIGAND FREE ENERGY PREDICTED BY IDOCK:   -6.13 KCAL/MOL
REMARK 924 INTRA-LIGAND FREE ENERGY PREDICTED BY IDOCK:   -0.41 KCAL/MOL
REMARK 927      BINDING AFFINITY PREDICTED BY RF-SCORE:    0.00 PKD
ROOT
HETATM    1  C   UNL     1      -7.758  11.359  66.657  1.00  0.00    -0.129 C  
HETATM    2  N   UNL     1      -9.252  11.160  66.496  1.00  0.00    -0.174 N  
HETATM    3  C   UNL     1     -10.046  12.268  65.746  1.00  0.00    -0.252 C  
HETATM    4  C   UNL     1      -9.403   9.815  65.735  1.00  0.00    -0.221 C  
HETATM    5  C   UNL     1      -9.712  13.647  66.363  1.00  0.00    -0.300 C  
HETATM    6  C   UNL     1     -10.089  13.742  67.854  1.00  0.00    -0.246 C  
HETATM    7  C   UNL     1      -9.791  12.440  68.631  1.00  0.00    -0.086 C  
HETATM    8  O   UNL     1     -12.258  12.306  67.065  1.00  0.00    -0.522 OA 
HETATM    9  C   UNL     1     -10.092  11.152  67.804  1.00  0.00    -0.178 C  
HETATM   10  C   UNL     1     -11.505  11.853  65.949  1.00  0.00    -0.278 C  
HETATM   11  C   UNL     1     -11.531  11.109  67.288  1.00  0.00    -0.136 C  
ENDROOT
BRANCH   6  12
HETATM   12  O   UNL     1      -9.718  14.978  68.513  1.00  0.00    -0.204 OA 
BRANCH  12  13
HETATM   13  C   UNL     1     -10.543  16.044  68.569  1.00  0.00    -0.268 C  
HETATM   14  C   UNL     1      -8.507  17.731  68.447  1.00  0.00    -0.295 A  
HETATM   15  C   UNL     1      -9.927  17.336  68.028  1.00  0.00    -0.304 C  
HETATM   16  C   UNL     1     -10.102  17.416  66.508  1.00  0.00    -0.320 C  
HETATM   17  C   UNL     1      -8.264  19.076  68.794  1.00  0.00    -0.369 A  
HETATM   18  O   UNL     1      -9.179  16.592  65.799  1.00  0.00    -0.486 OA 
HETATM   19  O   UNL     1     -11.696  15.960  68.971  1.00  0.00    -0.385 OA 
HETATM   20  C   UNL     1      -6.965  19.556  68.986  1.00  0.00    -0.392 A  
HETATM   21  H   UNL     1      -9.287  16.641  64.856  1.00  0.00     0.000 HD 
HETATM   22  C   UNL     1      -5.879  18.699  68.845  1.00  0.00    -0.215 A  
HETATM   23  C   UNL     1      -6.096  17.359  68.537  1.00  0.00    -0.167 A  
HETATM   24  C   UNL     1      -7.397  16.878  68.339  1.00  0.00    -0.202 A  
ENDBRANCH  12  13
ENDBRANCH   6  12
TORSDOF 2
ENDMDL
MODEL       56
REMARK 921   NORMALIZED FREE ENERGY PREDICTED BY IDOCK:   -5.37 KCAL/MOL
REMARK 922        TOTAL FREE ENERGY PREDICTED BY IDOCK:   -6.51 KCAL/MOL
REMARK 923 INTER-LIGAND FREE ENERGY PREDICTED BY IDOCK:   -6.10 KCAL/MOL
REMARK 924 INTRA-LIGAND FREE ENERGY PREDICTED BY IDOCK:   -0.41 KCAL/MOL
REMARK 927      BINDING AFFINITY PREDICTED BY RF-SCORE:    0.00 PKD
ROOT
HETATM    1  C   UNL     1      -8.798   7.917  72.252  1.00  0.00    -0.148 C  
HETATM    2  N   UNL     1      -9.714   6.947  71.532  1.00  0.00    -0.163 N  
HETATM    3  C   UNL     1      -9.202   6.334  70.197  1.00  0.00    -0.157 C  
HETATM    4  C   UNL     1      -9.981   5.808  72.552  1.00  0.00    -0.170 C  
HETATM    5  C   UNL     1      -8.716   7.467  69.263  1.00  0.00    -0.136 C  
HETATM    6  C   UNL     1      -9.831   8.470  68.909  1.00  0.00    -0.176 C  
HETATM    7  C   UNL     1     -10.759   8.780  70.106  1.00  0.00    -0.239 C  
HETATM    8  O   UNL     1     -11.368   6.229  68.808  1.00  0.00    -0.356 OA 
HETATM    9  C   UNL     1     -11.051   7.531  70.993  1.00  0.00    -0.257 C  
HETATM   10  C   UNL     1     -10.427   5.591  69.660  1.00  0.00    -0.309 C  
HETATM   11  C   UNL     1     -11.636   6.366  70.194  1.00  0.00    -0.381 C  
ENDROOT
BRANCH   6  12
HETATM   12  O   UNL     1      -9.418   9.605  68.110  1.00  0.00    -0.133 OA 
BRANCH  12  13
HETATM   13  C   UNL     1      -9.152  10.812  68.650  1.00  0.00    -0.173 C  
HETATM   14  C   UNL     1     -10.211  12.068  66.576  1.00  0.00    -0.232 A  
HETATM   15  C   UNL     1     -10.010  11.948  68.089  1.00  0.00    -0.197 C  
HETATM   16  C   UNL     1     -11.346  12.027  68.837  1.00  0.00    -0.278 C  
HETATM   17  C   UNL     1     -10.117  13.347  65.990  1.00  0.00    -0.308 A  
HETATM   18  O   UNL     1     -12.272  11.024  68.426  1.00  0.00    -0.770 OA 
HETATM   19  O   UNL     1      -8.329  10.962  69.545  1.00  0.00    -0.019 OA 
HETATM   20  C   UNL     1     -10.488  13.569  64.660  1.00  0.00    -0.439 A  
HETATM   21  H   UNL     1     -13.100  11.073  68.890  1.00  0.00     0.000 HD 
HETATM   22  C   UNL     1     -10.954  12.514  63.883  1.00  0.00    -0.471 A  
HETATM   23  C   UNL     1     -11.023  11.236  64.429  1.00  0.00    -0.331 A  
HETATM   24  C   UNL     1     -10.657  11.013  65.763  1.00  0.00    -0.260 A  
ENDBRANCH  12  13
ENDBRANCH   6  12
TORSDOF 2
ENDMDL
MODEL       57
REMARK 921   NORMALIZED FREE ENERGY PREDICTED BY IDOCK:   -5.32 KCAL/MOL
REMARK 922        TOTAL FREE ENERGY PREDICTED BY IDOCK:   -6.46 KCAL/MOL
REMARK 923 INTER-LIGAND FREE ENERGY PREDICTED BY IDOCK:   -5.82 KCAL/MOL
REMARK 924 INTRA-LIGAND FREE ENERGY PREDICTED BY IDOCK:   -0.64 KCAL/MOL
REMARK 927      BINDING AFFINITY PREDICTED BY RF-SCORE:    0.00 PKD
ROOT
HETATM    1  C   UNL     1     -11.488  10.037  70.014  1.00  0.00    -0.248 C  
HETATM    2  N   UNL     1     -10.357   9.927  69.009  1.00  0.00    -0.198 N  
HETATM    3  C   UNL     1      -9.338  11.100  68.948  1.00  0.00    -0.106 C  
HETATM    4  C   UNL     1      -9.612   8.617  69.378  1.00  0.00    -0.166 C  
HETATM    5  C   UNL     1     -10.101  12.439  68.812  1.00  0.00    -0.068 C  
HETATM    6  C   UNL     1     -10.960  12.511  67.535  1.00  0.00    -0.251 C  
HETATM    7  C   UNL     1     -11.657  11.171  67.206  1.00  0.00    -0.098 C  
HETATM    8  O   UNL     1      -8.837  11.223  66.425  1.00  0.00    -0.172 OA 
HETATM    9  C   UNL     1     -10.765   9.928  67.509  1.00  0.00    -0.272 C  
HETATM   10  C   UNL     1      -8.487  10.762  67.722  1.00  0.00    -0.120 C  
HETATM   11  C   UNL     1      -9.417   9.982  66.788  1.00  0.00    -0.168 C  
ENDROOT
BRANCH   6  12
HETATM   12  O   UNL     1     -11.769  13.704  67.395  1.00  0.00    -0.337 OA 
BRANCH  12  13
HETATM   13  C   UNL     1     -11.965  14.311  66.206  1.00  0.00    -0.412 C  
HETATM   14  C   UNL     1     -10.759  16.515  67.037  1.00  0.00    -0.191 A  
HETATM   15  C   UNL     1     -11.013  15.478  65.939  1.00  0.00    -0.264 C  
HETATM   16  C   UNL     1      -9.698  14.967  65.340  1.00  0.00    -0.191 C  
HETATM   17  C   UNL     1     -10.746  17.878  66.677  1.00  0.00    -0.137 A  
HETATM   18  O   UNL     1      -8.833  14.387  66.314  1.00  0.00    -0.475 OA 
HETATM   19  O   UNL     1     -12.801  13.920  65.401  1.00  0.00    -0.662 OA 
HETATM   20  C   UNL     1     -10.321  18.865  67.573  1.00  0.00    -0.496 A  
HETATM   21  H   UNL     1      -8.017  14.070  65.943  1.00  0.00     0.000 HD 
HETATM   22  C   UNL     1      -9.908  18.511  68.853  1.00  0.00    -0.377 A  
HETATM   23  C   UNL     1      -9.946  17.175  69.242  1.00  0.00    -0.151 A  
HETATM   24  C   UNL     1     -10.366  16.185  68.344  1.00  0.00    -0.257 A  
ENDBRANCH  12  13
ENDBRANCH   6  12
TORSDOF 2
ENDMDL
MODEL       58
REMARK 921   NORMALIZED FREE ENERGY PREDICTED BY IDOCK:   -5.32 KCAL/MOL
REMARK 922        TOTAL FREE ENERGY PREDICTED BY IDOCK:   -6.45 KCAL/MOL
REMARK 923 INTER-LIGAND FREE ENERGY PREDICTED BY IDOCK:   -5.87 KCAL/MOL
REMARK 924 INTRA-LIGAND FREE ENERGY PREDICTED BY IDOCK:   -0.58 KCAL/MOL
REMARK 927      BINDING AFFINITY PREDICTED BY RF-SCORE:    0.00 PKD
ROOT
HETATM    1  C   UNL     1      -9.325  15.758  69.184  1.00  0.00    -0.258 C  
HETATM    2  N   UNL     1      -9.994  15.457  67.857  1.00  0.00    -0.221 N  
HETATM    3  C   UNL     1     -11.130  14.395  67.852  1.00  0.00    -0.274 C  
HETATM    4  C   UNL     1     -10.560  16.818  67.370  1.00  0.00    -0.291 C  
HETATM    5  C   UNL     1     -10.633  13.107  68.551  1.00  0.00    -0.274 C  
HETATM    6  C   UNL     1      -9.413  12.478  67.851  1.00  0.00    -0.196 C  
HETATM    7  C   UNL     1      -8.407  13.534  67.339  1.00  0.00    -0.199 C  
HETATM    8  O   UNL     1     -10.734  13.222  65.593  1.00  0.00    -0.275 OA 
HETATM    9  C   UNL     1      -9.097  14.809  66.764  1.00  0.00    -0.267 C  
HETATM   10  C   UNL     1     -11.420  14.199  66.362  1.00  0.00    -0.354 C  
HETATM   11  C   UNL     1     -10.094  14.486  65.651  1.00  0.00    -0.359 C  
ENDROOT
BRANCH   6  12
HETATM   12  O   UNL     1      -8.845  11.320  68.509  1.00  0.00    -0.154 OA 
BRANCH  12  13
HETATM   13  C   UNL     1      -8.526  10.192  67.842  1.00  0.00    -0.118 C  
HETATM   14  C   UNL     1      -9.872   8.695  69.561  1.00  0.00    -0.187 A  
HETATM   15  C   UNL     1      -9.467   9.018  68.119  1.00  0.00    -0.155 C  
HETATM   16  C   UNL     1     -10.691   9.087  67.199  1.00  0.00    -0.136 C  
HETATM   17  C   UNL     1      -9.874   7.345  69.966  1.00  0.00    -0.179 A  
HETATM   18  O   UNL     1     -11.650  10.053  67.624  1.00  0.00    -0.535 OA 
HETATM   19  O   UNL     1      -7.593  10.141  67.051  1.00  0.00    -0.092 OA 
HETATM   20  C   UNL     1     -10.424   6.952  71.191  1.00  0.00    -0.234 A  
HETATM   21  H   UNL     1     -12.409  10.096  67.053  1.00  0.00     0.000 HD 
HETATM   22  C   UNL     1     -10.975   7.903  72.042  1.00  0.00    -0.329 A  
HETATM   23  C   UNL     1     -10.953   9.247  71.679  1.00  0.00    -0.433 A  
HETATM   24  C   UNL     1     -10.407   9.640  70.450  1.00  0.00    -0.350 A  
ENDBRANCH  12  13
ENDBRANCH   6  12
TORSDOF 2
ENDMDL
MODEL       59
REMARK 921   NORMALIZED FREE ENERGY PREDICTED BY IDOCK:   -5.31 KCAL/MOL
REMARK 922        TOTAL FREE ENERGY PREDICTED BY IDOCK:   -6.44 KCAL/MOL
REMARK 923 INTER-LIGAND FREE ENERGY PREDICTED BY IDOCK:   -5.87 KCAL/MOL
REMARK 924 INTRA-LIGAND FREE ENERGY PREDICTED BY IDOCK:   -0.57 KCAL/MOL
REMARK 927      BINDING AFFINITY PREDICTED BY RF-SCORE:    0.00 PKD
ROOT
HETATM    1  C   UNL     1      -7.384   9.286  64.300  1.00  0.00    -0.106 C  
HETATM    2  N   UNL     1      -7.593   8.697  65.682  1.00  0.00    -0.085 N  
HETATM    3  C   UNL     1      -9.048   8.325  66.089  1.00  0.00    -0.189 C  
HETATM    4  C   UNL     1      -6.707   7.423  65.718  1.00  0.00    -0.052 C  
HETATM    5  C   UNL     1      -9.979   9.533  65.832  1.00  0.00    -0.342 C  
HETATM    6  C   UNL     1      -9.580  10.780  66.645  1.00  0.00    -0.178 C  
HETATM    7  C   UNL     1      -8.049  10.972  66.733  1.00  0.00    -0.151 C  
HETATM    8  O   UNL     1      -9.063   8.949  68.588  1.00  0.00    -0.137 OA 
HETATM    9  C   UNL     1      -7.272   9.628  66.885  1.00  0.00    -0.090 C  
HETATM   10  C   UNL     1      -8.916   7.968  67.572  1.00  0.00    -0.138 C  
HETATM   11  C   UNL     1      -7.744   8.809  68.087  1.00  0.00    -0.101 C  
ENDROOT
BRANCH   6  12
HETATM   12  O   UNL     1     -10.359  11.971  66.380  1.00  0.00    -0.210 OA 
BRANCH  12  13
HETATM   13  C   UNL     1     -11.401  12.343  67.153  1.00  0.00    -0.329 C  
HETATM   14  C   UNL     1     -10.689  14.889  67.036  1.00  0.00    -0.307 A  
HETATM   15  C   UNL     1     -11.783  13.817  67.015  1.00  0.00    -0.420 C  
HETATM   16  C   UNL     1     -12.733  14.013  65.829  1.00  0.00    -0.450 C  
HETATM   17  C   UNL     1     -10.911  16.055  67.797  1.00  0.00    -0.307 A  
HETATM   18  O   UNL     1     -12.062  13.993  64.571  1.00  0.00    -0.422 OA 
HETATM   19  O   UNL     1     -12.007  11.548  67.860  1.00  0.00    -0.618 OA 
HETATM   20  C   UNL     1     -10.060  17.161  67.703  1.00  0.00    -0.305 A  
HETATM   21  H   UNL     1     -12.651  14.115  63.835  1.00  0.00     0.000 HD 
HETATM   22  C   UNL     1      -8.961  17.121  66.852  1.00  0.00    -0.253 A  
HETATM   23  C   UNL     1      -8.701  15.968  66.117  1.00  0.00    -0.348 A  
HETATM   24  C   UNL     1      -9.557  14.862  66.206  1.00  0.00    -0.334 A  
ENDBRANCH  12  13
ENDBRANCH   6  12
TORSDOF 2
ENDMDL
MODEL       60
REMARK 921   NORMALIZED FREE ENERGY PREDICTED BY IDOCK:   -5.30 KCAL/MOL
REMARK 922        TOTAL FREE ENERGY PREDICTED BY IDOCK:   -6.43 KCAL/MOL
REMARK 923 INTER-LIGAND FREE ENERGY PREDICTED BY IDOCK:   -6.01 KCAL/MOL
REMARK 924 INTRA-LIGAND FREE ENERGY PREDICTED BY IDOCK:   -0.43 KCAL/MOL
REMARK 927      BINDING AFFINITY PREDICTED BY RF-SCORE:    0.00 PKD
ROOT
HETATM    1  C   UNL     1     -12.259   7.751  71.105  1.00  0.00    -0.268 C  
HETATM    2  N   UNL     1     -11.068   6.813  71.108  1.00  0.00    -0.259 N  
HETATM    3  C   UNL     1      -9.651   7.453  71.056  1.00  0.00    -0.161 C  
HETATM    4  C   UNL     1     -11.209   5.981  72.410  1.00  0.00    -0.292 C  
HETATM    5  C   UNL     1      -9.585   8.463  69.887  1.00  0.00    -0.171 C  
HETATM    6  C   UNL     1      -9.843   7.809  68.515  1.00  0.00    -0.172 C  
HETATM    7  C   UNL     1     -10.952   6.734  68.564  1.00  0.00    -0.258 C  
HETATM    8  O   UNL     1      -8.377   5.777  69.572  1.00  0.00    -0.109 OA 
HETATM    9  C   UNL     1     -10.921   5.882  69.871  1.00  0.00    -0.374 C  
HETATM   10  C   UNL     1      -8.728   6.247  70.865  1.00  0.00    -0.136 C  
HETATM   11  C   UNL     1      -9.564   5.214  70.104  1.00  0.00    -0.181 C  
ENDROOT
BRANCH   6  12
HETATM   12  O   UNL     1      -9.884   8.719  67.389  1.00  0.00    -0.169 OA 
BRANCH  12  13
HETATM   13  C   UNL     1      -9.343   8.414  66.191  1.00  0.00    -0.201 C  
HETATM   14  C   UNL     1     -10.276  10.641  65.108  1.00  0.00    -0.368 A  
HETATM   15  C   UNL     1      -9.146   9.621  65.273  1.00  0.00    -0.269 C  
HETATM   16  C   UNL     1      -7.812  10.312  65.578  1.00  0.00    -0.152 C  
HETATM   17  C   UNL     1     -10.569  11.109  63.811  1.00  0.00    -0.422 A  
HETATM   18  O   UNL     1      -7.862  11.120  66.752  1.00  0.00    -0.140 OA 
HETATM   19  O   UNL     1      -9.000   7.276  65.899  1.00  0.00    -0.147 OA 
HETATM   20  C   UNL     1     -11.438  12.185  63.602  1.00  0.00    -0.566 A  
HETATM   21  H   UNL     1      -7.035  11.548  66.942  1.00  0.00     0.000 HD 
HETATM   22  C   UNL     1     -12.043  12.810  64.687  1.00  0.00    -0.483 A  
HETATM   23  C   UNL     1     -11.797  12.343  65.975  1.00  0.00    -0.459 A  
HETATM   24  C   UNL     1     -10.921  11.270  66.185  1.00  0.00    -0.252 A  
ENDBRANCH  12  13
ENDBRANCH   6  12
TORSDOF 2
ENDMDL
MODEL       61
REMARK 921   NORMALIZED FREE ENERGY PREDICTED BY IDOCK:   -5.30 KCAL/MOL
REMARK 922        TOTAL FREE ENERGY PREDICTED BY IDOCK:   -6.43 KCAL/MOL
REMARK 923 INTER-LIGAND FREE ENERGY PREDICTED BY IDOCK:   -5.81 KCAL/MOL
REMARK 924 INTRA-LIGAND FREE ENERGY PREDICTED BY IDOCK:   -0.61 KCAL/MOL
REMARK 927      BINDING AFFINITY PREDICTED BY RF-SCORE:    0.00 PKD
ROOT
HETATM    1  C   UNL     1     -10.926   6.547  68.314  1.00  0.00    -0.281 C  
HETATM    2  N   UNL     1     -10.310   7.077  69.595  1.00  0.00    -0.202 N  
HETATM    3  C   UNL     1     -10.855   8.425  70.147  1.00  0.00    -0.236 C  
HETATM    4  C   UNL     1     -10.539   5.959  70.647  1.00  0.00    -0.268 C  
HETATM    5  C   UNL     1     -10.842   9.485  69.021  1.00  0.00    -0.184 C  
HETATM    6  C   UNL     1      -9.430   9.754  68.467  1.00  0.00    -0.145 C  
HETATM    7  C   UNL     1      -8.580   8.469  68.347  1.00  0.00    -0.139 C  
HETATM    8  O   UNL     1      -8.712   9.509  71.078  1.00  0.00    -0.260 OA 
HETATM    9  C   UNL     1      -8.808   7.472  69.525  1.00  0.00    -0.137 C  
HETATM   10  C   UNL     1      -9.892   8.749  71.292  1.00  0.00    -0.266 C  
HETATM   11  C   UNL     1      -8.559   8.112  70.892  1.00  0.00    -0.135 C  
ENDROOT
BRANCH   6  12
HETATM   12  O   UNL     1      -9.363  10.671  67.348  1.00  0.00    -0.143 OA 
BRANCH  12  13
HETATM   13  C   UNL     1      -8.456  11.668  67.282  1.00  0.00    -0.156 C  
HETATM   14  C   UNL     1     -10.210  13.303  66.162  1.00  0.00    -0.296 A  
HETATM   15  C   UNL     1      -9.072  13.062  67.159  1.00  0.00    -0.225 C  
HETATM   16  C   UNL     1      -9.420  13.616  68.545  1.00  0.00    -0.143 C  
HETATM   17  C   UNL     1     -10.169  14.470  65.372  1.00  0.00    -0.415 A  
HETATM   18  O   UNL     1     -10.615  13.054  69.084  1.00  0.00    -0.427 OA 
HETATM   19  O   UNL     1      -7.252  11.463  67.364  1.00  0.00    -0.100 OA 
HETATM   20  C   UNL     1     -11.263  14.863  64.594  1.00  0.00    -0.349 A  
HETATM   21  H   UNL     1     -10.830  13.397  69.943  1.00  0.00     0.000 HD 
HETATM   22  C   UNL     1     -12.420  14.091  64.582  1.00  0.00    -0.366 A  
HETATM   23  C   UNL     1     -12.471  12.916  65.326  1.00  0.00    -0.552 A  
HETATM   24  C   UNL     1     -11.378  12.525  66.110  1.00  0.00    -0.388 A  
ENDBRANCH  12  13
ENDBRANCH   6  12
TORSDOF 2
ENDMDL
MODEL       62
REMARK 921   NORMALIZED FREE ENERGY PREDICTED BY IDOCK:   -5.29 KCAL/MOL
REMARK 922        TOTAL FREE ENERGY PREDICTED BY IDOCK:   -6.41 KCAL/MOL
REMARK 923 INTER-LIGAND FREE ENERGY PREDICTED BY IDOCK:   -5.80 KCAL/MOL
REMARK 924 INTRA-LIGAND FREE ENERGY PREDICTED BY IDOCK:   -0.61 KCAL/MOL
REMARK 927      BINDING AFFINITY PREDICTED BY RF-SCORE:    0.00 PKD
ROOT
HETATM    1  C   UNL     1      -7.568   9.376  67.864  1.00  0.00    -0.087 C  
HETATM    2  N   UNL     1      -8.746  10.286  67.572  1.00  0.00    -0.125 N  
HETATM    3  C   UNL     1      -9.450  10.958  68.785  1.00  0.00    -0.190 C  
HETATM    4  C   UNL     1      -8.185  11.385  66.629  1.00  0.00    -0.163 C  
HETATM    5  C   UNL     1      -9.803   9.880  69.837  1.00  0.00    -0.285 C  
HETATM    6  C   UNL     1     -10.759   8.802  69.291  1.00  0.00    -0.151 C  
HETATM    7  C   UNL     1     -10.440   8.403  67.833  1.00  0.00    -0.255 C  
HETATM    8  O   UNL     1     -11.916  10.921  68.041  1.00  0.00    -0.586 OA 
HETATM    9  C   UNL     1     -10.001   9.612  66.950  1.00  0.00    -0.212 C  
HETATM   10  C   UNL     1     -10.681  11.615  68.156  1.00  0.00    -0.213 C  
HETATM   11  C   UNL     1     -11.031  10.742  66.947  1.00  0.00    -0.190 C  
ENDROOT
BRANCH   6  12
HETATM   12  O   UNL     1     -11.056   7.715  70.201  1.00  0.00    -0.257 OA 
BRANCH  12  13
HETATM   13  C   UNL     1     -11.714   7.902  71.364  1.00  0.00    -0.281 C  
HETATM   14  C   UNL     1     -10.851   5.591  72.322  1.00  0.00    -0.297 A  
HETATM   15  C   UNL     1     -11.166   7.076  72.529  1.00  0.00    -0.312 C  
HETATM   16  C   UNL     1      -9.996   7.806  73.197  1.00  0.00    -0.311 C  
HETATM   17  C   UNL     1     -11.249   4.680  73.321  1.00  0.00    -0.411 A  
HETATM   18  O   UNL     1      -8.782   7.703  72.456  1.00  0.00    -0.118 OA 
HETATM   19  O   UNL     1     -12.633   8.703  71.474  1.00  0.00    -0.311 OA 
HETATM   20  C   UNL     1     -10.821   3.348  73.306  1.00  0.00    -0.287 A  
HETATM   21  H   UNL     1      -8.056   8.156  72.870  1.00  0.00     0.000 HD 
HETATM   22  C   UNL     1      -9.992   2.896  72.285  1.00  0.00    -0.238 A  
HETATM   23  C   UNL     1      -9.614   3.769  71.269  1.00  0.00    -0.243 A  
HETATM   24  C   UNL     1     -10.038   5.104  71.286  1.00  0.00    -0.278 A  
ENDBRANCH  12  13
ENDBRANCH   6  12
TORSDOF 2
ENDMDL
MODEL       63
REMARK 921   NORMALIZED FREE ENERGY PREDICTED BY IDOCK:   -5.28 KCAL/MOL
REMARK 922        TOTAL FREE ENERGY PREDICTED BY IDOCK:   -6.41 KCAL/MOL
REMARK 923 INTER-LIGAND FREE ENERGY PREDICTED BY IDOCK:   -5.96 KCAL/MOL
REMARK 924 INTRA-LIGAND FREE ENERGY PREDICTED BY IDOCK:   -0.45 KCAL/MOL
REMARK 927      BINDING AFFINITY PREDICTED BY RF-SCORE:    0.00 PKD
ROOT
HETATM    1  C   UNL     1     -11.760  16.168  69.261  1.00  0.00    -0.223 C  
HETATM    2  N   UNL     1     -10.699  16.460  68.217  1.00  0.00    -0.322 N  
HETATM    3  C   UNL     1     -10.819  15.730  66.849  1.00  0.00    -0.265 C  
HETATM    4  C   UNL     1     -10.766  17.994  67.989  1.00  0.00    -0.285 C  
HETATM    5  C   UNL     1     -10.986  14.211  67.091  1.00  0.00    -0.304 C  
HETATM    6  C   UNL     1      -9.792  13.588  67.840  1.00  0.00    -0.235 C  
HETATM    7  C   UNL     1      -9.242  14.506  68.955  1.00  0.00    -0.118 C  
HETATM    8  O   UNL     1      -8.347  15.283  66.280  1.00  0.00    -0.106 OA 
HETATM    9  C   UNL     1      -9.250  16.016  68.564  1.00  0.00    -0.206 C  
HETATM   10  C   UNL     1      -9.509  16.089  66.144  1.00  0.00    -0.336 C  
HETATM   11  C   UNL     1      -8.488  16.291  67.267  1.00  0.00    -0.177 C  
ENDROOT
BRANCH   6  12
HETATM   12  O   UNL     1      -9.930  12.186  68.175  1.00  0.00    -0.191 OA 
BRANCH  12  13
HETATM   13  C   UNL     1      -8.867  11.364  68.301  1.00  0.00    -0.167 C  
HETATM   14  C   UNL     1     -10.175   9.794  69.983  1.00  0.00    -0.308 A  
HETATM   15  C   UNL     1      -9.222   9.961  68.796  1.00  0.00    -0.147 C  
HETATM   16  C   UNL     1      -9.636   9.070  67.619  1.00  0.00    -0.150 C  
HETATM   17  C   UNL     1      -9.845   8.850  70.976  1.00  0.00    -0.321 A  
HETATM   18  O   UNL     1     -10.964   9.327  67.169  1.00  0.00    -0.308 OA 
HETATM   19  O   UNL     1      -7.733  11.709  67.996  1.00  0.00    -0.107 OA 
HETATM   20  C   UNL     1     -10.756   8.493  71.976  1.00  0.00    -0.410 A  
HETATM   21  H   UNL     1     -11.221   8.775  66.439  1.00  0.00     0.000 HD 
HETATM   22  C   UNL     1     -12.016   9.081  72.010  1.00  0.00    -0.433 A  
HETATM   23  C   UNL     1     -12.352  10.042  71.061  1.00  0.00    -0.458 A  
HETATM   24  C   UNL     1     -11.442  10.396  70.056  1.00  0.00    -0.382 A  
ENDBRANCH  12  13
ENDBRANCH   6  12
TORSDOF 2
ENDMDL
MODEL       64
REMARK 921   NORMALIZED FREE ENERGY PREDICTED BY IDOCK:   -5.28 KCAL/MOL
REMARK 922        TOTAL FREE ENERGY PREDICTED BY IDOCK:   -6.41 KCAL/MOL
REMARK 923 INTER-LIGAND FREE ENERGY PREDICTED BY IDOCK:   -6.34 KCAL/MOL
REMARK 924 INTRA-LIGAND FREE ENERGY PREDICTED BY IDOCK:   -0.07 KCAL/MOL
REMARK 927      BINDING AFFINITY PREDICTED BY RF-SCORE:    0.00 PKD
ROOT
HETATM    1  C   UNL     1     -10.404  15.296  68.617  1.00  0.00    -0.232 C  
HETATM    2  N   UNL     1     -10.648  14.511  67.342  1.00  0.00    -0.268 N  
HETATM    3  C   UNL     1     -11.899  13.587  67.299  1.00  0.00    -0.385 C  
HETATM    4  C   UNL     1     -10.758  15.579  66.222  1.00  0.00    -0.307 C  
HETATM    5  C   UNL     1     -11.908  12.675  68.548  1.00  0.00    -0.342 C  
HETATM    6  C   UNL     1     -10.669  11.764  68.634  1.00  0.00    -0.220 C  
HETATM    7  C   UNL     1      -9.371  12.477  68.191  1.00  0.00    -0.210 C  
HETATM    8  O   UNL     1     -11.017  11.582  65.943  1.00  0.00    -0.284 OA 
HETATM    9  C   UNL     1      -9.584  13.437  66.980  1.00  0.00    -0.244 C  
HETATM   10  C   UNL     1     -11.719  12.816  65.989  1.00  0.00    -0.418 C  
HETATM   11  C   UNL     1     -10.205  12.732  65.773  1.00  0.00    -0.289 C  
ENDROOT
BRANCH   6  12
HETATM   12  O   UNL     1     -10.575  10.950  69.828  1.00  0.00    -0.194 OA 
BRANCH  12  13
HETATM   13  C   UNL     1     -11.643  10.323  70.363  1.00  0.00    -0.328 C  
HETATM   14  C   UNL     1     -10.668   7.944  69.736  1.00  0.00    -0.233 A  
HETATM   15  C   UNL     1     -11.386   8.861  70.731  1.00  0.00    -0.325 C  
HETATM   16  C   UNL     1     -10.764   8.763  72.128  1.00  0.00    -0.313 C  
HETATM   17  C   UNL     1     -11.176   6.644  69.539  1.00  0.00    -0.383 A  
HETATM   18  O   UNL     1      -9.376   9.087  72.141  1.00  0.00    -0.356 OA 
HETATM   19  O   UNL     1     -12.701  10.900  70.576  1.00  0.00    -0.323 OA 
HETATM   20  C   UNL     1     -10.464   5.685  68.811  1.00  0.00    -0.289 A  
HETATM   21  H   UNL     1      -8.989   9.027  73.007  1.00  0.00     0.000 HD 
HETATM   22  C   UNL     1      -9.232   6.009  68.254  1.00  0.00    -0.117 A  
HETATM   23  C   UNL     1      -8.726   7.297  68.405  1.00  0.00    -0.122 A  
HETATM   24  C   UNL     1      -9.435   8.256  69.139  1.00  0.00    -0.155 A  
ENDBRANCH  12  13
ENDBRANCH   6  12
TORSDOF 2
ENDMDL
MODEL       65
REMARK 921   NORMALIZED FREE ENERGY PREDICTED BY IDOCK:   -5.25 KCAL/MOL
REMARK 922        TOTAL FREE ENERGY PREDICTED BY IDOCK:   -6.38 KCAL/MOL
REMARK 923 INTER-LIGAND FREE ENERGY PREDICTED BY IDOCK:   -5.78 KCAL/MOL
REMARK 924 INTRA-LIGAND FREE ENERGY PREDICTED BY IDOCK:   -0.60 KCAL/MOL
REMARK 927      BINDING AFFINITY PREDICTED BY RF-SCORE:    0.00 PKD
ROOT
HETATM    1  C   UNL     1     -11.152  14.348  69.377  1.00  0.00    -0.261 C  
HETATM    2  N   UNL     1     -11.146  13.873  67.936  1.00  0.00    -0.251 N  
HETATM    3  C   UNL     1     -11.894  12.548  67.616  1.00  0.00    -0.317 C  
HETATM    4  C   UNL     1     -11.782  15.033  67.124  1.00  0.00    -0.215 C  
HETATM    5  C   UNL     1     -11.421  11.442  68.588  1.00  0.00    -0.359 C  
HETATM    6  C   UNL     1      -9.912  11.154  68.479  1.00  0.00    -0.199 C  
HETATM    7  C   UNL     1      -9.071  12.435  68.276  1.00  0.00    -0.183 C  
HETATM    8  O   UNL     1     -10.367  11.509  65.821  1.00  0.00    -0.232 OA 
HETATM    9  C   UNL     1      -9.763  13.479  67.346  1.00  0.00    -0.229 C  
HETATM   10  C   UNL     1     -11.515  12.274  66.159  1.00  0.00    -0.374 C  
HETATM   11  C   UNL     1     -10.127  12.897  65.979  1.00  0.00    -0.285 C  
ENDROOT
BRANCH   6  12
HETATM   12  O   UNL     1      -9.390  10.191  69.427  1.00  0.00    -0.201 OA 
BRANCH  12  13
HETATM   13  C   UNL     1      -8.541   9.206  69.067  1.00  0.00    -0.133 C  
HETATM   14  C   UNL     1     -10.018   7.374  70.278  1.00  0.00    -0.188 A  
HETATM   15  C   UNL     1      -9.166   7.810  69.082  1.00  0.00    -0.144 C  
HETATM   16  C   UNL     1      -9.882   7.531  67.756  1.00  0.00    -0.155 C  
HETATM   17  C   UNL     1      -9.827   6.078  70.796  1.00  0.00    -0.221 A  
HETATM   18  O   UNL     1     -11.149   8.177  67.663  1.00  0.00    -0.492 OA 
HETATM   19  O   UNL     1      -7.391   9.431  68.713  1.00  0.00    -0.073 OA 
HETATM   20  C   UNL     1     -10.700   5.535  71.745  1.00  0.00    -0.289 A  
HETATM   21  H   UNL     1     -11.593   8.005  66.840  1.00  0.00     0.000 HD 
HETATM   22  C   UNL     1     -11.780   6.282  72.203  1.00  0.00    -0.368 A  
HETATM   23  C   UNL     1     -11.969   7.578  71.731  1.00  0.00    -0.334 A  
HETATM   24  C   UNL     1     -11.098   8.120  70.777  1.00  0.00    -0.275 A  
ENDBRANCH  12  13
ENDBRANCH   6  12
TORSDOF 2
ENDMDL
MODEL       66
REMARK 921   NORMALIZED FREE ENERGY PREDICTED BY IDOCK:   -5.24 KCAL/MOL
REMARK 922        TOTAL FREE ENERGY PREDICTED BY IDOCK:   -6.36 KCAL/MOL
REMARK 923 INTER-LIGAND FREE ENERGY PREDICTED BY IDOCK:   -5.98 KCAL/MOL
REMARK 924 INTRA-LIGAND FREE ENERGY PREDICTED BY IDOCK:   -0.38 KCAL/MOL
REMARK 927      BINDING AFFINITY PREDICTED BY RF-SCORE:    0.00 PKD
ROOT
HETATM    1  C   UNL     1      -7.534   8.747  68.784  1.00  0.00    -0.084 C  
HETATM    2  N   UNL     1      -8.441   7.647  68.268  1.00  0.00    -0.125 N  
HETATM    3  C   UNL     1      -8.988   7.791  66.819  1.00  0.00    -0.139 C  
HETATM    4  C   UNL     1      -7.602   6.346  68.373  1.00  0.00    -0.100 C  
HETATM    5  C   UNL     1      -9.625   9.191  66.646  1.00  0.00    -0.263 C  
HETATM    6  C   UNL     1     -10.803   9.435  67.608  1.00  0.00    -0.154 C  
HETATM    7  C   UNL     1     -10.555   8.852  69.018  1.00  0.00    -0.203 C  
HETATM    8  O   UNL     1     -11.366   6.831  67.064  1.00  0.00    -0.337 OA 
HETATM    9  C   UNL     1      -9.807   7.483  68.991  1.00  0.00    -0.170 C  
HETATM   10  C   UNL     1     -10.002   6.649  66.712  1.00  0.00    -0.176 C  
HETATM   11  C   UNL     1     -10.525   6.438  68.136  1.00  0.00    -0.218 C  
ENDROOT
BRANCH   6  12
HETATM   12  O   UNL     1     -11.384  10.761  67.558  1.00  0.00    -0.408 OA 
BRANCH  12  13
HETATM   13  C   UNL     1     -10.999  11.687  66.655  1.00  0.00    -0.299 C  
HETATM   14  C   UNL     1     -11.300  13.645  68.410  1.00  0.00    -0.329 A  
HETATM   15  C   UNL     1     -10.501  12.992  67.278  1.00  0.00    -0.238 C  
HETATM   16  C   UNL     1      -9.015  12.880  67.637  1.00  0.00    -0.192 C  
HETATM   17  C   UNL     1     -11.496  15.040  68.369  1.00  0.00    -0.340 A  
HETATM   18  O   UNL     1      -8.788  12.137  68.833  1.00  0.00    -0.379 OA 
HETATM   19  O   UNL     1     -11.005  11.469  65.451  1.00  0.00    -0.282 OA 
HETATM   20  C   UNL     1     -12.031  15.734  69.460  1.00  0.00    -0.326 A  
HETATM   21  H   UNL     1      -7.867  12.067  69.055  1.00  0.00     0.000 HD 
HETATM   22  C   UNL     1     -12.391  15.045  70.613  1.00  0.00    -0.404 A  
HETATM   23  C   UNL     1     -12.239  13.662  70.663  1.00  0.00    -0.434 A  
HETATM   24  C   UNL     1     -11.697  12.967  69.574  1.00  0.00    -0.381 A  
ENDBRANCH  12  13
ENDBRANCH   6  12
TORSDOF 2
ENDMDL
MODEL       67
REMARK 921   NORMALIZED FREE ENERGY PREDICTED BY IDOCK:   -5.21 KCAL/MOL
REMARK 922        TOTAL FREE ENERGY PREDICTED BY IDOCK:   -6.33 KCAL/MOL
REMARK 923 INTER-LIGAND FREE ENERGY PREDICTED BY IDOCK:   -6.01 KCAL/MOL
REMARK 924 INTRA-LIGAND FREE ENERGY PREDICTED BY IDOCK:   -0.31 KCAL/MOL
REMARK 927      BINDING AFFINITY PREDICTED BY RF-SCORE:    0.00 PKD
ROOT
HETATM    1  C   UNL     1     -10.933  16.397  64.739  1.00  0.00    -0.231 C  
HETATM    2  N   UNL     1     -10.517  16.846  66.127  1.00  0.00    -0.305 N  
HETATM    3  C   UNL     1      -9.141  16.351  66.657  1.00  0.00    -0.250 C  
HETATM    4  C   UNL     1     -10.518  18.397  66.069  1.00  0.00    -0.374 C  
HETATM    5  C   UNL     1      -9.050  14.815  66.498  1.00  0.00    -0.291 C  
HETATM    6  C   UNL     1     -10.142  14.066  67.286  1.00  0.00    -0.249 C  
HETATM    7  C   UNL     1     -11.510  14.782  67.240  1.00  0.00    -0.378 C  
HETATM    8  O   UNL     1      -9.650  15.979  69.155  1.00  0.00    -0.231 OA 
HETATM    9  C   UNL     1     -11.390  16.336  67.307  1.00  0.00     0.164 C  
HETATM   10  C   UNL     1      -9.144  16.808  68.118  1.00  0.00    -0.227 C  
HETATM   11  C   UNL     1     -10.616  16.813  68.537  1.00  0.00    -0.354 C  
ENDROOT
BRANCH   6  12
HETATM   12  O   UNL     1     -10.166  12.629  67.106  1.00  0.00    -0.223 OA 
BRANCH  12  13
HETATM   13  C   UNL     1     -11.313  11.920  67.091  1.00  0.00    -0.331 C  
HETATM   14  C   UNL     1     -10.338  10.146  68.796  1.00  0.00    -0.211 A  
HETATM   15  C   UNL     1     -11.502  11.016  68.311  1.00  0.00    -0.374 C  
HETATM   16  C   UNL     1     -12.128  11.804  69.466  1.00  0.00    -0.250 C  
HETATM   17  C   UNL     1     -10.609   8.811  69.157  1.00  0.00    -0.200 A  
HETATM   18  O   UNL     1     -11.192  12.641  70.140  1.00  0.00    -0.461 OA 
HETATM   19  O   UNL     1     -12.144  12.037  66.199  1.00  0.00    -0.582 OA 
HETATM   20  C   UNL     1      -9.651   8.020  69.800  1.00  0.00    -0.171 A  
HETATM   21  H   UNL     1     -11.580  13.130  70.856  1.00  0.00     0.000 HD 
HETATM   22  C   UNL     1      -8.395   8.545  70.086  1.00  0.00    -0.123 A  
HETATM   23  C   UNL     1      -8.093   9.850  69.707  1.00  0.00    -0.185 A  
HETATM   24  C   UNL     1      -9.054  10.645  69.069  1.00  0.00    -0.174 A  
ENDBRANCH  12  13
ENDBRANCH   6  12
TORSDOF 2
ENDMDL
MODEL       68
REMARK 921   NORMALIZED FREE ENERGY PREDICTED BY IDOCK:   -5.20 KCAL/MOL
REMARK 922        TOTAL FREE ENERGY PREDICTED BY IDOCK:   -6.32 KCAL/MOL
REMARK 923 INTER-LIGAND FREE ENERGY PREDICTED BY IDOCK:   -5.76 KCAL/MOL
REMARK 924 INTRA-LIGAND FREE ENERGY PREDICTED BY IDOCK:   -0.56 KCAL/MOL
REMARK 927      BINDING AFFINITY PREDICTED BY RF-SCORE:    0.00 PKD
ROOT
HETATM    1  C   UNL     1      -9.068   4.163  68.758  1.00  0.00    -0.133 C  
HETATM    2  N   UNL     1      -8.293   3.740  69.991  1.00  0.00    -0.055 N  
HETATM    3  C   UNL     1      -9.091   3.570  71.316  1.00  0.00    -0.112 C  
HETATM    4  C   UNL     1      -7.633   2.387  69.611  1.00  0.00    -0.043 C  
HETATM    5  C   UNL     1      -9.935   4.840  71.574  1.00  0.00    -0.263 C  
HETATM    6  C   UNL     1      -9.075   6.111  71.717  1.00  0.00    -0.144 C  
HETATM    7  C   UNL     1      -7.888   6.144  70.728  1.00  0.00    -0.103 C  
HETATM    8  O   UNL     1      -7.401   4.438  73.055  1.00  0.00    -0.072 OA 
HETATM    9  C   UNL     1      -7.230   4.745  70.516  1.00  0.00    -0.049 C  
HETATM   10  C   UNL     1      -7.994   3.350  72.360  1.00  0.00    -0.067 C  
HETATM   11  C   UNL     1      -6.772   4.106  71.828  1.00  0.00    -0.030 C  
ENDROOT
BRANCH   6  12
HETATM   12  O   UNL     1      -9.813   7.348  71.871  1.00  0.00    -0.162 OA 
BRANCH  12  13
HETATM   13  C   UNL     1     -10.811   7.489  72.767  1.00  0.00    -0.346 C  
HETATM   14  C   UNL     1     -11.859   9.505  71.409  1.00  0.00    -0.464 A  
HETATM   15  C   UNL     1     -12.040   8.218  72.220  1.00  0.00    -0.439 C  
HETATM   16  C   UNL     1     -12.968   7.233  71.501  1.00  0.00    -0.389 C  
HETATM   17  C   UNL     1     -12.718  10.589  71.678  1.00  0.00    -0.550 A  
HETATM   18  O   UNL     1     -12.505   6.882  70.199  1.00  0.00    -0.602 OA 
HETATM   19  O   UNL     1     -10.746   7.026  73.898  1.00  0.00    -0.324 OA 
HETATM   20  C   UNL     1     -12.754  11.715  70.849  1.00  0.00    -0.351 A  
HETATM   21  H   UNL     1     -13.080   6.271  69.753  1.00  0.00     0.000 HD 
HETATM   22  C   UNL     1     -11.922  11.786  69.737  1.00  0.00    -0.392 A  
HETATM   23  C   UNL     1     -11.039  10.743  69.471  1.00  0.00    -0.334 A  
HETATM   24  C   UNL     1     -11.008   9.612  70.297  1.00  0.00    -0.337 A  
ENDBRANCH  12  13
ENDBRANCH   6  12
TORSDOF 2
ENDMDL
MODEL       69
REMARK 921   NORMALIZED FREE ENERGY PREDICTED BY IDOCK:   -5.18 KCAL/MOL
REMARK 922        TOTAL FREE ENERGY PREDICTED BY IDOCK:   -6.29 KCAL/MOL
REMARK 923 INTER-LIGAND FREE ENERGY PREDICTED BY IDOCK:   -6.11 KCAL/MOL
REMARK 924 INTRA-LIGAND FREE ENERGY PREDICTED BY IDOCK:   -0.18 KCAL/MOL
REMARK 927      BINDING AFFINITY PREDICTED BY RF-SCORE:    0.00 PKD
ROOT
HETATM    1  C   UNL     1      -7.813   8.510  71.743  1.00  0.00    -0.120 C  
HETATM    2  N   UNL     1      -9.165   7.892  72.047  1.00  0.00    -0.143 N  
HETATM    3  C   UNL     1      -9.698   6.815  71.060  1.00  0.00    -0.174 C  
HETATM    4  C   UNL     1      -9.018   7.268  73.460  1.00  0.00    -0.174 C  
HETATM    5  C   UNL     1      -9.627   7.361  69.615  1.00  0.00    -0.156 C  
HETATM    6  C   UNL     1     -10.477   8.629  69.411  1.00  0.00    -0.218 C  
HETATM    7  C   UNL     1     -10.414   9.592  70.618  1.00  0.00    -0.374 C  
HETATM    8  O   UNL     1     -12.222   7.330  71.042  1.00  0.00    -0.328 OA 
HETATM    9  C   UNL     1     -10.389   8.850  71.991  1.00  0.00    -0.307 C  
HETATM   10  C   UNL     1     -11.130   6.574  71.545  1.00  0.00    -0.265 C  
HETATM   11  C   UNL     1     -11.575   7.901  72.167  1.00  0.00    -0.328 C  
ENDROOT
BRANCH   6  12
HETATM   12  O   UNL     1     -10.380   9.241  68.101  1.00  0.00    -0.196 OA 
BRANCH  12  13
HETATM   13  C   UNL     1     -10.490   8.529  66.960  1.00  0.00    -0.292 C  
HETATM   14  C   UNL     1     -10.209  10.704  65.478  1.00  0.00    -0.329 A  
HETATM   15  C   UNL     1      -9.899   9.226  65.733  1.00  0.00    -0.302 C  
HETATM   16  C   UNL     1      -8.395   8.947  65.635  1.00  0.00    -0.139 C  
HETATM   17  C   UNL     1     -10.529  11.101  64.164  1.00  0.00    -0.442 A  
HETATM   18  O   UNL     1      -7.625   9.731  66.543  1.00  0.00    -0.097 OA 
HETATM   19  O   UNL     1     -10.978   7.407  66.933  1.00  0.00    -0.324 OA 
HETATM   20  C   UNL     1     -10.622  12.452  63.812  1.00  0.00    -0.486 A  
HETATM   21  H   UNL     1      -6.692   9.558  66.483  1.00  0.00     0.000 HD 
HETATM   22  C   UNL     1     -10.405  13.436  64.770  1.00  0.00    -0.397 A  
HETATM   23  C   UNL     1     -10.122  13.068  66.082  1.00  0.00    -0.287 A  
HETATM   24  C   UNL     1     -10.023  11.715  66.434  1.00  0.00    -0.235 A  
ENDBRANCH  12  13
ENDBRANCH   6  12
TORSDOF 2
ENDMDL
MODEL       70
REMARK 921   NORMALIZED FREE ENERGY PREDICTED BY IDOCK:   -5.18 KCAL/MOL
REMARK 922        TOTAL FREE ENERGY PREDICTED BY IDOCK:   -6.29 KCAL/MOL
REMARK 923 INTER-LIGAND FREE ENERGY PREDICTED BY IDOCK:   -6.00 KCAL/MOL
REMARK 924 INTRA-LIGAND FREE ENERGY PREDICTED BY IDOCK:   -0.29 KCAL/MOL
REMARK 927      BINDING AFFINITY PREDICTED BY RF-SCORE:    0.00 PKD
ROOT
HETATM    1  C   UNL     1      -7.328   9.464  67.757  1.00  0.00    -0.083 C  
HETATM    2  N   UNL     1      -7.559   9.368  66.261  1.00  0.00    -0.096 N  
HETATM    3  C   UNL     1      -7.807  10.695  65.487  1.00  0.00    -0.099 C  
HETATM    4  C   UNL     1      -6.291   8.673  65.698  1.00  0.00    -0.056 C  
HETATM    5  C   UNL     1      -8.924  11.500  66.192  1.00  0.00    -0.201 C  
HETATM    6  C   UNL     1     -10.265  10.743  66.244  1.00  0.00    -0.245 C  
HETATM    7  C   UNL     1     -10.089   9.233  66.523  1.00  0.00    -0.343 C  
HETATM    8  O   UNL     1      -9.551   9.960  63.740  1.00  0.00    -0.237 OA 
HETATM    9  C   UNL     1      -8.845   8.620  65.808  1.00  0.00    -0.193 C  
HETATM   10  C   UNL     1      -8.198  10.216  64.087  1.00  0.00    -0.165 C  
HETATM   11  C   UNL     1      -8.863   8.853  64.297  1.00  0.00     0.019 C  
ENDROOT
BRANCH   6  12
HETATM   12  O   UNL     1     -11.327  11.408  66.971  1.00  0.00    -0.369 OA 
BRANCH  12  13
HETATM   13  C   UNL     1     -11.519  12.742  66.915  1.00  0.00    -0.340 C  
HETATM   14  C   UNL     1     -12.095  12.853  69.496  1.00  0.00    -0.274 A  
HETATM   15  C   UNL     1     -11.397  13.445  68.268  1.00  0.00    -0.330 C  
HETATM   16  C   UNL     1      -9.931  13.776  68.567  1.00  0.00    -0.217 C  
HETATM   17  C   UNL     1     -12.785  13.729  70.358  1.00  0.00    -0.245 A  
HETATM   18  O   UNL     1      -9.184  12.644  69.005  1.00  0.00    -0.358 OA 
HETATM   19  O   UNL     1     -11.722  13.330  65.861  1.00  0.00    -0.334 OA 
HETATM   20  C   UNL     1     -13.269  13.301  71.599  1.00  0.00    -0.446 A  
HETATM   21  H   UNL     1      -8.275  12.849  69.190  1.00  0.00     0.000 HD 
HETATM   22  C   UNL     1     -13.082  11.982  72.000  1.00  0.00    -0.456 A  
HETATM   23  C   UNL     1     -12.435  11.090  71.150  1.00  0.00    -0.502 A  
HETATM   24  C   UNL     1     -11.945  11.520  69.910  1.00  0.00    -0.426 A  
ENDBRANCH  12  13
ENDBRANCH   6  12
TORSDOF 2
ENDMDL
MODEL       71
REMARK 921   NORMALIZED FREE ENERGY PREDICTED BY IDOCK:   -5.16 KCAL/MOL
REMARK 922        TOTAL FREE ENERGY PREDICTED BY IDOCK:   -6.28 KCAL/MOL
REMARK 923 INTER-LIGAND FREE ENERGY PREDICTED BY IDOCK:   -6.11 KCAL/MOL
REMARK 924 INTRA-LIGAND FREE ENERGY PREDICTED BY IDOCK:   -0.17 KCAL/MOL
REMARK 927      BINDING AFFINITY PREDICTED BY RF-SCORE:    0.00 PKD
ROOT
HETATM    1  C   UNL     1     -11.250   8.451  70.318  1.00  0.00    -0.173 C  
HETATM    2  N   UNL     1     -10.198   7.483  69.810  1.00  0.00    -0.206 N  
HETATM    3  C   UNL     1      -8.719   7.966  69.812  1.00  0.00    -0.137 C  
HETATM    4  C   UNL     1     -10.331   6.229  70.714  1.00  0.00    -0.206 C  
HETATM    5  C   UNL     1      -8.626   9.340  69.108  1.00  0.00    -0.134 C  
HETATM    6  C   UNL     1      -9.090   9.292  67.639  1.00  0.00    -0.125 C  
HETATM    7  C   UNL     1     -10.323   8.384  67.431  1.00  0.00    -0.355 C  
HETATM    8  O   UNL     1      -7.818   6.889  67.654  1.00  0.00    -0.109 OA 
HETATM    9  C   UNL     1     -10.287   7.094  68.307  1.00  0.00    -0.195 C  
HETATM   10  C   UNL     1      -7.986   6.851  69.064  1.00  0.00    -0.116 C  
HETATM   11  C   UNL     1      -9.016   6.271  68.091  1.00  0.00    -0.115 C  
ENDROOT
BRANCH   6  12
HETATM   12  O   UNL     1      -9.111  10.566  66.951  1.00  0.00    -0.146 OA 
BRANCH  12  13
HETATM   13  C   UNL     1      -9.150  11.744  67.608  1.00  0.00    -0.177 C  
HETATM   14  C   UNL     1     -10.930  12.726  65.914  1.00  0.00    -0.303 A  
HETATM   15  C   UNL     1     -10.417  12.560  67.347  1.00  0.00    -0.231 C  
HETATM   16  C   UNL     1     -11.540  12.118  68.293  1.00  0.00    -0.325 C  
HETATM   17  C   UNL     1     -11.365  14.003  65.505  1.00  0.00    -0.313 A  
HETATM   18  O   UNL     1     -12.155  10.896  67.891  1.00  0.00    -0.736 OA 
HETATM   19  O   UNL     1      -8.265  12.093  68.379  1.00  0.00    -0.154 OA 
HETATM   20  C   UNL     1     -12.033  14.193  64.291  1.00  0.00    -0.460 A  
HETATM   21  H   UNL     1     -12.850  10.621  68.477  1.00  0.00     0.000 HD 
HETATM   22  C   UNL     1     -12.274  13.109  63.454  1.00  0.00    -0.521 A  
HETATM   23  C   UNL     1     -11.823  11.843  63.820  1.00  0.00    -0.558 A  
HETATM   24  C   UNL     1     -11.158  11.652  65.038  1.00  0.00    -0.312 A  
ENDBRANCH  12  13
ENDBRANCH   6  12
TORSDOF 2
ENDMDL
MODEL       72
REMARK 921   NORMALIZED FREE ENERGY PREDICTED BY IDOCK:   -5.16 KCAL/MOL
REMARK 922        TOTAL FREE ENERGY PREDICTED BY IDOCK:   -6.27 KCAL/MOL
REMARK 923 INTER-LIGAND FREE ENERGY PREDICTED BY IDOCK:   -5.77 KCAL/MOL
REMARK 924 INTRA-LIGAND FREE ENERGY PREDICTED BY IDOCK:   -0.50 KCAL/MOL
REMARK 927      BINDING AFFINITY PREDICTED BY RF-SCORE:    0.00 PKD
ROOT
HETATM    1  C   UNL     1     -10.159  13.955  68.653  1.00  0.00    -0.203 C  
HETATM    2  N   UNL     1     -10.595  13.744  67.216  1.00  0.00    -0.273 N  
HETATM    3  C   UNL     1     -11.912  12.953  66.975  1.00  0.00    -0.325 C  
HETATM    4  C   UNL     1     -10.734  15.171  66.621  1.00  0.00    -0.310 C  
HETATM    5  C   UNL     1     -11.866  11.624  67.764  1.00  0.00    -0.247 C  
HETATM    6  C   UNL     1     -10.700  10.713  67.333  1.00  0.00    -0.276 C  
HETATM    7  C   UNL     1      -9.402  11.500  67.042  1.00  0.00    -0.185 C  
HETATM    8  O   UNL     1     -11.337  11.618  64.849  1.00  0.00    -0.272 OA 
HETATM    9  C   UNL     1      -9.662  12.867  66.335  1.00  0.00    -0.263 C  
HETATM   10  C   UNL     1     -11.930  12.756  65.458  1.00  0.00    -0.449 C  
HETATM   11  C   UNL     1     -10.458  12.715  65.038  1.00  0.00    -0.308 C  
ENDROOT
BRANCH   6  12
HETATM   12  O   UNL     1     -10.548   9.491  68.096  1.00  0.00    -0.213 OA 
BRANCH  12  13
HETATM   13  C   UNL     1     -10.115   8.340  67.543  1.00  0.00    -0.225 C  
HETATM   14  C   UNL     1      -9.087   7.523  69.841  1.00  0.00    -0.144 A  
HETATM   15  C   UNL     1      -9.860   7.221  68.554  1.00  0.00    -0.159 C  
HETATM   16  C   UNL     1     -11.160   6.464  68.850  1.00  0.00    -0.348 C  
HETATM   17  C   UNL     1      -8.101   6.606  70.257  1.00  0.00    -0.121 A  
HETATM   18  O   UNL     1     -12.024   7.170  69.737  1.00  0.00    -0.514 OA 
HETATM   19  O   UNL     1      -9.988   8.203  66.333  1.00  0.00    -0.240 OA 
HETATM   20  C   UNL     1      -7.500   6.703  71.517  1.00  0.00    -0.088 A  
HETATM   21  H   UNL     1     -12.830   6.701  69.920  1.00  0.00     0.000 HD 
HETATM   22  C   UNL     1      -7.866   7.726  72.385  1.00  0.00    -0.129 A  
HETATM   23  C   UNL     1      -8.812   8.664  71.981  1.00  0.00    -0.264 A  
HETATM   24  C   UNL     1      -9.418   8.565  70.722  1.00  0.00    -0.213 A  
ENDBRANCH  12  13
ENDBRANCH   6  12
TORSDOF 2
ENDMDL
MODEL       73
REMARK 921   NORMALIZED FREE ENERGY PREDICTED BY IDOCK:   -5.14 KCAL/MOL
REMARK 922        TOTAL FREE ENERGY PREDICTED BY IDOCK:   -6.25 KCAL/MOL
REMARK 923 INTER-LIGAND FREE ENERGY PREDICTED BY IDOCK:   -5.84 KCAL/MOL
REMARK 924 INTRA-LIGAND FREE ENERGY PREDICTED BY IDOCK:   -0.41 KCAL/MOL
REMARK 927      BINDING AFFINITY PREDICTED BY RF-SCORE:    0.00 PKD
ROOT
HETATM    1  C   UNL     1      -8.161  13.288  67.925  1.00  0.00    -0.159 C  
HETATM    2  N   UNL     1      -9.521  13.740  67.432  1.00  0.00    -0.216 N  
HETATM    3  C   UNL     1     -10.766  13.283  68.245  1.00  0.00    -0.252 C  
HETATM    4  C   UNL     1      -9.455  15.290  67.420  1.00  0.00    -0.199 C  
HETATM    5  C   UNL     1     -10.710  11.752  68.456  1.00  0.00    -0.251 C  
HETATM    6  C   UNL     1     -10.714  10.965  67.131  1.00  0.00    -0.270 C  
HETATM    7  C   UNL     1      -9.862  11.639  66.032  1.00  0.00    -0.258 C  
HETATM    8  O   UNL     1     -12.490  12.879  66.374  1.00  0.00    -0.422 OA 
HETATM    9  C   UNL     1      -9.968  13.195  66.045  1.00  0.00    -0.280 C  
HETATM   10  C   UNL     1     -11.940  13.730  67.369  1.00  0.00    -0.388 C  
HETATM   11  C   UNL     1     -11.411  13.687  65.933  1.00  0.00    -0.316 C  
ENDROOT
BRANCH   6  12
HETATM   12  O   UNL     1     -10.572   9.529  67.260  1.00  0.00    -0.264 OA 
BRANCH  12  13
HETATM   13  C   UNL     1      -9.396   8.942  67.565  1.00  0.00    -0.136 C  
HETATM   14  C   UNL     1     -10.212   8.394  70.022  1.00  0.00    -0.202 A  
HETATM   15  C   UNL     1      -9.473   7.975  68.748  1.00  0.00    -0.147 C  
HETATM   16  C   UNL     1      -9.920   6.587  68.275  1.00  0.00    -0.143 C  
HETATM   17  C   UNL     1      -9.611   8.110  71.266  1.00  0.00    -0.203 A  
HETATM   18  O   UNL     1     -11.321   6.511  68.026  1.00  0.00    -0.541 OA 
HETATM   19  O   UNL     1      -8.378   9.138  66.913  1.00  0.00    -0.117 OA 
HETATM   20  C   UNL     1     -10.309   8.272  72.467  1.00  0.00    -0.401 A  
HETATM   21  H   UNL     1     -11.599   5.651  67.732  1.00  0.00     0.000 HD 
HETATM   22  C   UNL     1     -11.622   8.730  72.452  1.00  0.00    -0.321 A  
HETATM   23  C   UNL     1     -12.224   9.051  71.238  1.00  0.00    -0.373 A  
HETATM   24  C   UNL     1     -11.528   8.883  70.034  1.00  0.00     0.021 A  
ENDBRANCH  12  13
ENDBRANCH   6  12
TORSDOF 2
ENDMDL
MODEL       74
REMARK 921   NORMALIZED FREE ENERGY PREDICTED BY IDOCK:   -5.11 KCAL/MOL
REMARK 922        TOTAL FREE ENERGY PREDICTED BY IDOCK:   -6.22 KCAL/MOL
REMARK 923 INTER-LIGAND FREE ENERGY PREDICTED BY IDOCK:   -5.44 KCAL/MOL
REMARK 924 INTRA-LIGAND FREE ENERGY PREDICTED BY IDOCK:   -0.78 KCAL/MOL
REMARK 927      BINDING AFFINITY PREDICTED BY RF-SCORE:    0.00 PKD
ROOT
HETATM    1  C   UNL     1     -11.771  10.224  70.759  1.00  0.00    -0.360 C  
HETATM    2  N   UNL     1     -11.247   8.873  71.206  1.00  0.00    -0.274 N  
HETATM    3  C   UNL     1      -9.757   8.791  71.644  1.00  0.00    -0.296 C  
HETATM    4  C   UNL     1     -12.155   8.459  72.395  1.00  0.00    -0.378 C  
HETATM    5  C   UNL     1      -8.864   9.421  70.548  1.00  0.00    -0.287 C  
HETATM    6  C   UNL     1      -8.984   8.700  69.192  1.00  0.00    -0.142 C  
HETATM    7  C   UNL     1     -10.431   8.264  68.872  1.00  0.00    -0.209 C  
HETATM    8  O   UNL     1      -9.078   6.473  70.749  1.00  0.00    -0.153 OA 
HETATM    9  C   UNL     1     -11.208   7.756  70.126  1.00  0.00    -0.159 C  
HETATM   10  C   UNL     1      -9.525   7.289  71.822  1.00  0.00    -0.150 C  
HETATM   11  C   UNL     1     -10.486   6.612  70.840  1.00  0.00    -0.215 C  
ENDROOT
BRANCH   6  12
HETATM   12  O   UNL     1      -8.240   9.297  68.101  1.00  0.00    -0.117 OA 
BRANCH  12  13
HETATM   13  C   UNL     1      -8.119   8.703  66.896  1.00  0.00    -0.098 C  
HETATM   14  C   UNL     1      -9.536  10.603  65.721  1.00  0.00    -0.258 A  
HETATM   15  C   UNL     1      -8.341   9.645  65.712  1.00  0.00    -0.132 C  
HETATM   16  C   UNL     1      -7.042  10.378  65.362  1.00  0.00    -0.117 C  
HETATM   17  C   UNL     1     -10.289  10.741  64.537  1.00  0.00    -0.401 A  
HETATM   18  O   UNL     1      -6.751  11.450  66.256  1.00  0.00    -0.331 OA 
HETATM   19  O   UNL     1      -7.808   7.525  66.776  1.00  0.00    -0.106 OA 
HETATM   20  C   UNL     1     -11.259  11.740  64.401  1.00  0.00    -0.383 A  
HETATM   21  H   UNL     1      -5.945  11.905  66.039  1.00  0.00     0.000 HD 
HETATM   22  C   UNL     1     -11.504  12.618  65.452  1.00  0.00    -0.373 A  
HETATM   23  C   UNL     1     -10.798  12.479  66.643  1.00  0.00    -0.277 A  
HETATM   24  C   UNL     1      -9.822  11.483  66.778  1.00  0.00    -0.227 A  
ENDBRANCH  12  13
ENDBRANCH   6  12
TORSDOF 2
ENDMDL
MODEL       75
REMARK 921   NORMALIZED FREE ENERGY PREDICTED BY IDOCK:   -5.08 KCAL/MOL
REMARK 922        TOTAL FREE ENERGY PREDICTED BY IDOCK:   -6.19 KCAL/MOL
REMARK 923 INTER-LIGAND FREE ENERGY PREDICTED BY IDOCK:   -5.72 KCAL/MOL
REMARK 924 INTRA-LIGAND FREE ENERGY PREDICTED BY IDOCK:   -0.47 KCAL/MOL
REMARK 927      BINDING AFFINITY PREDICTED BY RF-SCORE:    0.00 PKD
ROOT
HETATM    1  C   UNL     1     -11.296   4.902  72.856  1.00  0.00    -0.216 C  
HETATM    2  N   UNL     1     -10.105   5.751  73.258  1.00  0.00    -0.180 N  
HETATM    3  C   UNL     1     -10.369   7.249  73.579  1.00  0.00    -0.366 C  
HETATM    4  C   UNL     1      -9.514   5.052  74.511  1.00  0.00    -0.132 C  
HETATM    5  C   UNL     1     -11.168   7.891  72.421  1.00  0.00    -0.409 C  
HETATM    6  C   UNL     1     -10.419   7.836  71.075  1.00  0.00    -0.203 C  
HETATM    7  C   UNL     1      -9.663   6.505  70.865  1.00  0.00    -0.190 C  
HETATM    8  O   UNL     1      -8.251   8.366  72.628  1.00  0.00    -0.229 OA 
HETATM    9  C   UNL     1      -9.010   5.960  72.174  1.00  0.00    -0.143 C  
HETATM   10  C   UNL     1      -8.961   7.828  73.735  1.00  0.00    -0.277 C  
HETATM   11  C   UNL     1      -8.070   6.974  72.828  1.00  0.00    -0.107 C  
ENDROOT
BRANCH   6  12
HETATM   12  O   UNL     1     -11.153   8.340  69.932  1.00  0.00    -0.210 OA 
BRANCH  12  13
HETATM   13  C   UNL     1     -10.641   8.338  68.684  1.00  0.00    -0.108 C  
HETATM   14  C   UNL     1     -10.915  10.963  68.477  1.00  0.00    -0.278 A  
HETATM   15  C   UNL     1     -10.092   9.694  68.235  1.00  0.00    -0.203 C  
HETATM   16  C   UNL     1      -8.646   9.868  68.712  1.00  0.00    -0.130 C  
HETATM   17  C   UNL     1     -11.006  11.907  67.435  1.00  0.00    -0.315 A  
HETATM   18  O   UNL     1      -8.555  10.206  70.094  1.00  0.00    -0.353 OA 
HETATM   19  O   UNL     1     -10.583   7.323  68.002  1.00  0.00    -0.208 OA 
HETATM   20  C   UNL     1     -11.561  13.174  67.645  1.00  0.00    -0.392 A  
HETATM   21  H   UNL     1      -7.659  10.314  70.391  1.00  0.00     0.000 HD 
HETATM   22  C   UNL     1     -12.046  13.521  68.901  1.00  0.00    -0.315 A  
HETATM   23  C   UNL     1     -12.000  12.591  69.936  1.00  0.00    -0.371 A  
HETATM   24  C   UNL     1     -11.439  11.324  69.728  1.00  0.00    -0.386 A  
ENDBRANCH  12  13
ENDBRANCH   6  12
TORSDOF 2
ENDMDL
MODEL       76
REMARK 921   NORMALIZED FREE ENERGY PREDICTED BY IDOCK:   -5.06 KCAL/MOL
REMARK 922        TOTAL FREE ENERGY PREDICTED BY IDOCK:   -6.16 KCAL/MOL
REMARK 923 INTER-LIGAND FREE ENERGY PREDICTED BY IDOCK:   -5.36 KCAL/MOL
REMARK 924 INTRA-LIGAND FREE ENERGY PREDICTED BY IDOCK:   -0.80 KCAL/MOL
REMARK 927      BINDING AFFINITY PREDICTED BY RF-SCORE:    0.00 PKD
ROOT
HETATM    1  C   UNL     1      -9.897   8.806  66.415  1.00  0.00    -0.282 C  
HETATM    2  N   UNL     1      -8.555   8.896  67.115  1.00  0.00    -0.110 N  
HETATM    3  C   UNL     1      -8.563   9.106  68.656  1.00  0.00    -0.128 C  
HETATM    4  C   UNL     1      -7.832   7.564  66.781  1.00  0.00    -0.110 C  
HETATM    5  C   UNL     1      -9.476  10.303  69.008  1.00  0.00    -0.206 C  
HETATM    6  C   UNL     1      -9.005  11.624  68.369  1.00  0.00    -0.176 C  
HETATM    7  C   UNL     1      -8.475  11.435  66.929  1.00  0.00    -0.157 C  
HETATM    8  O   UNL     1      -6.536  10.662  68.980  1.00  0.00    -0.055 OA 
HETATM    9  C   UNL     1      -7.664  10.116  66.744  1.00  0.00    -0.105 C  
HETATM   10  C   UNL     1      -7.088   9.354  68.984  1.00  0.00    -0.066 C  
HETATM   11  C   UNL     1      -6.498  10.000  67.727  1.00  0.00    -0.066 C  
ENDROOT
BRANCH   6  12
HETATM   12  O   UNL     1      -9.870  12.765  68.587  1.00  0.00    -0.173 OA 
BRANCH  12  13
HETATM   13  C   UNL     1      -9.449  14.035  68.420  1.00  0.00    -0.213 C  
HETATM   14  C   UNL     1     -11.045  14.379  66.337  1.00  0.00    -0.326 A  
HETATM   15  C   UNL     1     -10.420  14.914  67.629  1.00  0.00    -0.249 C  
HETATM   16  C   UNL     1     -11.485  15.503  68.561  1.00  0.00    -0.361 C  
HETATM   17  C   UNL     1     -11.109  15.239  65.222  1.00  0.00    -0.382 A  
HETATM   18  O   UNL     1     -12.501  14.564  68.907  1.00  0.00    -0.573 OA 
HETATM   19  O   UNL     1      -8.404  14.448  68.905  1.00  0.00    -0.148 OA 
HETATM   20  C   UNL     1     -11.843  14.901  64.080  1.00  0.00    -0.202 A  
HETATM   21  H   UNL     1     -13.161  14.929  69.485  1.00  0.00     0.000 HD 
HETATM   22  C   UNL     1     -12.523  13.688  64.025  1.00  0.00    -0.285 A  
HETATM   23  C   UNL     1     -12.445  12.807  65.100  1.00  0.00    -0.565 A  
HETATM   24  C   UNL     1     -11.715  13.148  66.246  1.00  0.00    -0.424 A  
ENDBRANCH  12  13
ENDBRANCH   6  12
TORSDOF 2
ENDMDL
MODEL       77
REMARK 921   NORMALIZED FREE ENERGY PREDICTED BY IDOCK:   -5.03 KCAL/MOL
REMARK 922        TOTAL FREE ENERGY PREDICTED BY IDOCK:   -6.13 KCAL/MOL
REMARK 923 INTER-LIGAND FREE ENERGY PREDICTED BY IDOCK:   -5.77 KCAL/MOL
REMARK 924 INTRA-LIGAND FREE ENERGY PREDICTED BY IDOCK:   -0.35 KCAL/MOL
REMARK 927      BINDING AFFINITY PREDICTED BY RF-SCORE:    0.00 PKD
ROOT
HETATM    1  C   UNL     1      -7.781   7.291  68.749  1.00  0.00    -0.119 C  
HETATM    2  N   UNL     1      -8.579   7.398  70.034  1.00  0.00    -0.138 N  
HETATM    3  C   UNL     1     -10.128   7.461  69.912  1.00  0.00    -0.195 C  
HETATM    4  C   UNL     1      -8.179   6.151  70.866  1.00  0.00    -0.126 C  
HETATM    5  C   UNL     1     -10.520   8.561  68.897  1.00  0.00    -0.207 C  
HETATM    6  C   UNL     1     -10.036   9.962  69.317  1.00  0.00    -0.203 C  
HETATM    7  C   UNL     1      -8.627   9.944  69.951  1.00  0.00    -0.216 C  
HETATM    8  O   UNL     1     -10.732   9.104  71.801  1.00  0.00    -0.355 OA 
HETATM    9  C   UNL     1      -8.382   8.700  70.861  1.00  0.00    -0.157 C  
HETATM   10  C   UNL     1     -10.580   7.769  71.341  1.00  0.00    -0.213 C  
HETATM   11  C   UNL     1      -9.431   8.566  71.966  1.00  0.00    -0.294 C  
ENDROOT
BRANCH   6  12
HETATM   12  O   UNL     1     -10.294  11.022  68.363  1.00  0.00    -0.169 OA 
BRANCH  12  13
HETATM   13  C   UNL     1     -11.530  11.515  68.145  1.00  0.00    -0.315 C  
HETATM   14  C   UNL     1     -10.550  13.804  67.249  1.00  0.00    -0.275 A  
HETATM   15  C   UNL     1     -11.572  12.668  67.141  1.00  0.00    -0.434 C  
HETATM   16  C   UNL     1     -11.653  12.126  65.709  1.00  0.00    -0.355 C  
HETATM   17  C   UNL     1     -11.008  15.129  67.096  1.00  0.00    -0.326 A  
HETATM   18  O   UNL     1     -10.399  11.650  65.224  1.00  0.00    -0.247 OA 
HETATM   19  O   UNL     1     -12.527  11.040  68.674  1.00  0.00    -0.462 OA 
HETATM   20  C   UNL     1     -10.116  16.200  66.976  1.00  0.00    -0.270 A  
HETATM   21  H   UNL     1     -10.449  11.314  64.337  1.00  0.00     0.000 HD 
HETATM   22  C   UNL     1      -8.745  15.970  67.015  1.00  0.00    -0.236 A  
HETATM   23  C   UNL     1      -8.270  14.674  67.200  1.00  0.00    -0.227 A  
HETATM   24  C   UNL     1      -9.163  13.601  67.315  1.00  0.00    -0.232 A  
ENDBRANCH  12  13
ENDBRANCH   6  12
TORSDOF 2
ENDMDL
MODEL       78
REMARK 921   NORMALIZED FREE ENERGY PREDICTED BY IDOCK:   -5.01 KCAL/MOL
REMARK 922        TOTAL FREE ENERGY PREDICTED BY IDOCK:   -6.10 KCAL/MOL
REMARK 923 INTER-LIGAND FREE ENERGY PREDICTED BY IDOCK:   -5.49 KCAL/MOL
REMARK 924 INTRA-LIGAND FREE ENERGY PREDICTED BY IDOCK:   -0.62 KCAL/MOL
REMARK 927      BINDING AFFINITY PREDICTED BY RF-SCORE:    0.00 PKD
ROOT
HETATM    1  C   UNL     1     -12.286  12.373  64.479  1.00  0.00    -0.438 C  
HETATM    2  N   UNL     1     -11.789  13.552  65.292  1.00  0.00    -0.337 N  
HETATM    3  C   UNL     1     -10.255  13.671  65.518  1.00  0.00    -0.302 C  
HETATM    4  C   UNL     1     -12.296  14.809  64.536  1.00  0.00    -0.366 C  
HETATM    5  C   UNL     1      -9.709  12.328  66.059  1.00  0.00    -0.254 C  
HETATM    6  C   UNL     1     -10.340  11.923  67.405  1.00  0.00    -0.207 C  
HETATM    7  C   UNL     1     -11.850  12.245  67.478  1.00  0.00    -0.331 C  
HETATM    8  O   UNL     1     -10.153  14.586  67.924  1.00  0.00    -0.223 OA 
HETATM    9  C   UNL     1     -12.223  13.592  66.785  1.00  0.00    -0.369 C  
HETATM   10  C   UNL     1     -10.136  14.819  66.523  1.00  0.00    -0.273 C  
HETATM   11  C   UNL     1     -11.430  14.777  67.340  1.00  0.00    -0.363 C  
ENDROOT
BRANCH   6  12
HETATM   12  O   UNL     1      -9.937  10.631  67.919  1.00  0.00    -0.161 OA 
BRANCH  12  13
HETATM   13  C   UNL     1      -8.666  10.361  68.283  1.00  0.00    -0.128 C  
HETATM   14  C   UNL     1      -9.050   7.757  68.002  1.00  0.00    -0.128 A  
HETATM   15  C   UNL     1      -8.164   8.993  67.818  1.00  0.00    -0.109 C  
HETATM   16  C   UNL     1      -7.622   9.081  66.387  1.00  0.00    -0.092 C  
HETATM   17  C   UNL     1      -8.453   6.573  68.479  1.00  0.00    -0.124 A  
HETATM   18  O   UNL     1      -8.653   9.119  65.404  1.00  0.00    -0.148 OA 
HETATM   19  O   UNL     1      -7.973  11.169  68.888  1.00  0.00    -0.141 OA 
HETATM   20  C   UNL     1      -9.143   5.356  68.478  1.00  0.00    -0.121 A  
HETATM   21  H   UNL     1      -8.318   9.174  64.517  1.00  0.00     0.000 HD 
HETATM   22  C   UNL     1     -10.451   5.299  68.009  1.00  0.00    -0.143 A  
HETATM   23  C   UNL     1     -11.074   6.463  67.566  1.00  0.00    -0.401 A  
HETATM   24  C   UNL     1     -10.381   7.681  67.561  1.00  0.00    -0.326 A  
ENDBRANCH  12  13
ENDBRANCH   6  12
TORSDOF 2
ENDMDL
MODEL       79
REMARK 921   NORMALIZED FREE ENERGY PREDICTED BY IDOCK:   -4.96 KCAL/MOL
REMARK 922        TOTAL FREE ENERGY PREDICTED BY IDOCK:   -6.05 KCAL/MOL
REMARK 923 INTER-LIGAND FREE ENERGY PREDICTED BY IDOCK:   -6.09 KCAL/MOL
REMARK 924 INTRA-LIGAND FREE ENERGY PREDICTED BY IDOCK:    0.04 KCAL/MOL
REMARK 927      BINDING AFFINITY PREDICTED BY RF-SCORE:    0.00 PKD
ROOT
HETATM    1  C   UNL     1     -10.011  10.899  65.114  1.00  0.00    -0.284 C  
HETATM    2  N   UNL     1      -9.738  10.088  66.366  1.00  0.00    -0.198 N  
HETATM    3  C   UNL     1     -10.787  10.163  67.511  1.00  0.00    -0.290 C  
HETATM    4  C   UNL     1      -9.611   8.620  65.879  1.00  0.00    -0.139 C  
HETATM    5  C   UNL     1     -11.086  11.645  67.840  1.00  0.00    -0.306 C  
HETATM    6  C   UNL     1      -9.839  12.417  68.310  1.00  0.00    -0.224 C  
HETATM    7  C   UNL     1      -8.564  12.026  67.529  1.00  0.00    -0.167 C  
HETATM    8  O   UNL     1      -9.283  10.089  69.601  1.00  0.00    -0.210 OA 
HETATM    9  C   UNL     1      -8.492  10.503  67.198  1.00  0.00    -0.127 C  
HETATM   10  C   UNL     1     -10.106   9.415  68.660  1.00  0.00    -0.190 C  
HETATM   11  C   UNL     1      -8.605   9.625  68.445  1.00  0.00    -0.119 C  
ENDROOT
BRANCH   6  12
HETATM   12  O   UNL     1     -10.035  13.832  68.547  1.00  0.00    -0.230 OA 
BRANCH  12  13
HETATM   13  C   UNL     1     -11.144  14.487  68.146  1.00  0.00    -0.266 C  
HETATM   14  C   UNL     1      -9.840  16.786  68.008  1.00  0.00    -0.265 A  
HETATM   15  C   UNL     1     -10.862  15.805  67.423  1.00  0.00    -0.306 C  
HETATM   16  C   UNL     1     -10.603  15.553  65.934  1.00  0.00    -0.339 C  
HETATM   17  C   UNL     1     -10.168  18.157  68.029  1.00  0.00    -0.392 A  
HETATM   18  O   UNL     1      -9.296  15.046  65.676  1.00  0.00    -0.463 OA 
HETATM   19  O   UNL     1     -12.268  14.030  68.309  1.00  0.00    -0.328 OA 
HETATM   20  C   UNL     1      -9.217  19.130  68.353  1.00  0.00    -0.406 A  
HETATM   21  H   UNL     1      -9.135  14.889  64.753  1.00  0.00     0.000 HD 
HETATM   22  C   UNL     1      -7.917  18.752  68.671  1.00  0.00    -0.369 A  
HETATM   23  C   UNL     1      -7.579  17.401  68.691  1.00  0.00    -0.265 A  
HETATM   24  C   UNL     1      -8.530  16.427  68.361  1.00  0.00    -0.204 A  
ENDBRANCH  12  13
ENDBRANCH   6  12
TORSDOF 2
ENDMDL
MODEL       80
REMARK 921   NORMALIZED FREE ENERGY PREDICTED BY IDOCK:   -4.95 KCAL/MOL
REMARK 922        TOTAL FREE ENERGY PREDICTED BY IDOCK:   -6.04 KCAL/MOL
REMARK 923 INTER-LIGAND FREE ENERGY PREDICTED BY IDOCK:   -5.71 KCAL/MOL
REMARK 924 INTRA-LIGAND FREE ENERGY PREDICTED BY IDOCK:   -0.33 KCAL/MOL
REMARK 927      BINDING AFFINITY PREDICTED BY RF-SCORE:    0.00 PKD
ROOT
HETATM    1  C   UNL     1     -10.536  12.631  63.974  1.00  0.00    -0.416 C  
HETATM    2  N   UNL     1     -11.153  13.585  64.979  1.00  0.00    -0.315 N  
HETATM    3  C   UNL     1     -10.190  14.325  65.950  1.00  0.00    -0.324 C  
HETATM    4  C   UNL     1     -11.926  14.627  64.127  1.00  0.00    -0.292 C  
HETATM    5  C   UNL     1      -9.256  13.298  66.631  1.00  0.00    -0.222 C  
HETATM    6  C   UNL     1     -10.022  12.248  67.458  1.00  0.00    -0.199 C  
HETATM    7  C   UNL     1     -11.332  11.790  66.777  1.00  0.00    -0.385 C  
HETATM    8  O   UNL     1     -11.577  14.379  68.119  1.00  0.00    -0.295 OA 
HETATM    9  C   UNL     1     -12.082  12.950  66.052  1.00  0.00    -0.422 C  
HETATM   10  C   UNL     1     -11.142  15.018  66.928  1.00  0.00    -0.331 C  
HETATM   11  C   UNL     1     -12.385  14.126  66.982  1.00  0.00    -0.218 C  
ENDROOT
BRANCH   6  12
HETATM   12  O   UNL     1      -9.210  11.204  68.048  1.00  0.00    -0.149 OA 
BRANCH  12  13
HETATM   13  C   UNL     1      -8.552  10.291  67.303  1.00  0.00    -0.125 C  
HETATM   14  C   UNL     1      -8.512   8.562  69.307  1.00  0.00    -0.128 A  
HETATM   15  C   UNL     1      -8.691   8.856  67.814  1.00  0.00    -0.125 C  
HETATM   16  C   UNL     1      -9.973   8.217  67.270  1.00  0.00    -0.224 C  
HETATM   17  C   UNL     1      -7.749   7.437  69.679  1.00  0.00    -0.107 A  
HETATM   18  O   UNL     1     -11.144   8.653  67.956  1.00  0.00    -0.470 OA 
HETATM   19  O   UNL     1      -7.944  10.593  66.284  1.00  0.00    -0.138 OA 
HETATM   20  C   UNL     1      -7.711   6.986  71.002  1.00  0.00    -0.091 A  
HETATM   21  H   UNL     1     -11.940   8.258  67.618  1.00  0.00     0.000 HD 
HETATM   22  C   UNL     1      -8.429   7.657  71.986  1.00  0.00    -0.133 A  
HETATM   23  C   UNL     1      -9.162   8.792  71.649  1.00  0.00    -0.333 A  
HETATM   24  C   UNL     1      -9.205   9.241  70.322  1.00  0.00    -0.273 A  
ENDBRANCH  12  13
ENDBRANCH   6  12
TORSDOF 2
ENDMDL
MODEL       81
REMARK 921   NORMALIZED FREE ENERGY PREDICTED BY IDOCK:   -4.94 KCAL/MOL
REMARK 922        TOTAL FREE ENERGY PREDICTED BY IDOCK:   -6.03 KCAL/MOL
REMARK 923 INTER-LIGAND FREE ENERGY PREDICTED BY IDOCK:   -5.44 KCAL/MOL
REMARK 924 INTRA-LIGAND FREE ENERGY PREDICTED BY IDOCK:   -0.59 KCAL/MOL
REMARK 927      BINDING AFFINITY PREDICTED BY RF-SCORE:    0.00 PKD
ROOT
HETATM    1  C   UNL     1     -10.247  12.636  68.372  1.00  0.00    -0.232 C  
HETATM    2  N   UNL     1     -10.971  13.112  67.127  1.00  0.00    -0.264 N  
HETATM    3  C   UNL     1     -10.107  13.710  65.980  1.00  0.00    -0.312 C  
HETATM    4  C   UNL     1     -11.735  11.867  66.602  1.00  0.00    -0.186 C  
HETATM    5  C   UNL     1      -9.173  14.800  66.554  1.00  0.00    -0.304 C  
HETATM    6  C   UNL     1      -9.942  15.967  67.204  1.00  0.00    -0.240 C  
HETATM    7  C   UNL     1     -11.183  15.497  67.997  1.00  0.00    -0.332 C  
HETATM    8  O   UNL     1     -11.633  15.592  65.108  1.00  0.00    -0.145 OA 
HETATM    9  C   UNL     1     -11.937  14.317  67.310  1.00  0.00    -0.405 C  
HETATM   10  C   UNL     1     -11.152  14.260  65.006  1.00  0.00    -0.373 C  
HETATM   11  C   UNL     1     -12.353  14.642  65.875  1.00  0.00    -0.115 C  
ENDROOT
BRANCH   6  12
HETATM   12  O   UNL     1      -9.122  16.977  67.840  1.00  0.00    -0.225 OA 
BRANCH  12  13
HETATM   13  C   UNL     1      -9.551  18.241  68.034  1.00  0.00    -0.304 C  
HETATM   14  C   UNL     1      -7.802  19.191  66.289  1.00  0.00    -0.307 A  
HETATM   15  C   UNL     1      -9.212  19.195  66.887  1.00  0.00    -0.348 C  
HETATM   16  C   UNL     1     -10.282  19.115  65.793  1.00  0.00    -0.206 C  
HETATM   17  C   UNL     1      -7.187  20.431  66.021  1.00  0.00    -0.225 A  
HETATM   18  O   UNL     1     -10.147  17.959  64.969  1.00  0.00     0.327 OA 
HETATM   19  O   UNL     1     -10.195  18.570  69.022  1.00  0.00    -0.356 OA 
HETATM   20  C   UNL     1      -5.997  20.512  65.291  1.00  0.00    -0.265 A  
HETATM   21  H   UNL     1     -10.810  17.908  64.290  1.00  0.00     0.000 HD 
HETATM   22  C   UNL     1      -5.389  19.353  64.821  1.00  0.00    -0.218 A  
HETATM   23  C   UNL     1      -5.959  18.115  65.104  1.00  0.00    -0.097 A  
HETATM   24  C   UNL     1      -7.154  18.033  65.830  1.00  0.00    -0.302 A  
ENDBRANCH  12  13
ENDBRANCH   6  12
TORSDOF 2
ENDMDL
MODEL       82
REMARK 921   NORMALIZED FREE ENERGY PREDICTED BY IDOCK:   -4.93 KCAL/MOL
REMARK 922        TOTAL FREE ENERGY PREDICTED BY IDOCK:   -6.02 KCAL/MOL
REMARK 923 INTER-LIGAND FREE ENERGY PREDICTED BY IDOCK:   -5.39 KCAL/MOL
REMARK 924 INTRA-LIGAND FREE ENERGY PREDICTED BY IDOCK:   -0.64 KCAL/MOL
REMARK 927      BINDING AFFINITY PREDICTED BY RF-SCORE:    0.00 PKD
ROOT
HETATM    1  C   UNL     1      -9.266  10.637  68.827  1.00  0.00    -0.180 C  
HETATM    2  N   UNL     1      -8.793   9.605  67.821  1.00  0.00    -0.125 N  
HETATM    3  C   UNL     1      -7.735  10.057  66.774  1.00  0.00    -0.103 C  
HETATM    4  C   UNL     1      -8.210   8.446  68.673  1.00  0.00    -0.123 C  
HETATM    5  C   UNL     1      -8.216  11.355  66.084  1.00  0.00    -0.041 C  
HETATM    6  C   UNL     1      -9.552  11.176  65.337  1.00  0.00    -0.229 C  
HETATM    7  C   UNL     1     -10.549  10.276  66.103  1.00  0.00    -0.124 C  
HETATM    8  O   UNL     1      -8.489   8.761  64.680  1.00  0.00    -0.169 OA 
HETATM    9  C   UNL     1      -9.860   9.075  66.823  1.00  0.00    -0.234 C  
HETATM   10  C   UNL     1      -7.651   8.862  65.823  1.00  0.00    -0.090 C  
HETATM   11  C   UNL     1      -9.036   8.211  65.867  1.00  0.00    -0.130 C  
ENDROOT
BRANCH   6  12
HETATM   12  O   UNL     1     -10.102  12.378  64.746  1.00  0.00    -0.278 OA 
BRANCH  12  13
HETATM   13  C   UNL     1     -11.430  12.596  64.648  1.00  0.00    -0.330 C  
HETATM   14  C   UNL     1     -11.441  14.039  66.866  1.00  0.00    -0.373 A  
HETATM   15  C   UNL     1     -11.918  13.818  65.428  1.00  0.00    -0.395 C  
HETATM   16  C   UNL     1     -11.757  15.088  64.585  1.00  0.00    -0.382 C  
HETATM   17  C   UNL     1     -12.390  14.435  67.830  1.00  0.00    -0.013 A  
HETATM   18  O   UNL     1     -10.412  15.559  64.545  1.00  0.00    -0.605 OA 
HETATM   19  O   UNL     1     -12.158  11.899  63.953  1.00  0.00    -0.420 OA 
HETATM   20  C   UNL     1     -12.002  14.853  69.107  1.00  0.00    -0.313 A  
HETATM   21  H   UNL     1     -10.311  16.347  64.022  1.00  0.00     0.000 HD 
HETATM   22  C   UNL     1     -10.655  14.877  69.451  1.00  0.00    -0.255 A  
HETATM   23  C   UNL     1      -9.702  14.457  68.528  1.00  0.00    -0.225 A  
HETATM   24  C   UNL     1     -10.090  14.043  67.247  1.00  0.00    -0.249 A  
ENDBRANCH  12  13
ENDBRANCH   6  12
TORSDOF 2
ENDMDL
MODEL       83
REMARK 921   NORMALIZED FREE ENERGY PREDICTED BY IDOCK:   -4.93 KCAL/MOL
REMARK 922        TOTAL FREE ENERGY PREDICTED BY IDOCK:   -6.02 KCAL/MOL
REMARK 923 INTER-LIGAND FREE ENERGY PREDICTED BY IDOCK:   -5.27 KCAL/MOL
REMARK 924 INTRA-LIGAND FREE ENERGY PREDICTED BY IDOCK:   -0.75 KCAL/MOL
REMARK 927      BINDING AFFINITY PREDICTED BY RF-SCORE:    0.00 PKD
ROOT
HETATM    1  C   UNL     1      -9.401   4.713  69.447  1.00  0.00    -0.141 C  
HETATM    2  N   UNL     1      -9.284   4.460  67.956  1.00  0.00    -0.128 N  
HETATM    3  C   UNL     1      -8.039   5.041  67.227  1.00  0.00    -0.107 C  
HETATM    4  C   UNL     1      -9.295   2.916  67.804  1.00  0.00    -0.199 C  
HETATM    5  C   UNL     1      -7.896   6.543  67.570  1.00  0.00    -0.113 C  
HETATM    6  C   UNL     1      -9.115   7.376  67.129  1.00  0.00    -0.130 C  
HETATM    7  C   UNL     1     -10.455   6.642  67.358  1.00  0.00    -0.325 C  
HETATM    8  O   UNL     1      -9.042   5.738  64.960  1.00  0.00     0.019 OA 
HETATM    9  C   UNL     1     -10.373   5.112  67.059  1.00  0.00    -0.217 C  
HETATM   10  C   UNL     1      -8.347   4.785  65.750  1.00  0.00    -0.117 C  
HETATM   11  C   UNL     1      -9.874   4.816  65.644  1.00  0.00    -0.176 C  
ENDROOT
BRANCH   6  12
HETATM   12  O   UNL     1      -9.081   8.775  67.503  1.00  0.00    -0.133 OA 
BRANCH  12  13
HETATM   13  C   UNL     1      -9.869   9.700  66.916  1.00  0.00    -0.200 C  
HETATM   14  C   UNL     1     -11.039  10.285  69.217  1.00  0.00    -0.293 A  
HETATM   15  C   UNL     1     -10.434  10.740  67.886  1.00  0.00    -0.233 C  
HETATM   16  C   UNL     1      -9.430  11.880  68.091  1.00  0.00    -0.195 C  
HETATM   17  C   UNL     1     -12.251  10.870  69.634  1.00  0.00    -0.354 A  
HETATM   18  O   UNL     1      -8.365  11.530  68.971  1.00  0.00    -0.348 OA 
HETATM   19  O   UNL     1     -10.064   9.723  65.708  1.00  0.00    -0.293 OA 
HETATM   20  C   UNL     1     -12.757  10.663  70.922  1.00  0.00    -0.498 A  
HETATM   21  H   UNL     1      -7.743  12.236  69.098  1.00  0.00     0.000 HD 
HETATM   22  C   UNL     1     -12.065   9.855  71.818  1.00  0.00    -0.382 A  
HETATM   23  C   UNL     1     -10.884   9.238  71.417  1.00  0.00    -0.434 A  
HETATM   24  C   UNL     1     -10.374   9.450  70.130  1.00  0.00    -0.273 A  
ENDBRANCH  12  13
ENDBRANCH   6  12
TORSDOF 2
ENDMDL
MODEL       84
REMARK 921   NORMALIZED FREE ENERGY PREDICTED BY IDOCK:   -4.93 KCAL/MOL
REMARK 922        TOTAL FREE ENERGY PREDICTED BY IDOCK:   -6.02 KCAL/MOL
REMARK 923 INTER-LIGAND FREE ENERGY PREDICTED BY IDOCK:   -5.21 KCAL/MOL
REMARK 924 INTRA-LIGAND FREE ENERGY PREDICTED BY IDOCK:   -0.81 KCAL/MOL
REMARK 927      BINDING AFFINITY PREDICTED BY RF-SCORE:    0.00 PKD
ROOT
HETATM    1  C   UNL     1     -12.345  10.101  70.854  1.00  0.00    -0.363 C  
HETATM    2  N   UNL     1     -12.182   8.791  71.601  1.00  0.00    -0.319 N  
HETATM    3  C   UNL     1     -10.862   8.579  72.396  1.00  0.00    -0.308 C  
HETATM    4  C   UNL     1     -13.386   8.728  72.577  1.00  0.00    -0.354 C  
HETATM    5  C   UNL     1      -9.654   8.871  71.474  1.00  0.00    -0.362 C  
HETATM    6  C   UNL     1      -9.602   7.944  70.244  1.00  0.00    -0.171 C  
HETATM    7  C   UNL     1     -10.999   7.667  69.645  1.00  0.00    -0.145 C  
HETATM    8  O   UNL     1     -10.430   6.067  72.028  1.00  0.00    -0.198 OA 
HETATM    9  C   UNL     1     -12.108   7.505  70.730  1.00  0.00    -0.161 C  
HETATM   10  C   UNL     1     -10.948   7.115  72.834  1.00  0.00    -0.320 C  
HETATM   11  C   UNL     1     -11.776   6.417  71.752  1.00  0.00    -0.324 C  
ENDROOT
BRANCH   6  12
HETATM   12  O   UNL     1      -8.544   8.227  69.296  1.00  0.00    -0.135 OA 
BRANCH  12  13
HETATM   13  C   UNL     1      -8.570   7.773  68.026  1.00  0.00    -0.123 C  
HETATM   14  C   UNL     1      -9.572  10.058  67.141  1.00  0.00    -0.202 A  
HETATM   15  C   UNL     1      -8.607   8.880  66.971  1.00  0.00    -0.120 C  
HETATM   16  C   UNL     1      -7.187   9.364  66.655  1.00  0.00    -0.086 C  
HETATM   17  C   UNL     1     -10.297  10.494  66.014  1.00  0.00    -0.279 A  
HETATM   18  O   UNL     1      -6.662  10.234  67.656  1.00  0.00    -0.072 OA 
HETATM   19  O   UNL     1      -8.518   6.580  67.755  1.00  0.00    -0.118 OA 
HETATM   20  C   UNL     1     -11.036  11.682  66.037  1.00  0.00    -0.338 A  
HETATM   21  H   UNL     1      -5.782  10.534  67.460  1.00  0.00     0.000 HD 
HETATM   22  C   UNL     1     -11.073  12.455  67.192  1.00  0.00    -0.328 A  
HETATM   23  C   UNL     1     -10.392  12.027  68.329  1.00  0.00    -0.211 A  
HETATM   24  C   UNL     1      -9.648  10.840  68.305  1.00  0.00    -0.170 A  
ENDBRANCH  12  13
ENDBRANCH   6  12
TORSDOF 2
ENDMDL
MODEL       85
REMARK 921   NORMALIZED FREE ENERGY PREDICTED BY IDOCK:   -4.90 KCAL/MOL
REMARK 922        TOTAL FREE ENERGY PREDICTED BY IDOCK:   -5.99 KCAL/MOL
REMARK 923 INTER-LIGAND FREE ENERGY PREDICTED BY IDOCK:   -5.41 KCAL/MOL
REMARK 924 INTRA-LIGAND FREE ENERGY PREDICTED BY IDOCK:   -0.58 KCAL/MOL
REMARK 927      BINDING AFFINITY PREDICTED BY RF-SCORE:    0.00 PKD
ROOT
HETATM    1  C   UNL     1      -7.769  11.575  67.203  1.00  0.00    -0.160 C  
HETATM    2  N   UNL     1      -9.226  11.936  67.418  1.00  0.00    -0.173 N  
HETATM    3  C   UNL     1      -9.833  11.661  68.823  1.00  0.00    -0.116 C  
HETATM    4  C   UNL     1      -9.319  13.454  67.105  1.00  0.00    -0.240 C  
HETATM    5  C   UNL     1      -9.535  10.200  69.235  1.00  0.00    -0.231 C  
HETATM    6  C   UNL     1     -10.142   9.169  68.264  1.00  0.00    -0.191 C  
HETATM    7  C   UNL     1     -10.037   9.606  66.786  1.00  0.00    -0.301 C  
HETATM    8  O   UNL     1     -12.224  10.917  68.221  1.00  0.00    -0.526 OA 
HETATM    9  C   UNL     1     -10.265  11.136  66.582  1.00  0.00    -0.232 C  
HETATM   10  C   UNL     1     -11.324  11.940  68.622  1.00  0.00    -0.276 C  
HETATM   11  C   UNL     1     -11.602  11.611  67.152  1.00  0.00    -0.212 C  
ENDROOT
BRANCH   6  12
HETATM   12  O   UNL     1      -9.821   7.785  68.546  1.00  0.00    -0.163 OA 
BRANCH  12  13
HETATM   13  C   UNL     1     -10.722   6.790  68.405  1.00  0.00    -0.232 C  
HETATM   14  C   UNL     1      -9.895   5.613  70.627  1.00  0.00    -0.244 A  
HETATM   15  C   UNL     1     -11.039   6.049  69.705  1.00  0.00    -0.476 C  
HETATM   16  C   UNL     1     -12.133   6.785  70.486  1.00  0.00    -0.274 C  
HETATM   17  C   UNL     1      -9.944   4.319  71.184  1.00  0.00    -0.226 A  
HETATM   18  O   UNL     1     -11.647   7.935  71.173  1.00  0.00    -0.274 OA 
HETATM   19  O   UNL     1     -11.266   6.546  67.336  1.00  0.00    -0.359 OA 
HETATM   20  C   UNL     1      -9.055   3.924  72.189  1.00  0.00    -0.156 A  
HETATM   21  H   UNL     1     -12.326   8.392  71.656  1.00  0.00     0.000 HD 
HETATM   22  C   UNL     1      -8.090   4.812  72.652  1.00  0.00    -0.100 A  
HETATM   23  C   UNL     1      -7.999   6.083  72.092  1.00  0.00    -0.106 A  
HETATM   24  C   UNL     1      -8.894   6.482  71.089  1.00  0.00    -0.138 A  
ENDBRANCH  12  13
ENDBRANCH   6  12
TORSDOF 2
ENDMDL
MODEL       86
REMARK 921   NORMALIZED FREE ENERGY PREDICTED BY IDOCK:   -4.87 KCAL/MOL
REMARK 922        TOTAL FREE ENERGY PREDICTED BY IDOCK:   -5.95 KCAL/MOL
REMARK 923 INTER-LIGAND FREE ENERGY PREDICTED BY IDOCK:   -5.82 KCAL/MOL
REMARK 924 INTRA-LIGAND FREE ENERGY PREDICTED BY IDOCK:   -0.12 KCAL/MOL
REMARK 927      BINDING AFFINITY PREDICTED BY RF-SCORE:    0.00 PKD
ROOT
HETATM    1  C   UNL     1     -10.712  16.826  68.360  1.00  0.00    -0.362 C  
HETATM    2  N   UNL     1      -9.705  17.856  67.884  1.00  0.00    -0.279 N  
HETATM    3  C   UNL     1      -9.140  17.693  66.444  1.00  0.00    -0.234 C  
HETATM    4  C   UNL     1     -10.437  19.220  67.999  1.00  0.00    -0.386 C  
HETATM    5  C   UNL     1      -8.618  16.250  66.257  1.00  0.00    -0.374 C  
HETATM    6  C   UNL     1      -7.485  15.890  67.237  1.00  0.00    -0.210 C  
HETATM    7  C   UNL     1      -7.715  16.466  68.653  1.00  0.00    -0.204 C  
HETATM    8  O   UNL     1      -6.697  18.448  66.757  1.00  0.00    -0.181 OA 
HETATM    9  C   UNL     1      -8.346  17.892  68.639  1.00  0.00    -0.270 C  
HETATM   10  C   UNL     1      -8.034  18.749  66.381  1.00  0.00    -0.282 C  
HETATM   11  C   UNL     1      -7.526  18.889  67.819  1.00  0.00    -0.239 C  
ENDROOT
BRANCH   6  12
HETATM   12  O   UNL     1      -7.014  14.522  67.172  1.00  0.00    -0.190 OA 
BRANCH  12  13
HETATM   13  C   UNL     1      -7.008  13.707  68.247  1.00  0.00    -0.109 C  
HETATM   14  C   UNL     1      -9.321  12.627  67.547  1.00  0.00    -0.188 A  
HETATM   15  C   UNL     1      -7.899  12.473  68.097  1.00  0.00    -0.151 C  
HETATM   16  C   UNL     1      -7.142  11.352  67.376  1.00  0.00    -0.114 C  
HETATM   17  C   UNL     1     -10.363  11.925  68.187  1.00  0.00    -0.210 A  
HETATM   18  O   UNL     1      -7.059  11.555  65.967  1.00  0.00    -0.366 OA 
HETATM   19  O   UNL     1      -6.307  13.922  69.228  1.00  0.00    -0.100 OA 
HETATM   20  C   UNL     1     -11.642  11.850  67.627  1.00  0.00    -0.382 A  
HETATM   21  H   UNL     1      -6.590  10.860  65.520  1.00  0.00     0.000 HD 
HETATM   22  C   UNL     1     -11.911  12.484  66.418  1.00  0.00    -0.445 A  
HETATM   23  C   UNL     1     -10.907  13.212  65.786  1.00  0.00    -0.289 A  
HETATM   24  C   UNL     1      -9.623  13.283  66.343  1.00  0.00    -0.260 A  
ENDBRANCH  12  13
ENDBRANCH   6  12
TORSDOF 2
ENDMDL
MODEL       87
REMARK 921   NORMALIZED FREE ENERGY PREDICTED BY IDOCK:   -4.86 KCAL/MOL
REMARK 922        TOTAL FREE ENERGY PREDICTED BY IDOCK:   -5.95 KCAL/MOL
REMARK 923 INTER-LIGAND FREE ENERGY PREDICTED BY IDOCK:   -5.92 KCAL/MOL
REMARK 924 INTRA-LIGAND FREE ENERGY PREDICTED BY IDOCK:   -0.03 KCAL/MOL
REMARK 927      BINDING AFFINITY PREDICTED BY RF-SCORE:    0.00 PKD
ROOT
HETATM    1  C   UNL     1     -12.321   7.046  70.460  1.00  0.00    -0.102 C  
HETATM    2  N   UNL     1     -11.016   7.162  71.223  1.00  0.00    -0.238 N  
HETATM    3  C   UNL     1     -10.832   8.400  72.146  1.00  0.00    -0.337 C  
HETATM    4  C   UNL     1     -10.927   5.867  72.075  1.00  0.00    -0.266 C  
HETATM    5  C   UNL     1     -11.149   9.687  71.348  1.00  0.00    -0.397 C  
HETATM    6  C   UNL     1     -10.223   9.881  70.132  1.00  0.00    -0.273 C  
HETATM    7  C   UNL     1      -9.916   8.557  69.397  1.00  0.00    -0.194 C  
HETATM    8  O   UNL     1      -8.329   8.919  71.829  1.00  0.00    -0.321 OA 
HETATM    9  C   UNL     1      -9.731   7.348  70.366  1.00  0.00    -0.175 C  
HETATM   10  C   UNL     1      -9.367   8.302  72.577  1.00  0.00    -0.280 C  
HETATM   11  C   UNL     1      -8.651   7.600  71.420  1.00  0.00    -0.120 C  
ENDROOT
BRANCH   6  12
HETATM   12  O   UNL     1     -10.528  11.022  69.293  1.00  0.00    -0.219 OA 
BRANCH  12  13
HETATM   13  C   UNL     1     -11.786  11.327  68.914  1.00  0.00    -0.341 C  
HETATM   14  C   UNL     1     -11.124  13.847  68.447  1.00  0.00    -0.278 A  
HETATM   15  C   UNL     1     -11.887  12.581  68.044  1.00  0.00    -0.382 C  
HETATM   16  C   UNL     1     -11.643  12.230  66.572  1.00  0.00    -0.377 C  
HETATM   17  C   UNL     1     -11.792  15.085  68.356  1.00  0.00    -0.298 A  
HETATM   18  O   UNL     1     -10.264  12.039  66.267  1.00  0.00    -0.214 OA 
HETATM   19  O   UNL     1     -12.746  10.626  69.207  1.00  0.00    -0.202 OA 
HETATM   20  C   UNL     1     -11.107  16.296  68.507  1.00  0.00    -0.368 A  
HETATM   21  H   UNL     1     -10.113  11.821  65.355  1.00  0.00     0.000 HD 
HETATM   22  C   UNL     1      -9.740  16.294  68.762  1.00  0.00    -0.240 A  
HETATM   23  C   UNL     1      -9.066  15.083  68.891  1.00  0.00    -0.202 A  
HETATM   24  C   UNL     1      -9.750  13.870  68.734  1.00  0.00    -0.096 A  
ENDBRANCH  12  13
ENDBRANCH   6  12
TORSDOF 2
ENDMDL
MODEL       88
REMARK 921   NORMALIZED FREE ENERGY PREDICTED BY IDOCK:   -4.84 KCAL/MOL
REMARK 922        TOTAL FREE ENERGY PREDICTED BY IDOCK:   -5.92 KCAL/MOL
REMARK 923 INTER-LIGAND FREE ENERGY PREDICTED BY IDOCK:   -5.69 KCAL/MOL
REMARK 924 INTRA-LIGAND FREE ENERGY PREDICTED BY IDOCK:   -0.23 KCAL/MOL
REMARK 927      BINDING AFFINITY PREDICTED BY RF-SCORE:    0.00 PKD
ROOT
HETATM    1  C   UNL     1      -8.716   8.830  68.746  1.00  0.00    -0.137 C  
HETATM    2  N   UNL     1      -8.847   9.181  67.276  1.00  0.00    -0.124 N  
HETATM    3  C   UNL     1      -8.045  10.409  66.759  1.00  0.00    -0.120 C  
HETATM    4  C   UNL     1      -8.391   7.909  66.512  1.00  0.00    -0.127 C  
HETATM    5  C   UNL     1      -8.326  11.628  67.669  1.00  0.00    -0.142 C  
HETATM    6  C   UNL     1      -9.813  12.028  67.691  1.00  0.00    -0.189 C  
HETATM    7  C   UNL     1     -10.761  10.808  67.697  1.00  0.00    -0.305 C  
HETATM    8  O   UNL     1      -9.684  11.416  65.045  1.00  0.00    -0.240 OA 
HETATM    9  C   UNL     1     -10.255   9.636  66.799  1.00  0.00    -0.239 C  
HETATM   10  C   UNL     1      -8.564  10.590  65.330  1.00  0.00    -0.180 C  
HETATM   11  C   UNL     1     -10.004  10.070  65.354  1.00  0.00    -0.294 C  
ENDROOT
BRANCH   6  12
HETATM   12  O   UNL     1     -10.155  13.107  68.596  1.00  0.00    -0.219 OA 
BRANCH  12  13
HETATM   13  C   UNL     1      -9.534  14.304  68.562  1.00  0.00    -0.206 C  
HETATM   14  C   UNL     1     -10.929  15.062  66.444  1.00  0.00    -0.336 A  
HETATM   15  C   UNL     1     -10.310  15.385  67.808  1.00  0.00    -0.253 C  
HETATM   16  C   UNL     1     -11.327  16.059  68.736  1.00  0.00    -0.380 C  
HETATM   17  C   UNL     1     -10.792  16.008  65.409  1.00  0.00    -0.340 A  
HETATM   18  O   UNL     1     -12.493  15.267  68.949  1.00  0.00    -0.589 OA 
HETATM   19  O   UNL     1      -8.470  14.506  69.132  1.00  0.00    -0.100 OA 
HETATM   20  C   UNL     1     -11.498  15.882  64.208  1.00  0.00    -0.197 A  
HETATM   21  H   UNL     1     -13.123  15.684  69.525  1.00  0.00     0.000 HD 
HETATM   22  C   UNL     1     -12.351  14.801  64.013  1.00  0.00    -0.125 A  
HETATM   23  C   UNL     1     -12.475  13.835  65.008  1.00  0.00    -0.449 A  
HETATM   24  C   UNL     1     -11.772  13.964  66.213  1.00  0.00    -0.402 A  
ENDBRANCH  12  13
ENDBRANCH   6  12
TORSDOF 2
ENDMDL
MODEL       89
REMARK 921   NORMALIZED FREE ENERGY PREDICTED BY IDOCK:   -4.82 KCAL/MOL
REMARK 922        TOTAL FREE ENERGY PREDICTED BY IDOCK:   -5.90 KCAL/MOL
REMARK 923 INTER-LIGAND FREE ENERGY PREDICTED BY IDOCK:   -5.25 KCAL/MOL
REMARK 924 INTRA-LIGAND FREE ENERGY PREDICTED BY IDOCK:   -0.64 KCAL/MOL
REMARK 927      BINDING AFFINITY PREDICTED BY RF-SCORE:    0.00 PKD
ROOT
HETATM    1  C   UNL     1      -5.841  10.748  66.724  1.00  0.00    -0.075 C  
HETATM    2  N   UNL     1      -6.808   9.878  65.946  1.00  0.00    -0.096 N  
HETATM    3  C   UNL     1      -8.328  10.148  66.137  1.00  0.00    -0.131 C  
HETATM    4  C   UNL     1      -6.432  10.086  64.454  1.00  0.00    -0.131 C  
HETATM    5  C   UNL     1      -8.661  10.169  67.647  1.00  0.00    -0.121 C  
HETATM    6  C   UNL     1      -8.341   8.836  68.350  1.00  0.00    -0.126 C  
HETATM    7  C   UNL     1      -7.030   8.193  67.843  1.00  0.00    -0.078 C  
HETATM    8  O   UNL     1      -9.296   7.763  66.042  1.00  0.00    -0.140 OA 
HETATM    9  C   UNL     1      -6.819   8.365  66.307  1.00  0.00    -0.073 C  
HETATM   10  C   UNL     1      -8.987   8.986  65.389  1.00  0.00    -0.200 C  
HETATM   11  C   UNL     1      -7.992   7.826  65.488  1.00  0.00    -0.121 C  
ENDROOT
BRANCH   6  12
HETATM   12  O   UNL     1      -8.546   8.822  69.784  1.00  0.00    -0.124 OA 
BRANCH  12  13
HETATM   13  C   UNL     1      -8.847   7.696  70.461  1.00  0.00    -0.149 C  
HETATM   14  C   UNL     1     -11.245   8.619  71.098  1.00  0.00    -0.329 A  
HETATM   15  C   UNL     1     -10.348   7.463  70.644  1.00  0.00    -0.217 C  
HETATM   16  C   UNL     1     -10.932   6.753  69.418  1.00  0.00    -0.276 C  
HETATM   17  C   UNL     1     -12.216   8.362  72.086  1.00  0.00    -0.434 A  
HETATM   18  O   UNL     1     -11.128   7.630  68.311  1.00  0.00    -0.434 OA 
HETATM   19  O   UNL     1      -7.988   6.913  70.846  1.00  0.00    -0.097 OA 
HETATM   20  C   UNL     1     -13.202   9.303  72.403  1.00  0.00    -0.501 A  
HETATM   21  H   UNL     1     -11.489   7.190  67.550  1.00  0.00     0.000 HD 
HETATM   22  C   UNL     1     -13.231  10.527  71.743  1.00  0.00    -0.522 A  
HETATM   23  C   UNL     1     -12.261  10.817  70.788  1.00  0.00    -0.480 A  
HETATM   24  C   UNL     1     -11.277   9.873  70.466  1.00  0.00    -0.399 A  
ENDBRANCH  12  13
ENDBRANCH   6  12
TORSDOF 2
ENDMDL
MODEL       90
REMARK 921   NORMALIZED FREE ENERGY PREDICTED BY IDOCK:   -4.79 KCAL/MOL
REMARK 922        TOTAL FREE ENERGY PREDICTED BY IDOCK:   -5.86 KCAL/MOL
REMARK 923 INTER-LIGAND FREE ENERGY PREDICTED BY IDOCK:   -5.32 KCAL/MOL
REMARK 924 INTRA-LIGAND FREE ENERGY PREDICTED BY IDOCK:   -0.54 KCAL/MOL
REMARK 927      BINDING AFFINITY PREDICTED BY RF-SCORE:    0.00 PKD
ROOT
HETATM    1  C   UNL     1     -10.291   5.421  70.209  1.00  0.00    -0.287 C  
HETATM    2  N   UNL     1      -9.592   5.222  68.878  1.00  0.00    -0.128 N  
HETATM    3  C   UNL     1      -8.469   6.230  68.501  1.00  0.00    -0.115 C  
HETATM    4  C   UNL     1      -8.998   3.789  68.942  1.00  0.00    -0.123 C  
HETATM    5  C   UNL     1      -8.998   7.674  68.663  1.00  0.00    -0.133 C  
HETATM    6  C   UNL     1     -10.206   7.974  67.755  1.00  0.00    -0.222 C  
HETATM    7  C   UNL     1     -11.187   6.784  67.653  1.00  0.00    -0.220 C  
HETATM    8  O   UNL     1      -8.820   6.473  65.961  1.00  0.00    -0.152 OA 
HETATM    9  C   UNL     1     -10.467   5.401  67.606  1.00  0.00    -0.150 C  
HETATM   10  C   UNL     1      -8.142   5.864  67.051  1.00  0.00    -0.102 C  
HETATM   11  C   UNL     1      -9.446   5.308  66.471  1.00  0.00    -0.149 C  
ENDROOT
BRANCH   6  12
HETATM   12  O   UNL     1     -10.804   9.282  67.926  1.00  0.00    -0.216 OA 
BRANCH  12  13
HETATM   13  C   UNL     1     -10.350  10.376  67.280  1.00  0.00    -0.228 C  
HETATM   14  C   UNL     1     -11.229  11.977  69.196  1.00  0.00    -0.305 A  
HETATM   15  C   UNL     1     -10.145  11.592  68.184  1.00  0.00    -0.202 C  
HETATM   16  C   UNL     1      -8.762  11.540  68.843  1.00  0.00     0.039 C  
HETATM   17  C   UNL     1     -11.572  13.338  69.321  1.00  0.00    -0.370 A  
HETATM   18  O   UNL     1      -8.702  10.625  69.935  1.00  0.00    -0.346 OA 
HETATM   19  O   UNL     1     -10.084  10.367  66.085  1.00  0.00    -0.222 OA 
HETATM   20  C   UNL     1     -12.396  13.790  70.357  1.00  0.00    -0.423 A  
HETATM   21  H   UNL     1      -7.844  10.592  70.343  1.00  0.00     0.000 HD 
HETATM   22  C   UNL     1     -12.903  12.888  71.286  1.00  0.00    -0.361 A  
HETATM   23  C   UNL     1     -12.607  11.534  71.162  1.00  0.00    -0.463 A  
HETATM   24  C   UNL     1     -11.777  11.081  70.128  1.00  0.00    -0.442 A  
ENDBRANCH  12  13
ENDBRANCH   6  12
TORSDOF 2
ENDMDL
MODEL       91
REMARK 921   NORMALIZED FREE ENERGY PREDICTED BY IDOCK:   -4.78 KCAL/MOL
REMARK 922        TOTAL FREE ENERGY PREDICTED BY IDOCK:   -5.85 KCAL/MOL
REMARK 923 INTER-LIGAND FREE ENERGY PREDICTED BY IDOCK:   -5.22 KCAL/MOL
REMARK 924 INTRA-LIGAND FREE ENERGY PREDICTED BY IDOCK:   -0.64 KCAL/MOL
REMARK 927      BINDING AFFINITY PREDICTED BY RF-SCORE:    0.00 PKD
ROOT
HETATM    1  C   UNL     1      -6.721   8.511  69.252  1.00  0.00    -0.050 C  
HETATM    2  N   UNL     1      -7.740   7.689  68.486  1.00  0.00    -0.116 N  
HETATM    3  C   UNL     1      -8.127   8.176  67.060  1.00  0.00    -0.108 C  
HETATM    4  C   UNL     1      -7.127   6.266  68.395  1.00  0.00    -0.083 C  
HETATM    5  C   UNL     1      -8.518   9.671  67.116  1.00  0.00    -0.131 C  
HETATM    6  C   UNL     1      -9.725   9.940  68.036  1.00  0.00    -0.140 C  
HETATM    7  C   UNL     1      -9.698   9.085  69.323  1.00  0.00    -0.168 C  
HETATM    8  O   UNL     1     -10.637   7.606  66.980  1.00  0.00    -0.329 OA 
HETATM    9  C   UNL     1      -9.174   7.636  69.084  1.00  0.00    -0.141 C  
HETATM   10  C   UNL     1      -9.292   7.259  66.681  1.00  0.00    -0.171 C  
HETATM   11  C   UNL     1      -9.967   6.894  68.007  1.00  0.00    -0.154 C  
ENDROOT
BRANCH   6  12
HETATM   12  O   UNL     1     -10.085  11.333  68.201  1.00  0.00    -0.172 OA 
BRANCH  12  13
HETATM   13  C   UNL     1     -11.336  11.789  67.982  1.00  0.00    -0.288 C  
HETATM   14  C   UNL     1     -10.423  14.091  67.047  1.00  0.00    -0.275 A  
HETATM   15  C   UNL     1     -11.414  12.925  66.961  1.00  0.00    -0.390 C  
HETATM   16  C   UNL     1     -11.486  12.360  65.538  1.00  0.00    -0.361 C  
HETATM   17  C   UNL     1     -10.918  15.400  66.878  1.00  0.00    -0.294 A  
HETATM   18  O   UNL     1     -10.223  11.912  65.054  1.00  0.00    -0.261 OA 
HETATM   19  O   UNL     1     -12.317  11.295  68.523  1.00  0.00    -0.543 OA 
HETATM   20  C   UNL     1     -10.056  16.493  66.737  1.00  0.00    -0.290 A  
HETATM   21  H   UNL     1     -10.267  11.561  64.172  1.00  0.00     0.000 HD 
HETATM   22  C   UNL     1      -8.679  16.301  66.773  1.00  0.00    -0.264 A  
HETATM   23  C   UNL     1      -8.168  15.022  66.974  1.00  0.00    -0.246 A  
HETATM   24  C   UNL     1      -9.030  13.926  67.109  1.00  0.00    -0.242 A  
ENDBRANCH  12  13
ENDBRANCH   6  12
TORSDOF 2
ENDMDL
MODEL       92
REMARK 921   NORMALIZED FREE ENERGY PREDICTED BY IDOCK:   -4.76 KCAL/MOL
REMARK 922        TOTAL FREE ENERGY PREDICTED BY IDOCK:   -5.83 KCAL/MOL
REMARK 923 INTER-LIGAND FREE ENERGY PREDICTED BY IDOCK:   -5.41 KCAL/MOL
REMARK 924 INTRA-LIGAND FREE ENERGY PREDICTED BY IDOCK:   -0.42 KCAL/MOL
REMARK 927      BINDING AFFINITY PREDICTED BY RF-SCORE:    0.00 PKD
ROOT
HETATM    1  C   UNL     1      -6.877  14.418  69.599  1.00  0.00    -0.118 C  
HETATM    2  N   UNL     1      -6.464  15.845  69.293  1.00  0.00    -0.148 N  
HETATM    3  C   UNL     1      -7.525  16.961  69.513  1.00  0.00     0.164 C  
HETATM    4  C   UNL     1      -5.236  16.116  70.202  1.00  0.00    -0.156 C  
HETATM    5  C   UNL     1      -8.836  16.574  68.790  1.00  0.00    -0.255 C  
HETATM    6  C   UNL     1      -8.655  16.407  67.269  1.00  0.00    -0.181 C  
HETATM    7  C   UNL     1      -7.321  15.722  66.897  1.00  0.00    -0.174 C  
HETATM    8  O   UNL     1      -7.014  18.557  67.557  1.00  0.00    -0.203 OA 
HETATM    9  C   UNL     1      -6.133  16.163  67.807  1.00  0.00    -0.139 C  
HETATM   10  C   UNL     1      -6.854  18.203  68.923  1.00  0.00    -0.258 C  
HETATM   11  C   UNL     1      -5.932  17.679  67.818  1.00  0.00    -0.148 C  
ENDROOT
BRANCH   6  12
HETATM   12  O   UNL     1      -9.828  15.957  66.548  1.00  0.00    -0.236 OA 
BRANCH  12  13
HETATM   13  C   UNL     1     -11.020  15.767  67.150  1.00  0.00    -0.244 C  
HETATM   14  C   UNL     1     -11.501  13.605  65.701  1.00  0.00    -0.320 A  
HETATM   15  C   UNL     1     -11.546  14.334  67.047  1.00  0.00    -0.406 C  
HETATM   16  C   UNL     1     -10.962  13.469  68.169  1.00  0.00    -0.254 C  
HETATM   17  C   UNL     1     -12.632  12.863  65.305  1.00  0.00    -0.502 A  
HETATM   18  O   UNL     1      -9.616  13.071  67.920  1.00  0.00    -0.201 OA 
HETATM   19  O   UNL     1     -11.594  16.658  67.762  1.00  0.00     0.057 OA 
HETATM   20  C   UNL     1     -12.595  12.008  64.199  1.00  0.00    -0.413 A  
HETATM   21  H   UNL     1      -9.254  12.535  68.616  1.00  0.00     0.000 HD 
HETATM   22  C   UNL     1     -11.425  11.884  63.456  1.00  0.00    -0.523 A  
HETATM   23  C   UNL     1     -10.305  12.633  63.807  1.00  0.00    -0.360 A  
HETATM   24  C   UNL     1     -10.341  13.485  64.919  1.00  0.00    -0.395 A  
ENDBRANCH  12  13
ENDBRANCH   6  12
TORSDOF 2
ENDMDL
MODEL       93
REMARK 921   NORMALIZED FREE ENERGY PREDICTED BY IDOCK:   -4.76 KCAL/MOL
REMARK 922        TOTAL FREE ENERGY PREDICTED BY IDOCK:   -5.83 KCAL/MOL
REMARK 923 INTER-LIGAND FREE ENERGY PREDICTED BY IDOCK:   -5.44 KCAL/MOL
REMARK 924 INTRA-LIGAND FREE ENERGY PREDICTED BY IDOCK:   -0.39 KCAL/MOL
REMARK 927      BINDING AFFINITY PREDICTED BY RF-SCORE:    0.00 PKD
ROOT
HETATM    1  C   UNL     1     -10.645   7.658  67.003  1.00  0.00    -0.336 C  
HETATM    2  N   UNL     1      -9.318   8.370  66.820  1.00  0.00    -0.171 N  
HETATM    3  C   UNL     1      -8.871   9.352  67.940  1.00  0.00    -0.124 C  
HETATM    4  C   UNL     1      -8.267   7.238  66.677  1.00  0.00    -0.118 C  
HETATM    5  C   UNL     1     -10.018  10.343  68.245  1.00  0.00    -0.168 C  
HETATM    6  C   UNL     1     -10.415  11.193  67.023  1.00  0.00    -0.235 C  
HETATM    7  C   UNL     1     -10.401  10.388  65.704  1.00  0.00    -0.260 C  
HETATM    8  O   UNL     1      -7.733  11.216  66.575  1.00  0.00    -0.150 OA 
HETATM    9  C   UNL     1      -9.228   9.362  65.626  1.00  0.00    -0.226 C  
HETATM   10  C   UNL     1      -7.633  10.025  67.342  1.00  0.00    -0.091 C  
HETATM   11  C   UNL     1      -7.861  10.018  65.828  1.00  0.00    -0.128 C  
ENDROOT
BRANCH   6  12
HETATM   12  O   UNL     1     -11.545  12.078  67.219  1.00  0.00    -0.388 OA 
BRANCH  12  13
HETATM   13  C   UNL     1     -11.990  12.910  66.255  1.00  0.00    -0.408 C  
HETATM   14  C   UNL     1     -11.074  15.031  67.546  1.00  0.00    -0.317 A  
HETATM   15  C   UNL     1     -11.288  14.269  66.235  1.00  0.00    -0.347 C  
HETATM   16  C   UNL     1      -9.993  14.190  65.419  1.00  0.00    -0.291 C  
HETATM   17  C   UNL     1     -11.336  16.416  67.564  1.00  0.00     0.091 A  
HETATM   18  O   UNL     1      -8.927  13.567  66.131  1.00  0.00    -0.460 OA 
HETATM   19  O   UNL     1     -12.844  12.575  65.444  1.00  0.00    -0.554 OA 
HETATM   20  C   UNL     1     -10.972  17.214  68.653  1.00  0.00    -0.171 A  
HETATM   21  H   UNL     1      -8.123  13.517  65.625  1.00  0.00     0.000 HD 
HETATM   22  C   UNL     1     -10.346  16.641  69.755  1.00  0.00    -0.115 A  
HETATM   23  C   UNL     1     -10.109  15.270  69.776  1.00  0.00    -0.230 A  
HETATM   24  C   UNL     1     -10.468  14.471  68.682  1.00  0.00    -0.247 A  
ENDBRANCH  12  13
ENDBRANCH   6  12
TORSDOF 2
ENDMDL
MODEL       94
REMARK 921   NORMALIZED FREE ENERGY PREDICTED BY IDOCK:   -4.74 KCAL/MOL
REMARK 922        TOTAL FREE ENERGY PREDICTED BY IDOCK:   -5.81 KCAL/MOL
REMARK 923 INTER-LIGAND FREE ENERGY PREDICTED BY IDOCK:   -5.38 KCAL/MOL
REMARK 924 INTRA-LIGAND FREE ENERGY PREDICTED BY IDOCK:   -0.43 KCAL/MOL
REMARK 927      BINDING AFFINITY PREDICTED BY RF-SCORE:    0.00 PKD
ROOT
HETATM    1  C   UNL     1     -11.571  11.520  67.896  1.00  0.00    -0.282 C  
HETATM    2  N   UNL     1     -10.153  11.124  67.531  1.00  0.00    -0.181 N  
HETATM    3  C   UNL     1      -9.949   9.746  66.839  1.00  0.00    -0.211 C  
HETATM    4  C   UNL     1      -9.646  12.251  66.592  1.00  0.00    -0.223 C  
HETATM    5  C   UNL     1     -10.659   8.647  67.663  1.00  0.00    -0.272 C  
HETATM    6  C   UNL     1     -10.110   8.525  69.098  1.00  0.00    -0.203 C  
HETATM    7  C   UNL     1      -9.785   9.896  69.732  1.00  0.00    -0.266 C  
HETATM    8  O   UNL     1      -7.723   8.968  67.875  1.00  0.00    -0.095 OA 
HETATM    9  C   UNL     1      -9.170  10.909  68.717  1.00  0.00    -0.183 C  
HETATM   10  C   UNL     1      -8.427   9.590  66.810  1.00  0.00    -0.127 C  
HETATM   11  C   UNL     1      -7.917  10.364  68.029  1.00  0.00    -0.105 C  
ENDROOT
BRANCH   6  12
HETATM   12  O   UNL     1     -10.796   7.574  69.949  1.00  0.00    -0.248 OA 
BRANCH  12  13
HETATM   13  C   UNL     1     -11.488   7.950  71.044  1.00  0.00    -0.280 C  
HETATM   14  C   UNL     1     -10.796   5.748  72.340  1.00  0.00    -0.294 A  
HETATM   15  C   UNL     1     -11.034   7.261  72.333  1.00  0.00    -0.306 C  
HETATM   16  C   UNL     1      -9.852   8.015  72.953  1.00  0.00    -0.287 C  
HETATM   17  C   UNL     1     -11.284   5.001  73.431  1.00  0.00    -0.391 A  
HETATM   18  O   UNL     1      -8.617   7.752  72.291  1.00  0.00    -0.116 OA 
HETATM   19  O   UNL     1     -12.364   8.804  71.004  1.00  0.00    -0.259 OA 
HETATM   20  C   UNL     1     -10.931   3.660  73.613  1.00  0.00    -0.333 A  
HETATM   21  H   UNL     1      -7.884   8.219  72.674  1.00  0.00     0.000 HD 
HETATM   22  C   UNL     1     -10.089   3.033  72.701  1.00  0.00    -0.231 A  
HETATM   23  C   UNL     1      -9.623   3.740  71.597  1.00  0.00    -0.227 A  
HETATM   24  C   UNL     1      -9.971   5.085  71.417  1.00  0.00    -0.259 A  
ENDBRANCH  12  13
ENDBRANCH   6  12
TORSDOF 2
ENDMDL
MODEL       95
REMARK 921   NORMALIZED FREE ENERGY PREDICTED BY IDOCK:   -4.74 KCAL/MOL
REMARK 922        TOTAL FREE ENERGY PREDICTED BY IDOCK:   -5.81 KCAL/MOL
REMARK 923 INTER-LIGAND FREE ENERGY PREDICTED BY IDOCK:   -5.62 KCAL/MOL
REMARK 924 INTRA-LIGAND FREE ENERGY PREDICTED BY IDOCK:   -0.19 KCAL/MOL
REMARK 927      BINDING AFFINITY PREDICTED BY RF-SCORE:    0.00 PKD
ROOT
HETATM    1  C   UNL     1      -9.596  11.518  65.652  1.00  0.00    -0.231 C  
HETATM    2  N   UNL     1     -10.088  12.610  66.582  1.00  0.00    -0.236 N  
HETATM    3  C   UNL     1      -9.318  12.816  67.917  1.00  0.00    -0.208 C  
HETATM    4  C   UNL     1     -10.025  13.916  65.745  1.00  0.00    -0.284 C  
HETATM    5  C   UNL     1      -9.179  11.458  68.646  1.00  0.00    -0.149 C  
HETATM    6  C   UNL     1     -10.540  10.825  68.995  1.00  0.00    -0.219 C  
HETATM    7  C   UNL     1     -11.592  11.015  67.879  1.00  0.00    -0.306 C  
HETATM    8  O   UNL     1     -11.232  13.398  69.539  1.00  0.00    -0.214 OA 
HETATM    9  C   UNL     1     -11.506  12.411  67.189  1.00  0.00    -0.357 C  
HETATM   10  C   UNL     1     -10.189  13.822  68.673  1.00  0.00    -0.208 C  
HETATM   11  C   UNL     1     -11.618  13.567  68.185  1.00  0.00    -0.333 C  
ENDROOT
BRANCH   6  12
HETATM   12  O   UNL     1     -10.478   9.510  69.598  1.00  0.00    -0.201 OA 
BRANCH  12  13
HETATM   13  C   UNL     1      -9.985   8.436  68.946  1.00  0.00    -0.187 C  
HETATM   14  C   UNL     1      -9.716   7.083  71.205  1.00  0.00    -0.173 A  
HETATM   15  C   UNL     1     -10.109   7.125  69.725  1.00  0.00    -0.200 C  
HETATM   16  C   UNL     1     -11.487   6.496  69.495  1.00  0.00    -0.319 C  
HETATM   17  C   UNL     1      -8.957   5.987  71.662  1.00  0.00    -0.143 A  
HETATM   18  O   UNL     1     -12.518   7.128  70.251  1.00  0.00    -0.592 OA 
HETATM   19  O   UNL     1      -9.528   8.512  67.813  1.00  0.00    -0.142 OA 
HETATM   20  C   UNL     1      -8.736   5.771  73.027  1.00  0.00    -0.123 A  
HETATM   21  H   UNL     1     -13.373   6.738  70.109  1.00  0.00     0.000 HD 
HETATM   22  C   UNL     1      -9.264   6.653  73.964  1.00  0.00    -0.200 A  
HETATM   23  C   UNL     1      -9.987   7.762  73.534  1.00  0.00    -0.286 A  
HETATM   24  C   UNL     1     -10.214   7.975  72.168  1.00  0.00    -0.308 A  
ENDBRANCH  12  13
ENDBRANCH   6  12
TORSDOF 2
ENDMDL
MODEL       96
REMARK 921   NORMALIZED FREE ENERGY PREDICTED BY IDOCK:   -4.72 KCAL/MOL
REMARK 922        TOTAL FREE ENERGY PREDICTED BY IDOCK:   -5.78 KCAL/MOL
REMARK 923 INTER-LIGAND FREE ENERGY PREDICTED BY IDOCK:   -5.21 KCAL/MOL
REMARK 924 INTRA-LIGAND FREE ENERGY PREDICTED BY IDOCK:   -0.57 KCAL/MOL
REMARK 927      BINDING AFFINITY PREDICTED BY RF-SCORE:    0.00 PKD
ROOT
HETATM    1  C   UNL     1      -8.327  11.111  66.194  1.00  0.00    -0.144 C  
HETATM    2  N   UNL     1      -8.644   9.633  66.307  1.00  0.00    -0.126 N  
HETATM    3  C   UNL     1     -10.133   9.233  66.509  1.00  0.00    -0.273 C  
HETATM    4  C   UNL     1      -8.116   9.003  64.990  1.00  0.00    -0.137 C  
HETATM    5  C   UNL     1     -10.727  10.040  67.687  1.00  0.00    -0.340 C  
HETATM    6  C   UNL     1      -9.998   9.781  69.019  1.00  0.00    -0.184 C  
HETATM    7  C   UNL     1      -8.468   9.651  68.848  1.00  0.00    -0.125 C  
HETATM    8  O   UNL     1      -9.919   7.221  68.104  1.00  0.00    -0.149 OA 
HETATM    9  C   UNL     1      -8.060   8.895  67.545  1.00  0.00    -0.109 C  
HETATM   10  C   UNL     1     -10.057   7.729  66.785  1.00  0.00    -0.270 C  
HETATM   11  C   UNL     1      -8.695   7.507  67.448  1.00  0.00    -0.124 C  
ENDROOT
BRANCH   6  12
HETATM   12  O   UNL     1     -10.450  10.576  70.142  1.00  0.00    -0.207 OA 
BRANCH  12  13
HETATM   13  C   UNL     1     -11.071  10.034  71.210  1.00  0.00    -0.114 C  
HETATM   14  C   UNL     1     -12.648  12.143  71.470  1.00  0.00    -0.267 A  
HETATM   15  C   UNL     1     -12.454  10.624  71.491  1.00  0.00    -0.471 C  
HETATM   16  C   UNL     1     -13.519   9.914  70.648  1.00  0.00     0.070 C  
HETATM   17  C   UNL     1     -13.417  12.732  72.494  1.00  0.00    -0.372 A  
HETATM   18  O   UNL     1     -13.529  10.346  69.289  1.00  0.00     0.418 OA 
HETATM   19  O   UNL     1     -10.580   9.118  71.857  1.00  0.00    -0.348 OA 
HETATM   20  C   UNL     1     -13.811  14.073  72.433  1.00  0.00    -0.653 A  
HETATM   21  H   UNL     1     -14.189   9.906  68.766  1.00  0.00     0.000 HD 
HETATM   22  C   UNL     1     -13.435  14.858  71.348  1.00  0.00    -0.502 A  
HETATM   23  C   UNL     1     -12.646  14.308  70.342  1.00  0.00    -0.405 A  
HETATM   24  C   UNL     1     -12.256  12.964  70.400  1.00  0.00    -0.381 A  
ENDBRANCH  12  13
ENDBRANCH   6  12
TORSDOF 2
ENDMDL
MODEL       97
REMARK 921   NORMALIZED FREE ENERGY PREDICTED BY IDOCK:   -4.69 KCAL/MOL
REMARK 922        TOTAL FREE ENERGY PREDICTED BY IDOCK:   -5.75 KCAL/MOL
REMARK 923 INTER-LIGAND FREE ENERGY PREDICTED BY IDOCK:   -5.04 KCAL/MOL
REMARK 924 INTRA-LIGAND FREE ENERGY PREDICTED BY IDOCK:   -0.70 KCAL/MOL
REMARK 927      BINDING AFFINITY PREDICTED BY RF-SCORE:    0.00 PKD
ROOT
HETATM    1  C   UNL     1     -11.140  10.846  68.894  1.00  0.00    -0.252 C  
HETATM    2  N   UNL     1     -10.999  12.277  68.413  1.00  0.00    -0.222 N  
HETATM    3  C   UNL     1     -11.496  12.603  66.976  1.00  0.00    -0.346 C  
HETATM    4  C   UNL     1     -11.793  13.130  69.438  1.00  0.00    -0.326 C  
HETATM    5  C   UNL     1     -10.878  11.596  65.977  1.00  0.00    -0.339 C  
HETATM    6  C   UNL     1      -9.338  11.647  65.952  1.00  0.00    -0.218 C  
HETATM    7  C   UNL     1      -8.723  11.840  67.356  1.00  0.00    -0.162 C  
HETATM    8  O   UNL     1      -9.746  14.324  66.197  1.00  0.00    -0.297 OA 
HETATM    9  C   UNL     1      -9.547  12.812  68.257  1.00  0.00    -0.211 C  
HETATM   10  C   UNL     1     -11.020  14.041  66.757  1.00  0.00    -0.297 C  
HETATM   11  C   UNL     1      -9.754  14.181  67.607  1.00  0.00    -0.228 C  
ENDROOT
BRANCH   6  12
HETATM   12  O   UNL     1      -8.696  10.665  65.102  1.00  0.00    -0.187 OA 
BRANCH  12  13
HETATM   13  C   UNL     1      -7.464  10.180  65.360  1.00  0.00    -0.144 C  
HETATM   14  C   UNL     1      -8.465   8.066  66.599  1.00  0.00    -0.133 A  
HETATM   15  C   UNL     1      -7.435   8.677  65.644  1.00  0.00    -0.085 C  
HETATM   16  C   UNL     1      -7.355   7.887  64.333  1.00  0.00    -0.087 C  
HETATM   17  C   UNL     1      -8.019   7.123  67.548  1.00  0.00    -0.113 A  
HETATM   18  O   UNL     1      -8.606   7.810  63.654  1.00  0.00    -0.370 OA 
HETATM   19  O   UNL     1      -6.462  10.881  65.318  1.00  0.00     0.002 OA 
HETATM   20  C   UNL     1      -8.919   6.373  68.311  1.00  0.00    -0.116 A  
HETATM   21  H   UNL     1      -8.556   7.321  62.841  1.00  0.00     0.000 HD 
HETATM   22  C   UNL     1     -10.288   6.557  68.149  1.00  0.00    -0.223 A  
HETATM   23  C   UNL     1     -10.753   7.507  67.243  1.00  0.00    -0.365 A  
HETATM   24  C   UNL     1      -9.851   8.255  66.475  1.00  0.00    -0.323 A  
ENDBRANCH  12  13
ENDBRANCH   6  12
TORSDOF 2
ENDMDL
MODEL       98
REMARK 921   NORMALIZED FREE ENERGY PREDICTED BY IDOCK:   -4.68 KCAL/MOL
REMARK 922        TOTAL FREE ENERGY PREDICTED BY IDOCK:   -5.74 KCAL/MOL
REMARK 923 INTER-LIGAND FREE ENERGY PREDICTED BY IDOCK:   -4.98 KCAL/MOL
REMARK 924 INTRA-LIGAND FREE ENERGY PREDICTED BY IDOCK:   -0.76 KCAL/MOL
REMARK 927      BINDING AFFINITY PREDICTED BY RF-SCORE:    0.00 PKD
ROOT
HETATM    1  C   UNL     1      -7.236   8.004  67.372  1.00  0.00    -0.088 C  
HETATM    2  N   UNL     1      -7.391   8.437  65.927  1.00  0.00    -0.072 N  
HETATM    3  C   UNL     1      -6.997   9.898  65.571  1.00  0.00    -0.110 C  
HETATM    4  C   UNL     1      -6.510   7.453  65.112  1.00  0.00    -0.038 C  
HETATM    5  C   UNL     1      -7.703  10.873  66.543  1.00  0.00    -0.149 C  
HETATM    6  C   UNL     1      -9.240  10.782  66.471  1.00  0.00    -0.168 C  
HETATM    7  C   UNL     1      -9.746   9.331  66.306  1.00  0.00    -0.340 C  
HETATM    8  O   UNL     1      -8.774  10.501  63.806  1.00  0.00    -0.181 OA 
HETATM    9  C   UNL     1      -8.842   8.471  65.369  1.00  0.00    -0.130 C  
HETATM   10  C   UNL     1      -7.466  10.045  64.122  1.00  0.00    -0.132 C  
HETATM   11  C   UNL     1      -8.663   9.099  63.987  1.00  0.00    -0.137 C  
ENDROOT
BRANCH   6  12
HETATM   12  O   UNL     1      -9.958  11.606  67.421  1.00  0.00    -0.182 OA 
BRANCH  12  13
HETATM   13  C   UNL     1     -11.291  11.804  67.346  1.00  0.00    -0.311 C  
HETATM   14  C   UNL     1     -11.687  10.584  69.661  1.00  0.00    -0.328 A  
HETATM   15  C   UNL     1     -12.007  11.729  68.695  1.00  0.00    -0.299 C  
HETATM   16  C   UNL     1     -11.954  13.087  69.404  1.00  0.00    -0.281 C  
HETATM   17  C   UNL     1     -12.759   9.944  70.316  1.00  0.00     0.072 A  
HETATM   18  O   UNL     1     -10.689  13.349  70.007  1.00  0.00    -0.123 OA 
HETATM   19  O   UNL     1     -11.855  12.068  66.292  1.00  0.00    -0.563 OA 
HETATM   20  C   UNL     1     -12.541   9.037  71.358  1.00  0.00    -0.370 A  
HETATM   21  H   UNL     1     -10.655  14.191  70.446  1.00  0.00     0.000 HD 
HETATM   22  C   UNL     1     -11.243   8.743  71.763  1.00  0.00    -0.410 A  
HETATM   23  C   UNL     1     -10.167   9.337  71.108  1.00  0.00    -0.387 A  
HETATM   24  C   UNL     1     -10.385  10.249  70.068  1.00  0.00    -0.255 A  
ENDBRANCH  12  13
ENDBRANCH   6  12
TORSDOF 2
ENDMDL
MODEL       99
REMARK 921   NORMALIZED FREE ENERGY PREDICTED BY IDOCK:   -4.64 KCAL/MOL
REMARK 922        TOTAL FREE ENERGY PREDICTED BY IDOCK:   -5.69 KCAL/MOL
REMARK 923 INTER-LIGAND FREE ENERGY PREDICTED BY IDOCK:   -5.33 KCAL/MOL
REMARK 924 INTRA-LIGAND FREE ENERGY PREDICTED BY IDOCK:   -0.37 KCAL/MOL
REMARK 927      BINDING AFFINITY PREDICTED BY RF-SCORE:    0.00 PKD
ROOT
HETATM    1  C   UNL     1     -10.997   7.859  69.867  1.00  0.00    -0.178 C  
HETATM    2  N   UNL     1     -10.074   7.523  68.711  1.00  0.00    -0.180 N  
HETATM    3  C   UNL     1      -8.667   8.187  68.701  1.00  0.00    -0.134 C  
HETATM    4  C   UNL     1      -9.914   5.980  68.754  1.00  0.00    -0.150 C  
HETATM    5  C   UNL     1      -8.818   9.715  68.892  1.00  0.00    -0.136 C  
HETATM    6  C   UNL     1      -9.647  10.379  67.776  1.00  0.00    -0.152 C  
HETATM    7  C   UNL     1     -10.852   9.519  67.333  1.00  0.00    -0.215 C  
HETATM    8  O   UNL     1      -8.314   8.620  66.187  1.00  0.00    -0.115 OA 
HETATM    9  C   UNL     1     -10.535   7.992  67.302  1.00  0.00    -0.314 C  
HETATM   10  C   UNL     1      -8.108   7.802  67.330  1.00  0.00    -0.119 C  
HETATM   11  C   UNL     1      -9.331   7.660  66.419  1.00  0.00    -0.172 C  
ENDROOT
BRANCH   6  12
HETATM   12  O   UNL     1      -9.900  11.795  67.946  1.00  0.00    -0.174 OA 
BRANCH  12  13
HETATM   13  C   UNL     1     -11.096  12.273  68.347  1.00  0.00    -0.243 C  
HETATM   14  C   UNL     1     -10.578  14.660  67.327  1.00  0.00    -0.284 A  
HETATM   15  C   UNL     1     -11.560  13.512  67.578  1.00  0.00    -0.385 C  
HETATM   16  C   UNL     1     -12.279  13.100  66.289  1.00  0.00    -0.355 C  
HETATM   17  C   UNL     1     -11.033  15.980  67.518  1.00  0.00    -0.261 A  
HETATM   18  O   UNL     1     -11.380  12.704  65.255  1.00  0.00    -0.297 OA 
HETATM   19  O   UNL     1     -11.761  11.726  69.217  1.00  0.00    -0.283 OA 
HETATM   20  C   UNL     1     -10.269  17.081  67.115  1.00  0.00    -0.306 A  
HETATM   21  H   UNL     1     -11.825  12.449  64.455  1.00  0.00     0.000 HD 
HETATM   22  C   UNL     1      -9.028  16.884  66.519  1.00  0.00    -0.303 A  
HETATM   23  C   UNL     1      -8.543  15.590  66.352  1.00  0.00    -0.292 A  
HETATM   24  C   UNL     1      -9.309  14.488  66.750  1.00  0.00    -0.278 A  
ENDBRANCH  12  13
ENDBRANCH   6  12
TORSDOF 2
ENDMDL
MODEL      100
REMARK 921   NORMALIZED FREE ENERGY PREDICTED BY IDOCK:   -4.64 KCAL/MOL
REMARK 922        TOTAL FREE ENERGY PREDICTED BY IDOCK:   -5.69 KCAL/MOL
REMARK 923 INTER-LIGAND FREE ENERGY PREDICTED BY IDOCK:   -4.87 KCAL/MOL
REMARK 924 INTRA-LIGAND FREE ENERGY PREDICTED BY IDOCK:   -0.82 KCAL/MOL
REMARK 927      BINDING AFFINITY PREDICTED BY RF-SCORE:    0.00 PKD
ROOT
HETATM    1  C   UNL     1      -8.895  10.361  64.170  1.00  0.00    -0.214 C  
HETATM    2  N   UNL     1      -7.758   9.512  64.705  1.00  0.00    -0.115 N  
HETATM    3  C   UNL     1      -8.118   8.111  65.277  1.00  0.00    -0.136 C  
HETATM    4  C   UNL     1      -6.781   9.344  63.510  1.00  0.00    -0.095 C  
HETATM    5  C   UNL     1      -9.262   8.255  66.308  1.00  0.00    -0.258 C  
HETATM    6  C   UNL     1      -8.884   9.155  67.501  1.00  0.00    -0.119 C  
HETATM    7  C   UNL     1      -8.045  10.383  67.081  1.00  0.00    -0.115 C  
HETATM    8  O   UNL     1      -6.475   7.920  67.252  1.00  0.00    -0.053 OA 
HETATM    9  C   UNL     1      -7.014  10.063  65.954  1.00  0.00    -0.113 C  
HETATM   10  C   UNL     1      -6.801   7.638  65.898  1.00  0.00    -0.057 C  
HETATM   11  C   UNL     1      -6.074   8.916  66.326  1.00  0.00    -0.063 C  
ENDROOT
BRANCH   6  12
HETATM   12  O   UNL     1      -9.945   9.402  68.455  1.00  0.00    -0.163 OA 
BRANCH  12  13
HETATM   13  C   UNL     1      -9.748  10.103  69.591  1.00  0.00    -0.221 C  
HETATM   14  C   UNL     1     -10.951  12.235  68.584  1.00  0.00    -0.276 A  
HETATM   15  C   UNL     1     -10.699  11.289  69.763  1.00  0.00     0.007 C  
HETATM   16  C   UNL     1     -12.014  10.831  70.401  1.00  0.00    -0.357 C  
HETATM   17  C   UNL     1     -10.962  13.622  68.833  1.00  0.00    -0.281 A  
HETATM   18  O   UNL     1     -12.880  10.175  69.477  1.00  0.00    -0.400 OA 
HETATM   19  O   UNL     1      -8.913   9.777  70.425  1.00  0.00    -0.223 OA 
HETATM   20  C   UNL     1     -11.386  14.534  67.861  1.00  0.00    -0.329 A  
HETATM   21  H   UNL     1     -13.696   9.890  69.872  1.00  0.00     0.000 HD 
HETATM   22  C   UNL     1     -11.799  14.078  66.614  1.00  0.00    -0.443 A  
HETATM   23  C   UNL     1     -11.764  12.715  66.333  1.00  0.00    -0.466 A  
HETATM   24  C   UNL     1     -11.345  11.801  67.308  1.00  0.00    -0.379 A  
ENDBRANCH  12  13
ENDBRANCH   6  12
TORSDOF 2
ENDMDL
MODEL      101
REMARK 921   NORMALIZED FREE ENERGY PREDICTED BY IDOCK:   -4.63 KCAL/MOL
REMARK 922        TOTAL FREE ENERGY PREDICTED BY IDOCK:   -5.69 KCAL/MOL
REMARK 923 INTER-LIGAND FREE ENERGY PREDICTED BY IDOCK:   -5.26 KCAL/MOL
REMARK 924 INTRA-LIGAND FREE ENERGY PREDICTED BY IDOCK:   -0.43 KCAL/MOL
REMARK 927      BINDING AFFINITY PREDICTED BY RF-SCORE:    0.00 PKD
ROOT
HETATM    1  C   UNL     1      -9.346   8.909  71.003  1.00  0.00    -0.249 C  
HETATM    2  N   UNL     1      -9.436   8.437  69.565  1.00  0.00    -0.165 N  
HETATM    3  C   UNL     1      -8.212   8.705  68.644  1.00  0.00    -0.121 C  
HETATM    4  C   UNL     1      -9.687   6.907  69.654  1.00  0.00    -0.155 C  
HETATM    5  C   UNL     1      -7.817  10.198  68.736  1.00  0.00    -0.098 C  
HETATM    6  C   UNL     1      -8.946  11.145  68.285  1.00  0.00    -0.166 C  
HETATM    7  C   UNL     1     -10.343  10.672  68.746  1.00  0.00    -0.210 C  
HETATM    8  O   UNL     1      -9.357   9.232  66.397  1.00  0.00    -0.164 OA 
HETATM    9  C   UNL     1     -10.516   9.122  68.681  1.00  0.00    -0.207 C  
HETATM   10  C   UNL     1      -8.720   8.299  67.258  1.00  0.00    -0.123 C  
HETATM   11  C   UNL     1     -10.229   8.557  67.289  1.00  0.00    -0.276 C  
ENDROOT
BRANCH   6  12
HETATM   12  O   UNL     1      -8.670  12.559  68.433  1.00  0.00    -0.177 OA 
BRANCH  12  13
HETATM   13  C   UNL     1      -7.954  13.256  67.527  1.00  0.00    -0.184 C  
HETATM   14  C   UNL     1     -10.148  14.034  66.267  1.00  0.00    -0.307 A  
HETATM   15  C   UNL     1      -8.751  14.348  66.811  1.00  0.00    -0.187 C  
HETATM   16  C   UNL     1      -8.753  15.637  67.641  1.00  0.00    -0.175 C  
HETATM   17  C   UNL     1     -10.483  14.502  64.981  1.00  0.00    -0.454 A  
HETATM   18  O   UNL     1      -9.662  15.589  68.738  1.00  0.00    -0.195 OA 
HETATM   19  O   UNL     1      -6.761  13.054  67.340  1.00  0.00    -0.164 OA 
HETATM   20  C   UNL     1     -11.795  14.436  64.499  1.00  0.00    -0.463 A  
HETATM   21  H   UNL     1      -9.664  16.388  69.253  1.00  0.00     0.000 HD 
HETATM   22  C   UNL     1     -12.800  13.891  65.292  1.00  0.00    -0.437 A  
HETATM   23  C   UNL     1     -12.485  13.390  66.552  1.00  0.00    -0.255 A  
HETATM   24  C   UNL     1     -11.173  13.461  67.037  1.00  0.00    -0.328 A  
ENDBRANCH  12  13
ENDBRANCH   6  12
TORSDOF 2
ENDMDL
MODEL      102
REMARK 921   NORMALIZED FREE ENERGY PREDICTED BY IDOCK:   -4.63 KCAL/MOL
REMARK 922        TOTAL FREE ENERGY PREDICTED BY IDOCK:   -5.69 KCAL/MOL
REMARK 923 INTER-LIGAND FREE ENERGY PREDICTED BY IDOCK:   -5.17 KCAL/MOL
REMARK 924 INTRA-LIGAND FREE ENERGY PREDICTED BY IDOCK:   -0.52 KCAL/MOL
REMARK 927      BINDING AFFINITY PREDICTED BY RF-SCORE:    0.00 PKD
ROOT
HETATM    1  C   UNL     1      -7.248   8.341  66.859  1.00  0.00    -0.083 C  
HETATM    2  N   UNL     1      -7.426   8.740  65.407  1.00  0.00    -0.085 N  
HETATM    3  C   UNL     1      -6.997  10.178  65.001  1.00  0.00    -0.135 C  
HETATM    4  C   UNL     1      -6.596   7.707  64.597  1.00  0.00    -0.044 C  
HETATM    5  C   UNL     1      -7.648  11.200  65.962  1.00  0.00     0.023 C  
HETATM    6  C   UNL     1      -9.188  11.155  65.931  1.00  0.00    -0.206 C  
HETATM    7  C   UNL     1      -9.742   9.717  65.819  1.00  0.00    -0.350 C  
HETATM    8  O   UNL     1      -8.799  10.788  63.265  1.00  0.00    -0.188 OA 
HETATM    9  C   UNL     1      -8.889   8.804  64.884  1.00  0.00    -0.074 C  
HETATM   10  C   UNL     1      -7.498  10.300  63.560  1.00  0.00    -0.098 C  
HETATM   11  C   UNL     1      -8.727   9.389  63.481  1.00  0.00    -0.204 C  
ENDROOT
BRANCH   6  12
HETATM   12  O   UNL     1      -9.857  12.026  66.876  1.00  0.00    -0.200 OA 
BRANCH  12  13
HETATM   13  C   UNL     1     -11.133  12.430  66.711  1.00  0.00    -0.285 C  
HETATM   14  C   UNL     1     -10.436  14.978  66.862  1.00  0.00    -0.279 A  
HETATM   15  C   UNL     1     -11.271  13.870  66.214  1.00  0.00    -0.310 C  
HETATM   16  C   UNL     1     -11.171  13.919  64.685  1.00  0.00    -0.378 C  
HETATM   17  C   UNL     1     -11.069  16.201  67.163  1.00  0.00    -0.053 A  
HETATM   18  O   UNL     1      -9.830  13.805  64.213  1.00  0.00    -0.692 OA 
HETATM   19  O   UNL     1     -12.085  11.683  66.898  1.00  0.00    -0.512 OA 
HETATM   20  C   UNL     1     -10.336  17.324  67.561  1.00  0.00    -0.346 A  
HETATM   21  H   UNL     1      -9.768  13.835  63.265  1.00  0.00     0.000 HD 
HETATM   22  C   UNL     1      -8.952  17.245  67.677  1.00  0.00    -0.224 A  
HETATM   23  C   UNL     1      -8.308  16.038  67.419  1.00  0.00    -0.188 A  
HETATM   24  C   UNL     1      -9.041  14.915  67.015  1.00  0.00    -0.255 A  
ENDBRANCH  12  13
ENDBRANCH   6  12
TORSDOF 2
ENDMDL
MODEL      103
REMARK 921   NORMALIZED FREE ENERGY PREDICTED BY IDOCK:   -4.62 KCAL/MOL
REMARK 922        TOTAL FREE ENERGY PREDICTED BY IDOCK:   -5.67 KCAL/MOL
REMARK 923 INTER-LIGAND FREE ENERGY PREDICTED BY IDOCK:   -5.14 KCAL/MOL
REMARK 924 INTRA-LIGAND FREE ENERGY PREDICTED BY IDOCK:   -0.53 KCAL/MOL
REMARK 927      BINDING AFFINITY PREDICTED BY RF-SCORE:    0.00 PKD
ROOT
HETATM    1  C   UNL     1     -11.900  11.793  68.908  1.00  0.00    -0.320 C  
HETATM    2  N   UNL     1     -10.977  11.833  67.706  1.00  0.00    -0.212 N  
HETATM    3  C   UNL     1     -10.981  10.600  66.757  1.00  0.00    -0.115 C  
HETATM    4  C   UNL     1     -11.403  13.096  66.910  1.00  0.00    -0.318 C  
HETATM    5  C   UNL     1     -10.786   9.311  67.589  1.00  0.00    -0.276 C  
HETATM    6  C   UNL     1      -9.451   9.292  68.360  1.00  0.00    -0.138 C  
HETATM    7  C   UNL     1      -9.082  10.671  68.950  1.00  0.00    -0.181 C  
HETATM    8  O   UNL     1      -8.497  10.448  66.091  1.00  0.00    -0.137 OA 
HETATM    9  C   UNL     1      -9.452  11.859  68.007  1.00  0.00    -0.197 C  
HETATM   10  C   UNL     1      -9.818  10.887  65.805  1.00  0.00    -0.237 C  
HETATM   11  C   UNL     1      -8.825  11.723  66.618  1.00  0.00    -0.189 C  
ENDROOT
BRANCH   6  12
HETATM   12  O   UNL     1      -9.250   8.151  69.229  1.00  0.00    -0.151 OA 
BRANCH  12  13
HETATM   13  C   UNL     1      -8.725   6.989  68.788  1.00  0.00    -0.127 C  
HETATM   14  C   UNL     1     -10.004   5.608  70.649  1.00  0.00    -0.260 A  
HETATM   15  C   UNL     1      -9.522   5.750  69.202  1.00  0.00    -0.157 C  
HETATM   16  C   UNL     1     -10.658   5.489  68.208  1.00  0.00    -0.136 C  
HETATM   17  C   UNL     1      -9.862   4.356  71.280  1.00  0.00    -0.260 A  
HETATM   18  O   UNL     1     -11.772   6.359  68.397  1.00  0.00    -0.440 OA 
HETATM   19  O   UNL     1      -7.728   6.948  68.079  1.00  0.00    -0.108 OA 
HETATM   20  C   UNL     1     -10.459   4.089  72.516  1.00  0.00    -0.190 A  
HETATM   21  H   UNL     1     -12.476   6.198  67.780  1.00  0.00     0.000 HD 
HETATM   22  C   UNL     1     -11.206   5.074  73.154  1.00  0.00    -0.408 A  
HETATM   23  C   UNL     1     -11.331   6.330  72.567  1.00  0.00    -0.313 A  
HETATM   24  C   UNL     1     -10.738   6.596  71.326  1.00  0.00    -0.269 A  
ENDBRANCH  12  13
ENDBRANCH   6  12
TORSDOF 2
ENDMDL
MODEL      104
REMARK 921   NORMALIZED FREE ENERGY PREDICTED BY IDOCK:   -4.60 KCAL/MOL
REMARK 922        TOTAL FREE ENERGY PREDICTED BY IDOCK:   -5.65 KCAL/MOL
REMARK 923 INTER-LIGAND FREE ENERGY PREDICTED BY IDOCK:   -5.19 KCAL/MOL
REMARK 924 INTRA-LIGAND FREE ENERGY PREDICTED BY IDOCK:   -0.46 KCAL/MOL
REMARK 927      BINDING AFFINITY PREDICTED BY RF-SCORE:    0.00 PKD
ROOT
HETATM    1  C   UNL     1     -10.908   9.589  66.785  1.00  0.00     0.039 C  
HETATM    2  N   UNL     1      -9.967   9.250  67.925  1.00  0.00    -0.178 N  
HETATM    3  C   UNL     1     -10.473   9.513  69.373  1.00  0.00    -0.217 C  
HETATM    4  C   UNL     1      -9.652   7.740  67.756  1.00  0.00    -0.146 C  
HETATM    5  C   UNL     1     -11.006  10.961  69.477  1.00  0.00    -0.306 C  
HETATM    6  C   UNL     1      -9.929  12.019  69.169  1.00  0.00     0.268 C  
HETATM    7  C   UNL     1      -8.999  11.605  68.006  1.00  0.00    -0.176 C  
HETATM    8  O   UNL     1      -8.319  10.309  70.539  1.00  0.00     0.112 OA 
HETATM    9  C   UNL     1      -8.657  10.083  68.008  1.00  0.00    -0.121 C  
HETATM   10  C   UNL     1      -9.229   9.264  70.229  1.00  0.00    -0.237 C  
HETATM   11  C   UNL     1      -8.041   9.622  69.330  1.00  0.00    -0.118 C  
ENDROOT
BRANCH   6  12
HETATM   12  O   UNL     1     -10.389  13.393  69.161  1.00  0.00    -0.054 OA 
BRANCH  12  13
HETATM   13  C   UNL     1     -11.496  13.782  68.497  1.00  0.00    -0.307 C  
HETATM   14  C   UNL     1     -12.476  14.964  70.653  1.00  0.00    -0.411 A  
HETATM   15  C   UNL     1     -12.225  14.962  69.142  1.00  0.00    -0.194 C  
HETATM   16  C   UNL     1     -11.611  16.287  68.677  1.00  0.00    -0.216 C  
HETATM   17  C   UNL     1     -13.745  15.365  71.118  1.00  0.00    -0.497 A  
HETATM   18  O   UNL     1     -10.384  16.591  69.336  1.00  0.00    -0.286 OA 
HETATM   19  O   UNL     1     -11.846  13.261  67.446  1.00  0.00    -0.352 OA 
HETATM   20  C   UNL     1     -13.986  15.590  72.477  1.00  0.00    -0.646 A  
HETATM   21  H   UNL     1     -10.002  17.412  69.048  1.00  0.00     0.000 HD 
HETATM   22  C   UNL     1     -12.965  15.409  73.403  1.00  0.00    -0.662 A  
HETATM   23  C   UNL     1     -11.713  14.979  72.972  1.00  0.00    -0.321 A  
HETATM   24  C   UNL     1     -11.469  14.759  71.610  1.00  0.00    -0.167 A  
ENDBRANCH  12  13
ENDBRANCH   6  12
TORSDOF 2
ENDMDL
MODEL      105
REMARK 921   NORMALIZED FREE ENERGY PREDICTED BY IDOCK:   -4.54 KCAL/MOL
REMARK 922        TOTAL FREE ENERGY PREDICTED BY IDOCK:   -5.59 KCAL/MOL
REMARK 923 INTER-LIGAND FREE ENERGY PREDICTED BY IDOCK:   -5.21 KCAL/MOL
REMARK 924 INTRA-LIGAND FREE ENERGY PREDICTED BY IDOCK:   -0.38 KCAL/MOL
REMARK 927      BINDING AFFINITY PREDICTED BY RF-SCORE:    0.00 PKD
ROOT
HETATM    1  C   UNL     1     -11.909  13.982  65.539  1.00  0.00    -0.365 C  
HETATM    2  N   UNL     1     -10.852  14.808  66.246  1.00  0.00    -0.315 N  
HETATM    3  C   UNL     1      -9.407  14.235  66.291  1.00  0.00    -0.208 C  
HETATM    4  C   UNL     1     -10.842  16.173  65.507  1.00  0.00    -0.270 C  
HETATM    5  C   UNL     1      -9.446  12.781  66.816  1.00  0.00    -0.243 C  
HETATM    6  C   UNL     1     -10.026  12.673  68.239  1.00  0.00    -0.229 C  
HETATM    7  C   UNL     1     -11.221  13.625  68.471  1.00  0.00    -0.310 C  
HETATM    8  O   UNL     1      -8.629  14.972  68.634  1.00  0.00    -0.158 OA 
HETATM    9  C   UNL     1     -11.044  15.010  67.776  1.00  0.00    -0.310 C  
HETATM   10  C   UNL     1      -8.678  15.198  67.232  1.00  0.00    -0.202 C  
HETATM   11  C   UNL     1      -9.752  15.715  68.193  1.00  0.00    -0.204 C  
ENDROOT
BRANCH   6  12
HETATM   12  O   UNL     1     -10.173  11.326  68.752  1.00  0.00    -0.198 OA 
BRANCH  12  13
HETATM   13  C   UNL     1     -11.154  10.497  68.339  1.00  0.00    -0.281 C  
HETATM   14  C   UNL     1     -10.653   8.791  70.299  1.00  0.00    -0.239 A  
HETATM   15  C   UNL     1     -11.659   9.543  69.422  1.00  0.00     0.225 C  
HETATM   16  C   UNL     1     -12.739  10.223  70.271  1.00  0.00    -0.102 C  
HETATM   17  C   UNL     1     -10.882   7.424  70.556  1.00  0.00    -0.259 A  
HETATM   18  O   UNL     1     -12.201  11.138  71.223  1.00  0.00    -0.312 OA 
HETATM   19  O   UNL     1     -11.622  10.549  67.209  1.00  0.00    -0.327 OA 
HETATM   20  C   UNL     1     -10.131   6.724  71.506  1.00  0.00    -0.196 A  
HETATM   21  H   UNL     1     -12.871  11.560  71.750  1.00  0.00     0.000 HD 
HETATM   22  C   UNL     1      -9.126   7.375  72.214  1.00  0.00    -0.160 A  
HETATM   23  C   UNL     1      -8.857   8.715  71.952  1.00  0.00    -0.275 A  
HETATM   24  C   UNL     1      -9.613   9.418  71.005  1.00  0.00    -0.272 A  
ENDBRANCH  12  13
ENDBRANCH   6  12
TORSDOF 2
ENDMDL
MODEL      106
REMARK 921   NORMALIZED FREE ENERGY PREDICTED BY IDOCK:   -4.54 KCAL/MOL
REMARK 922        TOTAL FREE ENERGY PREDICTED BY IDOCK:   -5.58 KCAL/MOL
REMARK 923 INTER-LIGAND FREE ENERGY PREDICTED BY IDOCK:   -4.92 KCAL/MOL
REMARK 924 INTRA-LIGAND FREE ENERGY PREDICTED BY IDOCK:   -0.67 KCAL/MOL
REMARK 927      BINDING AFFINITY PREDICTED BY RF-SCORE:    0.00 PKD
ROOT
HETATM    1  C   UNL     1      -9.755   8.011  69.632  1.00  0.00    -0.169 C  
HETATM    2  N   UNL     1      -8.336   8.539  69.542  1.00  0.00    -0.116 N  
HETATM    3  C   UNL     1      -8.096  10.021  69.948  1.00  0.00    -0.166 C  
HETATM    4  C   UNL     1      -7.498   7.611  70.461  1.00  0.00    -0.079 C  
HETATM    5  C   UNL     1      -9.098  10.929  69.197  1.00  0.00    -0.058 C  
HETATM    6  C   UNL     1      -8.950  10.845  67.666  1.00  0.00    -0.140 C  
HETATM    7  C   UNL     1      -8.668   9.409  67.171  1.00  0.00    -0.134 C  
HETATM    8  O   UNL     1      -6.297  10.741  68.252  1.00  0.00    -0.056 OA 
HETATM    9  C   UNL     1      -7.717   8.611  68.117  1.00  0.00    -0.102 C  
HETATM   10  C   UNL     1      -6.640  10.263  69.545  1.00  0.00    -0.066 C  
HETATM   11  C   UNL     1      -6.389   9.330  68.357  1.00  0.00    -0.053 C  
ENDROOT
BRANCH   6  12
HETATM   12  O   UNL     1      -9.920  11.604  66.904  1.00  0.00    -0.198 OA 
BRANCH  12  13
HETATM   13  C   UNL     1     -11.206  11.733  67.292  1.00  0.00    -0.305 C  
HETATM   14  C   UNL     1     -10.865  14.295  67.862  1.00  0.00    -0.260 A  
HETATM   15  C   UNL     1     -11.722  13.173  67.267  1.00  0.00    -0.425 C  
HETATM   16  C   UNL     1     -12.221  13.537  65.864  1.00  0.00    -0.460 C  
HETATM   17  C   UNL     1     -11.499  15.262  68.669  1.00  0.00    -0.350 A  
HETATM   18  O   UNL     1     -11.160  13.823  64.955  1.00  0.00    -0.318 OA 
HETATM   19  O   UNL     1     -11.900  10.769  67.586  1.00  0.00    -0.505 OA 
HETATM   20  C   UNL     1     -10.833  16.422  69.076  1.00  0.00    -0.331 A  
HETATM   21  H   UNL     1     -11.469  14.049  64.085  1.00  0.00     0.000 HD 
HETATM   22  C   UNL     1      -9.514  16.637  68.693  1.00  0.00    -0.249 A  
HETATM   23  C   UNL     1      -8.856  15.680  67.925  1.00  0.00    -0.171 A  
HETATM   24  C   UNL     1      -9.524  14.520  67.512  1.00  0.00    -0.203 A  
ENDBRANCH  12  13
ENDBRANCH   6  12
TORSDOF 2
ENDMDL
MODEL      107
REMARK 921   NORMALIZED FREE ENERGY PREDICTED BY IDOCK:   -4.53 KCAL/MOL
REMARK 922        TOTAL FREE ENERGY PREDICTED BY IDOCK:   -5.57 KCAL/MOL
REMARK 923 INTER-LIGAND FREE ENERGY PREDICTED BY IDOCK:   -5.09 KCAL/MOL
REMARK 924 INTRA-LIGAND FREE ENERGY PREDICTED BY IDOCK:   -0.48 KCAL/MOL
REMARK 927      BINDING AFFINITY PREDICTED BY RF-SCORE:    0.00 PKD
ROOT
HETATM    1  C   UNL     1      -7.481   8.508  71.637  1.00  0.00    -0.105 C  
HETATM    2  N   UNL     1      -8.758   7.694  71.699  1.00  0.00    -0.114 N  
HETATM    3  C   UNL     1      -9.250   7.030  70.381  1.00  0.00    -0.156 C  
HETATM    4  C   UNL     1      -8.487   6.593  72.759  1.00  0.00    -0.119 C  
HETATM    5  C   UNL     1      -9.299   8.092  69.258  1.00  0.00    -0.151 C  
HETATM    6  C   UNL     1     -10.261   9.253  69.573  1.00  0.00    -0.207 C  
HETATM    7  C   UNL     1     -10.217   9.681  71.057  1.00  0.00    -0.252 C  
HETATM    8  O   UNL     1     -11.806   7.266  70.602  1.00  0.00    -0.303 OA 
HETATM    9  C   UNL     1     -10.059   8.476  72.036  1.00  0.00    -0.316 C  
HETATM   10  C   UNL     1     -10.630   6.484  70.757  1.00  0.00    -0.231 C  
HETATM   11  C   UNL     1     -11.151   7.422  71.850  1.00  0.00    -0.242 C  
ENDROOT
BRANCH   6  12
HETATM   12  O   UNL     1     -10.283  10.325  68.599  1.00  0.00    -0.165 OA 
BRANCH  12  13
HETATM   13  C   UNL     1     -11.380  11.080  68.378  1.00  0.00    -0.295 C  
HETATM   14  C   UNL     1      -9.907  13.166  67.681  1.00  0.00    -0.219 A  
HETATM   15  C   UNL     1     -11.135  12.278  67.458  1.00  0.00    -0.326 C  
HETATM   16  C   UNL     1     -11.259  11.857  65.990  1.00  0.00    -0.324 C  
HETATM   17  C   UNL     1     -10.072  14.564  67.611  1.00  0.00    -0.228 A  
HETATM   18  O   UNL     1     -10.110  11.162  65.512  1.00  0.00    -0.234 OA 
HETATM   19  O   UNL     1     -12.477  10.791  68.838  1.00  0.00    -0.377 OA 
HETATM   20  C   UNL     1      -8.973  15.429  67.597  1.00  0.00    -0.185 A  
HETATM   21  H   UNL     1     -10.187  10.901  64.602  1.00  0.00     0.000 HD 
HETATM   22  C   UNL     1      -7.683  14.915  67.664  1.00  0.00    -0.197 A  
HETATM   23  C   UNL     1      -7.496  13.539  67.770  1.00  0.00    -0.168 A  
HETATM   24  C   UNL     1      -8.596  12.672  67.778  1.00  0.00    -0.179 A  
ENDBRANCH  12  13
ENDBRANCH   6  12
TORSDOF 2
ENDMDL
MODEL      108
REMARK 921   NORMALIZED FREE ENERGY PREDICTED BY IDOCK:   -4.52 KCAL/MOL
REMARK 922        TOTAL FREE ENERGY PREDICTED BY IDOCK:   -5.56 KCAL/MOL
REMARK 923 INTER-LIGAND FREE ENERGY PREDICTED BY IDOCK:   -5.03 KCAL/MOL
REMARK 924 INTRA-LIGAND FREE ENERGY PREDICTED BY IDOCK:   -0.53 KCAL/MOL
REMARK 927      BINDING AFFINITY PREDICTED BY RF-SCORE:    0.00 PKD
ROOT
HETATM    1  C   UNL     1      -7.102   9.816  68.247  1.00  0.00    -0.077 C  
HETATM    2  N   UNL     1      -8.583   9.590  68.009  1.00  0.00    -0.120 N  
HETATM    3  C   UNL     1      -9.141   9.927  66.597  1.00  0.00    -0.147 C  
HETATM    4  C   UNL     1      -8.817   8.085  68.309  1.00  0.00    -0.133 C  
HETATM    5  C   UNL     1      -8.707  11.357  66.199  1.00  0.00    -0.153 C  
HETATM    6  C   UNL     1      -9.232  12.434  67.169  1.00  0.00    -0.199 C  
HETATM    7  C   UNL     1      -9.189  11.981  68.646  1.00  0.00    -0.043 C  
HETATM    8  O   UNL     1     -11.464  10.881  67.170  1.00  0.00    -0.428 OA 
HETATM    9  C   UNL     1      -9.558  10.476  68.835  1.00  0.00    -0.193 C  
HETATM   10  C   UNL     1     -10.655   9.783  66.775  1.00  0.00    -0.138 C  
HETATM   11  C   UNL     1     -10.924  10.127  68.243  1.00  0.00    -0.248 C  
ENDROOT
BRANCH   6  12
HETATM   12  O   UNL     1      -8.784  13.785  66.902  1.00  0.00    -0.219 OA 
BRANCH  12  13
HETATM   13  C   UNL     1      -7.605  14.259  67.353  1.00  0.00    -0.163 C  
HETATM   14  C   UNL     1      -8.465  16.759  67.225  1.00  0.00    -0.202 A  
HETATM   15  C   UNL     1      -7.690  15.661  67.960  1.00  0.00    -0.133 C  
HETATM   16  C   UNL     1      -8.099  15.580  69.434  1.00  0.00    -0.241 C  
HETATM   17  C   UNL     1      -7.888  18.042  67.142  1.00  0.00    -0.231 A  
HETATM   18  O   UNL     1      -9.493  15.339  69.611  1.00  0.00    -0.358 OA 
HETATM   19  O   UNL     1      -6.576  13.596  67.319  1.00  0.00    -0.254 OA 
HETATM   20  C   UNL     1      -8.616  19.141  66.673  1.00  0.00    -0.329 A  
HETATM   21  H   UNL     1      -9.748  15.289  70.525  1.00  0.00     0.000 HD 
HETATM   22  C   UNL     1      -9.936  18.978  66.269  1.00  0.00    -0.449 A  
HETATM   23  C   UNL     1     -10.517  17.713  66.309  1.00  0.00    -0.292 A  
HETATM   24  C   UNL     1      -9.791  16.614  66.784  1.00  0.00    -0.280 A  
ENDBRANCH  12  13
ENDBRANCH   6  12
TORSDOF 2
ENDMDL
MODEL      109
REMARK 921   NORMALIZED FREE ENERGY PREDICTED BY IDOCK:   -4.50 KCAL/MOL
REMARK 922        TOTAL FREE ENERGY PREDICTED BY IDOCK:   -5.54 KCAL/MOL
REMARK 923 INTER-LIGAND FREE ENERGY PREDICTED BY IDOCK:   -4.96 KCAL/MOL
REMARK 924 INTRA-LIGAND FREE ENERGY PREDICTED BY IDOCK:   -0.58 KCAL/MOL
REMARK 927      BINDING AFFINITY PREDICTED BY RF-SCORE:    0.00 PKD
ROOT
HETATM    1  C   UNL     1     -11.676  10.763  69.607  1.00  0.00    -0.323 C  
HETATM    2  N   UNL     1     -10.828  11.464  68.564  1.00  0.00    -0.197 N  
HETATM    3  C   UNL     1     -10.784  10.841  67.139  1.00  0.00    -0.272 C  
HETATM    4  C   UNL     1     -11.399  12.905  68.478  1.00  0.00    -0.289 C  
HETATM    5  C   UNL     1     -10.439   9.337  67.246  1.00  0.00    -0.334 C  
HETATM    6  C   UNL     1      -9.066   9.083  67.900  1.00  0.00    -0.135 C  
HETATM    7  C   UNL     1      -8.778  10.042  69.077  1.00  0.00    -0.158 C  
HETATM    8  O   UNL     1      -8.338  11.271  66.458  1.00  0.00    -0.162 OA 
HETATM    9  C   UNL     1      -9.295  11.492  68.826  1.00  0.00    -0.079 C  
HETATM   10  C   UNL     1      -9.703  11.661  66.431  1.00  0.00    -0.214 C  
HETATM   11  C   UNL     1      -8.739  12.099  67.537  1.00  0.00    -0.173 C  
ENDROOT
BRANCH   6  12
HETATM   12  O   UNL     1      -8.725   7.692  68.110  1.00  0.00    -0.123 OA 
BRANCH  12  13
HETATM   13  C   UNL     1      -8.470   6.846  67.091  1.00  0.00    -0.121 C  
HETATM   14  C   UNL     1      -9.172   4.748  68.544  1.00  0.00    -0.165 A  
HETATM   15  C   UNL     1      -9.183   5.498  67.208  1.00  0.00    -0.110 C  
HETATM   16  C   UNL     1     -10.601   5.592  66.634  1.00  0.00    -0.295 C  
HETATM   17  C   UNL     1      -8.931   3.360  68.528  1.00  0.00    -0.185 A  
HETATM   18  O   UNL     1     -11.516   6.236  67.518  1.00  0.00    -0.626 OA 
HETATM   19  O   UNL     1      -7.769   7.162  66.138  1.00  0.00    -0.092 OA 
HETATM   20  C   UNL     1      -9.107   2.575  69.672  1.00  0.00    -0.184 A  
HETATM   21  H   UNL     1     -12.395   6.296  67.162  1.00  0.00     0.000 HD 
HETATM   22  C   UNL     1      -9.520   3.165  70.862  1.00  0.00    -0.230 A  
HETATM   23  C   UNL     1      -9.730   4.540  70.911  1.00  0.00    -0.263 A  
HETATM   24  C   UNL     1      -9.559   5.325  69.764  1.00  0.00    -0.230 A  
ENDBRANCH  12  13
ENDBRANCH   6  12
TORSDOF 2
ENDMDL
MODEL      110
REMARK 921   NORMALIZED FREE ENERGY PREDICTED BY IDOCK:   -4.50 KCAL/MOL
REMARK 922        TOTAL FREE ENERGY PREDICTED BY IDOCK:   -5.53 KCAL/MOL
REMARK 923 INTER-LIGAND FREE ENERGY PREDICTED BY IDOCK:   -4.84 KCAL/MOL
REMARK 924 INTRA-LIGAND FREE ENERGY PREDICTED BY IDOCK:   -0.70 KCAL/MOL
REMARK 927      BINDING AFFINITY PREDICTED BY RF-SCORE:    0.00 PKD
ROOT
HETATM    1  C   UNL     1      -9.847  10.327  69.288  1.00  0.00    -0.228 C  
HETATM    2  N   UNL     1      -8.443  10.362  68.716  1.00  0.00    -0.124 N  
HETATM    3  C   UNL     1      -7.701  11.730  68.719  1.00  0.00    -0.091 C  
HETATM    4  C   UNL     1      -7.636   9.338  69.557  1.00  0.00    -0.081 C  
HETATM    5  C   UNL     1      -8.609  12.808  68.083  1.00  0.00    -0.185 C  
HETATM    6  C   UNL     1      -8.981  12.492  66.621  1.00  0.00    -0.174 C  
HETATM    7  C   UNL     1      -9.262  10.991  66.387  1.00  0.00    -0.192 C  
HETATM    8  O   UNL     1      -6.407  11.625  66.494  1.00  0.00    -0.112 OA 
HETATM    9  C   UNL     1      -8.310  10.057  67.197  1.00  0.00    -0.121 C  
HETATM   10  C   UNL     1      -6.438  11.445  67.903  1.00  0.00    -0.058 C  
HETATM   11  C   UNL     1      -6.833  10.341  66.918  1.00  0.00    -0.086 C  
ENDROOT
BRANCH   6  12
HETATM   12  O   UNL     1      -9.904  13.419  65.998  1.00  0.00    -0.286 OA 
BRANCH  12  13
HETATM   13  C   UNL     1     -11.069  13.780  66.575  1.00  0.00    -0.306 C  
HETATM   14  C   UNL     1     -10.230  16.267  66.911  1.00  0.00    -0.288 A  
HETATM   15  C   UNL     1     -11.343  15.284  66.536  1.00  0.00    -0.168 C  
HETATM   16  C   UNL     1     -12.004  15.671  65.208  1.00  0.00     0.460 C  
HETATM   17  C   UNL     1     -10.557  17.359  67.741  1.00  0.00    -0.371 A  
HETATM   18  O   UNL     1     -11.079  15.737  64.126  1.00  0.00    -0.827 OA 
HETATM   19  O   UNL     1     -11.850  12.960  67.040  1.00  0.00    -0.371 OA 
HETATM   20  C   UNL     1      -9.654  18.405  67.959  1.00  0.00    -0.316 A  
HETATM   21  H   UNL     1     -11.489  15.976  63.303  1.00  0.00     0.000 HD 
HETATM   22  C   UNL     1      -8.401  18.378  67.358  1.00  0.00    -0.256 A  
HETATM   23  C   UNL     1      -8.043  17.293  66.563  1.00  0.00    -0.313 A  
HETATM   24  C   UNL     1      -8.948  16.248  66.339  1.00  0.00    -0.343 A  
ENDBRANCH  12  13
ENDBRANCH   6  12
TORSDOF 2
ENDMDL
MODEL      111
REMARK 921   NORMALIZED FREE ENERGY PREDICTED BY IDOCK:   -4.49 KCAL/MOL
REMARK 922        TOTAL FREE ENERGY PREDICTED BY IDOCK:   -5.53 KCAL/MOL
REMARK 923 INTER-LIGAND FREE ENERGY PREDICTED BY IDOCK:   -4.92 KCAL/MOL
REMARK 924 INTRA-LIGAND FREE ENERGY PREDICTED BY IDOCK:   -0.62 KCAL/MOL
REMARK 927      BINDING AFFINITY PREDICTED BY RF-SCORE:    0.00 PKD
ROOT
HETATM    1  C   UNL     1      -7.288   9.389  66.492  1.00  0.00    -0.093 C  
HETATM    2  N   UNL     1      -8.309  10.350  65.913  1.00  0.00    -0.146 N  
HETATM    3  C   UNL     1      -8.483  11.724  66.620  1.00  0.00    -0.153 C  
HETATM    4  C   UNL     1      -7.862  10.580  64.444  1.00  0.00     0.015 C  
HETATM    5  C   UNL     1      -8.700  11.498  68.135  1.00  0.00    -0.157 C  
HETATM    6  C   UNL     1      -9.958  10.662  68.442  1.00  0.00    -0.163 C  
HETATM    7  C   UNL     1     -10.168   9.507  67.437  1.00  0.00    -0.285 C  
HETATM    8  O   UNL     1     -11.020  12.106  66.397  1.00  0.00    -0.263 OA 
HETATM    9  C   UNL     1      -9.795   9.895  65.972  1.00  0.00    -0.264 C  
HETATM   10  C   UNL     1      -9.701  12.328  65.919  1.00  0.00    -0.235 C  
HETATM   11  C   UNL     1     -10.551  11.131  65.482  1.00  0.00    -0.225 C  
ENDROOT
BRANCH   6  12
HETATM   12  O   UNL     1     -10.166  10.340  69.838  1.00  0.00    -0.246 OA 
BRANCH  12  13
HETATM   13  C   UNL     1     -11.324   9.820  70.296  1.00  0.00    -0.272 C  
HETATM   14  C   UNL     1     -10.325   7.369  70.284  1.00  0.00    -0.217 A  
HETATM   15  C   UNL     1     -11.170   8.452  70.963  1.00  0.00    -0.304 C  
HETATM   16  C   UNL     1     -10.785   8.616  72.437  1.00  0.00    -0.240 C  
HETATM   17  C   UNL     1     -10.830   6.054  70.249  1.00  0.00    -0.398 A  
HETATM   18  O   UNL     1      -9.409   8.942  72.619  1.00  0.00    -0.266 OA 
HETATM   19  O   UNL     1     -12.387  10.423  70.223  1.00  0.00    -0.287 OA 
HETATM   20  C   UNL     1     -10.036   4.978  69.836  1.00  0.00    -0.344 A  
HETATM   21  H   UNL     1      -9.170   9.044  73.533  1.00  0.00     0.000 HD 
HETATM   22  C   UNL     1      -8.721   5.197  69.439  1.00  0.00    -0.112 A  
HETATM   23  C   UNL     1      -8.212   6.493  69.432  1.00  0.00    -0.119 A  
HETATM   24  C   UNL     1      -9.004   7.569  69.852  1.00  0.00    -0.141 A  
ENDBRANCH  12  13
ENDBRANCH   6  12
TORSDOF 2
ENDMDL
MODEL      112
REMARK 921   NORMALIZED FREE ENERGY PREDICTED BY IDOCK:   -4.49 KCAL/MOL
REMARK 922        TOTAL FREE ENERGY PREDICTED BY IDOCK:   -5.52 KCAL/MOL
REMARK 923 INTER-LIGAND FREE ENERGY PREDICTED BY IDOCK:   -5.02 KCAL/MOL
REMARK 924 INTRA-LIGAND FREE ENERGY PREDICTED BY IDOCK:   -0.51 KCAL/MOL
REMARK 927      BINDING AFFINITY PREDICTED BY RF-SCORE:    0.00 PKD
ROOT
HETATM    1  C   UNL     1      -9.473  13.145  66.196  1.00  0.00    -0.145 C  
HETATM    2  N   UNL     1     -10.580  13.464  67.182  1.00  0.00    -0.258 N  
HETATM    3  C   UNL     1     -11.442  14.730  66.907  1.00  0.00    -0.347 C  
HETATM    4  C   UNL     1     -11.494  12.210  67.187  1.00  0.00    -0.346 C  
HETATM    5  C   UNL     1     -10.513  15.944  66.671  1.00  0.00    -0.306 C  
HETATM    6  C   UNL     1      -9.616  16.256  67.884  1.00  0.00    -0.227 C  
HETATM    7  C   UNL     1      -9.083  14.981  68.578  1.00  0.00    -0.188 C  
HETATM    8  O   UNL     1     -11.850  15.610  69.292  1.00  0.00    -0.353 OA 
HETATM    9  C   UNL     1     -10.133  13.828  68.626  1.00  0.00    -0.193 C  
HETATM   10  C   UNL     1     -12.292  14.856  68.172  1.00  0.00     0.208 C  
HETATM   11  C   UNL     1     -11.442  14.252  69.293  1.00  0.00    -0.289 C  
ENDROOT
BRANCH   6  12
HETATM   12  O   UNL     1      -8.659  17.326  67.693  1.00  0.00    -0.213 OA 
BRANCH  12  13
HETATM   13  C   UNL     1      -8.993  18.627  67.816  1.00  0.00    -0.282 C  
HETATM   14  C   UNL     1      -7.020  19.060  69.526  1.00  0.00    -0.167 A  
HETATM   15  C   UNL     1      -7.858  19.516  68.327  1.00  0.00    -0.362 C  
HETATM   16  C   UNL     1      -6.967  19.965  67.163  1.00  0.00    -0.213 C  
HETATM   17  C   UNL     1      -6.714  20.007  70.524  1.00  0.00    -0.008 A  
HETATM   18  O   UNL     1      -6.072  18.947  66.724  1.00  0.00    -0.168 OA 
HETATM   19  O   UNL     1     -10.096  19.052  67.496  1.00  0.00    -0.335 OA 
HETATM   20  C   UNL     1      -5.791  19.728  71.536  1.00  0.00    -0.272 A  
HETATM   21  H   UNL     1      -5.520  19.225  66.003  1.00  0.00     0.000 HD 
HETATM   22  C   UNL     1      -5.159  18.490  71.578  1.00  0.00    -0.188 A  
HETATM   23  C   UNL     1      -5.471  17.526  70.623  1.00  0.00    -0.193 A  
HETATM   24  C   UNL     1      -6.392  17.807  69.606  1.00  0.00    -0.174 A  
ENDBRANCH  12  13
ENDBRANCH   6  12
TORSDOF 2
ENDMDL
MODEL      113
REMARK 921   NORMALIZED FREE ENERGY PREDICTED BY IDOCK:   -4.49 KCAL/MOL
REMARK 922        TOTAL FREE ENERGY PREDICTED BY IDOCK:   -5.52 KCAL/MOL
REMARK 923 INTER-LIGAND FREE ENERGY PREDICTED BY IDOCK:   -4.96 KCAL/MOL
REMARK 924 INTRA-LIGAND FREE ENERGY PREDICTED BY IDOCK:   -0.56 KCAL/MOL
REMARK 927      BINDING AFFINITY PREDICTED BY RF-SCORE:    0.00 PKD
ROOT
HETATM    1  C   UNL     1      -8.562  15.735  69.438  1.00  0.00    -0.225 C  
HETATM    2  N   UNL     1      -9.449  15.905  68.221  1.00  0.00    -0.199 N  
HETATM    3  C   UNL     1     -10.914  15.391  68.325  1.00  0.00    -0.288 C  
HETATM    4  C   UNL     1      -9.458  17.430  67.933  1.00  0.00    -0.265 C  
HETATM    5  C   UNL     1     -10.913  13.932  68.837  1.00  0.00    -0.290 C  
HETATM    6  C   UNL     1     -10.155  12.970  67.902  1.00  0.00    -0.235 C  
HETATM    7  C   UNL     1      -8.872  13.597  67.311  1.00  0.00    -0.227 C  
HETATM    8  O   UNL     1     -11.312  14.471  65.952  1.00  0.00    -0.333 OA 
HETATM    9  C   UNL     1      -9.039  15.106  66.951  1.00  0.00    -0.247 C  
HETATM   10  C   UNL     1     -11.436  15.528  66.892  1.00  0.00    -0.000 C  
HETATM   11  C   UNL     1     -10.206  15.357  65.996  1.00  0.00    -0.324 C  
ENDROOT
BRANCH   6  12
HETATM   12  O   UNL     1     -10.041  11.605  68.373  1.00  0.00    -0.195 OA 
BRANCH  12  13
HETATM   13  C   UNL     1     -10.962  10.661  68.089  1.00  0.00    -0.269 C  
HETATM   14  C   UNL     1      -9.097   8.954  67.307  1.00  0.00    -0.153 A  
HETATM   15  C   UNL     1     -10.404   9.237  68.054  1.00  0.00    -0.270 C  
HETATM   16  C   UNL     1     -10.381   8.638  69.464  1.00  0.00    -0.214 C  
HETATM   17  C   UNL     1      -9.031   7.808  66.490  1.00  0.00    -0.191 A  
HETATM   18  O   UNL     1      -9.299   9.122  70.255  1.00  0.00    -0.185 OA 
HETATM   19  O   UNL     1     -12.146  10.930  67.926  1.00  0.00    -0.527 OA 
HETATM   20  C   UNL     1      -7.820   7.370  65.943  1.00  0.00    -0.104 A  
HETATM   21  H   UNL     1      -9.284   8.751  71.130  1.00  0.00     0.000 HD 
HETATM   22  C   UNL     1      -6.648   8.077  66.195  1.00  0.00    -0.047 A  
HETATM   23  C   UNL     1      -6.695   9.232  66.970  1.00  0.00    -0.076 A  
HETATM   24  C   UNL     1      -7.907   9.668  67.522  1.00  0.00    -0.095 A  
ENDBRANCH  12  13
ENDBRANCH   6  12
TORSDOF 2
ENDMDL
MODEL      114
REMARK 921   NORMALIZED FREE ENERGY PREDICTED BY IDOCK:   -4.48 KCAL/MOL
REMARK 922        TOTAL FREE ENERGY PREDICTED BY IDOCK:   -5.51 KCAL/MOL
REMARK 923 INTER-LIGAND FREE ENERGY PREDICTED BY IDOCK:   -4.84 KCAL/MOL
REMARK 924 INTRA-LIGAND FREE ENERGY PREDICTED BY IDOCK:   -0.67 KCAL/MOL
REMARK 927      BINDING AFFINITY PREDICTED BY RF-SCORE:    0.00 PKD
ROOT
HETATM    1  C   UNL     1      -9.488   8.494  73.390  1.00  0.00     0.294 C  
HETATM    2  N   UNL     1     -10.507   7.677  72.619  1.00  0.00    -0.259 N  
HETATM    3  C   UNL     1     -10.296   7.530  71.085  1.00  0.00    -0.200 C  
HETATM    4  C   UNL     1     -10.482   6.272  73.279  1.00  0.00    -0.248 C  
HETATM    5  C   UNL     1     -10.088   8.929  70.459  1.00  0.00    -0.248 C  
HETATM    6  C   UNL     1     -11.294   9.864  70.668  1.00  0.00    -0.339 C  
HETATM    7  C   UNL     1     -11.929   9.717  72.069  1.00  0.00    -0.202 C  
HETATM    8  O   UNL     1     -12.720   7.593  70.218  1.00  0.00     0.446 OA 
HETATM    9  C   UNL     1     -11.955   8.242  72.577  1.00  0.00    -0.356 C  
HETATM   10  C   UNL     1     -11.582   6.844  70.618  1.00  0.00    -0.353 C  
HETATM   11  C   UNL     1     -12.663   7.298  71.604  1.00  0.00    -0.375 C  
ENDROOT
BRANCH   6  12
HETATM   12  O   UNL     1     -11.124  11.218  70.182  1.00  0.00    -0.159 OA 
BRANCH  12  13
HETATM   13  C   UNL     1     -11.787  11.690  69.106  1.00  0.00    -0.326 C  
HETATM   14  C   UNL     1     -12.766  13.720  70.494  1.00  0.00    -0.293 A  
HETATM   15  C   UNL     1     -12.153  13.172  69.201  1.00  0.00    -0.261 C  
HETATM   16  C   UNL     1     -10.983  14.042  68.728  1.00  0.00    -0.262 C  
HETATM   17  C   UNL     1     -13.860  14.603  70.391  1.00  0.00     0.677 A  
HETATM   18  O   UNL     1      -9.948  14.158  69.702  1.00  0.00    -0.331 OA 
HETATM   19  O   UNL     1     -12.024  10.995  68.126  1.00  0.00    -0.610 OA 
HETATM   20  C   UNL     1     -14.341  15.302  71.503  1.00  0.00    -0.633 A  
HETATM   21  H   UNL     1      -9.222  14.697  69.409  1.00  0.00     0.000 HD 
HETATM   22  C   UNL     1     -13.743  15.125  72.746  1.00  0.00    -0.556 A  
HETATM   23  C   UNL     1     -12.684  14.232  72.879  1.00  0.00    -0.401 A  
HETATM   24  C   UNL     1     -12.198  13.536  71.765  1.00  0.00     0.156 A  
ENDBRANCH  12  13
ENDBRANCH   6  12
TORSDOF 2
ENDMDL
MODEL      115
REMARK 921   NORMALIZED FREE ENERGY PREDICTED BY IDOCK:   -4.48 KCAL/MOL
REMARK 922        TOTAL FREE ENERGY PREDICTED BY IDOCK:   -5.51 KCAL/MOL
REMARK 923 INTER-LIGAND FREE ENERGY PREDICTED BY IDOCK:   -4.85 KCAL/MOL
REMARK 924 INTRA-LIGAND FREE ENERGY PREDICTED BY IDOCK:   -0.66 KCAL/MOL
REMARK 927      BINDING AFFINITY PREDICTED BY RF-SCORE:    0.00 PKD
ROOT
HETATM    1  C   UNL     1     -12.392  12.364  64.939  1.00  0.00    -0.402 C  
HETATM    2  N   UNL     1     -12.109  13.504  65.899  1.00  0.00    -0.408 N  
HETATM    3  C   UNL     1     -10.658  14.062  65.942  1.00  0.00    -0.301 C  
HETATM    4  C   UNL     1     -13.084  14.637  65.482  1.00  0.00     0.290 C  
HETATM    5  C   UNL     1      -9.662  12.892  66.127  1.00  0.00    -0.250 C  
HETATM    6  C   UNL     1      -9.892  12.112  67.436  1.00  0.00    -0.189 C  
HETATM    7  C   UNL     1     -11.390  11.930  67.768  1.00  0.00    -0.361 C  
HETATM    8  O   UNL     1     -10.377  14.589  68.447  1.00  0.00    -0.229 OA 
HETATM    9  C   UNL     1     -12.252  13.181  67.413  1.00  0.00    -0.140 C  
HETATM   10  C   UNL     1     -10.687  15.024  67.131  1.00  0.00    -0.303 C  
HETATM   11  C   UNL     1     -11.741  14.456  68.086  1.00  0.00    -0.342 C  
ENDROOT
BRANCH   6  12
HETATM   12  O   UNL     1      -9.049  10.949  67.624  1.00  0.00    -0.146 OA 
BRANCH  12  13
HETATM   13  C   UNL     1      -7.937  10.977  68.387  1.00  0.00    -0.131 C  
HETATM   14  C   UNL     1      -9.030   9.376  70.189  1.00  0.00    -0.256 A  
HETATM   15  C   UNL     1      -7.816   9.798  69.354  1.00  0.00    -0.114 C  
HETATM   16  C   UNL     1      -7.176   8.595  68.653  1.00  0.00    -0.076 C  
HETATM   17  C   UNL     1      -8.830   9.073  71.551  1.00  0.00    -0.167 A  
HETATM   18  O   UNL     1      -8.085   7.900  67.803  1.00  0.00    -0.124 OA 
HETATM   19  O   UNL     1      -7.084  11.847  68.269  1.00  0.00    -0.070 OA 
HETATM   20  C   UNL     1      -9.838   8.486  72.323  1.00  0.00    -0.383 A  
HETATM   21  H   UNL     1      -7.689   7.154  67.368  1.00  0.00     0.000 HD 
HETATM   22  C   UNL     1     -11.072   8.197  71.752  1.00  0.00    -0.329 A  
HETATM   23  C   UNL     1     -11.305   8.520  70.417  1.00  0.00    -0.193 A  
HETATM   24  C   UNL     1     -10.294   9.102  69.642  1.00  0.00    -0.226 A  
ENDBRANCH  12  13
ENDBRANCH   6  12
TORSDOF 2
ENDMDL
MODEL      116
REMARK 921   NORMALIZED FREE ENERGY PREDICTED BY IDOCK:   -4.47 KCAL/MOL
REMARK 922        TOTAL FREE ENERGY PREDICTED BY IDOCK:   -5.51 KCAL/MOL
REMARK 923 INTER-LIGAND FREE ENERGY PREDICTED BY IDOCK:   -4.90 KCAL/MOL
REMARK 924 INTRA-LIGAND FREE ENERGY PREDICTED BY IDOCK:   -0.61 KCAL/MOL
REMARK 927      BINDING AFFINITY PREDICTED BY RF-SCORE:    0.00 PKD
ROOT
HETATM    1  C   UNL     1      -9.122   5.762  72.105  1.00  0.00    -0.143 C  
HETATM    2  N   UNL     1     -10.515   6.354  72.196  1.00  0.00    -0.204 N  
HETATM    3  C   UNL     1     -11.332   6.467  70.877  1.00  0.00    -0.337 C  
HETATM    4  C   UNL     1     -11.277   5.445  73.197  1.00  0.00    -0.297 C  
HETATM    5  C   UNL     1     -10.476   7.174  69.800  1.00  0.00    -0.238 C  
HETATM    6  C   UNL     1     -10.061   8.601  70.206  1.00  0.00    -0.187 C  
HETATM    7  C   UNL     1      -9.692   8.713  71.703  1.00  0.00    -0.348 C  
HETATM    8  O   UNL     1     -12.579   8.694  71.229  1.00  0.00    -0.303 OA 
HETATM    9  C   UNL     1     -10.603   7.845  72.625  1.00  0.00    -0.329 C  
HETATM   10  C   UNL     1     -12.563   7.275  71.297  1.00  0.00    -0.366 C  
HETATM   11  C   UNL     1     -12.089   8.165  72.450  1.00  0.00    -0.348 C  
ENDROOT
BRANCH   6  12
HETATM   12  O   UNL     1      -9.182   9.282  69.278  1.00  0.00    -0.144 OA 
BRANCH  12  13
HETATM   13  C   UNL     1      -9.576  10.357  68.564  1.00  0.00    -0.158 C  
HETATM   14  C   UNL     1      -7.800   9.852  66.667  1.00  0.00    -0.110 A  
HETATM   15  C   UNL     1      -9.210  10.285  67.080  1.00  0.00    -0.163 C  
HETATM   16  C   UNL     1     -10.281   9.510  66.304  1.00  0.00    -0.220 C  
HETATM   17  C   UNL     1      -7.152  10.576  65.647  1.00  0.00    -0.119 A  
HETATM   18  O   UNL     1     -10.177   8.098  66.473  1.00  0.00    -0.401 OA 
HETATM   19  O   UNL     1     -10.212  11.276  69.062  1.00  0.00    -0.205 OA 
HETATM   20  C   UNL     1      -5.959  10.122  65.075  1.00  0.00    -0.122 A  
HETATM   21  H   UNL     1     -10.841   7.618  65.993  1.00  0.00     0.000 HD 
HETATM   22  C   UNL     1      -5.383   8.936  65.518  1.00  0.00    -0.038 A  
HETATM   23  C   UNL     1      -5.986   8.222  66.549  1.00  0.00    -0.045 A  
HETATM   24  C   UNL     1      -7.184   8.673  67.118  1.00  0.00    -0.076 A  
ENDBRANCH  12  13
ENDBRANCH   6  12
TORSDOF 2
ENDMDL
MODEL      117
REMARK 921   NORMALIZED FREE ENERGY PREDICTED BY IDOCK:   -4.47 KCAL/MOL
REMARK 922        TOTAL FREE ENERGY PREDICTED BY IDOCK:   -5.51 KCAL/MOL
REMARK 923 INTER-LIGAND FREE ENERGY PREDICTED BY IDOCK:   -4.89 KCAL/MOL
REMARK 924 INTRA-LIGAND FREE ENERGY PREDICTED BY IDOCK:   -0.62 KCAL/MOL
REMARK 927      BINDING AFFINITY PREDICTED BY RF-SCORE:    0.00 PKD
ROOT
HETATM    1  C   UNL     1      -6.141  10.220  70.739  1.00  0.00    -0.071 C  
HETATM    2  N   UNL     1      -6.881   8.916  70.968  1.00  0.00    -0.073 N  
HETATM    3  C   UNL     1      -6.751   7.817  69.875  1.00  0.00    -0.042 C  
HETATM    4  C   UNL     1      -6.334   8.370  72.314  1.00  0.00    -0.070 C  
HETATM    5  C   UNL     1      -7.075   8.427  68.491  1.00  0.00    -0.076 C  
HETATM    6  C   UNL     1      -8.506   8.991  68.405  1.00  0.00    -0.129 C  
HETATM    7  C   UNL     1      -8.944   9.708  69.702  1.00  0.00    -0.215 C  
HETATM    8  O   UNL     1      -9.114   6.792  69.885  1.00  0.00    -0.144 OA 
HETATM    9  C   UNL     1      -8.433   9.000  70.995  1.00  0.00    -0.203 C  
HETATM   10  C   UNL     1      -7.762   6.759  70.321  1.00  0.00    -0.101 C  
HETATM   11  C   UNL     1      -8.854   7.531  71.067  1.00  0.00    -0.146 C  
ENDROOT
BRANCH   6  12
HETATM   12  O   UNL     1      -8.840   9.657  67.163  1.00  0.00    -0.131 OA 
BRANCH  12  13
HETATM   13  C   UNL     1      -9.910   9.308  66.420  1.00  0.00    -0.277 C  
HETATM   14  C   UNL     1     -10.562  11.842  66.017  1.00  0.00    -0.302 A  
HETATM   15  C   UNL     1     -10.405  10.414  65.485  1.00  0.00    -0.265 C  
HETATM   16  C   UNL     1      -9.619  10.392  64.170  1.00  0.00    -0.322 C  
HETATM   17  C   UNL     1     -11.721  12.561  65.664  1.00  0.00    -0.473 A  
HETATM   18  O   UNL     1      -8.322  10.972  64.289  1.00  0.00    -0.370 OA 
HETATM   19  O   UNL     1     -10.400   8.187  66.463  1.00  0.00    -0.273 OA 
HETATM   20  C   UNL     1     -11.842  13.928  65.935  1.00  0.00    -0.399 A  
HETATM   21  H   UNL     1      -7.834  10.958  63.474  1.00  0.00     0.000 HD 
HETATM   22  C   UNL     1     -10.808  14.604  66.574  1.00  0.00    -0.315 A  
HETATM   23  C   UNL     1      -9.668  13.907  66.964  1.00  0.00    -0.250 A  
HETATM   24  C   UNL     1      -9.544  12.539  66.687  1.00  0.00    -0.239 A  
ENDBRANCH  12  13
ENDBRANCH   6  12
TORSDOF 2
ENDMDL
MODEL      118
REMARK 921   NORMALIZED FREE ENERGY PREDICTED BY IDOCK:   -4.45 KCAL/MOL
REMARK 922        TOTAL FREE ENERGY PREDICTED BY IDOCK:   -5.49 KCAL/MOL
REMARK 923 INTER-LIGAND FREE ENERGY PREDICTED BY IDOCK:   -5.15 KCAL/MOL
REMARK 924 INTRA-LIGAND FREE ENERGY PREDICTED BY IDOCK:   -0.34 KCAL/MOL
REMARK 927      BINDING AFFINITY PREDICTED BY RF-SCORE:    0.00 PKD
ROOT
HETATM    1  C   UNL     1      -7.839   8.942  65.460  1.00  0.00    -0.100 C  
HETATM    2  N   UNL     1      -8.521   8.990  66.814  1.00  0.00    -0.118 N  
HETATM    3  C   UNL     1     -10.044   9.304  66.839  1.00  0.00    -0.256 C  
HETATM    4  C   UNL     1      -8.272   7.593  67.443  1.00  0.00    -0.116 C  
HETATM    5  C   UNL     1     -10.320  10.580  66.011  1.00  0.00    -0.279 C  
HETATM    6  C   UNL     1      -9.588  11.820  66.560  1.00  0.00    -0.210 C  
HETATM    7  C   UNL     1      -8.160  11.500  67.059  1.00  0.00    -0.161 C  
HETATM    8  O   UNL     1     -10.244  10.740  68.968  1.00  0.00    -0.197 OA 
HETATM    9  C   UNL     1      -8.060  10.119  67.779  1.00  0.00    -0.109 C  
HETATM   10  C   UNL     1     -10.342   9.474  68.331  1.00  0.00    -0.206 C  
HETATM   11  C   UNL     1      -9.039   9.993  68.947  1.00  0.00    -0.159 C  
ENDROOT
BRANCH   6  12
HETATM   12  O   UNL     1      -9.734  13.029  65.775  1.00  0.00    -0.240 OA 
BRANCH  12  13
HETATM   13  C   UNL     1     -10.939  13.548  65.463  1.00  0.00    -0.288 C  
HETATM   14  C   UNL     1     -10.998  14.971  67.694  1.00  0.00    -0.305 A  
HETATM   15  C   UNL     1     -11.260  14.856  66.189  1.00  0.00    -0.325 C  
HETATM   16  C   UNL     1     -10.668  16.048  65.428  1.00  0.00    -0.383 C  
HETATM   17  C   UNL     1     -11.981  15.583  68.497  1.00  0.00    -0.179 A  
HETATM   18  O   UNL     1      -9.265  16.194  65.629  1.00  0.00    -0.407 OA 
HETATM   19  O   UNL     1     -11.678  13.034  64.634  1.00  0.00    -0.330 OA 
HETATM   20  C   UNL     1     -11.732  15.910  69.834  1.00  0.00    -0.327 A  
HETATM   21  H   UNL     1      -8.898  16.932  65.157  1.00  0.00     0.000 HD 
HETATM   22  C   UNL     1     -10.494  15.623  70.400  1.00  0.00    -0.211 A  
HETATM   23  C   UNL     1      -9.520  14.986  69.637  1.00  0.00    -0.026 A  
HETATM   24  C   UNL     1      -9.767  14.664  68.296  1.00  0.00    -0.215 A  
ENDBRANCH  12  13
ENDBRANCH   6  12
TORSDOF 2
ENDMDL
MODEL      119
REMARK 921   NORMALIZED FREE ENERGY PREDICTED BY IDOCK:   -4.44 KCAL/MOL
REMARK 922        TOTAL FREE ENERGY PREDICTED BY IDOCK:   -5.47 KCAL/MOL
REMARK 923 INTER-LIGAND FREE ENERGY PREDICTED BY IDOCK:   -4.90 KCAL/MOL
REMARK 924 INTRA-LIGAND FREE ENERGY PREDICTED BY IDOCK:   -0.58 KCAL/MOL
REMARK 927      BINDING AFFINITY PREDICTED BY RF-SCORE:    0.00 PKD
ROOT
HETATM    1  C   UNL     1     -11.368  15.111  66.542  1.00  0.00    -0.234 C  
HETATM    2  N   UNL     1     -10.111  15.471  67.309  1.00  0.00    -0.246 N  
HETATM    3  C   UNL     1      -8.774  14.833  66.834  1.00  0.00    -0.236 C  
HETATM    4  C   UNL     1     -10.006  17.016  67.215  1.00  0.00    -0.275 C  
HETATM    5  C   UNL     1      -8.952  13.302  66.705  1.00  0.00    -0.183 C  
HETATM    6  C   UNL     1      -9.332  12.629  68.038  1.00  0.00    -0.209 C  
HETATM    7  C   UNL     1     -10.328  13.469  68.869  1.00  0.00    -0.109 C  
HETATM    8  O   UNL     1      -7.569  14.422  69.073  1.00  0.00    -0.128 OA 
HETATM    9  C   UNL     1     -10.050  15.002  68.791  1.00  0.00    -0.231 C  
HETATM   10  C   UNL     1      -7.785  15.237  67.929  1.00  0.00    -0.136 C  
HETATM   11  C   UNL     1      -8.622  15.362  69.205  1.00  0.00    -0.252 C  
ENDROOT
BRANCH   6  12
HETATM   12  O   UNL     1      -9.600  11.208  67.964  1.00  0.00    -0.166 OA 
BRANCH  12  13
HETATM   13  C   UNL     1     -10.589  10.696  67.202  1.00  0.00    -0.260 C  
HETATM   14  C   UNL     1      -8.865   9.879  65.367  1.00  0.00    -0.196 A  
HETATM   15  C   UNL     1     -10.120   9.630  66.209  1.00  0.00    -0.322 C  
HETATM   16  C   UNL     1     -10.075   8.255  66.884  1.00  0.00    -0.296 C  
HETATM   17  C   UNL     1      -8.902   9.543  63.999  1.00  0.00    -0.243 A  
HETATM   18  O   UNL     1      -8.933   8.085  67.720  1.00  0.00    -0.132 OA 
HETATM   19  O   UNL     1     -11.759  11.028  67.338  1.00  0.00    -0.539 OA 
HETATM   20  C   UNL     1      -7.744   9.546  63.215  1.00  0.00    -0.127 A  
HETATM   21  H   UNL     1      -8.904   7.232  68.139  1.00  0.00     0.000 HD 
HETATM   22  C   UNL     1      -6.522   9.894  63.781  1.00  0.00    -0.126 A  
HETATM   23  C   UNL     1      -6.466  10.264  65.122  1.00  0.00    -0.119 A  
HETATM   24  C   UNL     1      -7.625  10.256  65.909  1.00  0.00    -0.134 A  
ENDBRANCH  12  13
ENDBRANCH   6  12
TORSDOF 2
ENDMDL
MODEL      120
REMARK 921   NORMALIZED FREE ENERGY PREDICTED BY IDOCK:   -4.44 KCAL/MOL
REMARK 922        TOTAL FREE ENERGY PREDICTED BY IDOCK:   -5.47 KCAL/MOL
REMARK 923 INTER-LIGAND FREE ENERGY PREDICTED BY IDOCK:   -5.21 KCAL/MOL
REMARK 924 INTRA-LIGAND FREE ENERGY PREDICTED BY IDOCK:   -0.26 KCAL/MOL
REMARK 927      BINDING AFFINITY PREDICTED BY RF-SCORE:    0.00 PKD
ROOT
HETATM    1  C   UNL     1     -11.526  12.256  66.954  1.00  0.00    -0.356 C  
HETATM    2  N   UNL     1     -11.670  13.436  66.012  1.00  0.00    -0.346 N  
HETATM    3  C   UNL     1     -10.454  13.781  65.104  1.00  0.00    -0.384 C  
HETATM    4  C   UNL     1     -12.896  13.098  65.122  1.00  0.00    -0.300 C  
HETATM    5  C   UNL     1      -9.179  13.890  65.973  1.00  0.00     0.045 C  
HETATM    6  C   UNL     1      -9.278  14.992  67.045  1.00  0.00    -0.230 C  
HETATM    7  C   UNL     1     -10.679  15.073  67.692  1.00  0.00    -0.274 C  
HETATM    8  O   UNL     1     -10.549  16.355  65.065  1.00  0.00    -0.651 OA 
HETATM    9  C   UNL     1     -11.837  14.832  66.675  1.00  0.00    -0.242 C  
HETATM   10  C   UNL     1     -10.863  15.108  64.461  1.00  0.00    -0.121 C  
HETATM   11  C   UNL     1     -11.779  15.788  65.482  1.00  0.00     0.425 C  
ENDROOT
BRANCH   6  12
HETATM   12  O   UNL     1      -8.150  15.084  67.949  1.00  0.00    -0.124 OA 
BRANCH  12  13
HETATM   13  C   UNL     1      -6.878  14.897  67.542  1.00  0.00    -0.161 C  
HETATM   14  C   UNL     1      -6.683  17.405  66.718  1.00  0.00    -0.248 A  
HETATM   15  C   UNL     1      -6.068  16.189  67.417  1.00  0.00    -0.187 C  
HETATM   16  C   UNL     1      -5.463  16.572  68.773  1.00  0.00    -0.121 C  
HETATM   17  C   UNL     1      -5.881  18.130  65.814  1.00  0.00    -0.250 A  
HETATM   18  O   UNL     1      -6.413  17.165  69.656  1.00  0.00    -0.241 OA 
HETATM   19  O   UNL     1      -6.412  13.783  67.341  1.00  0.00    -0.292 OA 
HETATM   20  C   UNL     1      -6.297  19.361  65.296  1.00  0.00    -0.307 A  
HETATM   21  H   UNL     1      -6.039  17.403  70.496  1.00  0.00     0.000 HD 
HETATM   22  C   UNL     1      -7.529  19.890  65.664  1.00  0.00    -0.285 A  
HETATM   23  C   UNL     1      -8.354  19.174  66.529  1.00  0.00    -0.324 A  
HETATM   24  C   UNL     1      -7.935  17.944  67.052  1.00  0.00    -0.234 A  
ENDBRANCH  12  13
ENDBRANCH   6  12
TORSDOF 2
ENDMDL
MODEL      121
REMARK 921   NORMALIZED FREE ENERGY PREDICTED BY IDOCK:   -4.40 KCAL/MOL
REMARK 922        TOTAL FREE ENERGY PREDICTED BY IDOCK:   -5.43 KCAL/MOL
REMARK 923 INTER-LIGAND FREE ENERGY PREDICTED BY IDOCK:   -5.17 KCAL/MOL
REMARK 924 INTRA-LIGAND FREE ENERGY PREDICTED BY IDOCK:   -0.26 KCAL/MOL
REMARK 927      BINDING AFFINITY PREDICTED BY RF-SCORE:    0.00 PKD
ROOT
HETATM    1  C   UNL     1     -11.799  13.547  67.882  1.00  0.00    -0.362 C  
HETATM    2  N   UNL     1     -11.642  13.360  66.385  1.00  0.00    -0.331 N  
HETATM    3  C   UNL     1     -11.863  11.930  65.815  1.00  0.00    -0.033 C  
HETATM    4  C   UNL     1     -12.667  14.333  65.745  1.00  0.00    -0.340 C  
HETATM    5  C   UNL     1     -11.007  10.920  66.615  1.00  0.00    -0.212 C  
HETATM    6  C   UNL     1      -9.497  11.217  66.534  1.00  0.00    -0.193 C  
HETATM    7  C   UNL     1      -9.182  12.730  66.586  1.00  0.00    -0.212 C  
HETATM    8  O   UNL     1     -10.087  11.833  63.952  1.00  0.00    -0.311 OA 
HETATM    9  C   UNL     1     -10.218  13.597  65.807  1.00  0.00    -0.308 C  
HETATM   10  C   UNL     1     -11.430  12.065  64.354  1.00  0.00    -0.343 C  
HETATM   11  C   UNL     1     -10.366  13.166  64.347  1.00  0.00    -0.368 C  
ENDROOT
BRANCH   6  12
HETATM   12  O   UNL     1      -8.648  10.360  67.335  1.00  0.00    -0.125 OA 
BRANCH  12  13
HETATM   13  C   UNL     1      -8.174   9.182  66.881  1.00  0.00    -0.116 C  
HETATM   14  C   UNL     1      -8.459   8.055  69.259  1.00  0.00    -0.136 A  
HETATM   15  C   UNL     1      -8.580   7.978  67.734  1.00  0.00    -0.128 C  
HETATM   16  C   UNL     1      -9.960   7.464  67.309  1.00  0.00    -0.198 C  
HETATM   17  C   UNL     1      -7.921   6.946  69.942  1.00  0.00    -0.120 A  
HETATM   18  O   UNL     1     -11.028   8.268  67.804  1.00  0.00    -0.494 OA 
HETATM   19  O   UNL     1      -7.521   9.093  65.850  1.00  0.00    -0.092 OA 
HETATM   20  C   UNL     1      -7.968   6.855  71.337  1.00  0.00    -0.108 A  
HETATM   21  H   UNL     1     -11.884   7.950  67.540  1.00  0.00     0.000 HD 
HETATM   22  C   UNL     1      -8.547   7.877  72.081  1.00  0.00    -0.185 A  
HETATM   23  C   UNL     1      -9.054   8.998  71.430  1.00  0.00    -0.271 A  
HETATM   24  C   UNL     1      -9.012   9.087  70.033  1.00  0.00    -0.184 A  
ENDBRANCH  12  13
ENDBRANCH   6  12
TORSDOF 2
ENDMDL
MODEL      122
REMARK 921   NORMALIZED FREE ENERGY PREDICTED BY IDOCK:   -4.39 KCAL/MOL
REMARK 922        TOTAL FREE ENERGY PREDICTED BY IDOCK:   -5.41 KCAL/MOL
REMARK 923 INTER-LIGAND FREE ENERGY PREDICTED BY IDOCK:   -4.85 KCAL/MOL
REMARK 924 INTRA-LIGAND FREE ENERGY PREDICTED BY IDOCK:   -0.56 KCAL/MOL
REMARK 927      BINDING AFFINITY PREDICTED BY RF-SCORE:    0.00 PKD
ROOT
HETATM    1  C   UNL     1      -9.262   7.833  73.792  1.00  0.00    -0.256 C  
HETATM    2  N   UNL     1     -10.260   7.042  72.968  1.00  0.00    -0.210 N  
HETATM    3  C   UNL     1      -9.814   6.580  71.552  1.00  0.00    -0.168 C  
HETATM    4  C   UNL     1     -10.603   5.798  73.831  1.00  0.00    -0.241 C  
HETATM    5  C   UNL     1      -9.253   7.791  70.769  1.00  0.00    -0.157 C  
HETATM    6  C   UNL     1     -10.291   8.914  70.579  1.00  0.00    -0.203 C  
HETATM    7  C   UNL     1     -11.177   9.127  71.827  1.00  0.00    -0.451 C  
HETATM    8  O   UNL     1     -11.999   6.830  70.211  1.00  0.00    -0.352 OA 
HETATM    9  C   UNL     1     -11.554   7.793  72.544  1.00  0.00    -0.367 C  
HETATM   10  C   UNL     1     -11.100   6.013  70.947  1.00  0.00    -0.284 C  
HETATM   11  C   UNL     1     -12.238   6.796  71.608  1.00  0.00    -0.365 C  
ENDROOT
BRANCH   6  12
HETATM   12  O   UNL     1      -9.800  10.113  69.932  1.00  0.00    -0.233 OA 
BRANCH  12  13
HETATM   13  C   UNL     1     -10.152  10.453  68.675  1.00  0.00    -0.176 C  
HETATM   14  C   UNL     1      -7.792  11.563  68.224  1.00  0.00    -0.138 A  
HETATM   15  C   UNL     1      -8.965  10.704  67.743  1.00  0.00    -0.140 C  
HETATM   16  C   UNL     1      -8.477   9.385  67.134  1.00  0.00    -0.128 C  
HETATM   17  C   UNL     1      -7.259  12.521  67.338  1.00  0.00    -0.146 A  
HETATM   18  O   UNL     1      -7.696   8.610  68.041  1.00  0.00    -0.099 OA 
HETATM   19  O   UNL     1     -11.321  10.504  68.313  1.00  0.00    -0.293 OA 
HETATM   20  C   UNL     1      -6.067  13.195  67.623  1.00  0.00    -0.149 A  
HETATM   21  H   UNL     1      -7.393   7.792  67.664  1.00  0.00     0.000 HD 
HETATM   22  C   UNL     1      -5.386  12.932  68.807  1.00  0.00    -0.071 A  
HETATM   23  C   UNL     1      -5.912  12.016  69.714  1.00  0.00    -0.136 A  
HETATM   24  C   UNL     1      -7.103  11.337  69.426  1.00  0.00    -0.090 A  
ENDBRANCH  12  13
ENDBRANCH   6  12
TORSDOF 2
ENDMDL
MODEL      123
REMARK 921   NORMALIZED FREE ENERGY PREDICTED BY IDOCK:   -4.38 KCAL/MOL
REMARK 922        TOTAL FREE ENERGY PREDICTED BY IDOCK:   -5.41 KCAL/MOL
REMARK 923 INTER-LIGAND FREE ENERGY PREDICTED BY IDOCK:   -5.07 KCAL/MOL
REMARK 924 INTRA-LIGAND FREE ENERGY PREDICTED BY IDOCK:   -0.34 KCAL/MOL
REMARK 927      BINDING AFFINITY PREDICTED BY RF-SCORE:    0.00 PKD
ROOT
HETATM    1  C   UNL     1     -12.234  12.370  64.915  1.00  0.00    -0.418 C  
HETATM    2  N   UNL     1     -11.724  13.639  65.571  1.00  0.00    -0.325 N  
HETATM    3  C   UNL     1     -10.199  13.730  65.865  1.00  0.00    -0.313 C  
HETATM    4  C   UNL     1     -12.132  14.786  64.608  1.00  0.00    -0.427 C  
HETATM    5  C   UNL     1      -9.746  12.464  66.630  1.00  0.00    -0.229 C  
HETATM    6  C   UNL     1     -10.464  12.293  67.983  1.00  0.00    -0.218 C  
HETATM    7  C   UNL     1     -11.959  12.681  67.919  1.00  0.00    -0.307 C  
HETATM    8  O   UNL     1     -10.177  14.995  68.109  1.00  0.00    -0.218 OA 
HETATM    9  C   UNL     1     -12.231  13.922  67.013  1.00  0.00    -0.355 C  
HETATM   10  C   UNL     1     -10.078  15.012  66.692  1.00  0.00    -0.261 C  
HETATM   11  C   UNL     1     -11.413  15.145  67.430  1.00  0.00    -0.277 C  
ENDROOT
BRANCH   6  12
HETATM   12  O   UNL     1     -10.150  11.079  68.707  1.00  0.00    -0.190 OA 
BRANCH  12  13
HETATM   13  C   UNL     1     -10.350   9.852  68.184  1.00  0.00    -0.195 C  
HETATM   14  C   UNL     1      -8.063   8.963  69.175  1.00  0.00    -0.117 A  
HETATM   15  C   UNL     1      -9.548   8.745  68.870  1.00  0.00    -0.158 C  
HETATM   16  C   UNL     1     -10.299   8.226  70.101  1.00  0.00    -0.212 C  
HETATM   17  C   UNL     1      -7.164   7.912  68.904  1.00  0.00    -0.076 A  
HETATM   18  O   UNL     1     -10.195   9.098  71.223  1.00  0.00    -0.284 OA 
HETATM   19  O   UNL     1     -11.144   9.649  67.274  1.00  0.00    -0.151 OA 
HETATM   20  C   UNL     1      -5.836   7.955  69.342  1.00  0.00    -0.030 A  
HETATM   21  H   UNL     1     -10.661   8.777  71.986  1.00  0.00     0.000 HD 
HETATM   22  C   UNL     1      -5.375   9.057  70.054  1.00  0.00    -0.028 A  
HETATM   23  C   UNL     1      -6.235  10.124  70.303  1.00  0.00    -0.103 A  
HETATM   24  C   UNL     1      -7.566  10.078  69.870  1.00  0.00    -0.177 A  
ENDBRANCH  12  13
ENDBRANCH   6  12
TORSDOF 2
ENDMDL
MODEL      124
REMARK 921   NORMALIZED FREE ENERGY PREDICTED BY IDOCK:   -4.38 KCAL/MOL
REMARK 922        TOTAL FREE ENERGY PREDICTED BY IDOCK:   -5.40 KCAL/MOL
REMARK 923 INTER-LIGAND FREE ENERGY PREDICTED BY IDOCK:   -5.00 KCAL/MOL
REMARK 924 INTRA-LIGAND FREE ENERGY PREDICTED BY IDOCK:   -0.40 KCAL/MOL
REMARK 927      BINDING AFFINITY PREDICTED BY RF-SCORE:    0.00 PKD
ROOT
HETATM    1  C   UNL     1     -11.593   5.207  72.758  1.00  0.00    -0.163 C  
HETATM    2  N   UNL     1     -10.537   6.269  72.997  1.00  0.00    -0.227 N  
HETATM    3  C   UNL     1     -10.935   7.749  72.728  1.00  0.00    -0.388 C  
HETATM    4  C   UNL     1     -10.130   6.108  74.486  1.00  0.00    -0.329 C  
HETATM    5  C   UNL     1     -11.559   7.865  71.318  1.00  0.00    -0.304 C  
HETATM    6  C   UNL     1     -10.590   7.441  70.198  1.00  0.00    -0.230 C  
HETATM    7  C   UNL     1      -9.736   6.211  70.580  1.00  0.00    -0.203 C  
HETATM    8  O   UNL     1      -8.752   8.705  71.752  1.00  0.00    -0.184 OA 
HETATM    9  C   UNL     1      -9.287   6.219  72.074  1.00  0.00    -0.152 C  
HETATM   10  C   UNL     1      -9.608   8.499  72.866  1.00  0.00    -0.117 C  
HETATM   11  C   UNL     1      -8.530   7.493  72.453  1.00  0.00    -0.108 C  
ENDROOT
BRANCH   6  12
HETATM   12  O   UNL     1     -11.146   7.442  68.860  1.00  0.00    -0.046 OA 
BRANCH  12  13
HETATM   13  C   UNL     1     -10.584   6.757  67.842  1.00  0.00    -0.242 C  
HETATM   14  C   UNL     1     -10.133   8.983  66.483  1.00  0.00    -0.354 A  
HETATM   15  C   UNL     1      -9.668   7.602  66.955  1.00  0.00    -0.255 C  
HETATM   16  C   UNL     1      -8.257   7.662  67.551  1.00  0.00    -0.121 C  
HETATM   17  C   UNL     1      -9.908   9.338  65.137  1.00  0.00     0.152 A  
HETATM   18  O   UNL     1      -8.155   8.569  68.646  1.00  0.00    -0.117 OA 
HETATM   19  O   UNL     1     -10.762   5.556  67.684  1.00  0.00    -0.207 OA 
HETATM   20  C   UNL     1     -10.114  10.645  64.683  1.00  0.00    -0.417 A  
HETATM   21  H   UNL     1      -7.281   8.607  69.016  1.00  0.00     0.000 HD 
HETATM   22  C   UNL     1     -10.558  11.624  65.565  1.00  0.00    -0.329 A  
HETATM   23  C   UNL     1     -10.820  11.289  66.890  1.00  0.00    -0.333 A  
HETATM   24  C   UNL     1     -10.609   9.982  67.347  1.00  0.00    -0.330 A  
ENDBRANCH  12  13
ENDBRANCH   6  12
TORSDOF 2
ENDMDL
MODEL      125
REMARK 921   NORMALIZED FREE ENERGY PREDICTED BY IDOCK:   -4.38 KCAL/MOL
REMARK 922        TOTAL FREE ENERGY PREDICTED BY IDOCK:   -5.40 KCAL/MOL
REMARK 923 INTER-LIGAND FREE ENERGY PREDICTED BY IDOCK:   -4.74 KCAL/MOL
REMARK 924 INTRA-LIGAND FREE ENERGY PREDICTED BY IDOCK:   -0.66 KCAL/MOL
REMARK 927      BINDING AFFINITY PREDICTED BY RF-SCORE:    0.00 PKD
ROOT
HETATM    1  C   UNL     1      -8.985   3.553  66.965  1.00  0.00    -0.149 C  
HETATM    2  N   UNL     1      -8.161   3.634  68.236  1.00  0.00    -0.081 N  
HETATM    3  C   UNL     1      -8.929   3.803  69.578  1.00  0.00    -0.106 C  
HETATM    4  C   UNL     1      -7.342   2.316  68.274  1.00  0.00    -0.047 C  
HETATM    5  C   UNL     1      -9.921   4.984  69.458  1.00  0.00    -0.302 C  
HETATM    6  C   UNL     1      -9.223   6.324  69.158  1.00  0.00    -0.128 C  
HETATM    7  C   UNL     1      -8.050   6.178  68.162  1.00  0.00    -0.111 C  
HETATM    8  O   UNL     1      -7.354   5.366  70.886  1.00  0.00    -0.073 OA 
HETATM    9  C   UNL     1      -7.227   4.870  68.374  1.00  0.00    -0.062 C  
HETATM   10  C   UNL     1      -7.811   4.053  70.592  1.00  0.00    -0.051 C  
HETATM   11  C   UNL     1      -6.692   4.737  69.801  1.00  0.00    -0.040 C  
ENDROOT
BRANCH   6  12
HETATM   12  O   UNL     1     -10.105   7.453  68.945  1.00  0.00    -0.175 OA 
BRANCH  12  13
HETATM   13  C   UNL     1      -9.748   8.718  69.245  1.00  0.00    -0.172 C  
HETATM   14  C   UNL     1     -11.714   8.948  71.001  1.00  0.00    -0.340 A  
HETATM   15  C   UNL     1     -10.257   9.204  70.603  1.00  0.00    -0.306 C  
HETATM   16  C   UNL     1      -9.293   8.781  71.717  1.00  0.00    -0.280 C  
HETATM   17  C   UNL     1     -12.435   9.997  71.607  1.00  0.00    -0.513 A  
HETATM   18  O   UNL     1      -9.426   7.408  72.075  1.00  0.00    -0.136 OA 
HETATM   19  O   UNL     1      -9.037   9.390  68.508  1.00  0.00    -0.131 OA 
HETATM   20  C   UNL     1     -13.691   9.782  72.182  1.00  0.00    -0.350 A  
HETATM   21  H   UNL     1      -8.828   7.145  72.765  1.00  0.00     0.000 HD 
HETATM   22  C   UNL     1     -14.260   8.513  72.156  1.00  0.00    -0.516 A  
HETATM   23  C   UNL     1     -13.583   7.469  71.532  1.00  0.00    -0.439 A  
HETATM   24  C   UNL     1     -12.322   7.682  70.961  1.00  0.00    -0.234 A  
ENDBRANCH  12  13
ENDBRANCH   6  12
TORSDOF 2
ENDMDL
MODEL      126
REMARK 921   NORMALIZED FREE ENERGY PREDICTED BY IDOCK:   -4.37 KCAL/MOL
REMARK 922        TOTAL FREE ENERGY PREDICTED BY IDOCK:   -5.39 KCAL/MOL
REMARK 923 INTER-LIGAND FREE ENERGY PREDICTED BY IDOCK:   -4.74 KCAL/MOL
REMARK 924 INTRA-LIGAND FREE ENERGY PREDICTED BY IDOCK:   -0.66 KCAL/MOL
REMARK 927      BINDING AFFINITY PREDICTED BY RF-SCORE:    0.00 PKD
ROOT
HETATM    1  C   UNL     1     -11.481   6.244  70.951  1.00  0.00    -0.312 C  
HETATM    2  N   UNL     1     -10.463   6.737  71.962  1.00  0.00    -0.201 N  
HETATM    3  C   UNL     1     -10.466   8.255  72.299  1.00  0.00    -0.321 C  
HETATM    4  C   UNL     1     -10.745   5.922  73.252  1.00  0.00    -0.265 C  
HETATM    5  C   UNL     1     -10.418   9.074  70.988  1.00  0.00    -0.339 C  
HETATM    6  C   UNL     1      -9.155   8.793  70.152  1.00  0.00    -0.167 C  
HETATM    7  C   UNL     1      -8.750   7.302  70.163  1.00  0.00    -0.140 C  
HETATM    8  O   UNL     1      -7.951   8.729  72.590  1.00  0.00    -0.380 OA 
HETATM    9  C   UNL     1      -8.969   6.619  71.549  1.00  0.00    -0.139 C  
HETATM   10  C   UNL     1      -9.214   8.425  73.164  1.00  0.00    -0.151 C  
HETATM   11  C   UNL     1      -8.242   7.344  72.682  1.00  0.00    -0.108 C  
ENDROOT
BRANCH   6  12
HETATM   12  O   UNL     1      -9.095   9.462  68.869  1.00  0.00    -0.136 OA 
BRANCH  12  13
HETATM   13  C   UNL     1      -7.997   9.429  68.086  1.00  0.00    -0.091 C  
HETATM   14  C   UNL     1      -9.000   7.470  66.617  1.00  0.00    -0.177 A  
HETATM   15  C   UNL     1      -8.229   8.790  66.716  1.00  0.00    -0.108 C  
HETATM   16  C   UNL     1      -8.771   9.828  65.728  1.00  0.00    -0.142 C  
HETATM   17  C   UNL     1      -8.501   6.469  65.760  1.00  0.00    -0.149 A  
HETATM   18  O   UNL     1     -10.158  10.102  65.916  1.00  0.00    -0.258 OA 
HETATM   19  O   UNL     1      -6.929   9.917  68.435  1.00  0.00    -0.066 OA 
HETATM   20  C   UNL     1      -9.249   5.326  65.458  1.00  0.00    -0.122 A  
HETATM   21  H   UNL     1     -10.494  10.746  65.304  1.00  0.00     0.000 HD 
HETATM   22  C   UNL     1     -10.512   5.156  66.015  1.00  0.00    -0.241 A  
HETATM   23  C   UNL     1     -11.012   6.115  66.892  1.00  0.00    -0.384 A  
HETATM   24  C   UNL     1     -10.265   7.262  67.190  1.00  0.00    -0.339 A  
ENDBRANCH  12  13
ENDBRANCH   6  12
TORSDOF 2
ENDMDL
MODEL      127
REMARK 921   NORMALIZED FREE ENERGY PREDICTED BY IDOCK:   -4.36 KCAL/MOL
REMARK 922        TOTAL FREE ENERGY PREDICTED BY IDOCK:   -5.39 KCAL/MOL
REMARK 923 INTER-LIGAND FREE ENERGY PREDICTED BY IDOCK:   -4.94 KCAL/MOL
REMARK 924 INTRA-LIGAND FREE ENERGY PREDICTED BY IDOCK:   -0.45 KCAL/MOL
REMARK 927      BINDING AFFINITY PREDICTED BY RF-SCORE:    0.00 PKD
ROOT
HETATM    1  C   UNL     1      -5.967  18.277  69.219  1.00  0.00    -0.238 C  
HETATM    2  N   UNL     1      -6.605  19.265  68.261  1.00  0.00    -0.243 N  
HETATM    3  C   UNL     1      -8.159  19.305  68.204  1.00  0.00    -0.314 C  
HETATM    4  C   UNL     1      -6.070  20.655  68.696  1.00  0.00    -0.336 C  
HETATM    5  C   UNL     1      -8.704  17.871  68.001  1.00  0.00    -0.256 C  
HETATM    6  C   UNL     1      -8.213  17.225  66.690  1.00  0.00    -0.261 C  
HETATM    7  C   UNL     1      -6.738  17.558  66.375  1.00  0.00    -0.297 C  
HETATM    8  O   UNL     1      -8.577  19.731  65.699  1.00  0.00    -0.348 OA 
HETATM    9  C   UNL     1      -6.348  19.022  66.747  1.00  0.00    -0.186 C  
HETATM   10  C   UNL     1      -8.443  20.233  67.021  1.00  0.00    -0.319 C  
HETATM   11  C   UNL     1      -7.250  20.059  66.076  1.00  0.00    -0.301 C  
ENDROOT
BRANCH   6  12
HETATM   12  O   UNL     1      -8.616  15.849  66.486  1.00  0.00    -0.256 OA 
BRANCH  12  13
HETATM   13  C   UNL     1      -8.056  14.823  67.159  1.00  0.00    -0.197 C  
HETATM   14  C   UNL     1     -10.260  14.436  68.572  1.00  0.00    -0.243 A  
HETATM   15  C   UNL     1      -9.069  13.869  67.793  1.00  0.00    -0.191 C  
HETATM   16  C   UNL     1      -9.520  12.815  66.776  1.00  0.00    -0.243 C  
HETATM   17  C   UNL     1     -10.601  13.836  69.800  1.00  0.00     0.406 A  
HETATM   18  O   UNL     1     -10.470  13.318  65.839  1.00  0.00    -0.275 OA 
HETATM   19  O   UNL     1      -6.844  14.655  67.206  1.00  0.00    -0.254 OA 
HETATM   20  C   UNL     1     -11.789  14.158  70.465  1.00  0.00    -0.352 A  
HETATM   21  H   UNL     1     -10.749  12.665  65.208  1.00  0.00     0.000 HD 
HETATM   22  C   UNL     1     -12.658  15.097  69.920  1.00  0.00    -0.205 A  
HETATM   23  C   UNL     1     -12.325  15.729  68.725  1.00  0.00     0.282 A  
HETATM   24  C   UNL     1     -11.139  15.402  68.056  1.00  0.00    -0.312 A  
ENDBRANCH  12  13
ENDBRANCH   6  12
TORSDOF 2
ENDMDL
MODEL      128
REMARK 921   NORMALIZED FREE ENERGY PREDICTED BY IDOCK:   -4.34 KCAL/MOL
REMARK 922        TOTAL FREE ENERGY PREDICTED BY IDOCK:   -5.36 KCAL/MOL
REMARK 923 INTER-LIGAND FREE ENERGY PREDICTED BY IDOCK:   -4.89 KCAL/MOL
REMARK 924 INTRA-LIGAND FREE ENERGY PREDICTED BY IDOCK:   -0.47 KCAL/MOL
REMARK 927      BINDING AFFINITY PREDICTED BY RF-SCORE:    0.00 PKD
ROOT
HETATM    1  C   UNL     1      -6.941   6.997  68.430  1.00  0.00    -0.076 C  
HETATM    2  N   UNL     1      -7.211   7.649  67.088  1.00  0.00    -0.087 N  
HETATM    3  C   UNL     1      -7.417   9.190  67.068  1.00  0.00    -0.091 C  
HETATM    4  C   UNL     1      -5.988   7.281  66.206  1.00  0.00    -0.036 C  
HETATM    5  C   UNL     1      -8.480   9.581  68.121  1.00  0.00    -0.119 C  
HETATM    6  C   UNL     1      -9.852   8.932  67.855  1.00  0.00    -0.169 C  
HETATM    7  C   UNL     1      -9.738   7.474  67.357  1.00  0.00    -0.204 C  
HETATM    8  O   UNL     1      -9.232   9.449  65.259  1.00  0.00    -0.224 OA 
HETATM    9  C   UNL     1      -8.539   7.252  66.383  1.00  0.00    -0.138 C  
HETATM   10  C   UNL     1      -7.860   9.466  65.629  1.00  0.00    -0.099 C  
HETATM   11  C   UNL     1      -8.581   8.192  65.177  1.00  0.00    -0.071 C  
ENDROOT
BRANCH   6  12
HETATM   12  O   UNL     1     -10.867   9.188  68.857  1.00  0.00    -0.178 OA 
BRANCH  12  13
HETATM   13  C   UNL     1     -10.583   9.760  70.045  1.00  0.00    -0.276 C  
HETATM   14  C   UNL     1     -11.385  12.133  69.189  1.00  0.00    -0.333 A  
HETATM   15  C   UNL     1     -11.325  11.075  70.295  1.00  0.00    -0.291 C  
HETATM   16  C   UNL     1     -12.714  10.800  70.880  1.00  0.00    -0.384 C  
HETATM   17  C   UNL     1     -11.169  13.480  69.542  1.00  0.00    -0.194 A  
HETATM   18  O   UNL     1     -13.655  10.371  69.898  1.00  0.00    -0.317 OA 
HETATM   19  O   UNL     1      -9.836   9.237  70.862  1.00  0.00    -0.262 OA 
HETATM   20  C   UNL     1     -11.408  14.519  68.637  1.00  0.00    -0.300 A  
HETATM   21  H   UNL     1     -14.517  10.200  70.261  1.00  0.00     0.000 HD 
HETATM   22  C   UNL     1     -11.862  14.232  67.353  1.00  0.00    -0.441 A  
HETATM   23  C   UNL     1     -12.049  12.907  66.970  1.00  0.00    -0.296 A  
HETATM   24  C   UNL     1     -11.814  11.866  67.878  1.00  0.00    -0.308 A  
ENDBRANCH  12  13
ENDBRANCH   6  12
TORSDOF 2
ENDMDL
MODEL      129
REMARK 921   NORMALIZED FREE ENERGY PREDICTED BY IDOCK:   -4.26 KCAL/MOL
REMARK 922        TOTAL FREE ENERGY PREDICTED BY IDOCK:   -5.27 KCAL/MOL
REMARK 923 INTER-LIGAND FREE ENERGY PREDICTED BY IDOCK:   -4.62 KCAL/MOL
REMARK 924 INTRA-LIGAND FREE ENERGY PREDICTED BY IDOCK:   -0.65 KCAL/MOL
REMARK 927      BINDING AFFINITY PREDICTED BY RF-SCORE:    0.00 PKD
ROOT
HETATM    1  C   UNL     1      -8.165  10.916  66.528  1.00  0.00    -0.157 C  
HETATM    2  N   UNL     1      -7.609   9.567  66.115  1.00  0.00    -0.099 N  
HETATM    3  C   UNL     1      -8.613   8.517  65.561  1.00  0.00    -0.180 C  
HETATM    4  C   UNL     1      -6.543   9.883  65.032  1.00  0.00    -0.110 C  
HETATM    5  C   UNL     1      -9.801   8.374  66.541  1.00  0.00    -0.338 C  
HETATM    6  C   UNL     1      -9.368   7.899  67.941  1.00  0.00    -0.141 C  
HETATM    7  C   UNL     1      -8.039   8.537  68.405  1.00  0.00    -0.122 C  
HETATM    8  O   UNL     1      -7.661   6.327  66.525  1.00  0.00    -0.091 OA 
HETATM    9  C   UNL     1      -7.001   8.695  67.250  1.00  0.00    -0.075 C  
HETATM   10  C   UNL     1      -7.766   7.248  65.448  1.00  0.00    -0.111 C  
HETATM   11  C   UNL     1      -6.703   7.372  66.543  1.00  0.00    -0.061 C  
ENDROOT
BRANCH   6  12
HETATM   12  O   UNL     1     -10.424   7.832  68.931  1.00  0.00    -0.213 OA 
BRANCH  12  13
HETATM   13  C   UNL     1     -11.075   6.686  69.219  1.00  0.00    -0.289 C  
HETATM   14  C   UNL     1     -10.440   6.870  71.781  1.00  0.00    -0.224 A  
HETATM   15  C   UNL     1     -11.466   6.546  70.691  1.00  0.00    -0.433 C  
HETATM   16  C   UNL     1     -12.803   7.247  70.957  1.00  0.00    -0.208 C  
HETATM   17  C   UNL     1     -10.334   5.993  72.880  1.00  0.00    -0.219 A  
HETATM   18  O   UNL     1     -12.678   8.664  71.049  1.00  0.00    -0.483 OA 
HETATM   19  O   UNL     1     -11.365   5.864  68.359  1.00  0.00    -0.089 OA 
HETATM   20  C   UNL     1      -9.576   6.324  74.008  1.00  0.00    -0.198 A  
HETATM   21  H   UNL     1     -13.506   9.099  71.214  1.00  0.00     0.000 HD 
HETATM   22  C   UNL     1      -8.899   7.538  74.058  1.00  0.00    -0.292 A  
HETATM   23  C   UNL     1      -8.960   8.405  72.970  1.00  0.00    -0.242 A  
HETATM   24  C   UNL     1      -9.723   8.076  71.843  1.00  0.00    -0.250 A  
ENDBRANCH  12  13
ENDBRANCH   6  12
TORSDOF 2
ENDMDL
MODEL      130
REMARK 921   NORMALIZED FREE ENERGY PREDICTED BY IDOCK:   -4.25 KCAL/MOL
REMARK 922        TOTAL FREE ENERGY PREDICTED BY IDOCK:   -5.26 KCAL/MOL
REMARK 923 INTER-LIGAND FREE ENERGY PREDICTED BY IDOCK:   -5.22 KCAL/MOL
REMARK 924 INTRA-LIGAND FREE ENERGY PREDICTED BY IDOCK:   -0.04 KCAL/MOL
REMARK 927      BINDING AFFINITY PREDICTED BY RF-SCORE:    0.00 PKD
ROOT
HETATM    1  C   UNL     1      -9.817  14.760  68.996  1.00  0.00    -0.206 C  
HETATM    2  N   UNL     1     -10.773  14.642  67.826  1.00  0.00    -0.261 N  
HETATM    3  C   UNL     1     -11.979  13.671  67.980  1.00  0.00    -0.350 C  
HETATM    4  C   UNL     1     -11.300  16.082  67.585  1.00  0.00    -0.109 C  
HETATM    5  C   UNL     1     -11.469  12.288  68.448  1.00  0.00    -0.356 C  
HETATM    6  C   UNL     1     -10.487  11.643  67.452  1.00  0.00    -0.210 C  
HETATM    7  C   UNL     1      -9.516  12.667  66.822  1.00  0.00    -0.237 C  
HETATM    8  O   UNL     1     -12.175  12.702  65.602  1.00  0.00    -0.512 OA 
HETATM    9  C   UNL     1     -10.189  14.041  66.516  1.00  0.00    -0.279 C  
HETATM   10  C   UNL     1     -12.591  13.647  66.578  1.00  0.00    -0.172 C  
HETATM   11  C   UNL     1     -11.423  13.904  65.622  1.00  0.00    -0.318 C  
ENDROOT
BRANCH   6  12
HETATM   12  O   UNL     1      -9.904  10.387  67.876  1.00  0.00    -0.151 OA 
BRANCH  12  13
HETATM   13  C   UNL     1      -8.741  10.321  68.557  1.00  0.00    -0.130 C  
HETATM   14  C   UNL     1      -9.219   7.825  69.297  1.00  0.00    -0.145 A  
HETATM   15  C   UNL     1      -8.242   8.895  68.799  1.00  0.00    -0.115 C  
HETATM   16  C   UNL     1      -7.439   8.399  67.592  1.00  0.00    -0.094 C  
HETATM   17  C   UNL     1      -8.791   6.957  70.322  1.00  0.00    -0.148 A  
HETATM   18  O   UNL     1      -8.266   8.003  66.500  1.00  0.00    -0.109 OA 
HETATM   19  O   UNL     1      -8.126  11.322  68.900  1.00  0.00    -0.140 OA 
HETATM   20  C   UNL     1      -9.539   5.833  70.685  1.00  0.00    -0.214 A  
HETATM   21  H   UNL     1      -7.769   7.696  65.751  1.00  0.00     0.000 HD 
HETATM   22  C   UNL     1     -10.738   5.556  70.036  1.00  0.00    -0.356 A  
HETATM   23  C   UNL     1     -11.198   6.419  69.045  1.00  0.00    -0.402 A  
HETATM   24  C   UNL     1     -10.446   7.542  68.676  1.00  0.00    -0.207 A  
ENDBRANCH  12  13
ENDBRANCH   6  12
TORSDOF 2
ENDMDL
MODEL      131
REMARK 921   NORMALIZED FREE ENERGY PREDICTED BY IDOCK:   -4.24 KCAL/MOL
REMARK 922        TOTAL FREE ENERGY PREDICTED BY IDOCK:   -5.25 KCAL/MOL
REMARK 923 INTER-LIGAND FREE ENERGY PREDICTED BY IDOCK:   -4.80 KCAL/MOL
REMARK 924 INTRA-LIGAND FREE ENERGY PREDICTED BY IDOCK:   -0.45 KCAL/MOL
REMARK 927      BINDING AFFINITY PREDICTED BY RF-SCORE:    0.00 PKD
ROOT
HETATM    1  C   UNL     1      -9.015   5.484  65.666  1.00  0.00    -0.146 C  
HETATM    2  N   UNL     1      -9.375   5.353  67.134  1.00  0.00    -0.114 N  
HETATM    3  C   UNL     1     -10.819   5.749  67.555  1.00  0.00    -0.174 C  
HETATM    4  C   UNL     1      -9.130   3.860  67.480  1.00  0.00    -0.152 C  
HETATM    5  C   UNL     1     -11.147   7.157  67.005  1.00  0.00    -0.159 C  
HETATM    6  C   UNL     1     -10.198   8.246  67.542  1.00  0.00    -0.243 C  
HETATM    7  C   UNL     1      -8.734   7.764  67.646  1.00  0.00    -0.126 C  
HETATM    8  O   UNL     1     -10.411   6.833  69.855  1.00  0.00    -0.193 OA 
HETATM    9  C   UNL     1      -8.609   6.282  68.117  1.00  0.00    -0.116 C  
HETATM   10  C   UNL     1     -10.766   5.695  69.083  1.00  0.00    -0.255 C  
HETATM   11  C   UNL     1      -9.317   6.028  69.449  1.00  0.00    -0.131 C  
ENDROOT
BRANCH   6  12
HETATM   12  O   UNL     1     -10.397   9.572  66.994  1.00  0.00    -0.238 OA 
BRANCH  12  13
HETATM   13  C   UNL     1      -9.534  10.133  66.122  1.00  0.00    -0.188 C  
HETATM   14  C   UNL     1     -10.124  12.568  66.974  1.00  0.00    -0.222 A  
HETATM   15  C   UNL     1      -9.084  11.542  66.512  1.00  0.00    -0.199 C  
HETATM   16  C   UNL     1      -7.898  11.476  67.480  1.00  0.00    -0.133 C  
HETATM   17  C   UNL     1     -10.032  13.882  66.474  1.00  0.00    -0.288 A  
HETATM   18  O   UNL     1      -8.287  11.151  68.813  1.00  0.00    -0.150 OA 
HETATM   19  O   UNL     1      -9.116   9.535  65.138  1.00  0.00    -0.201 OA 
HETATM   20  C   UNL     1     -10.809  14.919  67.000  1.00  0.00    -0.315 A  
HETATM   21  H   UNL     1      -7.551  11.110  69.413  1.00  0.00     0.000 HD 
HETATM   22  C   UNL     1     -11.703  14.662  68.035  1.00  0.00    -0.371 A  
HETATM   23  C   UNL     1     -11.836  13.365  68.521  1.00  0.00    -0.401 A  
HETATM   24  C   UNL     1     -11.054  12.327  67.998  1.00  0.00    -0.285 A  
ENDBRANCH  12  13
ENDBRANCH   6  12
TORSDOF 2
ENDMDL
MODEL      132
REMARK 921   NORMALIZED FREE ENERGY PREDICTED BY IDOCK:   -4.23 KCAL/MOL
REMARK 922        TOTAL FREE ENERGY PREDICTED BY IDOCK:   -5.23 KCAL/MOL
REMARK 923 INTER-LIGAND FREE ENERGY PREDICTED BY IDOCK:   -4.92 KCAL/MOL
REMARK 924 INTRA-LIGAND FREE ENERGY PREDICTED BY IDOCK:   -0.31 KCAL/MOL
REMARK 927      BINDING AFFINITY PREDICTED BY RF-SCORE:    0.00 PKD
ROOT
HETATM    1  C   UNL     1      -8.271   5.794  64.386  1.00  0.00    -0.114 C  
HETATM    2  N   UNL     1      -8.588   4.983  65.628  1.00  0.00    -0.130 N  
HETATM    3  C   UNL     1      -9.888   5.339  66.404  1.00  0.00    -0.186 C  
HETATM    4  C   UNL     1      -8.665   3.511  65.144  1.00  0.00    -0.118 C  
HETATM    5  C   UNL     1      -9.919   6.860  66.686  1.00  0.00    -0.211 C  
HETATM    6  C   UNL     1      -8.730   7.334  67.543  1.00  0.00    -0.121 C  
HETATM    7  C   UNL     1      -7.405   6.631  67.170  1.00  0.00    -0.083 C  
HETATM    8  O   UNL     1      -9.150   4.985  68.846  1.00  0.00    -0.103 OA 
HETATM    9  C   UNL     1      -7.593   5.123  66.815  1.00  0.00    -0.088 C  
HETATM   10  C   UNL     1      -9.782   4.492  67.674  1.00  0.00    -0.157 C  
HETATM   11  C   UNL     1      -8.281   4.338  67.933  1.00  0.00    -0.094 C  
ENDROOT
BRANCH   6  12
HETATM   12  O   UNL     1      -8.653   8.764  67.766  1.00  0.00    -0.128 OA 
BRANCH  12  13
HETATM   13  C   UNL     1      -9.377   9.648  67.049  1.00  0.00    -0.147 C  
HETATM   14  C   UNL     1     -10.847  10.280  69.158  1.00  0.00    -0.270 A  
HETATM   15  C   UNL     1     -10.084  10.705  67.899  1.00  0.00    -0.194 C  
HETATM   16  C   UNL     1      -9.139  11.877  68.189  1.00  0.00    -0.190 C  
HETATM   17  C   UNL     1     -12.115  10.849  69.394  1.00  0.00    -0.362 A  
HETATM   18  O   UNL     1      -8.190  11.584  69.211  1.00  0.00    -0.368 OA 
HETATM   19  O   UNL     1      -9.415   9.625  65.826  1.00  0.00    -0.205 OA 
HETATM   20  C   UNL     1     -12.778  10.672  70.612  1.00  0.00    -0.445 A  
HETATM   21  H   UNL     1      -7.604  12.310  69.391  1.00  0.00     0.000 HD 
HETATM   22  C   UNL     1     -12.192   9.914  71.619  1.00  0.00    -0.482 A  
HETATM   23  C   UNL     1     -10.956   9.313  71.396  1.00  0.00    -0.429 A  
HETATM   24  C   UNL     1     -10.288   9.494  70.178  1.00  0.00    -0.300 A  
ENDBRANCH  12  13
ENDBRANCH   6  12
TORSDOF 2
ENDMDL
MODEL      133
REMARK 921   NORMALIZED FREE ENERGY PREDICTED BY IDOCK:   -4.22 KCAL/MOL
REMARK 922        TOTAL FREE ENERGY PREDICTED BY IDOCK:   -5.23 KCAL/MOL
REMARK 923 INTER-LIGAND FREE ENERGY PREDICTED BY IDOCK:   -4.45 KCAL/MOL
REMARK 924 INTRA-LIGAND FREE ENERGY PREDICTED BY IDOCK:   -0.78 KCAL/MOL
REMARK 927      BINDING AFFINITY PREDICTED BY RF-SCORE:    0.00 PKD
ROOT
HETATM    1  C   UNL     1      -7.623  10.557  66.921  1.00  0.00    -0.110 C  
HETATM    2  N   UNL     1      -9.002  11.130  67.185  1.00  0.00    -0.143 N  
HETATM    3  C   UNL     1      -9.427  11.322  68.668  1.00  0.00    -0.175 C  
HETATM    4  C   UNL     1      -9.014  12.505  66.464  1.00  0.00    -0.132 C  
HETATM    5  C   UNL     1      -9.194  10.005  69.445  1.00  0.00    -0.229 C  
HETATM    6  C   UNL     1     -10.011   8.826  68.883  1.00  0.00    -0.192 C  
HETATM    7  C   UNL     1     -10.079   8.827  67.339  1.00  0.00    -0.289 C  
HETATM    8  O   UNL     1     -11.931  10.727  68.574  1.00  0.00    -0.487 OA 
HETATM    9  C   UNL     1     -10.209  10.259  66.734  1.00  0.00    -0.228 C  
HETATM   10  C   UNL     1     -10.904  11.708  68.563  1.00  0.00    -0.219 C  
HETATM   11  C   UNL     1     -11.410  11.025  67.289  1.00  0.00    -0.188 C  
ENDROOT
BRANCH   6  12
HETATM   12  O   UNL     1      -9.768   7.544  69.511  1.00  0.00    -0.163 OA 
BRANCH  12  13
HETATM   13  C   UNL     1     -10.706   6.576  69.568  1.00  0.00    -0.270 C  
HETATM   14  C   UNL     1      -9.261   4.970  68.038  1.00  0.00    -0.139 A  
HETATM   15  C   UNL     1     -10.175   5.177  69.250  1.00  0.00    -0.276 C  
HETATM   16  C   UNL     1      -9.586   4.531  70.508  1.00  0.00    -0.204 C  
HETATM   17  C   UNL     1      -9.496   3.856  67.208  1.00  0.00    -0.235 A  
HETATM   18  O   UNL     1      -8.290   5.029  70.833  1.00  0.00    -0.107 OA 
HETATM   19  O   UNL     1     -11.863   6.804  69.895  1.00  0.00    -0.283 OA 
HETATM   20  C   UNL     1      -8.588   3.485  66.210  1.00  0.00    -0.117 A  
HETATM   21  H   UNL     1      -7.925   4.629  71.614  1.00  0.00     0.000 HD 
HETATM   22  C   UNL     1      -7.428   4.227  66.015  1.00  0.00    -0.085 A  
HETATM   23  C   UNL     1      -7.192   5.353  66.799  1.00  0.00    -0.078 A  
HETATM   24  C   UNL     1      -8.098   5.721  67.802  1.00  0.00    -0.102 A  
ENDBRANCH  12  13
ENDBRANCH   6  12
TORSDOF 2
ENDMDL
MODEL      134
REMARK 921   NORMALIZED FREE ENERGY PREDICTED BY IDOCK:   -4.20 KCAL/MOL
REMARK 922        TOTAL FREE ENERGY PREDICTED BY IDOCK:   -5.20 KCAL/MOL
REMARK 923 INTER-LIGAND FREE ENERGY PREDICTED BY IDOCK:   -4.62 KCAL/MOL
REMARK 924 INTRA-LIGAND FREE ENERGY PREDICTED BY IDOCK:   -0.58 KCAL/MOL
REMARK 927      BINDING AFFINITY PREDICTED BY RF-SCORE:    0.00 PKD
ROOT
HETATM    1  C   UNL     1      -8.176  10.824  66.550  1.00  0.00    -0.148 C  
HETATM    2  N   UNL     1      -8.183   9.448  65.911  1.00  0.00    -0.113 N  
HETATM    3  C   UNL     1      -9.387   8.516  66.231  1.00  0.00    -0.224 C  
HETATM    4  C   UNL     1      -8.128   9.711  64.383  1.00  0.00    -0.141 C  
HETATM    5  C   UNL     1      -9.585   8.440  67.764  1.00  0.00    -0.185 C  
HETATM    6  C   UNL     1      -8.356   7.871  68.499  1.00  0.00    -0.128 C  
HETATM    7  C   UNL     1      -7.020   8.368  67.903  1.00  0.00    -0.078 C  
HETATM    8  O   UNL     1      -8.243   6.212  66.348  1.00  0.00    -0.108 OA 
HETATM    9  C   UNL     1      -7.048   8.479  66.347  1.00  0.00    -0.079 C  
HETATM   10  C   UNL     1      -8.971   7.181  65.609  1.00  0.00     0.055 C  
HETATM   11  C   UNL     1      -7.441   7.165  65.671  1.00  0.00    -0.082 C  
ENDROOT
BRANCH   6  12
HETATM   12  O   UNL     1      -8.446   7.859  69.945  1.00  0.00    -0.125 OA 
BRANCH  12  13
HETATM   13  C   UNL     1      -8.501   8.991  70.677  1.00  0.00    -0.196 C  
HETATM   14  C   UNL     1     -10.940   8.419  71.531  1.00  0.00    -0.326 A  
HETATM   15  C   UNL     1      -9.530   8.950  71.808  1.00  0.00    -0.334 C  
HETATM   16  C   UNL     1      -8.925   8.299  73.057  1.00  0.00    -0.241 C  
HETATM   17  C   UNL     1     -12.036   9.129  72.061  1.00  0.00    -0.421 A  
HETATM   18  O   UNL     1      -8.859   6.878  72.965  1.00  0.00    -0.125 OA 
HETATM   19  O   UNL     1      -7.753   9.938  70.473  1.00  0.00    -0.254 OA 
HETATM   20  C   UNL     1     -13.331   8.602  72.029  1.00  0.00    -0.428 A  
HETATM   21  H   UNL     1      -8.484   6.474  73.739  1.00  0.00     0.000 HD 
HETATM   22  C   UNL     1     -13.560   7.356  71.457  1.00  0.00    -0.454 A  
HETATM   23  C   UNL     1     -12.499   6.651  70.895  1.00  0.00    -0.183 A  
HETATM   24  C   UNL     1     -11.201   7.176  70.932  1.00  0.00    -0.305 A  
ENDBRANCH  12  13
ENDBRANCH   6  12
TORSDOF 2
ENDMDL
MODEL      135
REMARK 921   NORMALIZED FREE ENERGY PREDICTED BY IDOCK:   -4.19 KCAL/MOL
REMARK 922        TOTAL FREE ENERGY PREDICTED BY IDOCK:   -5.19 KCAL/MOL
REMARK 923 INTER-LIGAND FREE ENERGY PREDICTED BY IDOCK:   -4.73 KCAL/MOL
REMARK 924 INTRA-LIGAND FREE ENERGY PREDICTED BY IDOCK:   -0.46 KCAL/MOL
REMARK 927      BINDING AFFINITY PREDICTED BY RF-SCORE:    0.00 PKD
ROOT
HETATM    1  C   UNL     1      -5.942   5.422  67.392  1.00  0.00    -0.026 C  
HETATM    2  N   UNL     1      -6.350   6.425  66.330  1.00  0.00    -0.040 N  
HETATM    3  C   UNL     1      -6.116   7.931  66.639  1.00  0.00    -0.049 C  
HETATM    4  C   UNL     1      -5.544   6.027  65.065  1.00  0.00    -0.017 C  
HETATM    5  C   UNL     1      -6.725   8.274  68.019  1.00  0.00    -0.065 C  
HETATM    6  C   UNL     1      -8.244   8.025  68.082  1.00  0.00    -0.126 C  
HETATM    7  C   UNL     1      -8.671   6.744  67.330  1.00  0.00    -0.119 C  
HETATM    8  O   UNL     1      -8.184   9.013  65.549  1.00  0.00    -0.111 OA 
HETATM    9  C   UNL     1      -7.870   6.512  66.012  1.00  0.00    -0.103 C  
HETATM   10  C   UNL     1      -6.815   8.640  65.477  1.00  0.00    -0.075 C  
HETATM   11  C   UNL     1      -7.952   7.704  65.057  1.00  0.00    -0.131 C  
ENDROOT
BRANCH   6  12
HETATM   12  O   UNL     1      -8.858   8.242  69.375  1.00  0.00    -0.143 OA 
BRANCH  12  13
HETATM   13  C   UNL     1      -8.967   7.264  70.298  1.00  0.00    -0.151 C  
HETATM   14  C   UNL     1     -11.253   8.250  71.196  1.00  0.00    -0.296 A  
HETATM   15  C   UNL     1     -10.393   7.044  70.806  1.00  0.00    -0.222 C  
HETATM   16  C   UNL     1     -11.153   6.098  69.870  1.00  0.00    -0.410 C  
HETATM   17  C   UNL     1     -12.010   8.174  72.383  1.00  0.00    -0.431 A  
HETATM   18  O   UNL     1     -11.598   6.737  68.676  1.00  0.00    -0.551 OA 
HETATM   19  O   UNL     1      -8.010   6.588  70.652  1.00  0.00    -0.108 OA 
HETATM   20  C   UNL     1     -12.971   9.141  72.699  1.00  0.00    -0.320 A  
HETATM   21  H   UNL     1     -12.069   6.150  68.095  1.00  0.00     0.000 HD 
HETATM   22  C   UNL     1     -13.189  10.211  71.838  1.00  0.00    -0.557 A  
HETATM   23  C   UNL     1     -12.428  10.326  70.678  1.00  0.00    -0.407 A  
HETATM   24  C   UNL     1     -11.470   9.356  70.358  1.00  0.00    -0.272 A  
ENDBRANCH  12  13
ENDBRANCH   6  12
TORSDOF 2
ENDMDL
MODEL      136
REMARK 921   NORMALIZED FREE ENERGY PREDICTED BY IDOCK:   -4.18 KCAL/MOL
REMARK 922        TOTAL FREE ENERGY PREDICTED BY IDOCK:   -5.18 KCAL/MOL
REMARK 923 INTER-LIGAND FREE ENERGY PREDICTED BY IDOCK:   -4.70 KCAL/MOL
REMARK 924 INTRA-LIGAND FREE ENERGY PREDICTED BY IDOCK:   -0.48 KCAL/MOL
REMARK 927      BINDING AFFINITY PREDICTED BY RF-SCORE:    0.00 PKD
ROOT
HETATM    1  C   UNL     1      -8.802   7.018  72.078  1.00  0.00    -0.127 C  
HETATM    2  N   UNL     1     -10.263   7.345  72.317  1.00  0.00    -0.193 N  
HETATM    3  C   UNL     1     -11.315   6.611  71.437  1.00  0.00    -0.289 C  
HETATM    4  C   UNL     1     -10.516   7.006  73.810  1.00  0.00    -0.354 C  
HETATM    5  C   UNL     1     -10.930   6.756  69.946  1.00  0.00    -0.340 C  
HETATM    6  C   UNL     1     -10.885   8.224  69.479  1.00  0.00    -0.116 C  
HETATM    7  C   UNL     1     -10.286   9.172  70.543  1.00  0.00    -0.288 C  
HETATM    8  O   UNL     1     -13.073   8.459  71.078  1.00  0.00    -0.089 OA 
HETATM    9  C   UNL     1     -10.705   8.801  71.999  1.00  0.00    -0.347 C  
HETATM   10  C   UNL     1     -12.625   7.318  71.794  1.00  0.00    -0.341 C  
HETATM   11  C   UNL     1     -12.223   8.745  72.176  1.00  0.00    -0.378 C  
ENDROOT
BRANCH   6  12
HETATM   12  O   UNL     1     -10.443   8.432  68.116  1.00  0.00    -0.212 OA 
BRANCH  12  13
HETATM   13  C   UNL     1     -10.343   7.423  67.226  1.00  0.00    -0.286 C  
HETATM   14  C   UNL     1      -8.131   8.444  66.191  1.00  0.00    -0.106 A  
HETATM   15  C   UNL     1      -8.934   7.227  66.663  1.00  0.00    -0.170 C  
HETATM   16  C   UNL     1      -8.104   6.341  67.598  1.00  0.00    -0.117 C  
HETATM   17  C   UNL     1      -7.424   8.345  64.975  1.00  0.00    -0.089 A  
HETATM   18  O   UNL     1      -7.628   7.039  68.747  1.00  0.00    -0.100 OA 
HETATM   19  O   UNL     1     -11.292   6.705  66.941  1.00  0.00    -0.333 OA 
HETATM   20  C   UNL     1      -6.510   9.328  64.581  1.00  0.00    -0.077 A  
HETATM   21  H   UNL     1      -7.114   6.490  69.327  1.00  0.00     0.000 HD 
HETATM   22  C   UNL     1      -6.290  10.436  65.390  1.00  0.00    -0.122 A  
HETATM   23  C   UNL     1      -7.002  10.573  66.579  1.00  0.00    -0.115 A  
HETATM   24  C   UNL     1      -7.913   9.586  66.977  1.00  0.00    -0.109 A  
ENDBRANCH  12  13
ENDBRANCH   6  12
TORSDOF 2
ENDMDL
MODEL      137
REMARK 921   NORMALIZED FREE ENERGY PREDICTED BY IDOCK:   -4.12 KCAL/MOL
REMARK 922        TOTAL FREE ENERGY PREDICTED BY IDOCK:   -5.12 KCAL/MOL
REMARK 923 INTER-LIGAND FREE ENERGY PREDICTED BY IDOCK:   -4.28 KCAL/MOL
REMARK 924 INTRA-LIGAND FREE ENERGY PREDICTED BY IDOCK:   -0.84 KCAL/MOL
REMARK 927      BINDING AFFINITY PREDICTED BY RF-SCORE:    0.00 PKD
ROOT
HETATM    1  C   UNL     1      -8.725   9.883  63.371  1.00  0.00    -0.224 C  
HETATM    2  N   UNL     1      -7.481   9.366  64.067  1.00  0.00    -0.109 N  
HETATM    3  C   UNL     1      -7.682   8.384  65.256  1.00  0.00    -0.098 C  
HETATM    4  C   UNL     1      -6.655   8.666  62.955  1.00  0.00    -0.091 C  
HETATM    5  C   UNL     1      -8.692   8.989  66.258  1.00  0.00    -0.155 C  
HETATM    6  C   UNL     1      -8.220  10.333  66.848  1.00  0.00    -0.123 C  
HETATM    7  C   UNL     1      -7.515  11.228  65.804  1.00  0.00     0.272 C  
HETATM    8  O   UNL     1      -5.793   9.107  66.851  1.00  0.00    -0.047 OA 
HETATM    9  C   UNL     1      -6.619  10.423  64.813  1.00  0.00    -0.045 C  
HETATM   10  C   UNL     1      -6.271   8.240  65.833  1.00  0.00    -0.048 C  
HETATM   11  C   UNL     1      -5.572   9.568  65.529  1.00  0.00    -0.049 C  
ENDROOT
BRANCH   6  12
HETATM   12  O   UNL     1      -9.163  10.995  67.725  1.00  0.00    -0.150 OA 
BRANCH  12  13
HETATM   13  C   UNL     1      -9.021  12.282  68.103  1.00  0.00    -0.192 C  
HETATM   14  C   UNL     1     -10.709  13.105  66.238  1.00  0.00    -0.295 A  
HETATM   15  C   UNL     1     -10.175  13.188  67.671  1.00  0.00    -0.224 C  
HETATM   16  C   UNL     1     -11.314  13.126  68.695  1.00  0.00    -0.289 C  
HETATM   17  C   UNL     1     -10.980  14.308  65.556  1.00  0.00    -0.319 A  
HETATM   18  O   UNL     1     -12.101  11.944  68.577  1.00  0.00    -0.412 OA 
HETATM   19  O   UNL     1      -8.071  12.665  68.774  1.00  0.00    -0.043 OA 
HETATM   20  C   UNL     1     -11.658  14.317  64.332  1.00  0.00    -0.358 A  
HETATM   21  H   UNL     1     -12.807  11.905  69.212  1.00  0.00     0.000 HD 
HETATM   22  C   UNL     1     -12.071  13.119  63.759  1.00  0.00    -0.563 A  
HETATM   23  C   UNL     1     -11.783  11.915  64.396  1.00  0.00    -0.357 A  
HETATM   24  C   UNL     1     -11.109  11.907  65.625  1.00  0.00    -0.362 A  
ENDBRANCH  12  13
ENDBRANCH   6  12
TORSDOF 2
ENDMDL
MODEL      138
REMARK 921   NORMALIZED FREE ENERGY PREDICTED BY IDOCK:   -4.10 KCAL/MOL
REMARK 922        TOTAL FREE ENERGY PREDICTED BY IDOCK:   -5.10 KCAL/MOL
REMARK 923 INTER-LIGAND FREE ENERGY PREDICTED BY IDOCK:   -4.27 KCAL/MOL
REMARK 924 INTRA-LIGAND FREE ENERGY PREDICTED BY IDOCK:   -0.83 KCAL/MOL
REMARK 927      BINDING AFFINITY PREDICTED BY RF-SCORE:    0.00 PKD
ROOT
HETATM    1  C   UNL     1      -9.487   5.106  71.652  1.00  0.00    -0.150 C  
HETATM    2  N   UNL     1     -10.435   6.218  72.058  1.00  0.00    -0.203 N  
HETATM    3  C   UNL     1     -11.758   6.360  71.253  1.00  0.00    -0.300 C  
HETATM    4  C   UNL     1     -10.767   5.944  73.549  1.00  0.00    -0.259 C  
HETATM    5  C   UNL     1     -11.438   6.400  69.740  1.00  0.00    -0.468 C  
HETATM    6  C   UNL     1     -10.534   7.586  69.350  1.00  0.00    -0.222 C  
HETATM    7  C   UNL     1      -9.431   7.865  70.395  1.00  0.00    -0.163 C  
HETATM    8  O   UNL     1     -12.046   8.919  71.176  1.00  0.00    -0.291 OA 
HETATM    9  C   UNL     1      -9.916   7.671  71.865  1.00  0.00    -0.176 C  
HETATM   10  C   UNL     1     -12.350   7.670  71.780  1.00  0.00    -0.319 C  
HETATM   11  C   UNL     1     -11.145   8.520  72.195  1.00  0.00    -0.366 C  
ENDROOT
BRANCH   6  12
HETATM   12  O   UNL     1     -10.125   7.627  67.962  1.00  0.00    -0.172 OA 
BRANCH  12  13
HETATM   13  C   UNL     1      -9.182   8.480  67.510  1.00  0.00    -0.133 C  
HETATM   14  C   UNL     1      -7.312   6.610  67.637  1.00  0.00    -0.096 A  
HETATM   15  C   UNL     1      -7.959   7.789  66.903  1.00  0.00    -0.112 C  
HETATM   16  C   UNL     1      -8.212   7.456  65.428  1.00  0.00    -0.134 C  
HETATM   17  C   UNL     1      -5.906   6.567  67.720  1.00  0.00    -0.016 A  
HETATM   18  O   UNL     1      -9.039   6.308  65.252  1.00  0.00    -0.371 OA 
HETATM   19  O   UNL     1      -9.327   9.695  67.544  1.00  0.00    -0.129 OA 
HETATM   20  C   UNL     1      -5.237   5.432  68.188  1.00  0.00    -0.004 A  
HETATM   21  H   UNL     1      -9.196   6.102  64.338  1.00  0.00     0.000 HD 
HETATM   22  C   UNL     1      -5.962   4.316  68.593  1.00  0.00    -0.026 A  
HETATM   23  C   UNL     1      -7.353   4.348  68.553  1.00  0.00    -0.060 A  
HETATM   24  C   UNL     1      -8.023   5.483  68.079  1.00  0.00    -0.096 A  
ENDBRANCH  12  13
ENDBRANCH   6  12
TORSDOF 2
ENDMDL
MODEL      139
REMARK 921   NORMALIZED FREE ENERGY PREDICTED BY IDOCK:   -4.09 KCAL/MOL
REMARK 922        TOTAL FREE ENERGY PREDICTED BY IDOCK:   -5.08 KCAL/MOL
REMARK 923 INTER-LIGAND FREE ENERGY PREDICTED BY IDOCK:   -4.59 KCAL/MOL
REMARK 924 INTRA-LIGAND FREE ENERGY PREDICTED BY IDOCK:   -0.48 KCAL/MOL
REMARK 927      BINDING AFFINITY PREDICTED BY RF-SCORE:    0.00 PKD
ROOT
HETATM    1  C   UNL     1     -10.148   6.468  70.295  1.00  0.00    -0.179 C  
HETATM    2  N   UNL     1      -9.682   5.512  69.215  1.00  0.00    -0.148 N  
HETATM    3  C   UNL     1      -8.307   5.800  68.547  1.00  0.00    -0.107 C  
HETATM    4  C   UNL     1      -9.640   4.118  69.897  1.00  0.00    -0.211 C  
HETATM    5  C   UNL     1      -8.264   7.271  68.071  1.00  0.00    -0.120 C  
HETATM    6  C   UNL     1      -9.355   7.596  67.032  1.00  0.00    -0.157 C  
HETATM    7  C   UNL     1     -10.704   6.910  67.347  1.00  0.00    -0.396 C  
HETATM    8  O   UNL     1      -8.759   5.109  66.107  1.00  0.00    -0.117 OA 
HETATM    9  C   UNL     1     -10.538   5.467  67.918  1.00  0.00    -0.090 C  
HETATM   10  C   UNL     1      -8.257   4.791  67.398  1.00  0.00    -0.105 C  
HETATM   11  C   UNL     1      -9.717   4.562  66.997  1.00  0.00    -0.202 C  
ENDROOT
BRANCH   6  12
HETATM   12  O   UNL     1      -9.425   8.980  66.614  1.00  0.00    -0.164 OA 
BRANCH  12  13
HETATM   13  C   UNL     1      -8.571   9.509  65.713  1.00  0.00    -0.138 C  
HETATM   14  C   UNL     1      -9.904  11.795  65.665  1.00  0.00    -0.265 A  
HETATM   15  C   UNL     1      -8.572  11.038  65.678  1.00  0.00    -0.131 C  
HETATM   16  C   UNL     1      -7.625  11.598  66.745  1.00  0.00    -0.104 C  
HETATM   17  C   UNL     1     -10.043  12.885  64.782  1.00  0.00    -0.242 A  
HETATM   18  O   UNL     1      -8.180  11.554  68.058  1.00  0.00    -0.129 OA 
HETATM   19  O   UNL     1      -7.831   8.816  65.028  1.00  0.00    -0.100 OA 
HETATM   20  C   UNL     1     -11.142  13.747  64.855  1.00  0.00    -0.364 A  
HETATM   21  H   UNL     1      -7.592  11.900  68.720  1.00  0.00     0.000 HD 
HETATM   22  C   UNL     1     -12.132  13.532  65.808  1.00  0.00    -0.473 A  
HETATM   23  C   UNL     1     -12.035  12.441  66.667  1.00  0.00    -0.300 A  
HETATM   24  C   UNL     1     -10.931  11.581  66.598  1.00  0.00    -0.349 A  
ENDBRANCH  12  13
ENDBRANCH   6  12
TORSDOF 2
ENDMDL
MODEL      140
REMARK 921   NORMALIZED FREE ENERGY PREDICTED BY IDOCK:   -4.07 KCAL/MOL
REMARK 922        TOTAL FREE ENERGY PREDICTED BY IDOCK:   -5.05 KCAL/MOL
REMARK 923 INTER-LIGAND FREE ENERGY PREDICTED BY IDOCK:   -4.54 KCAL/MOL
REMARK 924 INTRA-LIGAND FREE ENERGY PREDICTED BY IDOCK:   -0.51 KCAL/MOL
REMARK 927      BINDING AFFINITY PREDICTED BY RF-SCORE:    0.00 PKD
ROOT
HETATM    1  C   UNL     1     -10.291  15.847  66.307  1.00  0.00    -0.314 C  
HETATM    2  N   UNL     1     -11.097  14.793  65.571  1.00  0.00    -0.333 N  
HETATM    3  C   UNL     1     -12.116  13.961  66.400  1.00  0.00    -0.455 C  
HETATM    4  C   UNL     1     -11.850  15.565  64.455  1.00  0.00    -0.219 C  
HETATM    5  C   UNL     1     -11.410  13.378  67.647  1.00  0.00    -0.321 C  
HETATM    6  C   UNL     1     -10.238  12.444  67.290  1.00  0.00    -0.215 C  
HETATM    7  C   UNL     1      -9.414  12.952  66.086  1.00  0.00    -0.161 C  
HETATM    8  O   UNL     1     -11.909  11.641  65.301  1.00  0.00    -0.168 OA 
HETATM    9  C   UNL     1     -10.293  13.603  64.974  1.00  0.00    -0.374 C  
HETATM   10  C   UNL     1     -12.579  12.889  65.412  1.00  0.00    -0.378 C  
HETATM   11  C   UNL     1     -11.392  12.667  64.470  1.00  0.00    -0.333 C  
ENDROOT
BRANCH   6  12
HETATM   12  O   UNL     1      -9.480  11.937  68.415  1.00  0.00    -0.200 OA 
BRANCH  12  13
HETATM   13  C   UNL     1      -9.954  10.976  69.235  1.00  0.00    -0.063 C  
HETATM   14  C   UNL     1      -8.357   9.157  68.165  1.00  0.00    -0.120 A  
HETATM   15  C   UNL     1      -9.015   9.780  69.400  1.00  0.00    -0.197 C  
HETATM   16  C   UNL     1      -7.984  10.059  70.500  1.00  0.00     0.276 C  
HETATM   17  C   UNL     1      -8.321   7.752  68.066  1.00  0.00    -0.124 A  
HETATM   18  O   UNL     1      -6.933  10.920  70.069  1.00  0.00    -0.265 OA 
HETATM   19  O   UNL     1     -11.021  11.088  69.826  1.00  0.00    -0.250 OA 
HETATM   20  C   UNL     1      -7.563   7.109  67.082  1.00  0.00    -0.103 A  
HETATM   21  H   UNL     1      -6.294  11.093  70.751  1.00  0.00     0.000 HD 
HETATM   22  C   UNL     1      -6.831   7.859  66.168  1.00  0.00    -0.058 A  
HETATM   23  C   UNL     1      -6.880   9.249  66.224  1.00  0.00    -0.082 A  
HETATM   24  C   UNL     1      -7.634   9.894  67.213  1.00  0.00    -0.088 A  
ENDBRANCH  12  13
ENDBRANCH   6  12
TORSDOF 2
ENDMDL
MODEL      141
REMARK 921   NORMALIZED FREE ENERGY PREDICTED BY IDOCK:   -4.04 KCAL/MOL
REMARK 922        TOTAL FREE ENERGY PREDICTED BY IDOCK:   -5.02 KCAL/MOL
REMARK 923 INTER-LIGAND FREE ENERGY PREDICTED BY IDOCK:   -4.21 KCAL/MOL
REMARK 924 INTRA-LIGAND FREE ENERGY PREDICTED BY IDOCK:   -0.81 KCAL/MOL
REMARK 927      BINDING AFFINITY PREDICTED BY RF-SCORE:    0.00 PKD
ROOT
HETATM    1  C   UNL     1     -10.736  15.282  65.731  1.00  0.00    -0.348 C  
HETATM    2  N   UNL     1     -11.573  14.406  64.819  1.00  0.00    -0.388 N  
HETATM    3  C   UNL     1     -12.568  13.417  65.491  1.00  0.00    -0.465 C  
HETATM    4  C   UNL     1     -12.359  15.394  63.917  1.00  0.00     0.271 C  
HETATM    5  C   UNL     1     -11.823  12.586  66.562  1.00  0.00    -0.434 C  
HETATM    6  C   UNL     1     -10.671  11.748  65.975  1.00  0.00    -0.279 C  
HETATM    7  C   UNL     1      -9.885  12.499  64.876  1.00  0.00    -0.095 C  
HETATM    8  O   UNL     1     -12.415  11.380  63.922  1.00  0.00    -0.011 OA 
HETATM    9  C   UNL     1     -10.798  13.369  63.958  1.00  0.00    -0.184 C  
HETATM   10  C   UNL     1     -13.072  12.575  64.316  1.00  0.00     0.007 C  
HETATM   11  C   UNL     1     -11.920  12.557  63.307  1.00  0.00    -0.426 C  
ENDROOT
BRANCH   6  12
HETATM   12  O   UNL     1      -9.877  11.017  66.942  1.00  0.00    -0.185 OA 
BRANCH  12  13
HETATM   13  C   UNL     1      -8.629  10.580  66.672  1.00  0.00    -0.131 C  
HETATM   14  C   UNL     1      -7.546  12.674  67.875  1.00  0.00    -0.132 A  
HETATM   15  C   UNL     1      -7.553  11.170  67.586  1.00  0.00    -0.105 C  
HETATM   16  C   UNL     1      -7.444  10.354  68.878  1.00  0.00    -0.099 C  
HETATM   17  C   UNL     1      -6.311  13.354  67.841  1.00  0.00    -0.151 A  
HETATM   18  O   UNL     1      -8.491  10.638  69.804  1.00  0.00    -0.385 OA 
HETATM   19  O   UNL     1      -8.400   9.748  65.804  1.00  0.00    -0.124 OA 
HETATM   20  C   UNL     1      -6.192  14.673  68.292  1.00  0.00    -0.123 A  
HETATM   21  H   UNL     1      -8.424  10.132  70.605  1.00  0.00     0.000 HD 
HETATM   22  C   UNL     1      -7.308  15.345  68.778  1.00  0.00    -0.135 A  
HETATM   23  C   UNL     1      -8.545  14.706  68.788  1.00  0.00    -0.160 A  
HETATM   24  C   UNL     1      -8.664  13.383  68.342  1.00  0.00    -0.134 A  
ENDBRANCH  12  13
ENDBRANCH   6  12
TORSDOF 2
ENDMDL
MODEL      142
REMARK 921   NORMALIZED FREE ENERGY PREDICTED BY IDOCK:   -4.03 KCAL/MOL
REMARK 922        TOTAL FREE ENERGY PREDICTED BY IDOCK:   -5.02 KCAL/MOL
REMARK 923 INTER-LIGAND FREE ENERGY PREDICTED BY IDOCK:   -4.57 KCAL/MOL
REMARK 924 INTRA-LIGAND FREE ENERGY PREDICTED BY IDOCK:   -0.45 KCAL/MOL
REMARK 927      BINDING AFFINITY PREDICTED BY RF-SCORE:    0.00 PKD
ROOT
HETATM    1  C   UNL     1     -12.546   9.907  70.725  1.00  0.00    -0.241 C  
HETATM    2  N   UNL     1     -12.297   8.718  71.633  1.00  0.00    -0.319 N  
HETATM    3  C   UNL     1     -10.897   8.607  72.300  1.00  0.00    -0.322 C  
HETATM    4  C   UNL     1     -13.386   8.814  72.735  1.00  0.00    -0.159 C  
HETATM    5  C   UNL     1      -9.800   8.745  71.219  1.00  0.00    -0.336 C  
HETATM    6  C   UNL     1      -9.881   7.648  70.139  1.00  0.00    -0.184 C  
HETATM    7  C   UNL     1     -11.335   7.305  69.744  1.00  0.00    -0.098 C  
HETATM    8  O   UNL     1     -10.502   6.062  72.258  1.00  0.00    -0.195 OA 
HETATM    9  C   UNL     1     -12.317   7.318  70.957  1.00  0.00    -0.297 C  
HETATM   10  C   UNL     1     -10.929   7.224  72.955  1.00  0.00    -0.337 C  
HETATM   11  C   UNL     1     -11.871   6.386  72.084  1.00  0.00    -0.314 C  
ENDROOT
BRANCH   6  12
HETATM   12  O   UNL     1      -8.936   7.776  69.049  1.00  0.00    -0.144 OA 
BRANCH  12  13
HETATM   13  C   UNL     1      -7.662   8.176  69.238  1.00  0.00    -0.104 C  
HETATM   14  C   UNL     1      -7.634   9.462  66.924  1.00  0.00    -0.091 A  
HETATM   15  C   UNL     1      -7.266   9.400  68.410  1.00  0.00    -0.076 C  
HETATM   16  C   UNL     1      -7.666  10.689  69.137  1.00  0.00    -0.138 C  
HETATM   17  C   UNL     1      -6.660   9.918  66.014  1.00  0.00    -0.086 A  
HETATM   18  O   UNL     1      -9.058  10.976  69.031  1.00  0.00    -0.301 OA 
HETATM   19  O   UNL     1      -6.917   7.631  70.041  1.00  0.00    -0.049 OA 
HETATM   20  C   UNL     1      -6.981  10.197  64.681  1.00  0.00    -0.121 A  
HETATM   21  H   UNL     1      -9.307  11.775  69.482  1.00  0.00     0.000 HD 
HETATM   22  C   UNL     1      -8.283  10.016  64.227  1.00  0.00    -0.166 A  
HETATM   23  C   UNL     1      -9.254   9.532  65.099  1.00  0.00    -0.305 A  
HETATM   24  C   UNL     1      -8.935   9.258  66.435  1.00  0.00    -0.185 A  
ENDBRANCH  12  13
ENDBRANCH   6  12
TORSDOF 2
ENDMDL
MODEL      143
REMARK 921   NORMALIZED FREE ENERGY PREDICTED BY IDOCK:   -4.03 KCAL/MOL
REMARK 922        TOTAL FREE ENERGY PREDICTED BY IDOCK:   -5.02 KCAL/MOL
REMARK 923 INTER-LIGAND FREE ENERGY PREDICTED BY IDOCK:   -4.64 KCAL/MOL
REMARK 924 INTRA-LIGAND FREE ENERGY PREDICTED BY IDOCK:   -0.38 KCAL/MOL
REMARK 927      BINDING AFFINITY PREDICTED BY RF-SCORE:    0.00 PKD
ROOT
HETATM    1  C   UNL     1      -6.283  19.330  69.577  1.00  0.00    -0.289 C  
HETATM    2  N   UNL     1      -7.002  19.591  68.268  1.00  0.00    -0.282 N  
HETATM    3  C   UNL     1      -8.557  19.578  68.290  1.00  0.00    -0.340 C  
HETATM    4  C   UNL     1      -6.505  20.986  67.803  1.00  0.00    -0.351 C  
HETATM    5  C   UNL     1      -9.051  18.279  68.969  1.00  0.00    -0.064 C  
HETATM    6  C   UNL     1      -8.593  17.006  68.232  1.00  0.00    -0.234 C  
HETATM    7  C   UNL     1      -7.147  17.112  67.697  1.00  0.00    -0.169 C  
HETATM    8  O   UNL     1      -9.100  18.498  66.015  1.00  0.00    -0.495 OA 
HETATM    9  C   UNL     1      -6.801  18.531  67.148  1.00  0.00    -0.201 C  
HETATM   10  C   UNL     1      -8.929  19.664  66.808  1.00  0.00    -0.354 C  
HETATM   11  C   UNL     1      -7.773  18.993  66.061  1.00  0.00    -0.229 C  
ENDROOT
BRANCH   6  12
HETATM   12  O   UNL     1      -8.948  15.755  68.869  1.00  0.00    -0.194 OA 
BRANCH  12  13
HETATM   13  C   UNL     1      -8.022  14.875  69.303  1.00  0.00    -0.153 C  
HETATM   14  C   UNL     1      -9.430  12.822  68.403  1.00  0.00    -0.162 A  
HETATM   15  C   UNL     1      -8.079  13.516  68.602  1.00  0.00    -0.055 C  
HETATM   16  C   UNL     1      -7.276  13.555  67.297  1.00  0.00     0.013 C  
HETATM   17  C   UNL     1      -9.514  11.440  68.665  1.00  0.00    -0.168 A  
HETATM   18  O   UNL     1      -7.967  14.213  66.239  1.00  0.00     0.310 OA 
HETATM   19  O   UNL     1      -7.186  15.167  70.147  1.00  0.00    -0.098 OA 
HETATM   20  C   UNL     1     -10.647  10.698  68.314  1.00  0.00    -0.227 A  
HETATM   21  H   UNL     1      -7.469  14.238  65.430  1.00  0.00     0.000 HD 
HETATM   22  C   UNL     1     -11.726  11.326  67.701  1.00  0.00    -0.215 A  
HETATM   23  C   UNL     1     -11.680  12.697  67.464  1.00  0.00    -0.429 A  
HETATM   24  C   UNL     1     -10.543  13.439  67.810  1.00  0.00    -0.252 A  
ENDBRANCH  12  13
ENDBRANCH   6  12
TORSDOF 2
ENDMDL
MODEL      144
REMARK 921   NORMALIZED FREE ENERGY PREDICTED BY IDOCK:   -3.98 KCAL/MOL
REMARK 922        TOTAL FREE ENERGY PREDICTED BY IDOCK:   -4.96 KCAL/MOL
REMARK 923 INTER-LIGAND FREE ENERGY PREDICTED BY IDOCK:   -4.44 KCAL/MOL
REMARK 924 INTRA-LIGAND FREE ENERGY PREDICTED BY IDOCK:   -0.52 KCAL/MOL
REMARK 927      BINDING AFFINITY PREDICTED BY RF-SCORE:    0.00 PKD
ROOT
HETATM    1  C   UNL     1      -7.275   7.399  72.203  1.00  0.00    -0.068 C  
HETATM    2  N   UNL     1      -8.269   6.275  71.985  1.00  0.00    -0.110 N  
HETATM    3  C   UNL     1      -8.167   5.475  70.655  1.00  0.00    -0.116 C  
HETATM    4  C   UNL     1      -8.060   5.310  73.183  1.00  0.00    -0.108 C  
HETATM    5  C   UNL     1      -8.142   6.461  69.463  1.00  0.00    -0.118 C  
HETATM    6  C   UNL     1      -9.412   7.330  69.378  1.00  0.00    -0.154 C  
HETATM    7  C   UNL     1      -9.917   7.786  70.765  1.00  0.00    -0.184 C  
HETATM    8  O   UNL     1     -10.647   5.026  70.126  1.00  0.00    -0.236 OA 
HETATM    9  C   UNL     1      -9.763   6.689  71.864  1.00  0.00    -0.153 C  
HETATM   10  C   UNL     1      -9.415   4.590  70.681  1.00  0.00    -0.170 C  
HETATM   11  C   UNL     1     -10.453   5.378  71.485  1.00  0.00    -0.223 C  
ENDROOT
BRANCH   6  12
HETATM   12  O   UNL     1      -9.410   8.336  68.336  1.00  0.00    -0.136 OA 
BRANCH  12  13
HETATM   13  C   UNL     1      -9.982   8.131  67.131  1.00  0.00    -0.236 C  
HETATM   14  C   UNL     1     -10.068  10.730  66.637  1.00  0.00    -0.265 A  
HETATM   15  C   UNL     1      -9.812   9.298  66.157  1.00  0.00    -0.363 C  
HETATM   16  C   UNL     1      -8.473   9.188  65.420  1.00  0.00    -0.149 C  
HETATM   17  C   UNL     1     -10.803  11.593  65.800  1.00  0.00    -0.334 A  
HETATM   18  O   UNL     1      -7.365   9.598  66.218  1.00  0.00    -0.092 OA 
HETATM   19  O   UNL     1     -10.539   7.081  66.841  1.00  0.00    -0.296 OA 
HETATM   20  C   UNL     1     -10.901  12.962  66.070  1.00  0.00    -0.300 A  
HETATM   21  H   UNL     1      -6.534   9.529  65.762  1.00  0.00     0.000 HD 
HETATM   22  C   UNL     1     -10.273  13.497  67.190  1.00  0.00    -0.247 A  
HETATM   23  C   UNL     1      -9.571  12.658  68.050  1.00  0.00    -0.213 A  
HETATM   24  C   UNL     1      -9.467  11.287  67.777  1.00  0.00    -0.173 A  
ENDBRANCH  12  13
ENDBRANCH   6  12
TORSDOF 2
ENDMDL
MODEL      145
REMARK 921   NORMALIZED FREE ENERGY PREDICTED BY IDOCK:   -3.98 KCAL/MOL
REMARK 922        TOTAL FREE ENERGY PREDICTED BY IDOCK:   -4.96 KCAL/MOL
REMARK 923 INTER-LIGAND FREE ENERGY PREDICTED BY IDOCK:   -4.50 KCAL/MOL
REMARK 924 INTRA-LIGAND FREE ENERGY PREDICTED BY IDOCK:   -0.46 KCAL/MOL
REMARK 927      BINDING AFFINITY PREDICTED BY RF-SCORE:    0.00 PKD
ROOT
HETATM    1  C   UNL     1      -7.590   7.772  70.017  1.00  0.00    -0.085 C  
HETATM    2  N   UNL     1      -8.758   6.824  69.826  1.00  0.00    -0.140 N  
HETATM    3  C   UNL     1      -9.041   6.317  68.383  1.00  0.00    -0.114 C  
HETATM    4  C   UNL     1      -8.450   5.612  70.746  1.00  0.00    -0.124 C  
HETATM    5  C   UNL     1      -9.117   7.525  67.420  1.00  0.00    -0.135 C  
HETATM    6  C   UNL     1     -10.240   8.514  67.787  1.00  0.00    -0.225 C  
HETATM    7  C   UNL     1     -10.385   8.715  69.312  1.00  0.00    -0.228 C  
HETATM    8  O   UNL     1     -11.616   6.238  68.357  1.00  0.00    -0.032 OA 
HETATM    9  C   UNL     1     -10.170   7.401  70.126  1.00  0.00    -0.205 C  
HETATM   10  C   UNL     1     -10.372   5.575  68.528  1.00  0.00    -0.178 C  
HETATM   11  C   UNL     1     -11.102   6.274  69.678  1.00  0.00    -0.412 C  
ENDROOT
BRANCH   6  12
HETATM   12  O   UNL     1     -10.306   9.712  66.976  1.00  0.00    -0.234 OA 
BRANCH  12  13
HETATM   13  C   UNL     1     -10.713  10.899  67.469  1.00  0.00    -0.252 C  
HETATM   14  C   UNL     1      -8.267  11.898  67.318  1.00  0.00    -0.170 A  
HETATM   15  C   UNL     1      -9.779  12.064  67.138  1.00  0.00    -0.203 C  
HETATM   16  C   UNL     1     -10.115  12.643  65.759  1.00  0.00    -0.271 C  
HETATM   17  C   UNL     1      -7.547  12.949  67.920  1.00  0.00    -0.138 A  
HETATM   18  O   UNL     1      -9.621  11.845  64.686  1.00  0.00    -0.407 OA 
HETATM   19  O   UNL     1     -11.765  11.027  68.082  1.00  0.00    -0.497 OA 
HETATM   20  C   UNL     1      -6.148  12.962  67.933  1.00  0.00    -0.125 A  
HETATM   21  H   UNL     1      -9.829  12.203  63.831  1.00  0.00     0.000 HD 
HETATM   22  C   UNL     1      -5.438  11.917  67.352  1.00  0.00    -0.107 A  
HETATM   23  C   UNL     1      -6.128  10.850  66.782  1.00  0.00    -0.088 A  
HETATM   24  C   UNL     1      -7.528  10.840  66.764  1.00  0.00    -0.129 A  
ENDBRANCH  12  13
ENDBRANCH   6  12
TORSDOF 2
ENDMDL
MODEL      146
REMARK 921   NORMALIZED FREE ENERGY PREDICTED BY IDOCK:   -3.96 KCAL/MOL
REMARK 922        TOTAL FREE ENERGY PREDICTED BY IDOCK:   -4.94 KCAL/MOL
REMARK 923 INTER-LIGAND FREE ENERGY PREDICTED BY IDOCK:   -4.34 KCAL/MOL
REMARK 924 INTRA-LIGAND FREE ENERGY PREDICTED BY IDOCK:   -0.59 KCAL/MOL
REMARK 927      BINDING AFFINITY PREDICTED BY RF-SCORE:    0.00 PKD
ROOT
HETATM    1  C   UNL     1     -12.719  13.512  65.634  1.00  0.00    -0.421 C  
HETATM    2  N   UNL     1     -11.501  13.950  66.424  1.00  0.00    -0.331 N  
HETATM    3  C   UNL     1     -10.119  13.398  65.974  1.00  0.00    -0.304 C  
HETATM    4  C   UNL     1     -11.492  15.500  66.331  1.00  0.00     0.094 C  
HETATM    5  C   UNL     1     -10.197  11.859  65.843  1.00  0.00    -0.270 C  
HETATM    6  C   UNL     1     -10.558  11.163  67.170  1.00  0.00    -0.244 C  
HETATM    7  C   UNL     1     -11.620  11.939  67.982  1.00  0.00    -0.401 C  
HETATM    8  O   UNL     1      -8.931  13.064  68.235  1.00  0.00    -0.194 OA 
HETATM    9  C   UNL     1     -11.438  13.486  67.907  1.00  0.00    -0.318 C  
HETATM   10  C   UNL     1      -9.176  13.863  67.087  1.00  0.00    -0.239 C  
HETATM   11  C   UNL     1     -10.043  13.935  68.347  1.00  0.00    -0.237 C  
ENDROOT
BRANCH   6  12
HETATM   12  O   UNL     1     -10.735   9.728  67.093  1.00  0.00    -0.256 OA 
BRANCH  12  13
HETATM   13  C   UNL     1     -10.250   8.887  68.030  1.00  0.00    -0.213 C  
HETATM   14  C   UNL     1      -8.599   7.767  66.290  1.00  0.00    -0.161 A  
HETATM   15  C   UNL     1      -8.873   8.312  67.696  1.00  0.00    -0.137 C  
HETATM   16  C   UNL     1      -7.769   9.276  68.144  1.00  0.00    -0.088 C  
HETATM   17  C   UNL     1      -7.905   6.546  66.172  1.00  0.00    -0.106 A  
HETATM   18  O   UNL     1      -7.604  10.381  67.258  1.00  0.00    -0.094 OA 
HETATM   19  O   UNL     1     -10.848   8.653  69.072  1.00  0.00    -0.153 OA 
HETATM   20  C   UNL     1      -7.439   6.089  64.934  1.00  0.00    -0.082 A  
HETATM   21  H   UNL     1      -6.920  10.979  67.536  1.00  0.00     0.000 HD 
HETATM   22  C   UNL     1      -7.666   6.840  63.786  1.00  0.00    -0.111 A  
HETATM   23  C   UNL     1      -8.381   8.031  63.873  1.00  0.00     0.036 A  
HETATM   24  C   UNL     1      -8.843   8.492  65.113  1.00  0.00    -0.116 A  
ENDBRANCH  12  13
ENDBRANCH   6  12
TORSDOF 2
ENDMDL
MODEL      147
REMARK 921   NORMALIZED FREE ENERGY PREDICTED BY IDOCK:   -3.96 KCAL/MOL
REMARK 922        TOTAL FREE ENERGY PREDICTED BY IDOCK:   -4.93 KCAL/MOL
REMARK 923 INTER-LIGAND FREE ENERGY PREDICTED BY IDOCK:   -4.29 KCAL/MOL
REMARK 924 INTRA-LIGAND FREE ENERGY PREDICTED BY IDOCK:   -0.65 KCAL/MOL
REMARK 927      BINDING AFFINITY PREDICTED BY RF-SCORE:    0.00 PKD
ROOT
HETATM    1  C   UNL     1     -10.650   4.501  72.517  1.00  0.00    -0.158 C  
HETATM    2  N   UNL     1      -9.196   4.629  72.107  1.00  0.00    -0.126 N  
HETATM    3  C   UNL     1      -8.655   6.059  71.823  1.00  0.00    -0.134 C  
HETATM    4  C   UNL     1      -8.388   3.996  73.272  1.00  0.00    -0.089 C  
HETATM    5  C   UNL     1      -9.598   6.778  70.830  1.00  0.00    -0.173 C  
HETATM    6  C   UNL     1      -9.707   6.052  69.475  1.00  0.00    -0.147 C  
HETATM    7  C   UNL     1      -9.745   4.514  69.623  1.00  0.00    -0.288 C  
HETATM    8  O   UNL     1      -7.049   5.627  69.856  1.00  0.00    -0.063 OA 
HETATM    9  C   UNL     1      -8.803   3.984  70.748  1.00  0.00    -0.084 C  
HETATM   10  C   UNL     1      -7.260   5.799  71.250  1.00  0.00    -0.074 C  
HETATM   11  C   UNL     1      -7.353   4.435  70.561  1.00  0.00    -0.049 C  
ENDROOT
BRANCH   6  12
HETATM   12  O   UNL     1     -10.646   6.627  68.534  1.00  0.00    -0.194 OA 
BRANCH  12  13
HETATM   13  C   UNL     1     -10.416   6.652  67.205  1.00  0.00    -0.288 C  
HETATM   14  C   UNL     1     -10.269   9.295  67.195  1.00  0.00    -0.324 A  
HETATM   15  C   UNL     1      -9.747   7.937  66.714  1.00  0.00    -0.303 C  
HETATM   16  C   UNL     1      -8.225   7.839  66.867  1.00  0.00    -0.116 C  
HETATM   17  C   UNL     1     -10.412  10.328  66.247  1.00  0.00    -0.214 A  
HETATM   18  O   UNL     1      -7.789   8.038  68.210  1.00  0.00    -0.117 OA 
HETATM   19  O   UNL     1     -10.678   5.703  66.477  1.00  0.00    -0.288 OA 
HETATM   20  C   UNL     1     -10.683  11.644  66.638  1.00  0.00    -0.310 A  
HETATM   21  H   UNL     1      -6.846   7.977  68.306  1.00  0.00     0.000 HD 
HETATM   22  C   UNL     1     -10.827  11.953  67.986  1.00  0.00    -0.256 A  
HETATM   23  C   UNL     1     -10.725  10.942  68.938  1.00  0.00    -0.252 A  
HETATM   24  C   UNL     1     -10.448   9.625  68.548  1.00  0.00    -0.241 A  
ENDBRANCH  12  13
ENDBRANCH   6  12
TORSDOF 2
ENDMDL
MODEL      148
REMARK 921   NORMALIZED FREE ENERGY PREDICTED BY IDOCK:   -3.96 KCAL/MOL
REMARK 922        TOTAL FREE ENERGY PREDICTED BY IDOCK:   -4.93 KCAL/MOL
REMARK 923 INTER-LIGAND FREE ENERGY PREDICTED BY IDOCK:   -4.48 KCAL/MOL
REMARK 924 INTRA-LIGAND FREE ENERGY PREDICTED BY IDOCK:   -0.45 KCAL/MOL
REMARK 927      BINDING AFFINITY PREDICTED BY RF-SCORE:    0.00 PKD
ROOT
HETATM    1  C   UNL     1      -9.443  11.121  65.316  1.00  0.00    -0.226 C  
HETATM    2  N   UNL     1     -10.107  12.146  66.214  1.00  0.00    -0.220 N  
HETATM    3  C   UNL     1      -9.317  12.621  67.467  1.00  0.00    -0.188 C  
HETATM    4  C   UNL     1     -10.395  13.364  65.296  1.00  0.00    -0.319 C  
HETATM    5  C   UNL     1      -8.829  11.389  68.264  1.00  0.00    -0.167 C  
HETATM    6  C   UNL     1      -9.985  10.500  68.761  1.00  0.00    -0.192 C  
HETATM    7  C   UNL     1     -11.124  10.366  67.725  1.00  0.00    -0.365 C  
HETATM    8  O   UNL     1     -11.203  12.891  69.200  1.00  0.00    -0.256 OA 
HETATM    9  C   UNL     1     -11.401  11.688  66.945  1.00  0.00    -0.295 C  
HETATM   10  C   UNL     1     -10.341  13.466  68.228  1.00  0.00    -0.249 C  
HETATM   11  C   UNL     1     -11.704  12.865  67.874  1.00  0.00    -0.357 C  
ENDROOT
BRANCH   6  12
HETATM   12  O   UNL     1      -9.589   9.282  69.437  1.00  0.00    -0.159 OA 
BRANCH  12  13
HETATM   13  C   UNL     1      -8.377   9.133  70.010  1.00  0.00    -0.150 C  
HETATM   14  C   UNL     1      -8.353   6.539  69.482  1.00  0.00    -0.130 A  
HETATM   15  C   UNL     1      -7.622   7.884  69.552  1.00  0.00    -0.099 C  
HETATM   16  C   UNL     1      -6.856   8.169  68.256  1.00  0.00    -0.069 C  
HETATM   17  C   UNL     1      -7.695   5.396  69.978  1.00  0.00    -0.077 A  
HETATM   18  O   UNL     1      -7.696   8.173  67.104  1.00  0.00    -0.095 OA 
HETATM   19  O   UNL     1      -7.914   9.958  70.787  1.00  0.00    -0.243 OA 
HETATM   20  C   UNL     1      -8.205   4.111  69.765  1.00  0.00    -0.068 A  
HETATM   21  H   UNL     1      -7.221   8.350  66.300  1.00  0.00     0.000 HD 
HETATM   22  C   UNL     1      -9.391   3.942  69.059  1.00  0.00    -0.237 A  
HETATM   23  C   UNL     1     -10.077   5.059  68.591  1.00  0.00    -0.191 A  
HETATM   24  C   UNL     1      -9.564   6.346  68.798  1.00  0.00    -0.127 A  
ENDBRANCH  12  13
ENDBRANCH   6  12
TORSDOF 2
ENDMDL
MODEL      149
REMARK 921   NORMALIZED FREE ENERGY PREDICTED BY IDOCK:   -3.94 KCAL/MOL
REMARK 922        TOTAL FREE ENERGY PREDICTED BY IDOCK:   -4.91 KCAL/MOL
REMARK 923 INTER-LIGAND FREE ENERGY PREDICTED BY IDOCK:   -4.64 KCAL/MOL
REMARK 924 INTRA-LIGAND FREE ENERGY PREDICTED BY IDOCK:   -0.28 KCAL/MOL
REMARK 927      BINDING AFFINITY PREDICTED BY RF-SCORE:    0.00 PKD
ROOT
HETATM    1  C   UNL     1     -10.499   7.641  67.948  1.00  0.00    -0.207 C  
HETATM    2  N   UNL     1      -9.157   8.325  68.123  1.00  0.00    -0.135 N  
HETATM    3  C   UNL     1      -8.931   9.137  69.431  1.00  0.00    -0.147 C  
HETATM    4  C   UNL     1      -8.107   7.185  68.037  1.00  0.00    -0.120 C  
HETATM    5  C   UNL     1     -10.108  10.119  69.636  1.00  0.00    -0.265 C  
HETATM    6  C   UNL     1     -10.249  11.134  68.485  1.00  0.00    -0.198 C  
HETATM    7  C   UNL     1      -9.982  10.506  67.099  1.00  0.00    -0.234 C  
HETATM    8  O   UNL     1      -7.531  11.122  68.575  1.00  0.00    -0.097 OA 
HETATM    9  C   UNL     1      -8.824   9.460  67.114  1.00  0.00    -0.127 C  
HETATM   10  C   UNL     1      -7.595   9.839  69.180  1.00  0.00    -0.085 C  
HETATM   11  C   UNL     1      -7.519  10.036  67.664  1.00  0.00    -0.090 C  
ENDROOT
BRANCH   6  12
HETATM   12  O   UNL     1     -11.389  12.023  68.575  1.00  0.00    -0.226 OA 
BRANCH  12  13
HETATM   13  C   UNL     1     -11.632  12.780  69.665  1.00  0.00    -0.252 C  
HETATM   14  C   UNL     1      -9.859  14.593  68.906  1.00  0.00    -0.211 A  
HETATM   15  C   UNL     1     -11.225  14.246  69.507  1.00  0.00    -0.286 C  
HETATM   16  C   UNL     1     -12.348  15.043  68.835  1.00  0.00     0.012 C  
HETATM   17  C   UNL     1      -9.097  15.606  69.523  1.00  0.00    -0.240 A  
HETATM   18  O   UNL     1     -12.411  14.833  67.426  1.00  0.00    -0.517 OA 
HETATM   19  O   UNL     1     -12.178  12.331  70.665  1.00  0.00    -0.371 OA 
HETATM   20  C   UNL     1      -7.944  16.119  68.921  1.00  0.00    -0.223 A  
HETATM   21  H   UNL     1     -13.108  15.327  67.009  1.00  0.00     0.000 HD 
HETATM   22  C   UNL     1      -7.522  15.624  67.692  1.00  0.00    -0.186 A  
HETATM   23  C   UNL     1      -8.239  14.599  67.081  1.00  0.00    -0.227 A  
HETATM   24  C   UNL     1      -9.397  14.088  67.680  1.00  0.00    -0.203 A  
ENDBRANCH  12  13
ENDBRANCH   6  12
TORSDOF 2
ENDMDL
MODEL      150
REMARK 921   NORMALIZED FREE ENERGY PREDICTED BY IDOCK:   -3.93 KCAL/MOL
REMARK 922        TOTAL FREE ENERGY PREDICTED BY IDOCK:   -4.90 KCAL/MOL
REMARK 923 INTER-LIGAND FREE ENERGY PREDICTED BY IDOCK:   -4.36 KCAL/MOL
REMARK 924 INTRA-LIGAND FREE ENERGY PREDICTED BY IDOCK:   -0.54 KCAL/MOL
REMARK 927      BINDING AFFINITY PREDICTED BY RF-SCORE:    0.00 PKD
ROOT
HETATM    1  C   UNL     1     -10.954  12.446  63.944  1.00  0.00    -0.414 C  
HETATM    2  N   UNL     1     -11.302  13.405  65.066  1.00  0.00    -0.305 N  
HETATM    3  C   UNL     1     -10.129  13.958  65.925  1.00  0.00    -0.317 C  
HETATM    4  C   UNL     1     -12.037  14.586  64.378  1.00  0.00    -0.472 C  
HETATM    5  C   UNL     1      -9.256  12.781  66.422  1.00  0.00    -0.149 C  
HETATM    6  C   UNL     1     -10.038  11.785  67.301  1.00  0.00    -0.192 C  
HETATM    7  C   UNL     1     -11.476  11.538  66.790  1.00  0.00    -0.233 C  
HETATM    8  O   UNL     1     -11.197  14.048  68.267  1.00  0.00    -0.247 OA 
HETATM    9  C   UNL     1     -12.156  12.825  66.229  1.00  0.00    -0.332 C  
HETATM   10  C   UNL     1     -10.843  14.701  67.056  1.00  0.00    -0.304 C  
HETATM   11  C   UNL     1     -12.175  13.969  67.244  1.00  0.00    -0.290 C  
ENDROOT
BRANCH   6  12
HETATM   12  O   UNL     1      -9.300  10.614  67.724  1.00  0.00    -0.145 OA 
BRANCH  12  13
HETATM   13  C   UNL     1      -9.242  10.220  69.013  1.00  0.00    -0.183 C  
HETATM   14  C   UNL     1      -7.135   8.689  68.539  1.00  0.00    -0.073 A  
HETATM   15  C   UNL     1      -7.873   9.685  69.439  1.00  0.00    -0.104 C  
HETATM   16  C   UNL     1      -6.957  10.839  69.861  1.00  0.00    -0.123 C  
HETATM   17  C   UNL     1      -6.517   7.576  69.142  1.00  0.00    -0.040 A  
HETATM   18  O   UNL     1      -6.415  11.552  68.752  1.00  0.00    -0.051 OA 
HETATM   19  O   UNL     1     -10.193  10.334  69.775  1.00  0.00    -0.236 OA 
HETATM   20  C   UNL     1      -5.657   6.740  68.423  1.00  0.00    -0.017 A  
HETATM   21  H   UNL     1      -5.848  12.268  69.014  1.00  0.00     0.000 HD 
HETATM   22  C   UNL     1      -5.404   6.994  67.079  1.00  0.00    -0.017 A  
HETATM   23  C   UNL     1      -6.030   8.067  66.452  1.00  0.00    -0.041 A  
HETATM   24  C   UNL     1      -6.887   8.909  67.174  1.00  0.00    -0.074 A  
ENDBRANCH  12  13
ENDBRANCH   6  12
TORSDOF 2
ENDMDL
MODEL      151
REMARK 921   NORMALIZED FREE ENERGY PREDICTED BY IDOCK:   -3.92 KCAL/MOL
REMARK 922        TOTAL FREE ENERGY PREDICTED BY IDOCK:   -4.89 KCAL/MOL
REMARK 923 INTER-LIGAND FREE ENERGY PREDICTED BY IDOCK:   -4.39 KCAL/MOL
REMARK 924 INTRA-LIGAND FREE ENERGY PREDICTED BY IDOCK:   -0.50 KCAL/MOL
REMARK 927      BINDING AFFINITY PREDICTED BY RF-SCORE:    0.00 PKD
ROOT
HETATM    1  C   UNL     1      -6.475   3.582  66.148  1.00  0.00    -0.036 C  
HETATM    2  N   UNL     1      -6.725   4.254  64.812  1.00  0.00    -0.044 N  
HETATM    3  C   UNL     1      -6.117   5.670  64.598  1.00  0.00    -0.025 C  
HETATM    4  C   UNL     1      -6.145   3.280  63.752  1.00  0.00    -0.018 C  
HETATM    5  C   UNL     1      -6.508   6.583  65.784  1.00  0.00    -0.043 C  
HETATM    6  C   UNL     1      -8.033   6.755  65.929  1.00  0.00    -0.112 C  
HETATM    7  C   UNL     1      -8.812   5.450  65.651  1.00  0.00    -0.153 C  
HETATM    8  O   UNL     1      -7.957   6.822  63.212  1.00  0.00    -0.120 OA 
HETATM    9  C   UNL     1      -8.203   4.611  64.485  1.00  0.00    -0.111 C  
HETATM   10  C   UNL     1      -6.726   6.115  63.266  1.00  0.00    -0.040 C  
HETATM   11  C   UNL     1      -8.083   5.410  63.187  1.00  0.00    -0.102 C  
ENDROOT
BRANCH   6  12
HETATM   12  O   UNL     1      -8.466   7.526  67.076  1.00  0.00    -0.118 OA 
BRANCH  12  13
HETATM   13  C   UNL     1      -8.624   6.978  68.299  1.00  0.00    -0.129 C  
HETATM   14  C   UNL     1     -10.491   8.742  68.940  1.00  0.00    -0.217 A  
HETATM   15  C   UNL     1      -9.967   7.302  68.956  1.00  0.00    -0.177 C  
HETATM   16  C   UNL     1     -11.041   6.313  68.492  1.00  0.00    -0.308 C  
HETATM   17  C   UNL     1     -11.050   9.261  70.125  1.00  0.00    -0.260 A  
HETATM   18  O   UNL     1     -11.529   6.598  67.183  1.00  0.00    -0.779 OA 
HETATM   19  O   UNL     1      -7.781   6.248  68.803  1.00  0.00    -0.097 OA 
HETATM   20  C   UNL     1     -11.732  10.483  70.135  1.00  0.00    -0.410 A  
HETATM   21  H   UNL     1     -12.195   5.984  66.895  1.00  0.00     0.000 HD 
HETATM   22  C   UNL     1     -11.861  11.217  68.961  1.00  0.00    -0.418 A  
HETATM   23  C   UNL     1     -11.286  10.740  67.786  1.00  0.00    -0.354 A  
HETATM   24  C   UNL     1     -10.608   9.514  67.773  1.00  0.00    -0.318 A  
ENDBRANCH  12  13
ENDBRANCH   6  12
TORSDOF 2
ENDMDL
MODEL      152
REMARK 921   NORMALIZED FREE ENERGY PREDICTED BY IDOCK:   -3.90 KCAL/MOL
REMARK 922        TOTAL FREE ENERGY PREDICTED BY IDOCK:   -4.87 KCAL/MOL
REMARK 923 INTER-LIGAND FREE ENERGY PREDICTED BY IDOCK:   -4.14 KCAL/MOL
REMARK 924 INTRA-LIGAND FREE ENERGY PREDICTED BY IDOCK:   -0.73 KCAL/MOL
REMARK 927      BINDING AFFINITY PREDICTED BY RF-SCORE:    0.00 PKD
ROOT
HETATM    1  C   UNL     1      -5.580   7.425  65.244  1.00  0.00    -0.033 C  
HETATM    2  N   UNL     1      -6.375   8.193  64.206  1.00  0.00    -0.065 N  
HETATM    3  C   UNL     1      -6.512   9.730  64.400  1.00  0.00    -0.117 C  
HETATM    4  C   UNL     1      -5.664   7.906  62.856  1.00  0.00    -0.063 C  
HETATM    5  C   UNL     1      -7.005  10.025  65.837  1.00  0.00    -0.113 C  
HETATM    6  C   UNL     1      -8.381   9.401  66.137  1.00  0.00    -0.115 C  
HETATM    7  C   UNL     1      -8.546   7.992  65.523  1.00  0.00    -0.158 C  
HETATM    8  O   UNL     1      -8.917  10.147  63.578  1.00  0.00    -0.200 OA 
HETATM    9  C   UNL     1      -7.891   7.859  64.113  1.00  0.00    -0.136 C  
HETATM   10  C   UNL     1      -7.520  10.132  63.321  1.00  0.00    -0.139 C  
HETATM   11  C   UNL     1      -8.412   8.903  63.123  1.00  0.00    -0.159 C  
ENDROOT
BRANCH   6  12
HETATM   12  O   UNL     1      -8.857   9.565  67.495  1.00  0.00    -0.125 OA 
BRANCH  12  13
HETATM   13  C   UNL     1     -10.162   9.737  67.790  1.00  0.00    -0.208 C  
HETATM   14  C   UNL     1     -10.178   7.600  69.351  1.00  0.00    -0.206 A  
HETATM   15  C   UNL     1     -10.604   9.046  69.081  1.00  0.00    -0.219 C  
HETATM   16  C   UNL     1     -10.324   9.945  70.290  1.00  0.00    -0.281 C  
HETATM   17  C   UNL     1     -11.140   6.704  69.857  1.00  0.00    -0.403 A  
HETATM   18  O   UNL     1      -8.951   9.946  70.674  1.00  0.00    -0.343 OA 
HETATM   19  O   UNL     1     -10.903  10.428  67.103  1.00  0.00    -0.273 OA 
HETATM   20  C   UNL     1     -10.783   5.433  70.321  1.00  0.00    -0.286 A  
HETATM   21  H   UNL     1      -8.776  10.504  71.424  1.00  0.00     0.000 HD 
HETATM   22  C   UNL     1      -9.453   5.027  70.279  1.00  0.00    -0.237 A  
HETATM   23  C   UNL     1      -8.490   5.882  69.751  1.00  0.00    -0.125 A  
HETATM   24  C   UNL     1      -8.846   7.157  69.292  1.00  0.00    -0.136 A  
ENDBRANCH  12  13
ENDBRANCH   6  12
TORSDOF 2
ENDMDL
MODEL      153
REMARK 921   NORMALIZED FREE ENERGY PREDICTED BY IDOCK:   -3.90 KCAL/MOL
REMARK 922        TOTAL FREE ENERGY PREDICTED BY IDOCK:   -4.87 KCAL/MOL
REMARK 923 INTER-LIGAND FREE ENERGY PREDICTED BY IDOCK:   -4.17 KCAL/MOL
REMARK 924 INTRA-LIGAND FREE ENERGY PREDICTED BY IDOCK:   -0.70 KCAL/MOL
REMARK 927      BINDING AFFINITY PREDICTED BY RF-SCORE:    0.00 PKD
ROOT
HETATM    1  C   UNL     1     -13.112   7.842  72.074  1.00  0.00    -0.231 C  
HETATM    2  N   UNL     1     -11.963   8.462  71.302  1.00  0.00    -0.288 N  
HETATM    3  C   UNL     1     -11.261   7.579  70.231  1.00  0.00    -0.236 C  
HETATM    4  C   UNL     1     -12.565   9.719  70.619  1.00  0.00    -0.112 C  
HETATM    5  C   UNL     1     -10.867   6.223  70.860  1.00  0.00    -0.329 C  
HETATM    6  C   UNL     1      -9.889   6.373  72.042  1.00  0.00    -0.156 C  
HETATM    7  C   UNL     1     -10.216   7.589  72.937  1.00  0.00    -0.331 C  
HETATM    8  O   UNL     1      -8.806   8.316  70.479  1.00  0.00    -0.138 OA 
HETATM    9  C   UNL     1     -10.699   8.833  72.127  1.00  0.00    -0.313 C  
HETATM   10  C   UNL     1     -10.056   8.426  69.814  1.00  0.00    -0.197 C  
HETATM   11  C   UNL     1      -9.699   9.256  71.050  1.00  0.00    -0.271 C  
ENDROOT
BRANCH   6  12
HETATM   12  O   UNL     1      -9.552   5.145  72.732  1.00  0.00    -0.144 OA 
BRANCH  12  13
HETATM   13  C   UNL     1     -10.420   4.119  72.850  1.00  0.00    -0.172 C  
HETATM   14  C   UNL     1      -9.203   2.757  70.934  1.00  0.00    -0.206 A  
HETATM   15  C   UNL     1      -9.893   2.792  72.302  1.00  0.00    -0.234 C  
HETATM   16  C   UNL     1      -9.059   2.068  73.364  1.00  0.00    -0.069 C  
HETATM   17  C   UNL     1      -9.533   1.713  70.047  1.00  0.00    -0.139 A  
HETATM   18  O   UNL     1      -7.750   2.613  73.508  1.00  0.00    -0.049 OA 
HETATM   19  O   UNL     1     -11.509   4.242  73.396  1.00  0.00    -0.280 OA 
HETATM   20  C   UNL     1      -8.804   1.495  68.873  1.00  0.00    -0.117 A  
HETATM   21  H   UNL     1      -7.232   2.165  74.168  1.00  0.00     0.000 HD 
HETATM   22  C   UNL     1      -7.733   2.324  68.557  1.00  0.00    -0.053 A  
HETATM   23  C   UNL     1      -7.410   3.383  69.400  1.00  0.00    -0.048 A  
HETATM   24  C   UNL     1      -8.137   3.599  70.579  1.00  0.00    -0.062 A  
ENDBRANCH  12  13
ENDBRANCH   6  12
TORSDOF 2
ENDMDL
MODEL      154
REMARK 921   NORMALIZED FREE ENERGY PREDICTED BY IDOCK:   -3.88 KCAL/MOL
REMARK 922        TOTAL FREE ENERGY PREDICTED BY IDOCK:   -4.84 KCAL/MOL
REMARK 923 INTER-LIGAND FREE ENERGY PREDICTED BY IDOCK:   -4.39 KCAL/MOL
REMARK 924 INTRA-LIGAND FREE ENERGY PREDICTED BY IDOCK:   -0.46 KCAL/MOL
REMARK 927      BINDING AFFINITY PREDICTED BY RF-SCORE:    0.00 PKD
ROOT
HETATM    1  C   UNL     1     -10.423  16.579  69.849  1.00  0.00    -0.166 C  
HETATM    2  N   UNL     1      -9.822  17.298  68.657  1.00  0.00    -0.298 N  
HETATM    3  C   UNL     1     -10.584  17.204  67.304  1.00  0.00    -0.270 C  
HETATM    4  C   UNL     1      -9.722  18.786  69.089  1.00  0.00    -0.195 C  
HETATM    5  C   UNL     1     -10.888  15.721  66.987  1.00  0.00    -0.273 C  
HETATM    6  C   UNL     1      -9.615  14.863  66.857  1.00  0.00    -0.245 C  
HETATM    7  C   UNL     1      -8.532  15.240  67.893  1.00  0.00    -0.151 C  
HETATM    8  O   UNL     1      -8.639  17.080  65.620  1.00  0.00    -0.456 OA 
HETATM    9  C   UNL     1      -8.446  16.775  68.158  1.00  0.00    -0.213 C  
HETATM   10  C   UNL     1      -9.614  17.848  66.311  1.00  0.00    -0.241 C  
HETATM   11  C   UNL     1      -8.217  17.580  66.878  1.00  0.00    -0.228 C  
ENDROOT
BRANCH   6  12
HETATM   12  O   UNL     1      -9.837  13.447  66.650  1.00  0.00    -0.262 OA 
BRANCH  12  13
HETATM   13  C   UNL     1      -9.664  12.536  67.630  1.00  0.00    -0.196 C  
HETATM   14  C   UNL     1      -8.724  10.749  65.919  1.00  0.00    -0.189 A  
HETATM   15  C   UNL     1      -8.658  11.436  67.286  1.00  0.00    -0.146 C  
HETATM   16  C   UNL     1      -7.233  11.896  67.610  1.00  0.00    -0.112 C  
HETATM   17  C   UNL     1      -8.586   9.347  65.869  1.00  0.00    -0.155 A  
HETATM   18  O   UNL     1      -6.702  12.789  66.634  1.00  0.00    -0.349 OA 
HETATM   19  O   UNL     1     -10.232  12.623  68.711  1.00  0.00    -0.185 OA 
HETATM   20  C   UNL     1      -8.429   8.672  64.654  1.00  0.00    -0.150 A  
HETATM   21  H   UNL     1      -5.819  13.074  66.834  1.00  0.00     0.000 HD 
HETATM   22  C   UNL     1      -8.417   9.384  63.460  1.00  0.00    -0.202 A  
HETATM   23  C   UNL     1      -8.587  10.766  63.481  1.00  0.00    -0.063 A  
HETATM   24  C   UNL     1      -8.739  11.443  64.698  1.00  0.00     0.359 A  
ENDBRANCH  12  13
ENDBRANCH   6  12
TORSDOF 2
ENDMDL
MODEL      155
REMARK 921   NORMALIZED FREE ENERGY PREDICTED BY IDOCK:   -3.87 KCAL/MOL
REMARK 922        TOTAL FREE ENERGY PREDICTED BY IDOCK:   -4.83 KCAL/MOL
REMARK 923 INTER-LIGAND FREE ENERGY PREDICTED BY IDOCK:   -4.22 KCAL/MOL
REMARK 924 INTRA-LIGAND FREE ENERGY PREDICTED BY IDOCK:   -0.61 KCAL/MOL
REMARK 927      BINDING AFFINITY PREDICTED BY RF-SCORE:    0.00 PKD
ROOT
HETATM    1  C   UNL     1      -8.057   2.650  67.140  1.00  0.00    -0.075 C  
HETATM    2  N   UNL     1      -7.897   3.249  65.756  1.00  0.00    -0.084 N  
HETATM    3  C   UNL     1      -7.184   4.627  65.650  1.00  0.00    -0.072 C  
HETATM    4  C   UNL     1      -7.097   2.193  64.947  1.00  0.00    -0.052 C  
HETATM    5  C   UNL     1      -7.841   5.623  66.635  1.00  0.00    -0.101 C  
HETATM    6  C   UNL     1      -9.336   5.856  66.344  1.00  0.00    -0.157 C  
HETATM    7  C   UNL     1     -10.072   4.563  65.924  1.00  0.00    -0.279 C  
HETATM    8  O   UNL     1      -8.513   5.755  63.754  1.00  0.00    -0.071 OA 
HETATM    9  C   UNL     1      -9.208   3.635  65.015  1.00  0.00    -0.149 C  
HETATM   10  C   UNL     1      -7.381   5.012  64.182  1.00  0.00    -0.055 C  
HETATM   11  C   UNL     1      -8.697   4.349  63.763  1.00  0.00    -0.129 C  
ENDROOT
BRANCH   6  12
HETATM   12  O   UNL     1     -10.030   6.708  67.287  1.00  0.00    -0.134 OA 
BRANCH  12  13
HETATM   13  C   UNL     1     -10.044   8.053  67.173  1.00  0.00    -0.263 C  
HETATM   14  C   UNL     1     -10.642   8.347  69.735  1.00  0.00    -0.221 A  
HETATM   15  C   UNL     1      -9.852   8.791  68.499  1.00  0.00    -0.183 C  
HETATM   16  C   UNL     1      -8.360   8.940  68.816  1.00  0.00    -0.123 C  
HETATM   17  C   UNL     1     -11.224   9.341  70.546  1.00  0.00    -0.315 A  
HETATM   18  O   UNL     1      -7.775   7.740  69.315  1.00  0.00    -0.096 OA 
HETATM   19  O   UNL     1     -10.151   8.617  66.092  1.00  0.00    -0.250 OA 
HETATM   20  C   UNL     1     -11.780   9.033  71.792  1.00  0.00    -0.440 A  
HETATM   21  H   UNL     1      -6.850   7.832  69.511  1.00  0.00     0.000 HD 
HETATM   22  C   UNL     1     -11.774   7.719  72.250  1.00  0.00    -0.390 A  
HETATM   23  C   UNL     1     -11.236   6.715  71.450  1.00  0.00    -0.318 A  
HETATM   24  C   UNL     1     -10.674   7.024  70.205  1.00  0.00    -0.265 A  
ENDBRANCH  12  13
ENDBRANCH   6  12
TORSDOF 2
ENDMDL
MODEL      156
REMARK 921   NORMALIZED FREE ENERGY PREDICTED BY IDOCK:   -3.83 KCAL/MOL
REMARK 922        TOTAL FREE ENERGY PREDICTED BY IDOCK:   -4.79 KCAL/MOL
REMARK 923 INTER-LIGAND FREE ENERGY PREDICTED BY IDOCK:   -4.17 KCAL/MOL
REMARK 924 INTRA-LIGAND FREE ENERGY PREDICTED BY IDOCK:   -0.62 KCAL/MOL
REMARK 927      BINDING AFFINITY PREDICTED BY RF-SCORE:    0.00 PKD
ROOT
HETATM    1  C   UNL     1     -11.458   6.104  69.921  1.00  0.00    -0.301 C  
HETATM    2  N   UNL     1     -10.097   5.458  70.093  1.00  0.00    -0.229 N  
HETATM    3  C   UNL     1      -8.849   6.380  69.991  1.00  0.00    -0.143 C  
HETATM    4  C   UNL     1     -10.136   4.798  71.497  1.00  0.00    -0.190 C  
HETATM    5  C   UNL     1      -8.930   7.214  68.691  1.00  0.00    -0.131 C  
HETATM    6  C   UNL     1      -8.960   6.342  67.421  1.00  0.00    -0.109 C  
HETATM    7  C   UNL     1      -9.816   5.066  67.592  1.00  0.00    -0.202 C  
HETATM    8  O   UNL     1      -7.161   4.840  68.801  1.00  0.00    -0.056 OA 
HETATM    9  C   UNL     1      -9.682   4.425  69.008  1.00  0.00    -0.153 C  
HETATM   10  C   UNL     1      -7.681   5.391  70.003  1.00  0.00    -0.077 C  
HETATM   11  C   UNL     1      -8.231   4.108  69.374  1.00  0.00    -0.058 C  
ENDROOT
BRANCH   6  12
HETATM   12  O   UNL     1      -9.127   7.061  66.175  1.00  0.00    -0.162 OA 
BRANCH  12  13
HETATM   13  C   UNL     1      -8.221   7.000  65.177  1.00  0.00    -0.113 C  
HETATM   14  C   UNL     1      -8.896   9.405  64.304  1.00  0.00    -0.220 A  
HETATM   15  C   UNL     1      -7.816   8.366  64.620  1.00  0.00    -0.127 C  
HETATM   16  C   UNL     1      -6.689   8.973  65.462  1.00  0.00    -0.072 C  
HETATM   17  C   UNL     1      -8.795  10.127  63.097  1.00  0.00    -0.232 A  
HETATM   18  O   UNL     1      -7.151   9.528  66.691  1.00  0.00    -0.084 OA 
HETATM   19  O   UNL     1      -7.737   5.942  64.796  1.00  0.00    -0.086 OA 
HETATM   20  C   UNL     1      -9.617  11.227  62.834  1.00  0.00    -0.377 A  
HETATM   21  H   UNL     1      -6.452   9.904  67.214  1.00  0.00     0.000 HD 
HETATM   22  C   UNL     1     -10.566  11.625  63.769  1.00  0.00    -0.473 A  
HETATM   23  C   UNL     1     -10.709  10.906  64.952  1.00  0.00    -0.240 A  
HETATM   24  C   UNL     1      -9.882   9.807  65.219  1.00  0.00    -0.335 A  
ENDBRANCH  12  13
ENDBRANCH   6  12
TORSDOF 2
ENDMDL
MODEL      157
REMARK 921   NORMALIZED FREE ENERGY PREDICTED BY IDOCK:   -3.83 KCAL/MOL
REMARK 922        TOTAL FREE ENERGY PREDICTED BY IDOCK:   -4.79 KCAL/MOL
REMARK 923 INTER-LIGAND FREE ENERGY PREDICTED BY IDOCK:   -4.13 KCAL/MOL
REMARK 924 INTRA-LIGAND FREE ENERGY PREDICTED BY IDOCK:   -0.66 KCAL/MOL
REMARK 927      BINDING AFFINITY PREDICTED BY RF-SCORE:    0.00 PKD
ROOT
HETATM    1  C   UNL     1      -8.880   3.758  65.809  1.00  0.00    -0.124 C  
HETATM    2  N   UNL     1      -8.999   4.315  67.215  1.00  0.00    -0.117 N  
HETATM    3  C   UNL     1      -9.918   5.553  67.420  1.00  0.00    -0.162 C  
HETATM    4  C   UNL     1      -9.526   3.135  68.075  1.00  0.00    -0.160 C  
HETATM    5  C   UNL     1      -9.539   6.650  66.398  1.00  0.00    -0.147 C  
HETATM    6  C   UNL     1      -8.083   7.130  66.547  1.00  0.00    -0.114 C  
HETATM    7  C   UNL     1      -7.103   5.978  66.864  1.00  0.00    -0.070 C  
HETATM    8  O   UNL     1      -8.613   6.879  69.202  1.00  0.00    -0.128 OA 
HETATM    9  C   UNL     1      -7.703   4.913  67.832  1.00  0.00    -0.083 C  
HETATM   10  C   UNL     1      -9.642   5.957  68.871  1.00  0.00    -0.132 C  
HETATM   11  C   UNL     1      -8.199   5.524  69.144  1.00  0.00    -0.095 C  
ENDROOT
BRANCH   6  12
HETATM   12  O   UNL     1      -7.640   8.093  65.560  1.00  0.00    -0.081 OA 
BRANCH  12  13
HETATM   13  C   UNL     1      -8.055   8.058  64.277  1.00  0.00    -0.117 C  
HETATM   14  C   UNL     1      -9.491  10.259  64.593  1.00  0.00    -0.351 A  
HETATM   15  C   UNL     1      -8.543   9.406  63.744  1.00  0.00    -0.224 C  
HETATM   16  C   UNL     1      -7.362  10.234  63.226  1.00  0.00    -0.110 C  
HETATM   17  C   UNL     1     -10.590  10.869  63.956  1.00  0.00    -0.310 A  
HETATM   18  O   UNL     1      -6.606  10.838  64.273  1.00  0.00    -0.356 OA 
HETATM   19  O   UNL     1      -7.995   7.041  63.597  1.00  0.00    -0.127 OA 
HETATM   20  C   UNL     1     -11.377  11.821  64.612  1.00  0.00    -0.320 A  
HETATM   21  H   UNL     1      -5.873  11.351  63.953  1.00  0.00     0.000 HD 
HETATM   22  C   UNL     1     -11.087  12.177  65.925  1.00  0.00    -0.360 A  
HETATM   23  C   UNL     1     -10.028  11.562  66.586  1.00  0.00    -0.236 A  
HETATM   24  C   UNL     1      -9.235  10.612  65.928  1.00  0.00    -0.209 A  
ENDBRANCH  12  13
ENDBRANCH   6  12
TORSDOF 2
ENDMDL
MODEL      158
REMARK 921   NORMALIZED FREE ENERGY PREDICTED BY IDOCK:   -3.83 KCAL/MOL
REMARK 922        TOTAL FREE ENERGY PREDICTED BY IDOCK:   -4.79 KCAL/MOL
REMARK 923 INTER-LIGAND FREE ENERGY PREDICTED BY IDOCK:   -4.05 KCAL/MOL
REMARK 924 INTRA-LIGAND FREE ENERGY PREDICTED BY IDOCK:   -0.73 KCAL/MOL
REMARK 927      BINDING AFFINITY PREDICTED BY RF-SCORE:    0.00 PKD
ROOT
HETATM    1  C   UNL     1     -10.232   3.934  64.729  1.00  0.00    -0.188 C  
HETATM    2  N   UNL     1      -9.073   3.263  65.441  1.00  0.00    -0.144 N  
HETATM    3  C   UNL     1      -9.226   2.996  66.966  1.00  0.00    -0.163 C  
HETATM    4  C   UNL     1      -8.869   1.914  64.701  1.00  0.00    -0.109 C  
HETATM    5  C   UNL     1      -9.659   4.300  67.675  1.00  0.00    -0.215 C  
HETATM    6  C   UNL     1      -8.636   5.440  67.510  1.00  0.00    -0.108 C  
HETATM    7  C   UNL     1      -8.012   5.484  66.097  1.00  0.00    -0.105 C  
HETATM    8  O   UNL     1      -6.832   3.428  67.812  1.00  0.00    -0.048 OA 
HETATM    9  C   UNL     1      -7.743   4.066  65.503  1.00  0.00    -0.086 C  
HETATM   10  C   UNL     1      -7.833   2.517  67.379  1.00  0.00    -0.069 C  
HETATM   11  C   UNL     1      -6.865   3.205  66.412  1.00  0.00    -0.053 C  
ENDROOT
BRANCH   6  12
HETATM   12  O   UNL     1      -9.026   6.715  68.075  1.00  0.00    -0.119 OA 
BRANCH  12  13
HETATM   13  C   UNL     1     -10.294   7.173  68.023  1.00  0.00    -0.194 C  
HETATM   14  C   UNL     1     -10.691   6.613  70.579  1.00  0.00    -0.293 A  
HETATM   15  C   UNL     1     -10.873   7.556  69.386  1.00  0.00    -0.161 C  
HETATM   16  C   UNL     1     -10.483   8.993  69.747  1.00  0.00    -0.218 C  
HETATM   17  C   UNL     1     -11.797   6.379  71.421  1.00  0.00    -0.340 A  
HETATM   18  O   UNL     1      -9.138   9.105  70.206  1.00  0.00    -0.180 OA 
HETATM   19  O   UNL     1     -10.897   7.311  66.967  1.00  0.00    -0.357 OA 
HETATM   20  C   UNL     1     -11.659   5.702  72.637  1.00  0.00    -0.307 A  
HETATM   21  H   UNL     1      -8.895   9.996  70.429  1.00  0.00     0.000 HD 
HETATM   22  C   UNL     1     -10.411   5.234  73.034  1.00  0.00    -0.250 A  
HETATM   23  C   UNL     1      -9.310   5.421  72.203  1.00  0.00    -0.161 A  
HETATM   24  C   UNL     1      -9.447   6.105  70.987  1.00  0.00    -0.187 A  
ENDBRANCH  12  13
ENDBRANCH   6  12
TORSDOF 2
ENDMDL
MODEL      159
REMARK 921   NORMALIZED FREE ENERGY PREDICTED BY IDOCK:   -3.79 KCAL/MOL
REMARK 922        TOTAL FREE ENERGY PREDICTED BY IDOCK:   -4.74 KCAL/MOL
REMARK 923 INTER-LIGAND FREE ENERGY PREDICTED BY IDOCK:   -4.64 KCAL/MOL
REMARK 924 INTRA-LIGAND FREE ENERGY PREDICTED BY IDOCK:   -0.10 KCAL/MOL
REMARK 927      BINDING AFFINITY PREDICTED BY RF-SCORE:    0.00 PKD
ROOT
HETATM    1  C   UNL     1     -11.347  12.046  63.933  1.00  0.00    -0.425 C  
HETATM    2  N   UNL     1     -11.433  13.218  64.892  1.00  0.00    -0.309 N  
HETATM    3  C   UNL     1     -10.099  13.769  65.471  1.00  0.00    -0.284 C  
HETATM    4  C   UNL     1     -12.152  14.340  64.098  1.00  0.00    -0.393 C  
HETATM    5  C   UNL     1      -9.273  12.602  66.061  1.00  0.00     0.011 C  
HETATM    6  C   UNL     1     -10.001  11.871  67.205  1.00  0.00    -0.186 C  
HETATM    7  C   UNL     1     -11.515  11.709  66.943  1.00  0.00    -0.320 C  
HETATM    8  O   UNL     1     -10.790  14.386  67.874  1.00  0.00    -0.245 OA 
HETATM    9  C   UNL     1     -12.152  12.951  66.245  1.00  0.00    -0.365 C  
HETATM   10  C   UNL     1     -10.564  14.775  66.527  1.00  0.00    -0.299 C  
HETATM   11  C   UNL     1     -11.914  14.247  67.021  1.00  0.00    -0.433 C  
ENDROOT
BRANCH   6  12
HETATM   12  O   UNL     1      -9.317  10.712  67.739  1.00  0.00    -0.145 OA 
BRANCH  12  13
HETATM   13  C   UNL     1      -9.708   9.450  67.465  1.00  0.00    -0.157 C  
HETATM   14  C   UNL     1      -7.620   9.055  65.887  1.00  0.00    -0.094 A  
HETATM   15  C   UNL     1      -8.582   8.544  66.964  1.00  0.00    -0.124 C  
HETATM   16  C   UNL     1      -7.820   7.937  68.147  1.00  0.00    -0.127 C  
HETATM   17  C   UNL     1      -7.280   8.187  64.830  1.00  0.00    -0.082 A  
HETATM   18  O   UNL     1      -6.913   8.854  68.754  1.00  0.00    -0.061 OA 
HETATM   19  O   UNL     1     -10.855   9.065  67.652  1.00  0.00    -0.219 OA 
HETATM   20  C   UNL     1      -6.259   8.501  63.927  1.00  0.00    -0.072 A  
HETATM   21  H   UNL     1      -6.441   8.478  69.487  1.00  0.00     0.000 HD 
HETATM   22  C   UNL     1      -5.561   9.697  64.056  1.00  0.00    -0.080 A  
HETATM   23  C   UNL     1      -5.903  10.587  65.071  1.00  0.00    -0.115 A  
HETATM   24  C   UNL     1      -6.922  10.270  65.979  1.00  0.00    -0.120 A  
ENDBRANCH  12  13
ENDBRANCH   6  12
TORSDOF 2
ENDMDL
MODEL      160
REMARK 921   NORMALIZED FREE ENERGY PREDICTED BY IDOCK:   -3.78 KCAL/MOL
REMARK 922        TOTAL FREE ENERGY PREDICTED BY IDOCK:   -4.73 KCAL/MOL
REMARK 923 INTER-LIGAND FREE ENERGY PREDICTED BY IDOCK:   -4.58 KCAL/MOL
REMARK 924 INTRA-LIGAND FREE ENERGY PREDICTED BY IDOCK:   -0.15 KCAL/MOL
REMARK 927      BINDING AFFINITY PREDICTED BY RF-SCORE:    0.00 PKD
ROOT
HETATM    1  C   UNL     1     -10.285  17.458  70.307  1.00  0.00     1.085 C  
HETATM    2  N   UNL     1     -11.173  16.242  70.486  1.00  0.00    -0.368 N  
HETATM    3  C   UNL     1     -10.505  14.842  70.366  1.00  0.00     0.123 C  
HETATM    4  C   UNL     1     -11.793  16.396  71.900  1.00  0.00    -0.361 C  
HETATM    5  C   UNL     1      -9.691  14.772  69.053  1.00  0.00    -0.190 C  
HETATM    6  C   UNL     1     -10.561  14.973  67.797  1.00  0.00    -0.264 C  
HETATM    7  C   UNL     1     -11.649  16.053  67.991  1.00  0.00    -0.119 C  
HETATM    8  O   UNL     1     -12.353  13.482  69.196  1.00  0.00    -0.251 OA 
HETATM    9  C   UNL     1     -12.283  16.035  69.416  1.00  0.00     0.036 C  
HETATM   10  C   UNL     1     -11.696  13.882  70.391  1.00  0.00    -0.199 C  
HETATM   11  C   UNL     1     -12.862  14.668  69.784  1.00  0.00     0.131 C  
ENDROOT
BRANCH   6  12
HETATM   12  O   UNL     1      -9.842  15.008  66.540  1.00  0.00    -0.239 OA 
BRANCH  12  13
HETATM   13  C   UNL     1     -10.421  15.399  65.386  1.00  0.00    -0.402 C  
HETATM   14  C   UNL     1     -10.480  12.915  64.475  1.00  0.00    -0.400 A  
HETATM   15  C   UNL     1     -11.156  14.279  64.647  1.00  0.00    -0.371 C  
HETATM   16  C   UNL     1     -12.582  14.130  65.187  1.00  0.00    -0.408 C  
HETATM   17  C   UNL     1     -10.565  12.282  63.218  1.00  0.00    -0.312 A  
HETATM   18  O   UNL     1     -12.635  13.442  66.435  1.00  0.00    -0.294 OA 
HETATM   19  O   UNL     1     -10.395  16.561  65.001  1.00  0.00    -0.622 OA 
HETATM   20  C   UNL     1     -10.157  10.956  63.040  1.00  0.00    -0.251 A  
HETATM   21  H   UNL     1     -13.519  13.350  66.770  1.00  0.00     0.000 HD 
HETATM   22  C   UNL     1      -9.646  10.236  64.114  1.00  0.00    -0.376 A  
HETATM   23  C   UNL     1      -9.520  10.851  65.357  1.00  0.00    -0.254 A  
HETATM   24  C   UNL     1      -9.934  12.177  65.537  1.00  0.00    -0.269 A  
ENDBRANCH  12  13
ENDBRANCH   6  12
TORSDOF 2
ENDMDL
MODEL      161
REMARK 921   NORMALIZED FREE ENERGY PREDICTED BY IDOCK:   -3.77 KCAL/MOL
REMARK 922        TOTAL FREE ENERGY PREDICTED BY IDOCK:   -4.72 KCAL/MOL
REMARK 923 INTER-LIGAND FREE ENERGY PREDICTED BY IDOCK:   -4.05 KCAL/MOL
REMARK 924 INTRA-LIGAND FREE ENERGY PREDICTED BY IDOCK:   -0.67 KCAL/MOL
REMARK 927      BINDING AFFINITY PREDICTED BY RF-SCORE:    0.00 PKD
ROOT
HETATM    1  C   UNL     1     -11.480  16.747  71.856  1.00  0.00     0.299 C  
HETATM    2  N   UNL     1     -12.403  15.663  72.378  1.00  0.00    -0.383 N  
HETATM    3  C   UNL     1     -11.958  14.186  72.180  1.00  0.00     0.331 C  
HETATM    4  C   UNL     1     -12.555  15.956  73.895  1.00  0.00    -0.623 C  
HETATM    5  C   UNL     1     -11.582  13.956  70.698  1.00  0.00    -0.073 C  
HETATM    6  C   UNL     1     -12.758  14.213  69.735  1.00  0.00     0.050 C  
HETATM    7  C   UNL     1     -13.615  15.431  70.150  1.00  0.00     0.593 C  
HETATM    8  O   UNL     1     -14.207  13.024  71.705  1.00  0.00     0.177 OA 
HETATM    9  C   UNL     1     -13.795  15.554  71.695  1.00  0.00    -0.456 C  
HETATM   10  C   UNL     1     -13.186  13.387  72.623  1.00  0.00    -0.329 C  
HETATM   11  C   UNL     1     -14.386  14.289  72.320  1.00  0.00    -0.439 C  
ENDROOT
BRANCH   6  12
HETATM   12  O   UNL     1     -12.445  14.102  68.326  1.00  0.00    -0.113 OA 
BRANCH  12  13
HETATM   13  C   UNL     1     -11.379  14.714  67.770  1.00  0.00    -0.322 C  
HETATM   14  C   UNL     1     -10.240  12.395  67.196  1.00  0.00    -0.226 A  
HETATM   15  C   UNL     1     -10.591  13.832  66.800  1.00  0.00    -0.273 C  
HETATM   16  C   UNL     1     -11.216  13.887  65.401  1.00  0.00    -0.306 C  
HETATM   17  C   UNL     1      -8.938  11.928  66.927  1.00  0.00    -0.196 A  
HETATM   18  O   UNL     1     -12.393  13.090  65.287  1.00  0.00    -0.438 OA 
HETATM   19  O   UNL     1     -11.108  15.887  67.993  1.00  0.00    -0.328 OA 
HETATM   20  C   UNL     1      -8.603  10.578  67.069  1.00  0.00    -0.127 A  
HETATM   21  H   UNL     1     -12.781  13.124  64.421  1.00  0.00     0.000 HD 
HETATM   22  C   UNL     1      -9.563   9.665  67.492  1.00  0.00    -0.180 A  
HETATM   23  C   UNL     1     -10.846  10.108  67.798  1.00  0.00    -0.346 A  
HETATM   24  C   UNL     1     -11.184  11.460  67.651  1.00  0.00    -0.346 A  
ENDBRANCH  12  13
ENDBRANCH   6  12
TORSDOF 2
ENDMDL
MODEL      162
REMARK 921   NORMALIZED FREE ENERGY PREDICTED BY IDOCK:   -3.75 KCAL/MOL
REMARK 922        TOTAL FREE ENERGY PREDICTED BY IDOCK:   -4.71 KCAL/MOL
REMARK 923 INTER-LIGAND FREE ENERGY PREDICTED BY IDOCK:   -4.09 KCAL/MOL
REMARK 924 INTRA-LIGAND FREE ENERGY PREDICTED BY IDOCK:   -0.61 KCAL/MOL
REMARK 927      BINDING AFFINITY PREDICTED BY RF-SCORE:    0.00 PKD
ROOT
HETATM    1  C   UNL     1      -7.162   5.601  66.518  1.00  0.00    -0.077 C  
HETATM    2  N   UNL     1      -6.604   6.592  65.515  1.00  0.00    -0.049 N  
HETATM    3  C   UNL     1      -6.169   7.986  66.051  1.00  0.00    -0.045 C  
HETATM    4  C   UNL     1      -5.381   5.880  64.878  1.00  0.00    -0.016 C  
HETATM    5  C   UNL     1      -7.318   8.598  66.886  1.00  0.00    -0.079 C  
HETATM    6  C   UNL     1      -8.608   8.804  66.070  1.00  0.00    -0.148 C  
HETATM    7  C   UNL     1      -8.883   7.646  65.084  1.00  0.00     0.171 C  
HETATM    8  O   UNL     1      -6.867   9.530  64.111  1.00  0.00    -0.093 OA 
HETATM    9  C   UNL     1      -7.587   7.089  64.417  1.00  0.00    -0.108 C  
HETATM   10  C   UNL     1      -5.865   8.773  64.774  1.00  0.00    -0.063 C  
HETATM   11  C   UNL     1      -6.781   8.176  63.703  1.00  0.00    -0.075 C  
ENDROOT
BRANCH   6  12
HETATM   12  O   UNL     1      -9.749   9.290  66.818  1.00  0.00    -0.170 OA 
BRANCH  12  13
HETATM   13  C   UNL     1     -10.304  10.498  66.590  1.00  0.00    -0.237 C  
HETATM   14  C   UNL     1     -11.252  10.623  69.058  1.00  0.00    -0.324 A  
HETATM   15  C   UNL     1     -10.583  11.304  67.859  1.00  0.00    -0.231 C  
HETATM   16  C   UNL     1      -9.331  12.079  68.286  1.00  0.00    -0.197 C  
HETATM   17  C   UNL     1     -12.279  11.315  69.730  1.00  0.00    -0.343 A  
HETATM   18  O   UNL     1      -8.363  11.256  68.932  1.00  0.00    -0.254 OA 
HETATM   19  O   UNL     1     -10.513  10.919  65.459  1.00  0.00    -0.261 OA 
HETATM   20  C   UNL     1     -12.793  10.855  70.947  1.00  0.00    -0.418 A  
HETATM   21  H   UNL     1      -7.586  11.736  69.196  1.00  0.00     0.000 HD 
HETATM   22  C   UNL     1     -12.296   9.687  71.514  1.00  0.00    -0.477 A  
HETATM   23  C   UNL     1     -11.306   8.967  70.851  1.00  0.00    -0.351 A  
HETATM   24  C   UNL     1     -10.787   9.430  69.635  1.00  0.00    -0.245 A  
ENDBRANCH  12  13
ENDBRANCH   6  12
TORSDOF 2
ENDMDL
MODEL      163
REMARK 921   NORMALIZED FREE ENERGY PREDICTED BY IDOCK:   -3.75 KCAL/MOL
REMARK 922        TOTAL FREE ENERGY PREDICTED BY IDOCK:   -4.70 KCAL/MOL
REMARK 923 INTER-LIGAND FREE ENERGY PREDICTED BY IDOCK:   -3.91 KCAL/MOL
REMARK 924 INTRA-LIGAND FREE ENERGY PREDICTED BY IDOCK:   -0.79 KCAL/MOL
REMARK 927      BINDING AFFINITY PREDICTED BY RF-SCORE:    0.00 PKD
ROOT
HETATM    1  C   UNL     1      -8.459  10.152  64.250  1.00  0.00    -0.176 C  
HETATM    2  N   UNL     1      -7.137   9.410  64.252  1.00  0.00    -0.098 N  
HETATM    3  C   UNL     1      -7.176   7.875  64.005  1.00  0.00    -0.084 C  
HETATM    4  C   UNL     1      -6.290  10.088  63.142  1.00  0.00    -0.133 C  
HETATM    5  C   UNL     1      -8.201   7.226  64.964  1.00  0.00    -0.100 C  
HETATM    6  C   UNL     1      -7.852   7.442  66.450  1.00  0.00    -0.102 C  
HETATM    7  C   UNL     1      -7.296   8.856  66.733  1.00  0.00    -0.082 C  
HETATM    8  O   UNL     1      -5.308   7.048  65.574  1.00  0.00    -0.026 OA 
HETATM    9  C   UNL     1      -6.362   9.384  65.600  1.00  0.00    -0.068 C  
HETATM   10  C   UNL     1      -5.734   7.439  64.277  1.00  0.00    -0.033 C  
HETATM   11  C   UNL     1      -5.198   8.436  65.308  1.00  0.00    -0.035 C  
ENDROOT
BRANCH   6  12
HETATM   12  O   UNL     1      -8.823   6.936  67.398  1.00  0.00    -0.119 OA 
BRANCH  12  13
HETATM   13  C   UNL     1      -8.600   6.929  68.729  1.00  0.00    -0.124 C  
HETATM   14  C   UNL     1     -10.164   9.034  69.086  1.00  0.00    -0.213 A  
HETATM   15  C   UNL     1      -9.671   7.657  69.542  1.00  0.00    -0.168 C  
HETATM   16  C   UNL     1     -10.844   6.717  69.843  1.00  0.00    -0.266 C  
HETATM   17  C   UNL     1     -10.326  10.041  70.060  1.00  0.00    -0.323 A  
HETATM   18  O   UNL     1     -11.710   6.536  68.725  1.00  0.00    -0.533 OA 
HETATM   19  O   UNL     1      -7.647   6.346  69.230  1.00  0.00    -0.095 OA 
HETATM   20  C   UNL     1     -10.962  11.250  69.760  1.00  0.00    -0.170 A  
HETATM   21  H   UNL     1     -12.437   5.953  68.911  1.00  0.00     0.000 HD 
HETATM   22  C   UNL     1     -11.442  11.483  68.476  1.00  0.00    -0.354 A  
HETATM   23  C   UNL     1     -11.262  10.518  67.488  1.00  0.00    -0.299 A  
HETATM   24  C   UNL     1     -10.630   9.304  67.790  1.00  0.00    -0.307 A  
ENDBRANCH  12  13
ENDBRANCH   6  12
TORSDOF 2
ENDMDL
MODEL      164
REMARK 921   NORMALIZED FREE ENERGY PREDICTED BY IDOCK:   -3.73 KCAL/MOL
REMARK 922        TOTAL FREE ENERGY PREDICTED BY IDOCK:   -4.68 KCAL/MOL
REMARK 923 INTER-LIGAND FREE ENERGY PREDICTED BY IDOCK:   -4.36 KCAL/MOL
REMARK 924 INTRA-LIGAND FREE ENERGY PREDICTED BY IDOCK:   -0.32 KCAL/MOL
REMARK 927      BINDING AFFINITY PREDICTED BY RF-SCORE:    0.00 PKD
ROOT
HETATM    1  C   UNL     1      -6.898   8.741  65.046  1.00  0.00    -0.072 C  
HETATM    2  N   UNL     1      -8.013   9.768  65.041  1.00  0.00    -0.124 N  
HETATM    3  C   UNL     1      -8.055  10.787  66.215  1.00  0.00    -0.159 C  
HETATM    4  C   UNL     1      -7.852  10.534  63.700  1.00  0.00     0.003 C  
HETATM    5  C   UNL     1      -7.981  10.026  67.559  1.00  0.00    -0.106 C  
HETATM    6  C   UNL     1      -9.155   9.048  67.759  1.00  0.00    -0.134 C  
HETATM    7  C   UNL     1      -9.547   8.311  66.459  1.00  0.00    -0.312 C  
HETATM    8  O   UNL     1     -10.590  11.042  66.593  1.00  0.00    -0.247 OA 
HETATM    9  C   UNL     1      -9.459   9.217  65.192  1.00  0.00    -0.114 C  
HETATM   10  C   UNL     1      -9.386  11.512  66.003  1.00  0.00    -0.223 C  
HETATM   11  C   UNL     1     -10.299  10.489  65.320  1.00  0.00    -0.229 C  
ENDROOT
BRANCH   6  12
HETATM   12  O   UNL     1      -9.095   8.239  68.959  1.00  0.00    -0.147 OA 
BRANCH  12  13
HETATM   13  C   UNL     1      -8.753   6.934  68.936  1.00  0.00    -0.130 C  
HETATM   14  C   UNL     1      -9.859   6.516  71.304  1.00  0.00    -0.197 A  
HETATM   15  C   UNL     1      -9.589   6.056  69.868  1.00  0.00    -0.188 C  
HETATM   16  C   UNL     1     -10.883   5.619  69.171  1.00  0.00    -0.211 C  
HETATM   17  C   UNL     1      -9.739   5.569  72.341  1.00  0.00    -0.177 A  
HETATM   18  O   UNL     1     -11.869   6.647  69.135  1.00  0.00    -0.592 OA 
HETATM   19  O   UNL     1      -7.883   6.498  68.193  1.00  0.00    -0.103 OA 
HETATM   20  C   UNL     1     -10.165   5.855  73.643  1.00  0.00    -0.233 A  
HETATM   21  H   UNL     1     -12.671   6.377  68.703  1.00  0.00     0.000 HD 
HETATM   22  C   UNL     1     -10.712   7.100  73.937  1.00  0.00    -0.025 A  
HETATM   23  C   UNL     1     -10.807   8.063  72.937  1.00  0.00    -0.399 A  
HETATM   24  C   UNL     1     -10.386   7.775  71.632  1.00  0.00    -0.236 A  
ENDBRANCH  12  13
ENDBRANCH   6  12
TORSDOF 2
ENDMDL
MODEL      165
REMARK 921   NORMALIZED FREE ENERGY PREDICTED BY IDOCK:   -3.73 KCAL/MOL
REMARK 922        TOTAL FREE ENERGY PREDICTED BY IDOCK:   -4.68 KCAL/MOL
REMARK 923 INTER-LIGAND FREE ENERGY PREDICTED BY IDOCK:   -3.83 KCAL/MOL
REMARK 924 INTRA-LIGAND FREE ENERGY PREDICTED BY IDOCK:   -0.85 KCAL/MOL
REMARK 927      BINDING AFFINITY PREDICTED BY RF-SCORE:    0.00 PKD
ROOT
HETATM    1  C   UNL     1      -8.999  11.660  68.538  1.00  0.00    -0.138 C  
HETATM    2  N   UNL     1     -10.339  12.071  67.958  1.00  0.00    -0.190 N  
HETATM    3  C   UNL     1     -10.351  12.619  66.503  1.00  0.00    -0.242 C  
HETATM    4  C   UNL     1     -11.222  10.797  68.036  1.00  0.00    -0.307 C  
HETATM    5  C   UNL     1      -9.297  13.743  66.367  1.00  0.00    -0.215 C  
HETATM    6  C   UNL     1      -9.566  14.933  67.308  1.00  0.00    -0.215 C  
HETATM    7  C   UNL     1     -10.071  14.492  68.701  1.00  0.00    -0.244 C  
HETATM    8  O   UNL     1     -12.160  14.447  66.652  1.00  0.00    -0.419 OA 
HETATM    9  C   UNL     1     -11.046  13.275  68.641  1.00  0.00    -0.268 C  
HETATM   10  C   UNL     1     -11.789  13.115  66.328  1.00  0.00    -0.401 C  
HETATM   11  C   UNL     1     -12.247  13.529  67.729  1.00  0.00    -0.157 C  
ENDROOT
BRANCH   6  12
HETATM   12  O   UNL     1      -8.564  15.978  67.293  1.00  0.00    -0.171 OA 
BRANCH  12  13
HETATM   13  C   UNL     1      -8.563  16.993  68.182  1.00  0.00    -0.228 C  
HETATM   14  C   UNL     1      -6.667  15.840  69.625  1.00  0.00    -0.176 A  
HETATM   15  C   UNL     1      -7.276  17.100  69.002  1.00  0.00    -0.229 C  
HETATM   16  C   UNL     1      -6.222  17.910  68.239  1.00  0.00    -0.178 C  
HETATM   17  C   UNL     1      -6.199  15.911  70.953  1.00  0.00     0.646 A  
HETATM   18  O   UNL     1      -5.588  17.160  67.205  1.00  0.00    -0.119 OA 
HETATM   19  O   UNL     1      -9.495  17.781  68.277  1.00  0.00    -0.271 OA 
HETATM   20  C   UNL     1      -5.450  14.874  71.519  1.00  0.00    -0.018 A  
HETATM   21  H   UNL     1      -4.935  17.661  66.731  1.00  0.00     0.000 HD 
HETATM   22  C   UNL     1      -5.159  13.738  70.771  1.00  0.00    -0.110 A  
HETATM   23  C   UNL     1      -5.641  13.630  69.469  1.00  0.00    -0.091 A  
HETATM   24  C   UNL     1      -6.387  14.671  68.900  1.00  0.00    -0.088 A  
ENDBRANCH  12  13
ENDBRANCH   6  12
TORSDOF 2
ENDMDL
MODEL      166
REMARK 921   NORMALIZED FREE ENERGY PREDICTED BY IDOCK:   -3.72 KCAL/MOL
REMARK 922        TOTAL FREE ENERGY PREDICTED BY IDOCK:   -4.67 KCAL/MOL
REMARK 923 INTER-LIGAND FREE ENERGY PREDICTED BY IDOCK:   -4.62 KCAL/MOL
REMARK 924 INTRA-LIGAND FREE ENERGY PREDICTED BY IDOCK:   -0.05 KCAL/MOL
REMARK 927      BINDING AFFINITY PREDICTED BY RF-SCORE:    0.00 PKD
ROOT
HETATM    1  C   UNL     1     -12.466   9.990  70.719  1.00  0.00    -0.295 C  
HETATM    2  N   UNL     1     -12.272   8.763  71.588  1.00  0.00    -0.319 N  
HETATM    3  C   UNL     1     -10.934   8.644  72.372  1.00  0.00    -0.253 C  
HETATM    4  C   UNL     1     -13.456   8.787  72.592  1.00  0.00    -0.294 C  
HETATM    5  C   UNL     1      -9.749   8.853  71.400  1.00  0.00    -0.370 C  
HETATM    6  C   UNL     1      -9.711   7.809  70.268  1.00  0.00    -0.179 C  
HETATM    7  C   UNL     1     -11.118   7.460  69.729  1.00  0.00    -0.169 C  
HETATM    8  O   UNL     1     -10.482   6.111  72.247  1.00  0.00    -0.190 OA 
HETATM    9  C   UNL     1     -12.203   7.397  70.848  1.00  0.00    -0.231 C  
HETATM   10  C   UNL     1     -10.995   7.230  72.956  1.00  0.00    -0.344 C  
HETATM   11  C   UNL     1     -11.837   6.420  71.966  1.00  0.00    -0.333 C  
ENDROOT
BRANCH   6  12
HETATM   12  O   UNL     1      -8.677   8.005  69.273  1.00  0.00    -0.135 OA 
BRANCH  12  13
HETATM   13  C   UNL     1      -8.508   9.176  68.625  1.00  0.00    -0.127 C  
HETATM   14  C   UNL     1      -7.594   7.947  66.467  1.00  0.00    -0.092 A  
HETATM   15  C   UNL     1      -8.456   9.042  67.102  1.00  0.00    -0.113 C  
HETATM   16  C   UNL     1      -9.872   9.046  66.517  1.00  0.00    -0.268 C  
HETATM   17  C   UNL     1      -6.805   8.283  65.349  1.00  0.00    -0.062 A  
HETATM   18  O   UNL     1     -10.543   7.798  66.678  1.00  0.00    -0.467 OA 
HETATM   19  O   UNL     1      -8.453  10.248  69.214  1.00  0.00    -0.147 OA 
HETATM   20  C   UNL     1      -6.156   7.303  64.592  1.00  0.00    -0.037 A  
HETATM   21  H   UNL     1     -11.421   7.801  66.316  1.00  0.00     0.000 HD 
HETATM   22  C   UNL     1      -6.274   5.962  64.943  1.00  0.00    -0.030 A  
HETATM   23  C   UNL     1      -7.020   5.608  66.064  1.00  0.00    -0.063 A  
HETATM   24  C   UNL     1      -7.675   6.590  66.819  1.00  0.00    -0.099 A  
ENDBRANCH  12  13
ENDBRANCH   6  12
TORSDOF 2
ENDMDL
MODEL      167
REMARK 921   NORMALIZED FREE ENERGY PREDICTED BY IDOCK:   -3.72 KCAL/MOL
REMARK 922        TOTAL FREE ENERGY PREDICTED BY IDOCK:   -4.67 KCAL/MOL
REMARK 923 INTER-LIGAND FREE ENERGY PREDICTED BY IDOCK:   -4.65 KCAL/MOL
REMARK 924 INTRA-LIGAND FREE ENERGY PREDICTED BY IDOCK:   -0.02 KCAL/MOL
REMARK 927      BINDING AFFINITY PREDICTED BY RF-SCORE:    0.00 PKD
ROOT
HETATM    1  C   UNL     1     -11.106   5.934  71.320  1.00  0.00    -0.241 C  
HETATM    2  N   UNL     1     -10.111   6.440  72.346  1.00  0.00    -0.176 N  
HETATM    3  C   UNL     1     -10.285   7.901  72.852  1.00  0.00    -0.330 C  
HETATM    4  C   UNL     1     -10.232   5.462  73.546  1.00  0.00    -0.205 C  
HETATM    5  C   UNL     1     -10.397   8.855  71.640  1.00  0.00    -0.416 C  
HETATM    6  C   UNL     1      -9.148   8.828  70.739  1.00  0.00    -0.192 C  
HETATM    7  C   UNL     1      -8.564   7.407  70.569  1.00  0.00    -0.139 C  
HETATM    8  O   UNL     1      -7.836   8.655  73.114  1.00  0.00    -0.385 OA 
HETATM    9  C   UNL     1      -8.634   6.557  71.876  1.00  0.00    -0.129 C  
HETATM   10  C   UNL     1      -9.025   8.133  73.690  1.00  0.00    -0.205 C  
HETATM   11  C   UNL     1      -7.950   7.243  73.060  1.00  0.00    -0.098 C  
ENDROOT
BRANCH   6  12
HETATM   12  O   UNL     1      -9.229   9.633  69.537  1.00  0.00    -0.175 OA 
BRANCH  12  13
HETATM   13  C   UNL     1     -10.396   9.877  68.906  1.00  0.00    -0.205 C  
HETATM   14  C   UNL     1      -9.299   9.454  66.535  1.00  0.00    -0.222 A  
HETATM   15  C   UNL     1     -10.477   9.284  67.498  1.00  0.00    -0.338 C  
HETATM   16  C   UNL     1     -10.940   7.824  67.560  1.00  0.00     0.030 C  
HETATM   17  C   UNL     1      -9.576   9.803  65.197  1.00  0.00    -0.356 A  
HETATM   18  O   UNL     1      -9.903   6.930  67.957  1.00  0.00    -0.135 OA 
HETATM   19  O   UNL     1     -11.317  10.478  69.443  1.00  0.00    -0.239 OA 
HETATM   20  C   UNL     1      -8.580   9.775  64.215  1.00  0.00    -0.202 A  
HETATM   21  H   UNL     1     -10.190   6.025  67.996  1.00  0.00     0.000 HD 
HETATM   22  C   UNL     1      -7.282   9.407  64.552  1.00  0.00    -0.105 A  
HETATM   23  C   UNL     1      -6.977   9.093  65.873  1.00  0.00    -0.088 A  
HETATM   24  C   UNL     1      -7.975   9.115  66.856  1.00  0.00    -0.105 A  
ENDBRANCH  12  13
ENDBRANCH   6  12
TORSDOF 2
ENDMDL
MODEL      168
REMARK 921   NORMALIZED FREE ENERGY PREDICTED BY IDOCK:   -3.72 KCAL/MOL
REMARK 922        TOTAL FREE ENERGY PREDICTED BY IDOCK:   -4.66 KCAL/MOL
REMARK 923 INTER-LIGAND FREE ENERGY PREDICTED BY IDOCK:   -4.61 KCAL/MOL
REMARK 924 INTRA-LIGAND FREE ENERGY PREDICTED BY IDOCK:   -0.05 KCAL/MOL
REMARK 927      BINDING AFFINITY PREDICTED BY RF-SCORE:    0.00 PKD
ROOT
HETATM    1  C   UNL     1     -11.607   9.752  69.863  1.00  0.00    -0.079 C  
HETATM    2  N   UNL     1     -11.642   8.903  71.120  1.00  0.00    -0.286 N  
HETATM    3  C   UNL     1     -10.290   8.630  71.838  1.00  0.00    -0.335 C  
HETATM    4  C   UNL     1     -12.598   9.651  72.088  1.00  0.00    -0.308 C  
HETATM    5  C   UNL     1      -9.261   8.098  70.813  1.00  0.00    -0.165 C  
HETATM    6  C   UNL     1      -9.703   6.779  70.151  1.00  0.00    -0.167 C  
HETATM    7  C   UNL     1     -11.216   6.745  69.836  1.00  0.00    -0.379 C  
HETATM    8  O   UNL     1     -10.612   6.207  72.649  1.00  0.00    -0.200 OA 
HETATM    9  C   UNL     1     -12.085   7.424  70.940  1.00  0.00    -0.257 C  
HETATM   10  C   UNL     1     -10.663   7.602  72.908  1.00  0.00    -0.371 C  
HETATM   11  C   UNL     1     -11.847   6.824  72.327  1.00  0.00    -0.242 C  
ENDROOT
BRANCH   6  12
HETATM   12  O   UNL     1      -8.824   6.276  69.115  1.00  0.00    -0.128 OA 
BRANCH  12  13
HETATM   13  C   UNL     1      -8.019   7.084  68.394  1.00  0.00    -0.123 C  
HETATM   14  C   UNL     1      -8.449   5.684  66.189  1.00  0.00    -0.128 A  
HETATM   15  C   UNL     1      -8.279   7.037  66.887  1.00  0.00    -0.117 C  
HETATM   16  C   UNL     1      -9.407   8.003  66.510  1.00  0.00    -0.205 C  
HETATM   17  C   UNL     1      -7.797   5.483  64.956  1.00  0.00    -0.099 A  
HETATM   18  O   UNL     1     -10.702   7.496  66.824  1.00  0.00    -0.462 OA 
HETATM   19  O   UNL     1      -7.192   7.820  68.917  1.00  0.00    -0.076 OA 
HETATM   20  C   UNL     1      -8.066   4.363  64.162  1.00  0.00    -0.095 A  
HETATM   21  H   UNL     1     -11.401   8.095  66.591  1.00  0.00     0.000 HD 
HETATM   22  C   UNL     1      -8.986   3.412  64.591  1.00  0.00    -0.127 A  
HETATM   23  C   UNL     1      -9.616   3.571  65.822  1.00  0.00    -0.109 A  
HETATM   24  C   UNL     1      -9.352   4.696  66.614  1.00  0.00    -0.153 A  
ENDBRANCH  12  13
ENDBRANCH   6  12
TORSDOF 2
ENDMDL
MODEL      169
REMARK 921   NORMALIZED FREE ENERGY PREDICTED BY IDOCK:   -3.71 KCAL/MOL
REMARK 922        TOTAL FREE ENERGY PREDICTED BY IDOCK:   -4.65 KCAL/MOL
REMARK 923 INTER-LIGAND FREE ENERGY PREDICTED BY IDOCK:   -4.01 KCAL/MOL
REMARK 924 INTRA-LIGAND FREE ENERGY PREDICTED BY IDOCK:   -0.64 KCAL/MOL
REMARK 927      BINDING AFFINITY PREDICTED BY RF-SCORE:    0.00 PKD
ROOT
HETATM    1  C   UNL     1      -5.938   9.251  67.081  1.00  0.00    -0.049 C  
HETATM    2  N   UNL     1      -6.967  10.314  67.416  1.00  0.00    -0.081 N  
HETATM    3  C   UNL     1      -7.337  10.506  68.914  1.00  0.00    -0.098 C  
HETATM    4  C   UNL     1      -6.380  11.638  66.857  1.00  0.00    -0.142 C  
HETATM    5  C   UNL     1      -7.702   9.136  69.533  1.00  0.00    -0.080 C  
HETATM    6  C   UNL     1      -8.909   8.470  68.845  1.00  0.00    -0.139 C  
HETATM    7  C   UNL     1      -8.904   8.663  67.311  1.00  0.00    -0.141 C  
HETATM    8  O   UNL     1      -9.857  11.017  68.765  1.00  0.00    -0.191 OA 
HETATM    9  C   UNL     1      -8.405  10.075  66.875  1.00  0.00    -0.125 C  
HETATM   10  C   UNL     1      -8.518  11.479  68.861  1.00  0.00     0.017 C  
HETATM   11  C   UNL     1      -9.206  11.207  67.520  1.00  0.00    -0.153 C  
ENDROOT
BRANCH   6  12
HETATM   12  O   UNL     1      -9.244   7.143  69.320  1.00  0.00    -0.141 OA 
BRANCH  12  13
HETATM   13  C   UNL     1     -10.518   6.722  69.454  1.00  0.00    -0.217 C  
HETATM   14  C   UNL     1     -10.252   6.482  72.077  1.00  0.00    -0.212 A  
HETATM   15  C   UNL     1     -11.087   6.901  70.863  1.00  0.00    -0.313 C  
HETATM   16  C   UNL     1     -11.650   8.316  71.036  1.00  0.00    -0.275 C  
HETATM   17  C   UNL     1     -10.891   5.774  73.114  1.00  0.00    -0.310 A  
HETATM   18  O   UNL     1     -10.634   9.296  71.242  1.00  0.00    -0.299 OA 
HETATM   19  O   UNL     1     -11.166   6.285  68.512  1.00  0.00    -0.352 OA 
HETATM   20  C   UNL     1     -10.254   5.538  74.337  1.00  0.00    -0.297 A  
HETATM   21  H   UNL     1     -10.983  10.173  71.348  1.00  0.00     0.000 HD 
HETATM   22  C   UNL     1      -8.959   5.998  74.545  1.00  0.00    -0.138 A  
HETATM   23  C   UNL     1      -8.294   6.669  73.523  1.00  0.00    -0.127 A  
HETATM   24  C   UNL     1      -8.933   6.910  72.300  1.00  0.00    -0.142 A  
ENDBRANCH  12  13
ENDBRANCH   6  12
TORSDOF 2
ENDMDL
MODEL      170
REMARK 921   NORMALIZED FREE ENERGY PREDICTED BY IDOCK:   -3.68 KCAL/MOL
REMARK 922        TOTAL FREE ENERGY PREDICTED BY IDOCK:   -4.63 KCAL/MOL
REMARK 923 INTER-LIGAND FREE ENERGY PREDICTED BY IDOCK:   -4.64 KCAL/MOL
REMARK 924 INTRA-LIGAND FREE ENERGY PREDICTED BY IDOCK:    0.02 KCAL/MOL
REMARK 927      BINDING AFFINITY PREDICTED BY RF-SCORE:    0.00 PKD
ROOT
HETATM    1  C   UNL     1      -8.864   5.037  72.353  1.00  0.00    -0.127 C  
HETATM    2  N   UNL     1     -10.161   5.766  72.650  1.00  0.00    -0.177 N  
HETATM    3  C   UNL     1     -11.216   5.843  71.510  1.00  0.00    -0.225 C  
HETATM    4  C   UNL     1     -10.773   5.026  73.869  1.00  0.00    -0.299 C  
HETATM    5  C   UNL     1     -10.543   6.367  70.220  1.00  0.00    -0.290 C  
HETATM    6  C   UNL     1      -9.946   7.778  70.387  1.00  0.00    -0.188 C  
HETATM    7  C   UNL     1      -9.275   7.984  71.764  1.00  0.00    -0.212 C  
HETATM    8  O   UNL     1     -12.191   8.201  71.862  1.00  0.00    -0.299 OA 
HETATM    9  C   UNL     1     -10.046   7.291  72.930  1.00  0.00    -0.227 C  
HETATM   10  C   UNL     1     -12.271   6.798  72.073  1.00  0.00    -0.291 C  
HETATM   11  C   UNL     1     -11.507   7.735  73.013  1.00  0.00    -0.206 C  
ENDROOT
BRANCH   6  12
HETATM   12  O   UNL     1      -9.223   8.288  69.241  1.00  0.00    -0.150 OA 
BRANCH  12  13
HETATM   13  C   UNL     1      -8.441   7.504  68.470  1.00  0.00    -0.129 C  
HETATM   14  C   UNL     1      -8.847   9.038  66.351  1.00  0.00    -0.172 A  
HETATM   15  C   UNL     1      -7.902   8.201  67.219  1.00  0.00    -0.105 C  
HETATM   16  C   UNL     1      -6.619   8.972  67.549  1.00  0.00    -0.065 C  
HETATM   17  C   UNL     1      -8.766   8.899  64.951  1.00  0.00    -0.184 A  
HETATM   18  O   UNL     1      -6.870  10.205  68.218  1.00  0.00    -0.061 OA 
HETATM   19  O   UNL     1      -8.157   6.355  68.782  1.00  0.00    -0.111 OA 
HETATM   20  C   UNL     1      -9.443   9.770  64.091  1.00  0.00    -0.164 A  
HETATM   21  H   UNL     1      -6.074  10.683  68.423  1.00  0.00     0.000 HD 
HETATM   22  C   UNL     1     -10.225  10.794  64.613  1.00  0.00    -0.419 A  
HETATM   23  C   UNL     1     -10.349  10.929  65.993  1.00  0.00    -0.304 A  
HETATM   24  C   UNL     1      -9.667  10.061  66.855  1.00  0.00    -0.237 A  
ENDBRANCH  12  13
ENDBRANCH   6  12
TORSDOF 2
ENDMDL
MODEL      171
REMARK 921   NORMALIZED FREE ENERGY PREDICTED BY IDOCK:   -3.64 KCAL/MOL
REMARK 922        TOTAL FREE ENERGY PREDICTED BY IDOCK:   -4.57 KCAL/MOL
REMARK 923 INTER-LIGAND FREE ENERGY PREDICTED BY IDOCK:   -4.29 KCAL/MOL
REMARK 924 INTRA-LIGAND FREE ENERGY PREDICTED BY IDOCK:   -0.28 KCAL/MOL
REMARK 927      BINDING AFFINITY PREDICTED BY RF-SCORE:    0.00 PKD
ROOT
HETATM    1  C   UNL     1      -7.906   8.687  67.092  1.00  0.00    -0.097 C  
HETATM    2  N   UNL     1      -8.904   9.763  67.473  1.00  0.00    -0.125 N  
HETATM    3  C   UNL     1      -8.805  10.357  68.907  1.00  0.00    -0.161 C  
HETATM    4  C   UNL     1      -8.698  10.896  66.432  1.00  0.00    -0.170 C  
HETATM    5  C   UNL     1      -8.778   9.206  69.940  1.00  0.00    -0.170 C  
HETATM    6  C   UNL     1     -10.044   8.329  69.893  1.00  0.00    -0.195 C  
HETATM    7  C   UNL     1     -10.548   8.082  68.453  1.00  0.00    -0.150 C  
HETATM    8  O   UNL     1     -11.287  10.714  69.495  1.00  0.00    -0.237 OA 
HETATM    9  C   UNL     1     -10.397   9.330  67.530  1.00  0.00    -0.262 C  
HETATM   10  C   UNL     1     -10.056  11.232  69.011  1.00  0.00    -0.128 C  
HETATM   11  C   UNL     1     -11.091  10.569  68.098  1.00  0.00    -0.287 C  
ENDROOT
BRANCH   6  12
HETATM   12  O   UNL     1     -10.039   7.180  70.775  1.00  0.00    -0.190 OA 
BRANCH  12  13
HETATM   13  C   UNL     1     -11.171   6.546  71.145  1.00  0.00    -0.302 C  
HETATM   14  C   UNL     1      -9.825   4.389  71.879  1.00  0.00    -0.247 A  
HETATM   15  C   UNL     1     -10.948   5.399  72.132  1.00  0.00    -0.265 C  
HETATM   16  C   UNL     1     -10.904   5.932  73.568  1.00  0.00    -0.216 C  
HETATM   17  C   UNL     1     -10.101   3.021  72.072  1.00  0.00    -0.180 A  
HETATM   18  O   UNL     1      -9.662   6.552  73.893  1.00  0.00    -0.182 OA 
HETATM   19  O   UNL     1     -12.277   6.901  70.756  1.00  0.00    -0.381 OA 
HETATM   20  C   UNL     1      -9.083   2.062  72.063  1.00  0.00    -0.130 A  
HETATM   21  H   UNL     1      -9.635   6.883  74.783  1.00  0.00     0.000 HD 
HETATM   22  C   UNL     1      -7.765   2.450  71.849  1.00  0.00    -0.045 A  
HETATM   23  C   UNL     1      -7.472   3.792  71.620  1.00  0.00    -0.055 A  
HETATM   24  C   UNL     1      -8.490   4.753  71.636  1.00  0.00    -0.121 A  
ENDBRANCH  12  13
ENDBRANCH   6  12
TORSDOF 2
ENDMDL
MODEL      172
REMARK 921   NORMALIZED FREE ENERGY PREDICTED BY IDOCK:   -3.61 KCAL/MOL
REMARK 922        TOTAL FREE ENERGY PREDICTED BY IDOCK:   -4.54 KCAL/MOL
REMARK 923 INTER-LIGAND FREE ENERGY PREDICTED BY IDOCK:   -4.30 KCAL/MOL
REMARK 924 INTRA-LIGAND FREE ENERGY PREDICTED BY IDOCK:   -0.24 KCAL/MOL
REMARK 927      BINDING AFFINITY PREDICTED BY RF-SCORE:    0.00 PKD
ROOT
HETATM    1  C   UNL     1     -10.545   6.870  67.395  1.00  0.00    -0.303 C  
HETATM    2  N   UNL     1     -10.086   7.118  68.819  1.00  0.00    -0.168 N  
HETATM    3  C   UNL     1     -10.944   8.077  69.692  1.00  0.00    -0.101 C  
HETATM    4  C   UNL     1     -10.047   5.715  69.483  1.00  0.00    -0.225 C  
HETATM    5  C   UNL     1     -11.178   9.400  68.925  1.00  0.00     0.096 C  
HETATM    6  C   UNL     1      -9.867  10.136  68.588  1.00  0.00    -0.162 C  
HETATM    7  C   UNL     1      -8.732   9.175  68.169  1.00  0.00    -0.129 C  
HETATM    8  O   UNL     1      -9.133   9.290  71.066  1.00  0.00    -0.239 OA 
HETATM    9  C   UNL     1      -8.723   7.846  68.988  1.00  0.00    -0.138 C  
HETATM   10  C   UNL     1     -10.098   8.253  70.955  1.00  0.00    -0.191 C  
HETATM   11  C   UNL     1      -8.646   8.086  70.496  1.00  0.00    -0.134 C  
ENDROOT
BRANCH   6  12
HETATM   12  O   UNL     1     -10.013  11.336  67.791  1.00  0.00    -0.172 OA 
BRANCH  12  13
HETATM   13  C   UNL     1      -9.135  11.676  66.824  1.00  0.00    -0.186 C  
HETATM   14  C   UNL     1      -9.207  14.224  67.537  1.00  0.00    -0.197 A  
HETATM   15  C   UNL     1      -8.410  12.998  67.080  1.00  0.00    -0.153 C  
HETATM   16  C   UNL     1      -7.181  12.770  67.967  1.00  0.00    -0.115 C  
HETATM   17  C   UNL     1      -8.921  15.467  66.939  1.00  0.00    -0.272 A  
HETATM   18  O   UNL     1      -7.514  12.602  69.343  1.00  0.00    -0.314 OA 
HETATM   19  O   UNL     1      -8.913  10.956  65.860  1.00  0.00    -0.180 OA 
HETATM   20  C   UNL     1      -9.454  16.659  67.441  1.00  0.00    -0.232 A  
HETATM   21  H   UNL     1      -6.752  12.460  69.894  1.00  0.00     0.000 HD 
HETATM   22  C   UNL     1     -10.293  16.632  68.549  1.00  0.00    -0.303 A  
HETATM   23  C   UNL     1     -10.619  15.412  69.136  1.00  0.00    -0.248 A  
HETATM   24  C   UNL     1     -10.081  14.219  68.637  1.00  0.00    -0.238 A  
ENDBRANCH  12  13
ENDBRANCH   6  12
TORSDOF 2
ENDMDL
MODEL      173
REMARK 921   NORMALIZED FREE ENERGY PREDICTED BY IDOCK:   -3.57 KCAL/MOL
REMARK 922        TOTAL FREE ENERGY PREDICTED BY IDOCK:   -4.50 KCAL/MOL
REMARK 923 INTER-LIGAND FREE ENERGY PREDICTED BY IDOCK:   -4.23 KCAL/MOL
REMARK 924 INTRA-LIGAND FREE ENERGY PREDICTED BY IDOCK:   -0.28 KCAL/MOL
REMARK 927      BINDING AFFINITY PREDICTED BY RF-SCORE:    0.00 PKD
ROOT
HETATM    1  C   UNL     1     -11.555  16.934  71.859  1.00  0.00     0.461 C  
HETATM    2  N   UNL     1     -12.504  15.866  72.367  1.00  0.00    -0.444 N  
HETATM    3  C   UNL     1     -11.932  14.432  72.558  1.00  0.00     0.159 C  
HETATM    4  C   UNL     1     -13.022  16.399  73.729  1.00  0.00    -0.247 C  
HETATM    5  C   UNL     1     -11.208  13.991  71.265  1.00  0.00     1.196 C  
HETATM    6  C   UNL     1     -12.141  13.952  70.039  1.00  0.00    -0.345 C  
HETATM    7  C   UNL     1     -13.146  15.126  70.016  1.00  0.00     0.076 C  
HETATM    8  O   UNL     1     -13.930  12.975  71.839  1.00  0.00    -0.214 OA 
HETATM    9  C   UNL     1     -13.689  15.494  71.432  1.00  0.00    -0.443 C  
HETATM   10  C   UNL     1     -13.176  13.597  72.870  1.00  0.00    -0.138 C  
HETATM   11  C   UNL     1     -14.327  14.302  72.145  1.00  0.00    -0.522 C  
ENDROOT
BRANCH   6  12
HETATM   12  O   UNL     1     -11.502  13.633  68.779  1.00  0.00    -0.265 OA 
BRANCH  12  13
HETATM   13  C   UNL     1     -10.959  12.424  68.529  1.00  0.00    -0.245 C  
HETATM   14  C   UNL     1     -11.187  12.769  65.915  1.00  0.00    -0.334 A  
HETATM   15  C   UNL     1     -10.378  12.283  67.121  1.00  0.00    -0.234 C  
HETATM   16  C   UNL     1      -8.942  12.817  67.080  1.00  0.00    -0.214 C  
HETATM   17  C   UNL     1     -11.236  11.949  64.770  1.00  0.00    -0.356 A  
HETATM   18  O   UNL     1      -8.880  14.241  67.043  1.00  0.00    -0.214 OA 
HETATM   19  O   UNL     1     -10.899  11.544  69.378  1.00  0.00    -0.210 OA 
HETATM   20  C   UNL     1     -11.776  12.410  63.564  1.00  0.00    -0.592 A  
HETATM   21  H   UNL     1      -7.990  14.573  67.019  1.00  0.00     0.000 HD 
HETATM   22  C   UNL     1     -12.288  13.700  63.481  1.00  0.00    -0.265 A  
HETATM   23  C   UNL     1     -12.283  14.517  64.608  1.00  0.00    -0.474 A  
HETATM   24  C   UNL     1     -11.736  14.058  65.814  1.00  0.00    -0.368 A  
ENDBRANCH  12  13
ENDBRANCH   6  12
TORSDOF 2
ENDMDL
MODEL      174
REMARK 921   NORMALIZED FREE ENERGY PREDICTED BY IDOCK:   -3.57 KCAL/MOL
REMARK 922        TOTAL FREE ENERGY PREDICTED BY IDOCK:   -4.50 KCAL/MOL
REMARK 923 INTER-LIGAND FREE ENERGY PREDICTED BY IDOCK:   -4.29 KCAL/MOL
REMARK 924 INTRA-LIGAND FREE ENERGY PREDICTED BY IDOCK:   -0.21 KCAL/MOL
REMARK 927      BINDING AFFINITY PREDICTED BY RF-SCORE:    0.00 PKD
ROOT
HETATM    1  C   UNL     1      -8.847   3.764  67.882  1.00  0.00    -0.114 C  
HETATM    2  N   UNL     1      -8.603   4.094  69.342  1.00  0.00    -0.075 N  
HETATM    3  C   UNL     1      -9.817   4.598  70.174  1.00  0.00    -0.236 C  
HETATM    4  C   UNL     1      -8.058   2.783  69.969  1.00  0.00    -0.041 C  
HETATM    5  C   UNL     1     -10.504   5.765  69.427  1.00  0.00    -0.360 C  
HETATM    6  C   UNL     1      -9.567   6.969  69.207  1.00  0.00    -0.154 C  
HETATM    7  C   UNL     1      -8.125   6.547  68.848  1.00  0.00    -0.115 C  
HETATM    8  O   UNL     1      -8.705   6.343  71.709  1.00  0.00    -0.132 OA 
HETATM    9  C   UNL     1      -7.645   5.284  69.630  1.00  0.00    -0.069 C  
HETATM   10  C   UNL     1      -9.180   5.021  71.501  1.00  0.00    -0.146 C  
HETATM   11  C   UNL     1      -7.755   5.454  71.146  1.00  0.00    -0.102 C  
ENDROOT
BRANCH   6  12
HETATM   12  O   UNL     1     -10.125   8.059  68.434  1.00  0.00    -0.184 OA 
BRANCH  12  13
HETATM   13  C   UNL     1     -10.608   7.889  67.186  1.00  0.00    -0.313 C  
HETATM   14  C   UNL     1     -10.494  10.487  66.695  1.00  0.00    -0.290 A  
HETATM   15  C   UNL     1     -10.289   9.041  66.232  1.00  0.00    -0.130 C  
HETATM   16  C   UNL     1      -8.904   8.848  65.606  1.00  0.00    -0.191 C  
HETATM   17  C   UNL     1     -11.105  11.393  65.805  1.00  0.00    -0.217 A  
HETATM   18  O   UNL     1      -7.841   9.190  66.493  1.00  0.00    -0.099 OA 
HETATM   19  O   UNL     1     -11.204   6.874  66.848  1.00  0.00    -0.353 OA 
HETATM   20  C   UNL     1     -11.141  12.765  66.070  1.00  0.00    -0.315 A  
HETATM   21  H   UNL     1      -6.982   9.070  66.105  1.00  0.00     0.000 HD 
HETATM   22  C   UNL     1     -10.574  13.262  67.239  1.00  0.00    -0.250 A  
HETATM   23  C   UNL     1      -9.996  12.383  68.151  1.00  0.00    -0.215 A  
HETATM   24  C   UNL     1      -9.955  11.008  67.882  1.00  0.00    -0.192 A  
ENDBRANCH  12  13
ENDBRANCH   6  12
TORSDOF 2
ENDMDL
MODEL      175
REMARK 921   NORMALIZED FREE ENERGY PREDICTED BY IDOCK:   -3.53 KCAL/MOL
REMARK 922        TOTAL FREE ENERGY PREDICTED BY IDOCK:   -4.45 KCAL/MOL
REMARK 923 INTER-LIGAND FREE ENERGY PREDICTED BY IDOCK:   -3.73 KCAL/MOL
REMARK 924 INTRA-LIGAND FREE ENERGY PREDICTED BY IDOCK:   -0.73 KCAL/MOL
REMARK 927      BINDING AFFINITY PREDICTED BY RF-SCORE:    0.00 PKD
ROOT
HETATM    1  C   UNL     1     -10.393   6.616  71.928  1.00  0.00    -0.198 C  
HETATM    2  N   UNL     1      -9.914   5.354  71.236  1.00  0.00    -0.185 N  
HETATM    3  C   UNL     1      -8.382   5.188  71.029  1.00  0.00    -0.119 C  
HETATM    4  C   UNL     1     -10.445   4.186  72.110  1.00  0.00    -0.035 C  
HETATM    5  C   UNL     1      -7.812   6.461  70.361  1.00  0.00    -0.107 C  
HETATM    6  C   UNL     1      -8.433   6.742  68.980  1.00  0.00    -0.128 C  
HETATM    7  C   UNL     1      -9.948   6.441  68.933  1.00  0.00    -0.168 C  
HETATM    8  O   UNL     1      -8.291   4.039  68.725  1.00  0.00    -0.077 OA 
HETATM    9  C   UNL     1     -10.346   5.175  69.753  1.00  0.00    -0.262 C  
HETATM   10  C   UNL     1      -8.281   3.944  70.143  1.00  0.00    -0.056 C  
HETATM   11  C   UNL     1      -9.573   3.928  69.320  1.00  0.00    -0.162 C  
ENDROOT
BRANCH   6  12
HETATM   12  O   UNL     1      -8.006   7.971  68.343  1.00  0.00    -0.116 OA 
BRANCH  12  13
HETATM   13  C   UNL     1      -8.529   8.402  67.176  1.00  0.00    -0.123 C  
HETATM   14  C   UNL     1     -10.258   9.964  68.432  1.00  0.00    -0.203 A  
HETATM   15  C   UNL     1      -9.271   9.735  67.283  1.00  0.00    -0.153 C  
HETATM   16  C   UNL     1      -8.289  10.905  67.151  1.00  0.00    -0.125 C  
HETATM   17  C   UNL     1     -11.495  10.573  68.138  1.00  0.00    -0.255 A  
HETATM   18  O   UNL     1      -7.544  11.140  68.342  1.00  0.00    -0.097 OA 
HETATM   19  O   UNL     1      -8.373   7.795  66.125  1.00  0.00    -0.115 OA 
HETATM   20  C   UNL     1     -12.357  11.000  69.153  1.00  0.00    -0.079 A  
HETATM   21  H   UNL     1      -6.934  11.865  68.261  1.00  0.00     0.000 HD 
HETATM   22  C   UNL     1     -12.005  10.819  70.486  1.00  0.00    -0.456 A  
HETATM   23  C   UNL     1     -10.804  10.188  70.801  1.00  0.00    -0.241 A  
HETATM   24  C   UNL     1      -9.938   9.765  69.784  1.00  0.00    -0.265 A  
ENDBRANCH  12  13
ENDBRANCH   6  12
TORSDOF 2
ENDMDL
MODEL      176
REMARK 921   NORMALIZED FREE ENERGY PREDICTED BY IDOCK:   -3.53 KCAL/MOL
REMARK 922        TOTAL FREE ENERGY PREDICTED BY IDOCK:   -4.45 KCAL/MOL
REMARK 923 INTER-LIGAND FREE ENERGY PREDICTED BY IDOCK:   -3.61 KCAL/MOL
REMARK 924 INTRA-LIGAND FREE ENERGY PREDICTED BY IDOCK:   -0.84 KCAL/MOL
REMARK 927      BINDING AFFINITY PREDICTED BY RF-SCORE:    0.00 PKD
ROOT
HETATM    1  C   UNL     1     -11.384  17.133  71.776  1.00  0.00     1.092 C  
HETATM    2  N   UNL     1     -12.264  15.929  72.053  1.00  0.00    -0.449 N  
HETATM    3  C   UNL     1     -11.585  14.529  72.047  1.00  0.00     0.280 C  
HETATM    4  C   UNL     1     -12.885  16.193  73.450  1.00  0.00    -0.517 C  
HETATM    5  C   UNL     1     -10.769  14.359  70.744  1.00  0.00     0.765 C  
HETATM    6  C   UNL     1     -11.640  14.451  69.476  1.00  0.00    -0.304 C  
HETATM    7  C   UNL     1     -12.736  15.535  69.582  1.00  0.00     0.092 C  
HETATM    8  O   UNL     1     -13.422  13.065  70.992  1.00  0.00     0.074 OA 
HETATM    9  C   UNL     1     -13.371  15.627  71.004  1.00  0.00    -0.300 C  
HETATM   10  C   UNL     1     -12.769  13.565  72.150  1.00  0.00    -0.126 C  
HETATM   11  C   UNL     1     -13.940  14.291  71.481  1.00  0.00    -0.339 C  
ENDROOT
BRANCH   6  12
HETATM   12  O   UNL     1     -10.921  14.389  68.221  1.00  0.00    -0.236 OA 
BRANCH  12  13
HETATM   13  C   UNL     1     -11.505  14.670  67.037  1.00  0.00    -0.368 C  
HETATM   14  C   UNL     1     -10.529  17.131  67.047  1.00  0.00    -0.282 A  
HETATM   15  C   UNL     1     -10.863  15.841  66.291  1.00  0.00    -0.232 C  
HETATM   16  C   UNL     1      -9.667  15.355  65.464  1.00  0.00    -0.283 C  
HETATM   17  C   UNL     1     -10.840  18.362  66.435  1.00  0.00    -0.037 A  
HETATM   18  O   UNL     1      -8.503  15.125  66.254  1.00  0.00    -0.416 OA 
HETATM   19  O   UNL     1     -12.432  14.008  66.591  1.00  0.00    -0.420 OA 
HETATM   20  C   UNL     1     -10.385  19.575  66.962  1.00  0.00    -0.568 A  
HETATM   21  H   UNL     1      -7.762  14.823  65.741  1.00  0.00     0.000 HD 
HETATM   22  C   UNL     1      -9.615  19.583  68.121  1.00  0.00    -0.457 A  
HETATM   23  C   UNL     1      -9.325  18.382  68.763  1.00  0.00    -0.301 A  
HETATM   24  C   UNL     1      -9.776  17.167  68.231  1.00  0.00    -0.280 A  
ENDBRANCH  12  13
ENDBRANCH   6  12
TORSDOF 2
ENDMDL
MODEL      177
REMARK 921   NORMALIZED FREE ENERGY PREDICTED BY IDOCK:   -3.49 KCAL/MOL
REMARK 922        TOTAL FREE ENERGY PREDICTED BY IDOCK:   -4.41 KCAL/MOL
REMARK 923 INTER-LIGAND FREE ENERGY PREDICTED BY IDOCK:   -3.84 KCAL/MOL
REMARK 924 INTRA-LIGAND FREE ENERGY PREDICTED BY IDOCK:   -0.57 KCAL/MOL
REMARK 927      BINDING AFFINITY PREDICTED BY RF-SCORE:    0.00 PKD
ROOT
HETATM    1  C   UNL     1      -8.891  12.721  68.569  1.00  0.00    -0.040 C  
HETATM    2  N   UNL     1      -9.872  13.442  67.665  1.00  0.00    -0.221 N  
HETATM    3  C   UNL     1     -11.234  12.745  67.385  1.00  0.00    -0.294 C  
HETATM    4  C   UNL     1     -10.126  14.810  68.353  1.00  0.00    -0.225 C  
HETATM    5  C   UNL     1     -10.982  11.293  66.917  1.00  0.00    -0.348 C  
HETATM    6  C   UNL     1     -10.153  11.217  65.620  1.00  0.00    -0.253 C  
HETATM    7  C   UNL     1      -9.020  12.266  65.573  1.00  0.00     0.394 C  
HETATM    8  O   UNL     1     -11.646  13.380  64.923  1.00  0.00    -0.313 OA 
HETATM    9  C   UNL     1      -9.432  13.640  66.187  1.00  0.00    -0.146 C  
HETATM   10  C   UNL     1     -11.864  13.628  66.304  1.00  0.00    -0.392 C  
HETATM   11  C   UNL     1     -10.684  14.224  65.532  1.00  0.00    -0.331 C  
ENDROOT
BRANCH   6  12
HETATM   12  O   UNL     1      -9.806   9.881  65.179  1.00  0.00    -0.306 OA 
BRANCH  12  13
HETATM   13  C   UNL     1      -8.638   9.602  64.565  1.00  0.00    -0.188 C  
HETATM   14  C   UNL     1      -7.609   8.607  66.791  1.00  0.00    -0.086 A  
HETATM   15  C   UNL     1      -7.803   8.534  65.274  1.00  0.00    -0.106 C  
HETATM   16  C   UNL     1      -8.245   7.133  64.836  1.00  0.00    -0.071 C  
HETATM   17  C   UNL     1      -6.320   8.369  67.311  1.00  0.00    -0.057 A  
HETATM   18  O   UNL     1      -9.453   6.711  65.464  1.00  0.00    -0.335 OA 
HETATM   19  O   UNL     1      -8.312  10.128  63.509  1.00  0.00    -0.153 OA 
HETATM   20  C   UNL     1      -6.105   8.215  68.685  1.00  0.00    -0.044 A  
HETATM   21  H   UNL     1      -9.727   5.843  65.192  1.00  0.00     0.000 HD 
HETATM   22  C   UNL     1      -7.173   8.305  69.570  1.00  0.00    -0.061 A  
HETATM   23  C   UNL     1      -8.449   8.575  69.083  1.00  0.00    -0.125 A  
HETATM   24  C   UNL     1      -8.667   8.724  67.707  1.00  0.00    -0.136 A  
ENDBRANCH  12  13
ENDBRANCH   6  12
TORSDOF 2
ENDMDL
MODEL      178
REMARK 921   NORMALIZED FREE ENERGY PREDICTED BY IDOCK:   -3.49 KCAL/MOL
REMARK 922        TOTAL FREE ENERGY PREDICTED BY IDOCK:   -4.41 KCAL/MOL
REMARK 923 INTER-LIGAND FREE ENERGY PREDICTED BY IDOCK:   -3.85 KCAL/MOL
REMARK 924 INTRA-LIGAND FREE ENERGY PREDICTED BY IDOCK:   -0.55 KCAL/MOL
REMARK 927      BINDING AFFINITY PREDICTED BY RF-SCORE:    0.00 PKD
ROOT
HETATM    1  C   UNL     1     -11.164  11.404  69.092  1.00  0.00    -0.272 C  
HETATM    2  N   UNL     1     -10.172  11.676  67.978  1.00  0.00    -0.185 N  
HETATM    3  C   UNL     1     -10.293  10.819  66.686  1.00  0.00    -0.241 C  
HETATM    4  C   UNL     1     -10.363  13.174  67.621  1.00  0.00    -0.223 C  
HETATM    5  C   UNL     1     -10.335   9.320  67.065  1.00  0.00    -0.325 C  
HETATM    6  C   UNL     1      -9.068   8.853  67.807  1.00  0.00    -0.134 C  
HETATM    7  C   UNL     1      -8.543   9.904  68.811  1.00  0.00    -0.130 C  
HETATM    8  O   UNL     1      -7.820  10.500  66.039  1.00  0.00    -0.137 OA 
HETATM    9  C   UNL     1      -8.680  11.369  68.292  1.00  0.00    -0.160 C  
HETATM   10  C   UNL     1      -9.044  11.205  65.890  1.00  0.00    -0.203 C  
HETATM   11  C   UNL     1      -7.995  11.580  66.941  1.00  0.00    -0.164 C  
ENDROOT
BRANCH   6  12
HETATM   12  O   UNL     1      -9.086   7.481  68.269  1.00  0.00    -0.133 OA 
BRANCH  12  13
HETATM   13  C   UNL     1     -10.232   6.821  68.535  1.00  0.00    -0.175 C  
HETATM   14  C   UNL     1      -9.965   5.315  66.374  1.00  0.00    -0.227 A  
HETATM   15  C   UNL     1     -10.335   5.454  67.854  1.00  0.00    -0.222 C  
HETATM   16  C   UNL     1      -9.645   4.382  68.704  1.00  0.00    -0.149 C  
HETATM   17  C   UNL     1     -10.808   4.548  65.545  1.00  0.00    -0.085 A  
HETATM   18  O   UNL     1      -8.225   4.413  68.592  1.00  0.00    -0.080 OA 
HETATM   19  O   UNL     1     -11.082   7.266  69.294  1.00  0.00    -0.152 OA 
HETATM   20  C   UNL     1     -10.434   4.204  64.242  1.00  0.00    -0.135 A  
HETATM   21  H   UNL     1      -7.797   3.748  69.119  1.00  0.00     0.000 HD 
HETATM   22  C   UNL     1      -9.210   4.629  63.736  1.00  0.00    -0.034 A  
HETATM   23  C   UNL     1      -8.376   5.417  64.524  1.00  0.00    -0.138 A  
HETATM   24  C   UNL     1      -8.748   5.757  65.831  1.00  0.00    -0.149 A  
ENDBRANCH  12  13
ENDBRANCH   6  12
TORSDOF 2
ENDMDL
MODEL      179
REMARK 921   NORMALIZED FREE ENERGY PREDICTED BY IDOCK:   -3.48 KCAL/MOL
REMARK 922        TOTAL FREE ENERGY PREDICTED BY IDOCK:   -4.39 KCAL/MOL
REMARK 923 INTER-LIGAND FREE ENERGY PREDICTED BY IDOCK:   -4.51 KCAL/MOL
REMARK 924 INTRA-LIGAND FREE ENERGY PREDICTED BY IDOCK:    0.12 KCAL/MOL
REMARK 927      BINDING AFFINITY PREDICTED BY RF-SCORE:    0.00 PKD
ROOT
HETATM    1  C   UNL     1      -8.111  12.857  68.370  1.00  0.00    -0.130 C  
HETATM    2  N   UNL     1      -9.368  13.083  67.551  1.00  0.00    -0.193 N  
HETATM    3  C   UNL     1     -10.734  12.826  68.249  1.00  0.00    -0.239 C  
HETATM    4  C   UNL     1      -9.294  14.564  67.094  1.00  0.00    -0.218 C  
HETATM    5  C   UNL     1     -10.720  11.426  68.908  1.00  0.00    -0.248 C  
HETATM    6  C   UNL     1     -10.503  10.288  67.892  1.00  0.00    -0.212 C  
HETATM    7  C   UNL     1      -9.475  10.652  66.797  1.00  0.00    -0.189 C  
HETATM    8  O   UNL     1     -12.118  11.815  66.326  1.00  0.00    -0.446 OA 
HETATM    9  C   UNL     1      -9.575  12.138  66.333  1.00  0.00    -0.234 C  
HETATM   10  C   UNL     1     -11.740  12.943  67.102  1.00  0.00    -0.377 C  
HETATM   11  C   UNL     1     -10.977  12.509  65.847  1.00  0.00    -0.279 C  
ENDROOT
BRANCH   6  12
HETATM   12  O   UNL     1     -10.389   8.960  68.458  1.00  0.00    -0.195 OA 
BRANCH  12  13
HETATM   13  C   UNL     1      -9.392   8.614  69.298  1.00  0.00    -0.153 C  
HETATM   14  C   UNL     1      -9.189   6.213  68.202  1.00  0.00    -0.117 A  
HETATM   15  C   UNL     1      -8.524   7.461  68.790  1.00  0.00    -0.129 C  
HETATM   16  C   UNL     1      -7.420   7.990  67.868  1.00  0.00    -0.094 C  
HETATM   17  C   UNL     1      -8.690   4.950  68.578  1.00  0.00    -0.106 A  
HETATM   18  O   UNL     1      -7.892   8.308  66.561  1.00  0.00    -0.091 OA 
HETATM   19  O   UNL     1      -9.182   9.210  70.346  1.00  0.00    -0.193 OA 
HETATM   20  C   UNL     1      -9.103   3.780  67.932  1.00  0.00    -0.191 A  
HETATM   21  H   UNL     1      -7.208   8.637  65.990  1.00  0.00     0.000 HD 
HETATM   22  C   UNL     1     -10.034   3.847  66.901  1.00  0.00     0.023 A  
HETATM   23  C   UNL     1     -10.568   5.079  66.536  1.00  0.00    -0.289 A  
HETATM   24  C   UNL     1     -10.150   6.252  67.178  1.00  0.00    -0.213 A  
ENDBRANCH  12  13
ENDBRANCH   6  12
TORSDOF 2
ENDMDL
MODEL      180
REMARK 921   NORMALIZED FREE ENERGY PREDICTED BY IDOCK:   -3.46 KCAL/MOL
REMARK 922        TOTAL FREE ENERGY PREDICTED BY IDOCK:   -4.38 KCAL/MOL
REMARK 923 INTER-LIGAND FREE ENERGY PREDICTED BY IDOCK:   -3.76 KCAL/MOL
REMARK 924 INTRA-LIGAND FREE ENERGY PREDICTED BY IDOCK:   -0.61 KCAL/MOL
REMARK 927      BINDING AFFINITY PREDICTED BY RF-SCORE:    0.00 PKD
ROOT
HETATM    1  C   UNL     1      -9.609   4.492  65.034  1.00  0.00    -0.142 C  
HETATM    2  N   UNL     1      -8.772   3.841  66.118  1.00  0.00    -0.113 N  
HETATM    3  C   UNL     1      -9.429   3.653  67.515  1.00  0.00    -0.191 C  
HETATM    4  C   UNL     1      -8.373   2.455  65.546  1.00  0.00    -0.091 C  
HETATM    5  C   UNL     1     -10.034   4.997  67.984  1.00  0.00    -0.189 C  
HETATM    6  C   UNL     1      -8.981   6.113  68.120  1.00  0.00    -0.114 C  
HETATM    7  C   UNL     1      -7.923   6.077  66.994  1.00  0.00    -0.102 C  
HETATM    8  O   UNL     1      -7.439   4.094  69.090  1.00  0.00    -0.054 OA 
HETATM    9  C   UNL     1      -7.515   4.629  66.584  1.00  0.00    -0.086 C  
HETATM   10  C   UNL     1      -8.266   3.177  68.388  1.00  0.00    -0.068 C  
HETATM   11  C   UNL     1      -7.013   3.802  67.770  1.00  0.00    -0.055 C  
ENDROOT
BRANCH   6  12
HETATM   12  O   UNL     1      -9.499   7.420  68.469  1.00  0.00    -0.144 OA 
BRANCH  12  13
HETATM   13  C   UNL     1      -8.870   8.240  69.336  1.00  0.00    -0.146 C  
HETATM   14  C   UNL     1      -9.311  10.346  67.795  1.00  0.00    -0.155 A  
HETATM   15  C   UNL     1      -9.255   9.714  69.189  1.00  0.00    -0.168 C  
HETATM   16  C   UNL     1     -10.526  10.016  69.990  1.00  0.00    -0.287 C  
HETATM   17  C   UNL     1      -8.751  11.627  67.620  1.00  0.00    -0.156 A  
HETATM   18  O   UNL     1     -11.712   9.566  69.340  1.00  0.00    -0.425 OA 
HETATM   19  O   UNL     1      -8.102   7.822  70.192  1.00  0.00    -0.113 OA 
HETATM   20  C   UNL     1      -8.943  12.354  66.440  1.00  0.00    -0.101 A  
HETATM   21  H   UNL     1     -12.500   9.753  69.836  1.00  0.00     0.000 HD 
HETATM   22  C   UNL     1      -9.693  11.809  65.404  1.00  0.00    -0.242 A  
HETATM   23  C   UNL     1     -10.227  10.530  65.539  1.00  0.00    -0.325 A  
HETATM   24  C   UNL     1     -10.039   9.805  66.723  1.00  0.00    -0.295 A  
ENDBRANCH  12  13
ENDBRANCH   6  12
TORSDOF 2
ENDMDL
MODEL      181
REMARK 921   NORMALIZED FREE ENERGY PREDICTED BY IDOCK:   -3.45 KCAL/MOL
REMARK 922        TOTAL FREE ENERGY PREDICTED BY IDOCK:   -4.36 KCAL/MOL
REMARK 923 INTER-LIGAND FREE ENERGY PREDICTED BY IDOCK:   -3.92 KCAL/MOL
REMARK 924 INTRA-LIGAND FREE ENERGY PREDICTED BY IDOCK:   -0.44 KCAL/MOL
REMARK 927      BINDING AFFINITY PREDICTED BY RF-SCORE:    0.00 PKD
ROOT
HETATM    1  C   UNL     1      -8.634  11.313  65.972  1.00  0.00    -0.130 C  
HETATM    2  N   UNL     1      -9.713  11.523  67.017  1.00  0.00    -0.183 N  
HETATM    3  C   UNL     1      -9.348  11.212  68.497  1.00  0.00    -0.190 C  
HETATM    4  C   UNL     1     -10.116  13.016  66.890  1.00  0.00    -0.243 C  
HETATM    5  C   UNL     1      -8.727   9.798  68.587  1.00  0.00    -0.122 C  
HETATM    6  C   UNL     1      -9.686   8.691  68.109  1.00  0.00    -0.158 C  
HETATM    7  C   UNL     1     -10.513   9.109  66.872  1.00  0.00    -0.287 C  
HETATM    8  O   UNL     1     -11.552  10.210  69.376  1.00  0.00    -0.189 OA 
HETATM    9  C   UNL     1     -10.962  10.603  66.913  1.00  0.00    -0.161 C  
HETATM   10  C   UNL     1     -10.691  11.329  69.221  1.00  0.00    -0.179 C  
HETATM   11  C   UNL     1     -11.747  10.946  68.180  1.00  0.00    -0.154 C  
ENDROOT
BRANCH   6  12
HETATM   12  O   UNL     1      -9.131   7.353  68.084  1.00  0.00    -0.132 OA 
BRANCH  12  13
HETATM   13  C   UNL     1      -8.346   6.914  67.079  1.00  0.00    -0.121 C  
HETATM   14  C   UNL     1      -8.677   4.392  67.810  1.00  0.00    -0.115 A  
HETATM   15  C   UNL     1      -8.575   5.448  66.706  1.00  0.00    -0.110 C  
HETATM   16  C   UNL     1      -9.734   5.326  65.710  1.00  0.00    -0.059 C  
HETATM   17  C   UNL     1      -7.995   3.171  67.632  1.00  0.00    -0.076 A  
HETATM   18  O   UNL     1     -11.012   5.446  66.328  1.00  0.00    -0.666 OA 
HETATM   19  O   UNL     1      -7.559   7.647  66.494  1.00  0.00    -0.092 OA 
HETATM   20  C   UNL     1      -8.203   2.086  68.489  1.00  0.00    -0.073 A  
HETATM   21  H   UNL     1     -11.731   5.370  65.711  1.00  0.00     0.000 HD 
HETATM   22  C   UNL     1      -9.093   2.201  69.552  1.00  0.00    -0.172 A  
HETATM   23  C   UNL     1      -9.752   3.408  69.770  1.00  0.00    -0.074 A  
HETATM   24  C   UNL     1      -9.548   4.494  68.907  1.00  0.00    -0.235 A  
ENDBRANCH  12  13
ENDBRANCH   6  12
TORSDOF 2
ENDMDL
MODEL      182
REMARK 921   NORMALIZED FREE ENERGY PREDICTED BY IDOCK:   -3.44 KCAL/MOL
REMARK 922        TOTAL FREE ENERGY PREDICTED BY IDOCK:   -4.35 KCAL/MOL
REMARK 923 INTER-LIGAND FREE ENERGY PREDICTED BY IDOCK:   -3.81 KCAL/MOL
REMARK 924 INTRA-LIGAND FREE ENERGY PREDICTED BY IDOCK:   -0.54 KCAL/MOL
REMARK 927      BINDING AFFINITY PREDICTED BY RF-SCORE:    0.00 PKD
ROOT
HETATM    1  C   UNL     1      -8.990   8.164  69.824  1.00  0.00    -0.144 C  
HETATM    2  N   UNL     1      -9.631   7.572  71.065  1.00  0.00    -0.161 N  
HETATM    3  C   UNL     1      -8.976   6.298  71.671  1.00  0.00    -0.144 C  
HETATM    4  C   UNL     1      -9.609   8.713  72.117  1.00  0.00    -0.307 C  
HETATM    5  C   UNL     1      -8.786   5.239  70.560  1.00  0.00    -0.132 C  
HETATM    6  C   UNL     1     -10.114   4.806  69.911  1.00  0.00    -0.229 C  
HETATM    7  C   UNL     1     -11.095   5.984  69.715  1.00  0.00    -0.476 C  
HETATM    8  O   UNL     1     -11.041   4.978  72.462  1.00  0.00    -0.215 OA 
HETATM    9  C   UNL     1     -11.069   7.005  70.894  1.00  0.00    -0.267 C  
HETATM   10  C   UNL     1      -9.975   5.870  72.749  1.00  0.00    -0.179 C  
HETATM   11  C   UNL     1     -11.341   6.347  72.247  1.00  0.00    -0.290 C  
ENDROOT
BRANCH   6  12
HETATM   12  O   UNL     1      -9.994   3.882  68.802  1.00  0.00    -0.020 OA 
BRANCH  12  13
HETATM   13  C   UNL     1      -9.154   2.828  68.826  1.00  0.00    -0.151 C  
HETATM   14  C   UNL     1      -8.858   2.897  66.197  1.00  0.00    -0.143 A  
HETATM   15  C   UNL     1      -8.254   2.722  67.594  1.00  0.00    -0.087 C  
HETATM   16  C   UNL     1      -7.001   3.587  67.772  1.00  0.00    -0.051 C  
HETATM   17  C   UNL     1      -8.464   2.001  65.183  1.00  0.00    -0.097 A  
HETATM   18  O   UNL     1      -7.251   4.975  67.562  1.00  0.00    -0.068 OA 
HETATM   19  O   UNL     1      -9.093   2.060  69.778  1.00  0.00    -0.085 OA 
HETATM   20  C   UNL     1      -8.807   2.217  63.844  1.00  0.00    -0.092 A  
HETATM   21  H   UNL     1      -6.475   5.512  67.672  1.00  0.00     0.000 HD 
HETATM   22  C   UNL     1      -9.561   3.332  63.491  1.00  0.00    -0.113 A  
HETATM   23  C   UNL     1      -9.991   4.212  64.480  1.00  0.00    -0.170 A  
HETATM   24  C   UNL     1      -9.643   3.999  65.820  1.00  0.00    -0.191 A  
ENDBRANCH  12  13
ENDBRANCH   6  12
TORSDOF 2
ENDMDL
MODEL      183
REMARK 921   NORMALIZED FREE ENERGY PREDICTED BY IDOCK:   -3.42 KCAL/MOL
REMARK 922        TOTAL FREE ENERGY PREDICTED BY IDOCK:   -4.34 KCAL/MOL
REMARK 923 INTER-LIGAND FREE ENERGY PREDICTED BY IDOCK:   -4.18 KCAL/MOL
REMARK 924 INTRA-LIGAND FREE ENERGY PREDICTED BY IDOCK:   -0.15 KCAL/MOL
REMARK 927      BINDING AFFINITY PREDICTED BY RF-SCORE:    0.00 PKD
ROOT
HETATM    1  C   UNL     1      -7.738   8.056  66.907  1.00  0.00    -0.099 C  
HETATM    2  N   UNL     1      -8.283   8.692  65.642  1.00  0.00    -0.116 N  
HETATM    3  C   UNL     1      -7.401   9.764  64.942  1.00  0.00    -0.129 C  
HETATM    4  C   UNL     1      -8.527   7.509  64.667  1.00  0.00     0.114 C  
HETATM    5  C   UNL     1      -6.963  10.827  65.977  1.00  0.00    -0.104 C  
HETATM    6  C   UNL     1      -8.155  11.562  66.620  1.00  0.00    -0.139 C  
HETATM    7  C   UNL     1      -9.349  10.626  66.911  1.00  0.00    -0.180 C  
HETATM    8  O   UNL     1      -9.176  11.431  64.103  1.00  0.00    -0.111 OA 
HETATM    9  C   UNL     1      -9.569   9.552  65.801  1.00  0.00    -0.270 C  
HETATM   10  C   UNL     1      -8.323  10.322  63.856  1.00  0.00    -0.165 C  
HETATM   11  C   UNL     1      -9.742  10.169  64.413  1.00  0.00    -0.277 C  
ENDROOT
BRANCH   6  12
HETATM   12  O   UNL     1      -7.814  12.507  67.664  1.00  0.00    -0.138 OA 
BRANCH  12  13
HETATM   13  C   UNL     1      -6.780  13.366  67.554  1.00  0.00    -0.140 C  
HETATM   14  C   UNL     1      -8.412  15.418  67.196  1.00  0.00    -0.241 A  
HETATM   15  C   UNL     1      -7.150  14.824  67.830  1.00  0.00    -0.191 C  
HETATM   16  C   UNL     1      -7.092  15.114  69.333  1.00  0.00    -0.189 C  
HETATM   17  C   UNL     1      -8.333  16.709  66.636  1.00  0.00    -0.296 A  
HETATM   18  O   UNL     1      -8.226  14.616  70.039  1.00  0.00    -0.292 OA 
HETATM   19  O   UNL     1      -5.641  12.991  67.304  1.00  0.00    -0.338 OA 
HETATM   20  C   UNL     1      -9.479  17.399  66.227  1.00  0.00    -0.247 A  
HETATM   21  H   UNL     1      -8.190  14.795  70.972  1.00  0.00     0.000 HD 
HETATM   22  C   UNL     1     -10.731  16.807  66.362  1.00  0.00    -0.105 A  
HETATM   23  C   UNL     1     -10.831  15.519  66.880  1.00  0.00    -0.301 A  
HETATM   24  C   UNL     1      -9.684  14.830  67.295  1.00  0.00    -0.230 A  
ENDBRANCH  12  13
ENDBRANCH   6  12
TORSDOF 2
ENDMDL
MODEL      184
REMARK 921   NORMALIZED FREE ENERGY PREDICTED BY IDOCK:   -3.42 KCAL/MOL
REMARK 922        TOTAL FREE ENERGY PREDICTED BY IDOCK:   -4.33 KCAL/MOL
REMARK 923 INTER-LIGAND FREE ENERGY PREDICTED BY IDOCK:   -4.00 KCAL/MOL
REMARK 924 INTRA-LIGAND FREE ENERGY PREDICTED BY IDOCK:   -0.34 KCAL/MOL
REMARK 927      BINDING AFFINITY PREDICTED BY RF-SCORE:    0.00 PKD
ROOT
HETATM    1  C   UNL     1     -12.263   7.669  70.907  1.00  0.00    -0.168 C  
HETATM    2  N   UNL     1     -10.861   7.107  70.770  1.00  0.00    -0.239 N  
HETATM    3  C   UNL     1      -9.678   8.116  70.814  1.00  0.00    -0.170 C  
HETATM    4  C   UNL     1     -10.715   6.092  71.935  1.00  0.00    -0.234 C  
HETATM    5  C   UNL     1      -9.940   9.260  69.807  1.00  0.00    -0.213 C  
HETATM    6  C   UNL     1     -10.065   8.763  68.354  1.00  0.00    -0.190 C  
HETATM    7  C   UNL     1     -10.834   7.427  68.243  1.00  0.00    -0.081 C  
HETATM    8  O   UNL     1      -8.056   7.089  69.097  1.00  0.00    -0.118 OA 
HETATM    9  C   UNL     1     -10.516   6.440  69.409  1.00  0.00    -0.228 C  
HETATM   10  C   UNL     1      -8.468   7.253  70.446  1.00  0.00    -0.139 C  
HETATM   11  C   UNL     1      -9.020   6.149  69.540  1.00  0.00    -0.133 C  
ENDROOT
BRANCH   6  12
HETATM   12  O   UNL     1     -10.401   9.776  67.375  1.00  0.00    -0.208 OA 
BRANCH  12  13
HETATM   13  C   UNL     1      -9.690  10.915  67.239  1.00  0.00    -0.165 C  
HETATM   14  C   UNL     1      -8.112   9.813  65.422  1.00  0.00    -0.127 A  
HETATM   15  C   UNL     1      -8.922  11.015  65.920  1.00  0.00    -0.208 C  
HETATM   16  C   UNL     1      -9.826  11.573  64.816  1.00  0.00    -0.249 C  
HETATM   17  C   UNL     1      -6.823  10.046  64.903  1.00  0.00    -0.133 A  
HETATM   18  O   UNL     1     -10.734  10.604  64.299  1.00  0.00    -0.361 OA 
HETATM   19  O   UNL     1      -9.709  11.803  68.082  1.00  0.00    -0.180 OA 
HETATM   20  C   UNL     1      -6.109   9.040  64.244  1.00  0.00    -0.071 A  
HETATM   21  H   UNL     1     -11.296  10.950  63.615  1.00  0.00     0.000 HD 
HETATM   22  C   UNL     1      -6.665   7.774  64.098  1.00  0.00    -0.057 A  
HETATM   23  C   UNL     1      -7.923   7.510  64.634  1.00  0.00    -0.133 A  
HETATM   24  C   UNL     1      -8.642   8.519  65.288  1.00  0.00    -0.192 A  
ENDBRANCH  12  13
ENDBRANCH   6  12
TORSDOF 2
ENDMDL
MODEL      185
REMARK 921   NORMALIZED FREE ENERGY PREDICTED BY IDOCK:   -3.41 KCAL/MOL
REMARK 922        TOTAL FREE ENERGY PREDICTED BY IDOCK:   -4.32 KCAL/MOL
REMARK 923 INTER-LIGAND FREE ENERGY PREDICTED BY IDOCK:   -3.84 KCAL/MOL
REMARK 924 INTRA-LIGAND FREE ENERGY PREDICTED BY IDOCK:   -0.48 KCAL/MOL
REMARK 927      BINDING AFFINITY PREDICTED BY RF-SCORE:    0.00 PKD
ROOT
HETATM    1  C   UNL     1      -8.115   6.863  73.016  1.00  0.00    -0.106 C  
HETATM    2  N   UNL     1      -9.623   6.704  73.038  1.00  0.00    -0.145 N  
HETATM    3  C   UNL     1     -10.275   5.891  71.883  1.00  0.00    -0.203 C  
HETATM    4  C   UNL     1      -9.939   6.017  74.393  1.00  0.00    -0.292 C  
HETATM    5  C   UNL     1      -9.773   6.434  70.525  1.00  0.00    -0.186 C  
HETATM    6  C   UNL     1     -10.133   7.916  70.302  1.00  0.00    -0.196 C  
HETATM    7  C   UNL     1      -9.996   8.764  71.587  1.00  0.00    -0.381 C  
HETATM    8  O   UNL     1     -12.464   7.193  71.502  1.00  0.00    -0.342 OA 
HETATM    9  C   UNL     1     -10.456   8.007  72.871  1.00  0.00    -0.332 C  
HETATM   10  C   UNL     1     -11.773   6.108  72.105  1.00  0.00    -0.309 C  
HETATM   11  C   UNL     1     -11.889   7.485  72.765  1.00  0.00    -0.108 C  
ENDROOT
BRANCH   6  12
HETATM   12  O   UNL     1      -9.613   8.508  69.087  1.00  0.00    -0.164 OA 
BRANCH  12  13
HETATM   13  C   UNL     1      -9.189   7.765  68.044  1.00  0.00    -0.138 C  
HETATM   14  C   UNL     1      -7.265   9.495  67.486  1.00  0.00    -0.090 A  
HETATM   15  C   UNL     1      -7.745   8.047  67.626  1.00  0.00    -0.110 C  
HETATM   16  C   UNL     1      -6.773   7.217  68.472  1.00  0.00    -0.057 C  
HETATM   17  C   UNL     1      -6.478   9.832  66.366  1.00  0.00    -0.071 A  
HETATM   18  O   UNL     1      -6.577   7.753  69.779  1.00  0.00    -0.034 OA 
HETATM   19  O   UNL     1      -9.892   6.911  67.520  1.00  0.00    -0.128 OA 
HETATM   20  C   UNL     1      -5.834  11.070  66.272  1.00  0.00    -0.148 A  
HETATM   21  H   UNL     1      -5.975   7.239  70.304  1.00  0.00     0.000 HD 
HETATM   22  C   UNL     1      -5.971  12.003  67.294  1.00  0.00    -0.146 A  
HETATM   23  C   UNL     1      -6.771  11.707  68.394  1.00  0.00    -0.064 A  
HETATM   24  C   UNL     1      -7.411  10.464  68.491  1.00  0.00    -0.089 A  
ENDBRANCH  12  13
ENDBRANCH   6  12
TORSDOF 2
ENDMDL
MODEL      186
REMARK 921   NORMALIZED FREE ENERGY PREDICTED BY IDOCK:   -3.40 KCAL/MOL
REMARK 922        TOTAL FREE ENERGY PREDICTED BY IDOCK:   -4.31 KCAL/MOL
REMARK 923 INTER-LIGAND FREE ENERGY PREDICTED BY IDOCK:   -4.24 KCAL/MOL
REMARK 924 INTRA-LIGAND FREE ENERGY PREDICTED BY IDOCK:   -0.07 KCAL/MOL
REMARK 927      BINDING AFFINITY PREDICTED BY RF-SCORE:    0.00 PKD
ROOT
HETATM    1  C   UNL     1     -11.351  16.617  69.041  1.00  0.00    -0.090 C  
HETATM    2  N   UNL     1     -11.551  15.204  68.529  1.00  0.00    -0.325 N  
HETATM    3  C   UNL     1     -10.436  14.165  68.840  1.00  0.00    -0.222 C  
HETATM    4  C   UNL     1     -12.888  14.729  69.159  1.00  0.00     0.624 C  
HETATM    5  C   UNL     1      -9.064  14.741  68.419  1.00  0.00    -0.188 C  
HETATM    6  C   UNL     1      -8.985  15.060  66.913  1.00  0.00    -0.251 C  
HETATM    7  C   UNL     1     -10.296  15.666  66.362  1.00  0.00    -0.303 C  
HETATM    8  O   UNL     1     -10.417  12.760  66.681  1.00  0.00    -0.253 OA 
HETATM    9  C   UNL     1     -11.575  15.027  66.984  1.00  0.00    -0.240 C  
HETATM   10  C   UNL     1     -10.857  12.943  68.019  1.00  0.00    -0.241 C  
HETATM   11  C   UNL     1     -11.615  13.507  66.814  1.00  0.00    -0.363 C  
ENDROOT
BRANCH   6  12
HETATM   12  O   UNL     1      -7.756  15.687  66.473  1.00  0.00    -0.140 OA 
BRANCH  12  13
HETATM   13  C   UNL     1      -6.634  15.686  67.222  1.00  0.00    -0.096 C  
HETATM   14  C   UNL     1      -6.292  18.286  66.861  1.00  0.00    -0.198 A  
HETATM   15  C   UNL     1      -6.258  17.060  67.779  1.00  0.00    -0.154 C  
HETATM   16  C   UNL     1      -7.005  17.326  69.091  1.00  0.00    -0.215 C  
HETATM   17  C   UNL     1      -5.222  19.201  66.931  1.00  0.00    -0.156 A  
HETATM   18  O   UNL     1      -8.366  17.699  68.889  1.00  0.00    -0.243 OA 
HETATM   19  O   UNL     1      -6.011  14.661  67.466  1.00  0.00    -0.333 OA 
HETATM   20  C   UNL     1      -5.277  20.439  66.282  1.00  0.00    -0.188 A  
HETATM   21  H   UNL     1      -8.830  17.863  69.702  1.00  0.00     0.000 HD 
HETATM   22  C   UNL     1      -6.401  20.785  65.540  1.00  0.00    -0.262 A  
HETATM   23  C   UNL     1      -7.455  19.883  65.427  1.00  0.00    -0.105 A  
HETATM   24  C   UNL     1      -7.403  18.645  66.082  1.00  0.00    -0.291 A  
ENDBRANCH  12  13
ENDBRANCH   6  12
TORSDOF 2
ENDMDL
MODEL      187
REMARK 921   NORMALIZED FREE ENERGY PREDICTED BY IDOCK:   -3.39 KCAL/MOL
REMARK 922        TOTAL FREE ENERGY PREDICTED BY IDOCK:   -4.30 KCAL/MOL
REMARK 923 INTER-LIGAND FREE ENERGY PREDICTED BY IDOCK:   -4.00 KCAL/MOL
REMARK 924 INTRA-LIGAND FREE ENERGY PREDICTED BY IDOCK:   -0.30 KCAL/MOL
REMARK 927      BINDING AFFINITY PREDICTED BY RF-SCORE:    0.00 PKD
ROOT
HETATM    1  C   UNL     1     -11.811  13.042  69.828  1.00  0.00    -0.311 C  
HETATM    2  N   UNL     1     -11.562  13.754  68.512  1.00  0.00    -0.314 N  
HETATM    3  C   UNL     1     -12.117  13.088  67.221  1.00  0.00    -0.245 C  
HETATM    4  C   UNL     1     -12.203  15.158  68.683  1.00  0.00    -0.032 C  
HETATM    5  C   UNL     1     -11.665  11.610  67.169  1.00  0.00    -0.215 C  
HETATM    6  C   UNL     1     -10.132  11.453  67.144  1.00  0.00    -0.198 C  
HETATM    7  C   UNL     1      -9.412  12.464  68.064  1.00  0.00    -0.208 C  
HETATM    8  O   UNL     1     -10.262  13.629  65.518  1.00  0.00    -0.294 OA 
HETATM    9  C   UNL     1     -10.079  13.875  68.063  1.00  0.00    -0.244 C  
HETATM   10  C   UNL     1     -11.519  13.943  66.101  1.00  0.00    -0.345 C  
HETATM   11  C   UNL     1     -10.193  14.469  66.659  1.00  0.00    -0.275 C  
ENDROOT
BRANCH   6  12
HETATM   12  O   UNL     1      -9.644  10.090  67.186  1.00  0.00    -0.158 OA 
BRANCH  12  13
HETATM   13  C   UNL     1      -8.567   9.729  67.914  1.00  0.00    -0.125 C  
HETATM   14  C   UNL     1      -7.463   8.519  65.836  1.00  0.00    -0.077 A  
HETATM   15  C   UNL     1      -7.329   9.408  67.076  1.00  0.00    -0.087 C  
HETATM   16  C   UNL     1      -6.551  10.691  66.760  1.00  0.00    -0.091 C  
HETATM   17  C   UNL     1      -6.493   7.518  65.625  1.00  0.00    -0.045 A  
HETATM   18  O   UNL     1      -7.148  11.460  65.719  1.00  0.00    -0.354 OA 
HETATM   19  O   UNL     1      -8.580   9.712  69.138  1.00  0.00    -0.130 OA 
HETATM   20  C   UNL     1      -6.428   6.807  64.422  1.00  0.00    -0.038 A  
HETATM   21  H   UNL     1      -6.667  12.255  65.523  1.00  0.00     0.000 HD 
HETATM   22  C   UNL     1      -7.338   7.076  63.406  1.00  0.00    -0.081 A  
HETATM   23  C   UNL     1      -8.327   8.036  63.604  1.00  0.00     0.042 A  
HETATM   24  C   UNL     1      -8.389   8.752  64.807  1.00  0.00    -0.177 A  
ENDBRANCH  12  13
ENDBRANCH   6  12
TORSDOF 2
ENDMDL
MODEL      188
REMARK 921   NORMALIZED FREE ENERGY PREDICTED BY IDOCK:   -3.39 KCAL/MOL
REMARK 922        TOTAL FREE ENERGY PREDICTED BY IDOCK:   -4.29 KCAL/MOL
REMARK 923 INTER-LIGAND FREE ENERGY PREDICTED BY IDOCK:   -3.81 KCAL/MOL
REMARK 924 INTRA-LIGAND FREE ENERGY PREDICTED BY IDOCK:   -0.48 KCAL/MOL
REMARK 927      BINDING AFFINITY PREDICTED BY RF-SCORE:    0.00 PKD
ROOT
HETATM    1  C   UNL     1     -12.373   7.426  71.994  1.00  0.00    -0.266 C  
HETATM    2  N   UNL     1     -10.981   6.862  72.207  1.00  0.00    -0.234 N  
HETATM    3  C   UNL     1      -9.776   7.802  71.919  1.00  0.00    -0.169 C  
HETATM    4  C   UNL     1     -10.945   6.421  73.695  1.00  0.00     0.007 C  
HETATM    5  C   UNL     1      -9.935   8.426  70.513  1.00  0.00    -0.205 C  
HETATM    6  C   UNL     1      -9.972   7.371  69.390  1.00  0.00    -0.176 C  
HETATM    7  C   UNL     1     -10.769   6.107  69.784  1.00  0.00    -0.376 C  
HETATM    8  O   UNL     1      -8.067   6.161  70.908  1.00  0.00    -0.116 OA 
HETATM    9  C   UNL     1     -10.561   5.692  71.274  1.00  0.00    -0.255 C  
HETATM   10  C   UNL     1      -8.568   6.868  72.033  1.00  0.00    -0.121 C  
HETATM   11  C   UNL     1      -9.087   5.486  71.626  1.00  0.00    -0.142 C  
ENDROOT
BRANCH   6  12
HETATM   12  O   UNL     1     -10.210   7.886  68.058  1.00  0.00    -0.192 OA 
BRANCH  12  13
HETATM   13  C   UNL     1     -10.341   7.082  66.983  1.00  0.00    -0.290 C  
HETATM   14  C   UNL     1      -8.253   8.191  65.793  1.00  0.00    -0.126 A  
HETATM   15  C   UNL     1      -9.065   6.942  66.151  1.00  0.00    -0.144 C  
HETATM   16  C   UNL     1      -8.168   5.842  66.730  1.00  0.00    -0.105 C  
HETATM   17  C   UNL     1      -7.767   8.315  64.476  1.00  0.00    -0.123 A  
HETATM   18  O   UNL     1      -7.454   6.262  67.891  1.00  0.00    -0.089 OA 
HETATM   19  O   UNL     1     -11.380   6.484  66.736  1.00  0.00    -0.272 OA 
HETATM   20  C   UNL     1      -6.852   9.314  64.127  1.00  0.00    -0.091 A  
HETATM   21  H   UNL     1      -6.898   5.580  68.250  1.00  0.00     0.000 HD 
HETATM   22  C   UNL     1      -6.410  10.218  65.087  1.00  0.00    -0.123 A  
HETATM   23  C   UNL     1      -6.904  10.137  66.386  1.00  0.00    -0.100 A  
HETATM   24  C   UNL     1      -7.816   9.133  66.738  1.00  0.00    -0.101 A  
ENDBRANCH  12  13
ENDBRANCH   6  12
TORSDOF 2
ENDMDL
MODEL      189
REMARK 921   NORMALIZED FREE ENERGY PREDICTED BY IDOCK:   -3.36 KCAL/MOL
REMARK 922        TOTAL FREE ENERGY PREDICTED BY IDOCK:   -4.27 KCAL/MOL
REMARK 923 INTER-LIGAND FREE ENERGY PREDICTED BY IDOCK:   -4.08 KCAL/MOL
REMARK 924 INTRA-LIGAND FREE ENERGY PREDICTED BY IDOCK:   -0.19 KCAL/MOL
REMARK 927      BINDING AFFINITY PREDICTED BY RF-SCORE:    0.00 PKD
ROOT
HETATM    1  C   UNL     1     -10.976   9.560  69.466  1.00  0.00    -0.195 C  
HETATM    2  N   UNL     1     -11.363   8.920  70.786  1.00  0.00    -0.273 N  
HETATM    3  C   UNL     1     -10.228   8.664  71.818  1.00  0.00    -0.308 C  
HETATM    4  C   UNL     1     -12.416   9.876  71.407  1.00  0.00    -0.398 C  
HETATM    5  C   UNL     1      -9.068   7.907  71.129  1.00  0.00    -0.160 C  
HETATM    6  C   UNL     1      -9.496   6.536  70.570  1.00  0.00    -0.166 C  
HETATM    7  C   UNL     1     -10.905   6.564  69.934  1.00  0.00    -0.341 C  
HETATM    8  O   UNL     1     -10.965   6.425  72.856  1.00  0.00    -0.244 OA 
HETATM    9  C   UNL     1     -11.910   7.467  70.714  1.00  0.00    -0.258 C  
HETATM   10  C   UNL     1     -10.923   7.844  72.907  1.00  0.00    -0.388 C  
HETATM   11  C   UNL     1     -12.033   7.073  72.186  1.00  0.00    -0.261 C  
ENDROOT
BRANCH   6  12
HETATM   12  O   UNL     1      -8.477   5.817  69.834  1.00  0.00    -0.119 OA 
BRANCH  12  13
HETATM   13  C   UNL     1      -7.218   5.670  70.297  1.00  0.00    -0.067 C  
HETATM   14  C   UNL     1      -7.974   3.787  71.996  1.00  0.00    -0.071 A  
HETATM   15  C   UNL     1      -6.961   4.326  70.981  1.00  0.00    -0.036 C  
HETATM   16  C   UNL     1      -6.590   3.261  69.944  1.00  0.00    -0.033 C  
HETATM   17  C   UNL     1      -7.485   3.226  73.193  1.00  0.00    -0.055 A  
HETATM   18  O   UNL     1      -7.720   2.764  69.230  1.00  0.00    -0.047 OA 
HETATM   19  O   UNL     1      -6.356   6.523  70.131  1.00  0.00    -0.037 OA 
HETATM   20  C   UNL     1      -8.324   2.531  74.070  1.00  0.00    -0.067 A  
HETATM   21  H   UNL     1      -7.490   2.104  68.586  1.00  0.00     0.000 HD 
HETATM   22  C   UNL     1      -9.676   2.390  73.773  1.00  0.00    -0.126 A  
HETATM   23  C   UNL     1     -10.189   2.965  72.613  1.00  0.00    -0.234 A  
HETATM   24  C   UNL     1      -9.347   3.656  71.732  1.00  0.00    -0.195 A  
ENDBRANCH  12  13
ENDBRANCH   6  12
TORSDOF 2
ENDMDL
MODEL      190
REMARK 921   NORMALIZED FREE ENERGY PREDICTED BY IDOCK:   -3.35 KCAL/MOL
REMARK 922        TOTAL FREE ENERGY PREDICTED BY IDOCK:   -4.25 KCAL/MOL
REMARK 923 INTER-LIGAND FREE ENERGY PREDICTED BY IDOCK:   -3.72 KCAL/MOL
REMARK 924 INTRA-LIGAND FREE ENERGY PREDICTED BY IDOCK:   -0.54 KCAL/MOL
REMARK 927      BINDING AFFINITY PREDICTED BY RF-SCORE:    0.00 PKD
ROOT
HETATM    1  C   UNL     1     -12.004   6.898  71.343  1.00  0.00    -0.349 C  
HETATM    2  N   UNL     1     -10.807   6.024  71.664  1.00  0.00    -0.251 N  
HETATM    3  C   UNL     1      -9.520   6.732  72.177  1.00  0.00    -0.139 C  
HETATM    4  C   UNL     1     -11.310   5.026  72.742  1.00  0.00    -0.195 C  
HETATM    5  C   UNL     1      -9.150   7.885  71.215  1.00  0.00    -0.161 C  
HETATM    6  C   UNL     1      -8.865   7.401  69.780  1.00  0.00    -0.141 C  
HETATM    7  C   UNL     1      -9.825   6.277  69.328  1.00  0.00    -0.167 C  
HETATM    8  O   UNL     1      -7.673   5.322  71.066  1.00  0.00    -0.091 OA 
HETATM    9  C   UNL     1     -10.165   5.267  70.467  1.00  0.00    -0.264 C  
HETATM   10  C   UNL     1      -8.485   5.605  72.196  1.00  0.00    -0.126 C  
HETATM   11  C   UNL     1      -8.916   4.640  71.088  1.00  0.00    -0.123 C  
ENDROOT
BRANCH   6  12
HETATM   12  O   UNL     1      -8.600   8.444  68.811  1.00  0.00    -0.133 OA 
BRANCH  12  13
HETATM   13  C   UNL     1      -7.360   8.704  68.348  1.00  0.00    -0.086 C  
HETATM   14  C   UNL     1      -7.906  11.281  68.090  1.00  0.00    -0.127 A  
HETATM   15  C   UNL     1      -6.936  10.167  68.494  1.00  0.00    -0.069 C  
HETATM   16  C   UNL     1      -6.351  10.416  69.888  1.00  0.00    -0.095 C  
HETATM   17  C   UNL     1      -7.401  12.370  67.351  1.00  0.00    -0.149 A  
HETATM   18  O   UNL     1      -7.351  10.528  70.898  1.00  0.00    -0.248 OA 
HETATM   19  O   UNL     1      -6.632   7.828  67.899  1.00  0.00    -0.053 OA 
HETATM   20  C   UNL     1      -8.169  13.516  67.123  1.00  0.00    -0.126 A  
HETATM   21  H   UNL     1      -6.989  10.683  71.763  1.00  0.00     0.000 HD 
HETATM   22  C   UNL     1      -9.465  13.595  67.622  1.00  0.00    -0.221 A  
HETATM   23  C   UNL     1      -9.998  12.518  68.325  1.00  0.00    -0.229 A  
HETATM   24  C   UNL     1      -9.227  11.372  68.558  1.00  0.00    -0.174 A  
ENDBRANCH  12  13
ENDBRANCH   6  12
TORSDOF 2
ENDMDL
MODEL      191
REMARK 921   NORMALIZED FREE ENERGY PREDICTED BY IDOCK:   -3.34 KCAL/MOL
REMARK 922        TOTAL FREE ENERGY PREDICTED BY IDOCK:   -4.24 KCAL/MOL
REMARK 923 INTER-LIGAND FREE ENERGY PREDICTED BY IDOCK:   -4.03 KCAL/MOL
REMARK 924 INTRA-LIGAND FREE ENERGY PREDICTED BY IDOCK:   -0.22 KCAL/MOL
REMARK 927      BINDING AFFINITY PREDICTED BY RF-SCORE:    0.00 PKD
ROOT
HETATM    1  C   UNL     1      -8.095   6.851  73.089  1.00  0.00    -0.105 C  
HETATM    2  N   UNL     1      -9.562   6.626  72.775  1.00  0.00    -0.146 N  
HETATM    3  C   UNL     1      -9.911   5.973  71.408  1.00  0.00    -0.173 C  
HETATM    4  C   UNL     1     -10.090   5.727  73.925  1.00  0.00    -0.229 C  
HETATM    5  C   UNL     1      -9.191   6.739  70.273  1.00  0.00    -0.156 C  
HETATM    6  C   UNL     1      -9.607   8.220  70.193  1.00  0.00    -0.167 C  
HETATM    7  C   UNL     1      -9.790   8.866  71.585  1.00  0.00    -0.387 C  
HETATM    8  O   UNL     1     -12.070   7.223  70.769  1.00  0.00    -0.307 OA 
HETATM    9  C   UNL     1     -10.438   7.902  72.626  1.00  0.00    -0.320 C  
HETATM   10  C   UNL     1     -11.435   6.089  71.342  1.00  0.00    -0.199 C  
HETATM   11  C   UNL     1     -11.780   7.342  72.152  1.00  0.00    -0.290 C  
ENDROOT
BRANCH   6  12
HETATM   12  O   UNL     1      -8.901   9.014  69.208  1.00  0.00    -0.135 OA 
BRANCH  12  13
HETATM   13  C   UNL     1      -8.690  10.338  69.360  1.00  0.00    -0.156 C  
HETATM   14  C   UNL     1      -9.337  10.816  66.839  1.00  0.00    -0.179 A  
HETATM   15  C   UNL     1      -9.401  11.204  68.319  1.00  0.00    -0.176 C  
HETATM   16  C   UNL     1     -10.841  11.491  68.758  1.00  0.00    -0.216 C  
HETATM   17  C   UNL     1      -9.100  11.833  65.892  1.00  0.00    -0.128 A  
HETATM   18  O   UNL     1     -11.717  10.387  68.545  1.00  0.00    -0.607 OA 
HETATM   19  O   UNL     1      -8.028  10.793  70.284  1.00  0.00     0.298 OA 
HETATM   20  C   UNL     1      -9.231  11.598  64.520  1.00  0.00     0.138 A  
HETATM   21  H   UNL     1     -12.610  10.565  68.817  1.00  0.00     0.000 HD 
HETATM   22  C   UNL     1      -9.593  10.335  64.063  1.00  0.00    -0.365 A  
HETATM   23  C   UNL     1      -9.797   9.305  64.977  1.00  0.00     0.273 A  
HETATM   24  C   UNL     1      -9.672   9.542  66.352  1.00  0.00    -0.295 A  
ENDBRANCH  12  13
ENDBRANCH   6  12
TORSDOF 2
ENDMDL
MODEL      192
REMARK 921   NORMALIZED FREE ENERGY PREDICTED BY IDOCK:   -3.32 KCAL/MOL
REMARK 922        TOTAL FREE ENERGY PREDICTED BY IDOCK:   -4.22 KCAL/MOL
REMARK 923 INTER-LIGAND FREE ENERGY PREDICTED BY IDOCK:   -3.40 KCAL/MOL
REMARK 924 INTRA-LIGAND FREE ENERGY PREDICTED BY IDOCK:   -0.82 KCAL/MOL
REMARK 927      BINDING AFFINITY PREDICTED BY RF-SCORE:    0.00 PKD
ROOT
HETATM    1  C   UNL     1      -8.159   8.939  70.593  1.00  0.00    -0.144 C  
HETATM    2  N   UNL     1      -9.368   8.085  70.921  1.00  0.00    -0.152 N  
HETATM    3  C   UNL     1      -9.136   6.560  71.121  1.00  0.00    -0.152 C  
HETATM    4  C   UNL     1      -9.952   8.692  72.225  1.00  0.00    -0.291 C  
HETATM    5  C   UNL     1      -8.344   5.999  69.917  1.00  0.00    -0.123 C  
HETATM    6  C   UNL     1      -9.084   6.177  68.577  1.00  0.00    -0.117 C  
HETATM    7  C   UNL     1      -9.813   7.536  68.474  1.00  0.00    -0.170 C  
HETATM    8  O   UNL     1     -11.270   5.567  70.075  1.00  0.00    -0.167 OA 
HETATM    9  C   UNL     1     -10.462   7.986  69.820  1.00  0.00    -0.227 C  
HETATM   10  C   UNL     1     -10.556   6.000  71.224  1.00  0.00    -0.246 C  
HETATM   11  C   UNL     1     -11.425   6.942  70.386  1.00  0.00    -0.338 C  
ENDROOT
BRANCH   6  12
HETATM   12  O   UNL     1      -8.354   5.753  67.400  1.00  0.00    -0.105 OA 
BRANCH  12  13
HETATM   13  C   UNL     1      -8.943   5.614  66.194  1.00  0.00    -0.151 C  
HETATM   14  C   UNL     1      -7.666   7.724  65.235  1.00  0.00    -0.102 A  
HETATM   15  C   UNL     1      -8.187   6.296  65.052  1.00  0.00    -0.132 C  
HETATM   16  C   UNL     1      -7.095   5.369  64.506  1.00  0.00    -0.050 C  
HETATM   17  C   UNL     1      -7.842   8.639  64.177  1.00  0.00    -0.141 A  
HETATM   18  O   UNL     1      -5.940   5.322  65.340  1.00  0.00    -0.024 OA 
HETATM   19  O   UNL     1      -9.963   4.956  66.036  1.00  0.00    -0.187 OA 
HETATM   20  C   UNL     1      -7.218   9.891  64.183  1.00  0.00    -0.134 A  
HETATM   21  H   UNL     1      -5.263   4.747  65.003  1.00  0.00     0.000 HD 
HETATM   22  C   UNL     1      -6.410  10.259  65.253  1.00  0.00    -0.125 A  
HETATM   23  C   UNL     1      -6.249   9.386  66.326  1.00  0.00    -0.064 A  
HETATM   24  C   UNL     1      -6.869   8.130  66.318  1.00  0.00    -0.058 A  
ENDBRANCH  12  13
ENDBRANCH   6  12
TORSDOF 2
ENDMDL
MODEL      193
REMARK 921   NORMALIZED FREE ENERGY PREDICTED BY IDOCK:   -3.32 KCAL/MOL
REMARK 922        TOTAL FREE ENERGY PREDICTED BY IDOCK:   -4.22 KCAL/MOL
REMARK 923 INTER-LIGAND FREE ENERGY PREDICTED BY IDOCK:   -3.92 KCAL/MOL
REMARK 924 INTRA-LIGAND FREE ENERGY PREDICTED BY IDOCK:   -0.29 KCAL/MOL
REMARK 927      BINDING AFFINITY PREDICTED BY RF-SCORE:    0.00 PKD
ROOT
HETATM    1  C   UNL     1     -13.110   9.495  70.588  1.00  0.00     0.125 C  
HETATM    2  N   UNL     1     -12.564   8.538  71.631  1.00  0.00    -0.321 N  
HETATM    3  C   UNL     1     -11.120   8.793  72.151  1.00  0.00    -0.336 C  
HETATM    4  C   UNL     1     -13.560   8.619  72.818  1.00  0.00    -0.123 C  
HETATM    5  C   UNL     1     -10.160   8.944  70.948  1.00  0.00    -0.304 C  
HETATM    6  C   UNL     1     -10.111   7.686  70.059  1.00  0.00    -0.204 C  
HETATM    7  C   UNL     1     -11.497   7.026  69.880  1.00  0.00    -0.223 C  
HETATM    8  O   UNL     1     -10.242   6.390  72.446  1.00  0.00    -0.184 OA 
HETATM    9  C   UNL     1     -12.364   7.064  71.177  1.00  0.00    -0.378 C  
HETATM   10  C   UNL     1     -10.831   7.556  73.004  1.00  0.00    -0.392 C  
HETATM   11  C   UNL     1     -11.657   6.430  72.375  1.00  0.00    -0.269 C  
ENDROOT
BRANCH   6  12
HETATM   12  O   UNL     1      -9.297   7.798  68.866  1.00  0.00    -0.147 OA 
BRANCH  12  13
HETATM   13  C   UNL     1      -9.747   8.378  67.734  1.00  0.00    -0.162 C  
HETATM   14  C   UNL     1      -7.739  10.101  67.718  1.00  0.00    -0.090 A  
HETATM   15  C   UNL     1      -8.677   9.153  66.964  1.00  0.00    -0.131 C  
HETATM   16  C   UNL     1      -7.894   8.211  66.043  1.00  0.00    -0.093 C  
HETATM   17  C   UNL     1      -7.473  11.365  67.153  1.00  0.00    -0.138 A  
HETATM   18  O   UNL     1      -6.930   7.427  66.741  1.00  0.00    -0.073 OA 
HETATM   19  O   UNL     1     -10.900   8.245  67.344  1.00  0.00    -0.219 OA 
HETATM   20  C   UNL     1      -6.476  12.200  67.669  1.00  0.00    -0.110 A  
HETATM   21  H   UNL     1      -6.445   6.842  66.170  1.00  0.00     0.000 HD 
HETATM   22  C   UNL     1      -5.728  11.791  68.768  1.00  0.00    -0.049 A  
HETATM   23  C   UNL     1      -5.996  10.562  69.364  1.00  0.00    -0.039 A  
HETATM   24  C   UNL     1      -6.991   9.723  68.844  1.00  0.00    -0.062 A  
ENDBRANCH  12  13
ENDBRANCH   6  12
TORSDOF 2
ENDMDL
MODEL      194
REMARK 921   NORMALIZED FREE ENERGY PREDICTED BY IDOCK:   -3.30 KCAL/MOL
REMARK 922        TOTAL FREE ENERGY PREDICTED BY IDOCK:   -4.20 KCAL/MOL
REMARK 923 INTER-LIGAND FREE ENERGY PREDICTED BY IDOCK:   -3.73 KCAL/MOL
REMARK 924 INTRA-LIGAND FREE ENERGY PREDICTED BY IDOCK:   -0.47 KCAL/MOL
REMARK 927      BINDING AFFINITY PREDICTED BY RF-SCORE:    0.00 PKD
ROOT
HETATM    1  C   UNL     1     -10.330   5.860  67.465  1.00  0.00    -0.215 C  
HETATM    2  N   UNL     1      -9.029   5.786  68.241  1.00  0.00    -0.115 N  
HETATM    3  C   UNL     1      -8.984   6.481  69.632  1.00  0.00    -0.141 C  
HETATM    4  C   UNL     1      -8.745   4.270  68.413  1.00  0.00    -0.098 C  
HETATM    5  C   UNL     1      -9.492   7.935  69.497  1.00  0.00    -0.160 C  
HETATM    6  C   UNL     1      -8.637   8.782  68.535  1.00  0.00    -0.134 C  
HETATM    7  C   UNL     1      -8.179   7.990  67.289  1.00  0.00    -0.122 C  
HETATM    8  O   UNL     1      -6.583   7.410  69.672  1.00  0.00    -0.038 OA 
HETATM    9  C   UNL     1      -7.807   6.509  67.608  1.00  0.00    -0.110 C  
HETATM   10  C   UNL     1      -7.507   6.390  70.021  1.00  0.00    -0.091 C  
HETATM   11  C   UNL     1      -6.739   6.393  68.697  1.00  0.00    -0.061 C  
ENDROOT
BRANCH   6  12
HETATM   12  O   UNL     1      -9.114  10.128  68.297  1.00  0.00    -0.120 OA 
BRANCH  12  13
HETATM   13  C   UNL     1     -10.158  10.393  67.485  1.00  0.00    -0.192 C  
HETATM   14  C   UNL     1      -9.381  12.903  67.164  1.00  0.00    -0.229 A  
HETATM   15  C   UNL     1      -9.948  11.607  66.577  1.00  0.00    -0.230 C  
HETATM   16  C   UNL     1      -9.200  11.197  65.304  1.00  0.00    -0.198 C  
HETATM   17  C   UNL     1      -9.976  14.123  66.786  1.00  0.00    -0.267 A  
HETATM   18  O   UNL     1      -7.801  11.020  65.515  1.00  0.00    -0.352 OA 
HETATM   19  O   UNL     1     -11.158   9.687  67.452  1.00  0.00    -0.183 OA 
HETATM   20  C   UNL     1      -9.392  15.352  67.112  1.00  0.00    -0.225 A  
HETATM   21  H   UNL     1      -7.337  10.766  64.725  1.00  0.00     0.000 HD 
HETATM   22  C   UNL     1      -8.203  15.387  67.832  1.00  0.00    -0.150 A  
HETATM   23  C   UNL     1      -7.615  14.195  68.247  1.00  0.00    -0.130 A  
HETATM   24  C   UNL     1      -8.197  12.964  67.916  1.00  0.00    -0.165 A  
ENDBRANCH  12  13
ENDBRANCH   6  12
TORSDOF 2
ENDMDL
MODEL      195
REMARK 921   NORMALIZED FREE ENERGY PREDICTED BY IDOCK:   -3.30 KCAL/MOL
REMARK 922        TOTAL FREE ENERGY PREDICTED BY IDOCK:   -4.20 KCAL/MOL
REMARK 923 INTER-LIGAND FREE ENERGY PREDICTED BY IDOCK:   -4.22 KCAL/MOL
REMARK 924 INTRA-LIGAND FREE ENERGY PREDICTED BY IDOCK:    0.02 KCAL/MOL
REMARK 927      BINDING AFFINITY PREDICTED BY RF-SCORE:    0.00 PKD
ROOT
HETATM    1  C   UNL     1     -11.803   6.926  71.290  1.00  0.00    -0.341 C  
HETATM    2  N   UNL     1     -10.729   5.998  71.822  1.00  0.00    -0.235 N  
HETATM    3  C   UNL     1      -9.379   6.637  72.255  1.00  0.00    -0.136 C  
HETATM    4  C   UNL     1     -11.375   5.286  73.040  1.00  0.00    -0.309 C  
HETATM    5  C   UNL     1      -8.848   7.538  71.115  1.00  0.00    -0.142 C  
HETATM    6  C   UNL     1      -8.589   6.762  69.810  1.00  0.00    -0.141 C  
HETATM    7  C   UNL     1      -9.667   5.691  69.528  1.00  0.00    -0.206 C  
HETATM    8  O   UNL     1      -7.690   4.841  71.511  1.00  0.00    -0.086 OA 
HETATM    9  C   UNL     1     -10.155   4.960  70.817  1.00  0.00    -0.233 C  
HETATM   10  C   UNL     1      -8.489   5.424  72.531  1.00  0.00    -0.118 C  
HETATM   11  C   UNL     1      -9.006   4.322  71.601  1.00  0.00    -0.120 C  
ENDROOT
BRANCH   6  12
HETATM   12  O   UNL     1      -8.176   7.566  68.678  1.00  0.00    -0.126 OA 
BRANCH  12  13
HETATM   13  C   UNL     1      -8.573   8.846  68.515  1.00  0.00    -0.133 C  
HETATM   14  C   UNL     1      -8.605   8.589  65.881  1.00  0.00    -0.183 A  
HETATM   15  C   UNL     1      -9.242   9.123  67.168  1.00  0.00    -0.162 C  
HETATM   16  C   UNL     1     -10.735   8.781  67.234  1.00  0.00    -0.147 C  
HETATM   17  C   UNL     1      -8.540   9.446  64.764  1.00  0.00    -0.202 A  
HETATM   18  O   UNL     1     -10.988   7.380  67.155  1.00  0.00    -0.512 OA 
HETATM   19  O   UNL     1      -8.446   9.687  69.396  1.00  0.00    -0.131 OA 
HETATM   20  C   UNL     1      -8.165   8.973  63.502  1.00  0.00    -0.178 A  
HETATM   21  H   UNL     1     -11.913   7.168  67.196  1.00  0.00     0.000 HD 
HETATM   22  C   UNL     1      -7.838   7.633  63.332  1.00  0.00    -0.125 A  
HETATM   23  C   UNL     1      -7.861   6.774  64.428  1.00  0.00    -0.113 A  
HETATM   24  C   UNL     1      -8.242   7.246  65.691  1.00  0.00    -0.138 A  
ENDBRANCH  12  13
ENDBRANCH   6  12
TORSDOF 2
ENDMDL
MODEL      196
REMARK 921   NORMALIZED FREE ENERGY PREDICTED BY IDOCK:   -3.27 KCAL/MOL
REMARK 922        TOTAL FREE ENERGY PREDICTED BY IDOCK:   -4.17 KCAL/MOL
REMARK 923 INTER-LIGAND FREE ENERGY PREDICTED BY IDOCK:   -3.66 KCAL/MOL
REMARK 924 INTRA-LIGAND FREE ENERGY PREDICTED BY IDOCK:   -0.51 KCAL/MOL
REMARK 927      BINDING AFFINITY PREDICTED BY RF-SCORE:    0.00 PKD
ROOT
HETATM    1  C   UNL     1      -8.190  10.181  69.071  1.00  0.00    -0.132 C  
HETATM    2  N   UNL     1      -8.774  10.761  67.798  1.00  0.00    -0.129 N  
HETATM    3  C   UNL     1     -10.249  10.403  67.458  1.00  0.00    -0.210 C  
HETATM    4  C   UNL     1      -8.641  12.299  67.954  1.00  0.00    -0.169 C  
HETATM    5  C   UNL     1     -10.436   8.869  67.531  1.00  0.00    -0.337 C  
HETATM    6  C   UNL     1      -9.540   8.109  66.534  1.00  0.00    -0.234 C  
HETATM    7  C   UNL     1      -8.127   8.724  66.411  1.00  0.00    -0.103 C  
HETATM    8  O   UNL     1     -10.156  10.188  64.893  1.00  0.00    -0.330 OA 
HETATM    9  C   UNL     1      -8.133  10.284  66.464  1.00  0.00    -0.121 C  
HETATM   10  C   UNL     1     -10.432  10.968  66.048  1.00  0.00    -0.245 C  
HETATM   11  C   UNL     1      -9.044  10.904  65.404  1.00  0.00    -0.198 C  
ENDROOT
BRANCH   6  12
HETATM   12  O   UNL     1      -9.603   6.664  66.616  1.00  0.00    -0.163 OA 
BRANCH  12  13
HETATM   13  C   UNL     1      -8.897   5.959  67.524  1.00  0.00    -0.106 C  
HETATM   14  C   UNL     1      -8.864   3.822  65.963  1.00  0.00    -0.126 A  
HETATM   15  C   UNL     1      -8.146   4.763  66.936  1.00  0.00    -0.107 C  
HETATM   16  C   UNL     1      -6.787   5.206  66.383  1.00  0.00    -0.062 C  
HETATM   17  C   UNL     1      -8.686   2.433  66.126  1.00  0.00    -0.123 A  
HETATM   18  O   UNL     1      -6.888   5.858  65.119  1.00  0.00    -0.049 OA 
HETATM   19  O   UNL     1      -8.833   6.288  68.702  1.00  0.00    -0.120 OA 
HETATM   20  C   UNL     1      -9.135   1.523  65.163  1.00  0.00    -0.115 A  
HETATM   21  H   UNL     1      -6.046   6.133  64.776  1.00  0.00     0.000 HD 
HETATM   22  C   UNL     1      -9.781   1.982  64.020  1.00  0.00    -0.130 A  
HETATM   23  C   UNL     1      -9.999   3.347  63.855  1.00  0.00    -0.178 A  
HETATM   24  C   UNL     1      -9.545   4.259  64.816  1.00  0.00    -0.169 A  
ENDBRANCH  12  13
ENDBRANCH   6  12
TORSDOF 2
ENDMDL
MODEL      197
REMARK 921   NORMALIZED FREE ENERGY PREDICTED BY IDOCK:   -3.24 KCAL/MOL
REMARK 922        TOTAL FREE ENERGY PREDICTED BY IDOCK:   -4.13 KCAL/MOL
REMARK 923 INTER-LIGAND FREE ENERGY PREDICTED BY IDOCK:   -3.45 KCAL/MOL
REMARK 924 INTRA-LIGAND FREE ENERGY PREDICTED BY IDOCK:   -0.68 KCAL/MOL
REMARK 927      BINDING AFFINITY PREDICTED BY RF-SCORE:    0.00 PKD
ROOT
HETATM    1  C   UNL     1      -9.202  11.299  65.338  1.00  0.00    -0.183 C  
HETATM    2  N   UNL     1     -10.328  11.940  64.550  1.00  0.00    -0.277 N  
HETATM    3  C   UNL     1     -10.353  13.493  64.471  1.00  0.00    -0.358 C  
HETATM    4  C   UNL     1     -10.205  11.355  63.117  1.00  0.00    -0.334 C  
HETATM    5  C   UNL     1     -10.241  14.082  65.897  1.00  0.00    -0.332 C  
HETATM    6  C   UNL     1     -11.399  13.651  66.817  1.00  0.00    -0.328 C  
HETATM    7  C   UNL     1     -11.813  12.177  66.605  1.00  0.00    -0.314 C  
HETATM    8  O   UNL     1     -12.882  13.977  64.561  1.00  0.00    -0.644 OA 
HETATM    9  C   UNL     1     -11.764  11.736  65.109  1.00  0.00    -0.087 C  
HETATM   10  C   UNL     1     -11.697  13.788  63.800  1.00  0.00    -0.180 C  
HETATM   11  C   UNL     1     -12.614  12.631  64.205  1.00  0.00    -0.368 C  
ENDROOT
BRANCH   6  12
HETATM   12  O   UNL     1     -11.303  14.096  68.191  1.00  0.00    -0.263 OA 
BRANCH  12  13
HETATM   13  C   UNL     1     -12.231  14.892  68.761  1.00  0.00    -0.087 C  
HETATM   14  C   UNL     1     -12.582  13.194  70.761  1.00  0.00    -0.338 A  
HETATM   15  C   UNL     1     -12.441  14.633  70.254  1.00  0.00    -0.401 C  
HETATM   16  C   UNL     1     -11.416  15.417  71.081  1.00  0.00    -0.376 C  
HETATM   17  C   UNL     1     -13.587  12.916  71.710  1.00  0.00    -0.258 A  
HETATM   18  O   UNL     1     -10.125  14.813  71.082  1.00  0.00     0.355 OA 
HETATM   19  O   UNL     1     -12.810  15.773  68.138  1.00  0.00     1.309 OA 
HETATM   20  C   UNL     1     -13.647  11.685  72.370  1.00  0.00     0.190 A  
HETATM   21  H   UNL     1      -9.489  15.299  71.595  1.00  0.00     0.000 HD 
HETATM   22  C   UNL     1     -12.707  10.699  72.089  1.00  0.00    -0.117 A  
HETATM   23  C   UNL     1     -11.726  10.938  71.130  1.00  0.00    -0.038 A  
HETATM   24  C   UNL     1     -11.662  12.173  70.472  1.00  0.00    -0.017 A  
ENDBRANCH  12  13
ENDBRANCH   6  12
TORSDOF 2
ENDMDL
MODEL      198
REMARK 921   NORMALIZED FREE ENERGY PREDICTED BY IDOCK:   -3.20 KCAL/MOL
REMARK 922        TOTAL FREE ENERGY PREDICTED BY IDOCK:   -4.09 KCAL/MOL
REMARK 923 INTER-LIGAND FREE ENERGY PREDICTED BY IDOCK:   -3.37 KCAL/MOL
REMARK 924 INTRA-LIGAND FREE ENERGY PREDICTED BY IDOCK:   -0.72 KCAL/MOL
REMARK 927      BINDING AFFINITY PREDICTED BY RF-SCORE:    0.00 PKD
ROOT
HETATM    1  C   UNL     1     -10.627   9.794  69.620  1.00  0.00    -0.239 C  
HETATM    2  N   UNL     1     -10.968  11.174  69.090  1.00  0.00    -0.227 N  
HETATM    3  C   UNL     1     -11.527  11.267  67.642  1.00  0.00    -0.264 C  
HETATM    4  C   UNL     1     -12.015  11.743  70.084  1.00  0.00    -0.339 C  
HETATM    5  C   UNL     1     -10.595  10.495  66.679  1.00  0.00    -0.263 C  
HETATM    6  C   UNL     1      -9.161  11.059  66.654  1.00  0.00    -0.166 C  
HETATM    7  C   UNL     1      -8.664  11.493  68.052  1.00  0.00    -0.151 C  
HETATM    8  O   UNL     1     -10.447  13.451  66.806  1.00  0.00    -0.270 OA 
HETATM    9  C   UNL     1      -9.778  12.159  68.917  1.00  0.00     0.119 C  
HETATM   10  C   UNL     1     -11.559  12.773  67.375  1.00  0.00    -0.356 C  
HETATM   11  C   UNL     1     -10.424  13.358  68.221  1.00  0.00    -0.250 C  
ENDROOT
BRANCH   6  12
HETATM   12  O   UNL     1      -8.216  10.324  65.839  1.00  0.00    -0.135 OA 
BRANCH  12  13
HETATM   13  C   UNL     1      -6.886  10.363  66.060  1.00  0.00    -0.128 C  
HETATM   14  C   UNL     1      -6.925   7.988  67.228  1.00  0.00    -0.075 A  
HETATM   15  C   UNL     1      -6.252   8.988  66.283  1.00  0.00    -0.064 C  
HETATM   16  C   UNL     1      -5.902   8.338  64.940  1.00  0.00    -0.045 C  
HETATM   17  C   UNL     1      -6.112   7.273  68.131  1.00  0.00    -0.031 A  
HETATM   18  O   UNL     1      -7.038   7.788  64.277  1.00  0.00    -0.068 OA 
HETATM   19  O   UNL     1      -6.248  11.407  66.031  1.00  0.00    -0.032 OA 
HETATM   20  C   UNL     1      -6.617   6.203  68.877  1.00  0.00    -0.051 A  
HETATM   21  H   UNL     1      -6.821   7.385  63.444  1.00  0.00     0.000 HD 
HETATM   22  C   UNL     1      -7.950   5.829  68.742  1.00  0.00    -0.101 A  
HETATM   23  C   UNL     1      -8.780   6.542  67.882  1.00  0.00    -0.116 A  
HETATM   24  C   UNL     1      -8.274   7.611  67.131  1.00  0.00    -0.118 A  
ENDBRANCH  12  13
ENDBRANCH   6  12
TORSDOF 2
ENDMDL
MODEL      199
REMARK 921   NORMALIZED FREE ENERGY PREDICTED BY IDOCK:   -3.17 KCAL/MOL
REMARK 922        TOTAL FREE ENERGY PREDICTED BY IDOCK:   -4.05 KCAL/MOL
REMARK 923 INTER-LIGAND FREE ENERGY PREDICTED BY IDOCK:   -3.30 KCAL/MOL
REMARK 924 INTRA-LIGAND FREE ENERGY PREDICTED BY IDOCK:   -0.76 KCAL/MOL
REMARK 927      BINDING AFFINITY PREDICTED BY RF-SCORE:    0.00 PKD
ROOT
HETATM    1  C   UNL     1     -11.290   9.231  70.403  1.00  0.00    -0.242 C  
HETATM    2  N   UNL     1     -10.877  10.215  69.325  1.00  0.00    -0.223 N  
HETATM    3  C   UNL     1     -11.089   9.786  67.845  1.00  0.00    -0.096 C  
HETATM    4  C   UNL     1     -11.699  11.500  69.612  1.00  0.00    -0.351 C  
HETATM    5  C   UNL     1     -10.465   8.389  67.619  1.00  0.00    -0.307 C  
HETATM    6  C   UNL     1      -8.949   8.360  67.892  1.00  0.00    -0.137 C  
HETATM    7  C   UNL     1      -8.544   9.213  69.115  1.00  0.00    -0.133 C  
HETATM    8  O   UNL     1      -9.017  10.806  66.706  1.00  0.00    -0.144 OA 
HETATM    9  C   UNL     1      -9.359  10.539  69.232  1.00  0.00    -0.160 C  
HETATM   10  C   UNL     1     -10.390  10.895  67.055  1.00  0.00    -0.231 C  
HETATM   11  C   UNL     1      -9.269  11.397  67.969  1.00  0.00    -0.171 C  
ENDROOT
BRANCH   6  12
HETATM   12  O   UNL     1      -8.322   7.059  67.785  1.00  0.00    -0.116 OA 
BRANCH  12  13
HETATM   13  C   UNL     1      -7.007   6.866  68.022  1.00  0.00    -0.083 C  
HETATM   14  C   UNL     1      -7.484   6.064  70.498  1.00  0.00    -0.090 A  
HETATM   15  C   UNL     1      -6.717   5.911  69.181  1.00  0.00    -0.060 C  
HETATM   16  C   UNL     1      -6.732   4.459  68.692  1.00  0.00    -0.047 C  
HETATM   17  C   UNL     1      -6.763   5.969  71.705  1.00  0.00    -0.059 A  
HETATM   18  O   UNL     1      -8.050   3.949  68.505  1.00  0.00    -0.074 OA 
HETATM   19  O   UNL     1      -6.136   7.378  67.330  1.00  0.00    -0.043 OA 
HETATM   20  C   UNL     1      -7.414   5.891  72.940  1.00  0.00    -0.095 A  
HETATM   21  H   UNL     1      -8.060   3.049  68.202  1.00  0.00     0.000 HD 
HETATM   22  C   UNL     1      -8.803   5.915  72.996  1.00  0.00    -0.122 A  
HETATM   23  C   UNL     1      -9.537   6.044  71.820  1.00  0.00    -0.168 A  
HETATM   24  C   UNL     1      -8.885   6.116  70.582  1.00  0.00    -0.143 A  
ENDBRANCH  12  13
ENDBRANCH   6  12
TORSDOF 2
ENDMDL
MODEL      200
REMARK 921   NORMALIZED FREE ENERGY PREDICTED BY IDOCK:   -3.15 KCAL/MOL
REMARK 922        TOTAL FREE ENERGY PREDICTED BY IDOCK:   -4.03 KCAL/MOL
REMARK 923 INTER-LIGAND FREE ENERGY PREDICTED BY IDOCK:   -3.36 KCAL/MOL
REMARK 924 INTRA-LIGAND FREE ENERGY PREDICTED BY IDOCK:   -0.67 KCAL/MOL
REMARK 927      BINDING AFFINITY PREDICTED BY RF-SCORE:    0.00 PKD
ROOT
HETATM    1  C   UNL     1      -9.533   4.287  63.751  1.00  0.00    -0.118 C  
HETATM    2  N   UNL     1      -8.203   3.812  64.306  1.00  0.00    -0.090 N  
HETATM    3  C   UNL     1      -8.237   2.703  65.397  1.00  0.00    -0.089 C  
HETATM    4  C   UNL     1      -7.410   3.299  63.075  1.00  0.00    -0.053 C  
HETATM    5  C   UNL     1      -9.215   3.118  66.521  1.00  0.00    -0.155 C  
HETATM    6  C   UNL     1      -8.807   4.431  67.216  1.00  0.00    -0.108 C  
HETATM    7  C   UNL     1      -8.254   5.483  66.228  1.00  0.00    -0.111 C  
HETATM    8  O   UNL     1      -6.297   3.424  66.930  1.00  0.00    -0.034 OA 
HETATM    9  C   UNL     1      -7.374   4.860  65.100  1.00  0.00    -0.072 C  
HETATM   10  C   UNL     1      -6.781   2.624  65.861  1.00  0.00    -0.039 C  
HETATM   11  C   UNL     1      -6.213   4.031  65.652  1.00  0.00    -0.031 C  
ENDROOT
BRANCH   6  12
HETATM   12  O   UNL     1      -9.732   4.920  68.217  1.00  0.00    -0.138 OA 
BRANCH  12  13
HETATM   13  C   UNL     1      -9.426   4.953  69.531  1.00  0.00    -0.148 C  
HETATM   14  C   UNL     1      -9.405   7.599  69.546  1.00  0.00    -0.153 A  
HETATM   15  C   UNL     1      -9.776   6.274  70.218  1.00  0.00    -0.189 C  
HETATM   16  C   UNL     1     -11.241   6.269  70.669  1.00  0.00    -0.337 C  
HETATM   17  C   UNL     1      -8.847   8.618  70.343  1.00  0.00    -0.170 A  
HETATM   18  O   UNL     1     -12.153   6.499  69.598  1.00  0.00    -0.545 OA 
HETATM   19  O   UNL     1      -8.956   3.987  70.118  1.00  0.00    -0.081 OA 
HETATM   20  C   UNL     1      -8.674   9.917  69.853  1.00  0.00    -0.225 A  
HETATM   21  H   UNL     1     -13.061   6.496  69.877  1.00  0.00     0.000 HD 
HETATM   22  C   UNL     1      -9.048  10.223  68.549  1.00  0.00    -0.138 A  
HETATM   23  C   UNL     1      -9.569   9.224  67.731  1.00  0.00    -0.167 A  
HETATM   24  C   UNL     1      -9.748   7.924  68.223  1.00  0.00    -0.172 A  
ENDBRANCH  12  13
ENDBRANCH   6  12
TORSDOF 2
ENDMDL
MODEL      201
REMARK 921   NORMALIZED FREE ENERGY PREDICTED BY IDOCK:   -3.13 KCAL/MOL
REMARK 922        TOTAL FREE ENERGY PREDICTED BY IDOCK:   -4.00 KCAL/MOL
REMARK 923 INTER-LIGAND FREE ENERGY PREDICTED BY IDOCK:   -4.02 KCAL/MOL
REMARK 924 INTRA-LIGAND FREE ENERGY PREDICTED BY IDOCK:    0.02 KCAL/MOL
REMARK 927      BINDING AFFINITY PREDICTED BY RF-SCORE:    0.00 PKD
ROOT
HETATM    1  C   UNL     1     -11.363  10.517  69.113  1.00  0.00    -0.257 C  
HETATM    2  N   UNL     1     -10.249  11.093  68.260  1.00  0.00    -0.175 N  
HETATM    3  C   UNL     1     -10.218  10.692  66.757  1.00  0.00    -0.233 C  
HETATM    4  C   UNL     1     -10.402  12.633  68.379  1.00  0.00    -0.235 C  
HETATM    5  C   UNL     1     -10.300   9.153  66.633  1.00  0.00    -0.289 C  
HETATM    6  C   UNL     1      -9.126   8.433  67.324  1.00  0.00    -0.137 C  
HETATM    7  C   UNL     1      -8.723   9.093  68.662  1.00  0.00    -0.129 C  
HETATM    8  O   UNL     1      -7.686  10.509  66.321  1.00  0.00    -0.123 OA 
HETATM    9  C   UNL     1      -8.804  10.651  68.623  1.00  0.00    -0.151 C  
HETATM   10  C   UNL     1      -8.886  11.267  66.269  1.00  0.00    -0.191 C  
HETATM   11  C   UNL     1      -7.967  11.254  67.494  1.00  0.00    -0.124 C  
ENDROOT
BRANCH   6  12
HETATM   12  O   UNL     1      -9.194   6.986  67.321  1.00  0.00    -0.125 OA 
BRANCH  12  13
HETATM   13  C   UNL     1     -10.348   6.314  67.513  1.00  0.00    -0.200 C  
HETATM   14  C   UNL     1      -9.060   4.198  68.445  1.00  0.00    -0.179 A  
HETATM   15  C   UNL     1     -10.241   5.170  68.523  1.00  0.00    -0.182 C  
HETATM   16  C   UNL     1     -10.435   5.697  69.949  1.00  0.00    -0.308 C  
HETATM   17  C   UNL     1      -9.318   2.821  68.594  1.00  0.00    -0.240 A  
HETATM   18  O   UNL     1      -9.278   6.355  70.460  1.00  0.00    -0.157 OA 
HETATM   19  O   UNL     1     -11.392   6.635  66.959  1.00  0.00    -0.348 OA 
HETATM   20  C   UNL     1      -8.280   1.895  68.740  1.00  0.00    -0.073 A  
HETATM   21  H   UNL     1      -9.399   6.682  71.344  1.00  0.00     0.000 HD 
HETATM   22  C   UNL     1      -6.958   2.326  68.731  1.00  0.00    -0.040 A  
HETATM   23  C   UNL     1      -6.677   3.678  68.550  1.00  0.00    -0.046 A  
HETATM   24  C   UNL     1      -7.716   4.606  68.409  1.00  0.00    -0.080 A  
ENDBRANCH  12  13
ENDBRANCH   6  12
TORSDOF 2
ENDMDL
MODEL      202
REMARK 921   NORMALIZED FREE ENERGY PREDICTED BY IDOCK:   -3.06 KCAL/MOL
REMARK 922        TOTAL FREE ENERGY PREDICTED BY IDOCK:   -3.93 KCAL/MOL
REMARK 923 INTER-LIGAND FREE ENERGY PREDICTED BY IDOCK:   -3.45 KCAL/MOL
REMARK 924 INTRA-LIGAND FREE ENERGY PREDICTED BY IDOCK:   -0.47 KCAL/MOL
REMARK 927      BINDING AFFINITY PREDICTED BY RF-SCORE:    0.00 PKD
ROOT
HETATM    1  C   UNL     1     -11.047   6.878  69.621  1.00  0.00    -0.258 C  
HETATM    2  N   UNL     1     -11.729   8.098  70.207  1.00  0.00    -0.002 N  
HETATM    3  C   UNL     1     -12.100   9.250  69.230  1.00  0.00     1.365 C  
HETATM    4  C   UNL     1     -13.020   7.558  70.879  1.00  0.00    -0.007 C  
HETATM    5  C   UNL     1     -10.858   9.633  68.391  1.00  0.00    -0.212 C  
HETATM    6  C   UNL     1      -9.681  10.125  69.254  1.00  0.00    -0.224 C  
HETATM    7  C   UNL     1      -9.527   9.325  70.568  1.00  0.00    -0.317 C  
HETATM    8  O   UNL     1     -11.656  11.329  70.685  1.00  0.00    -0.262 OA 
HETATM    9  C   UNL     1     -10.894   8.940  71.213  1.00  0.00    -0.290 C  
HETATM   10  C   UNL     1     -12.565  10.368  70.167  1.00  0.00    -0.130 C  
HETATM   11  C   UNL     1     -11.786  10.155  71.468  1.00  0.00    -0.272 C  
ENDROOT
BRANCH   6  12
HETATM   12  O   UNL     1      -8.458  10.413  68.534  1.00  0.00    -0.117 OA 
BRANCH  12  13
HETATM   13  C   UNL     1      -7.870   9.515  67.717  1.00  0.00    -0.095 C  
HETATM   14  C   UNL     1      -8.976  10.613  65.577  1.00  0.00    -0.209 A  
HETATM   15  C   UNL     1      -7.763   9.976  66.262  1.00  0.00    -0.105 C  
HETATM   16  C   UNL     1      -6.501  10.823  66.062  1.00  0.00    -0.117 C  
HETATM   17  C   UNL     1      -9.285  10.215  64.261  1.00  0.00    -0.312 A  
HETATM   18  O   UNL     1      -6.644  12.155  66.550  1.00  0.00    -0.407 OA 
HETATM   19  O   UNL     1      -7.422   8.452  68.126  1.00  0.00    -0.093 OA 
HETATM   20  C   UNL     1     -10.242  10.893  63.499  1.00  0.00    -0.379 A  
HETATM   21  H   UNL     1      -5.862  12.680  66.427  1.00  0.00     0.000 HD 
HETATM   22  C   UNL     1     -10.919  11.979  64.041  1.00  0.00    -0.442 A  
HETATM   23  C   UNL     1     -10.657  12.369  65.352  1.00  0.00    -0.316 A  
HETATM   24  C   UNL     1      -9.694  11.694  66.113  1.00  0.00    -0.253 A  
ENDBRANCH  12  13
ENDBRANCH   6  12
TORSDOF 2
ENDMDL
MODEL      203
REMARK 921   NORMALIZED FREE ENERGY PREDICTED BY IDOCK:   -3.05 KCAL/MOL
REMARK 922        TOTAL FREE ENERGY PREDICTED BY IDOCK:   -3.92 KCAL/MOL
REMARK 923 INTER-LIGAND FREE ENERGY PREDICTED BY IDOCK:   -3.73 KCAL/MOL
REMARK 924 INTRA-LIGAND FREE ENERGY PREDICTED BY IDOCK:   -0.19 KCAL/MOL
REMARK 927      BINDING AFFINITY PREDICTED BY RF-SCORE:    0.00 PKD
ROOT
HETATM    1  C   UNL     1     -11.579  16.886  71.844  1.00  0.00     0.461 C  
HETATM    2  N   UNL     1     -12.533  15.811  72.328  1.00  0.00    -0.412 N  
HETATM    3  C   UNL     1     -11.990  14.356  72.411  1.00  0.00     0.117 C  
HETATM    4  C   UNL     1     -12.985  16.274  73.739  1.00  0.00    -0.372 C  
HETATM    5  C   UNL     1     -11.329  13.976  71.066  1.00  0.00     0.551 C  
HETATM    6  C   UNL     1     -12.310  14.032  69.879  1.00  0.00    -0.310 C  
HETATM    7  C   UNL     1     -13.286  15.227  69.966  1.00  0.00     0.206 C  
HETATM    8  O   UNL     1     -14.051  12.990  71.690  1.00  0.00     0.171 OA 
HETATM    9  C   UNL     1     -13.763  15.523  71.421  1.00  0.00    -0.443 C  
HETATM   10  C   UNL     1     -13.242  13.533  72.723  1.00  0.00    -0.253 C  
HETATM   11  C   UNL     1     -14.402  14.304  72.089  1.00  0.00    -0.522 C  
ENDROOT
BRANCH   6  12
HETATM   12  O   UNL     1     -11.730  13.774  68.577  1.00  0.00    -0.313 OA 
BRANCH  12  13
HETATM   13  C   UNL     1     -10.417  13.514  68.409  1.00  0.00    -0.246 C  
HETATM   14  C   UNL     1     -10.715  11.021  69.245  1.00  0.00    -0.263 A  
HETATM   15  C   UNL     1     -10.089  12.026  68.273  1.00  0.00    -0.201 C  
HETATM   16  C   UNL     1     -10.256  11.573  66.819  1.00  0.00    -0.219 C  
HETATM   17  C   UNL     1      -9.891  10.012  69.783  1.00  0.00    -0.270 A  
HETATM   18  O   UNL     1     -11.619  11.382  66.450  1.00  0.00    -0.369 OA 
HETATM   19  O   UNL     1      -9.579  14.404  68.323  1.00  0.00    -0.199 OA 
HETATM   20  C   UNL     1     -10.427   8.942  70.508  1.00  0.00    -0.257 A  
HETATM   21  H   UNL     1     -11.723  11.102  65.548  1.00  0.00     0.000 HD 
HETATM   22  C   UNL     1     -11.799   8.864  70.719  1.00  0.00    -0.230 A  
HETATM   23  C   UNL     1     -12.629   9.867  70.227  1.00  0.00     0.026 A  
HETATM   24  C   UNL     1     -12.094  10.936  69.496  1.00  0.00    -0.380 A  
ENDBRANCH  12  13
ENDBRANCH   6  12
TORSDOF 2
ENDMDL
MODEL      204
REMARK 921   NORMALIZED FREE ENERGY PREDICTED BY IDOCK:   -3.05 KCAL/MOL
REMARK 922        TOTAL FREE ENERGY PREDICTED BY IDOCK:   -3.91 KCAL/MOL
REMARK 923 INTER-LIGAND FREE ENERGY PREDICTED BY IDOCK:   -3.75 KCAL/MOL
REMARK 924 INTRA-LIGAND FREE ENERGY PREDICTED BY IDOCK:   -0.17 KCAL/MOL
REMARK 927      BINDING AFFINITY PREDICTED BY RF-SCORE:    0.00 PKD
ROOT
HETATM    1  C   UNL     1     -11.037  10.846  69.655  1.00  0.00    -0.266 C  
HETATM    2  N   UNL     1     -10.967  11.857  68.527  1.00  0.00    -0.221 N  
HETATM    3  C   UNL     1     -11.384  11.377  67.107  1.00  0.00    -0.255 C  
HETATM    4  C   UNL     1     -11.891  13.022  68.968  1.00  0.00    -0.316 C  
HETATM    5  C   UNL     1     -10.625  10.075  66.761  1.00  0.00    -0.229 C  
HETATM    6  C   UNL     1      -9.095  10.258  66.751  1.00  0.00    -0.143 C  
HETATM    7  C   UNL     1      -8.596  11.180  67.886  1.00  0.00    -0.135 C  
HETATM    8  O   UNL     1      -9.714  12.650  65.616  1.00  0.00    -0.232 OA 
HETATM    9  C   UNL     1      -9.550  12.384  68.160  1.00  0.00    -0.218 C  
HETATM   10  C   UNL     1     -11.000  12.557  66.211  1.00  0.00    -0.277 C  
HETATM   11  C   UNL     1      -9.811  13.224  66.909  1.00  0.00    -0.247 C  
ENDROOT
BRANCH   6  12
HETATM   12  O   UNL     1      -8.324   9.053  66.522  1.00  0.00    -0.112 OA 
BRANCH  12  13
HETATM   13  C   UNL     1      -7.039   9.082  66.113  1.00  0.00    -0.086 C  
HETATM   14  C   UNL     1      -7.066   6.492  65.568  1.00  0.00    -0.064 A  
HETATM   15  C   UNL     1      -6.651   7.920  65.197  1.00  0.00    -0.048 C  
HETATM   16  C   UNL     1      -7.009   8.244  63.742  1.00  0.00    -0.080 C  
HETATM   17  C   UNL     1      -6.114   5.463  65.422  1.00  0.00    -0.026 A  
HETATM   18  O   UNL     1      -8.400   8.094  63.466  1.00  0.00    -0.346 OA 
HETATM   19  O   UNL     1      -6.277   9.991  66.415  1.00  0.00    -0.063 OA 
HETATM   20  C   UNL     1      -6.473   4.116  65.541  1.00  0.00    -0.036 A  
HETATM   21  H   UNL     1      -8.622   8.296  62.565  1.00  0.00     0.000 HD 
HETATM   22  C   UNL     1      -7.791   3.769  65.817  1.00  0.00    -0.090 A  
HETATM   23  C   UNL     1      -8.742   4.770  65.999  1.00  0.00    -0.118 A  
HETATM   24  C   UNL     1      -8.384   6.119  65.875  1.00  0.00    -0.140 A  
ENDBRANCH  12  13
ENDBRANCH   6  12
TORSDOF 2
ENDMDL
MODEL      205
REMARK 921   NORMALIZED FREE ENERGY PREDICTED BY IDOCK:   -3.04 KCAL/MOL
REMARK 922        TOTAL FREE ENERGY PREDICTED BY IDOCK:   -3.91 KCAL/MOL
REMARK 923 INTER-LIGAND FREE ENERGY PREDICTED BY IDOCK:   -3.38 KCAL/MOL
REMARK 924 INTRA-LIGAND FREE ENERGY PREDICTED BY IDOCK:   -0.52 KCAL/MOL
REMARK 927      BINDING AFFINITY PREDICTED BY RF-SCORE:    0.00 PKD
ROOT
HETATM    1  C   UNL     1     -11.037  10.846  69.655  1.00  0.00    -0.266 C  
HETATM    2  N   UNL     1     -10.967  11.857  68.527  1.00  0.00    -0.221 N  
HETATM    3  C   UNL     1     -11.384  11.377  67.107  1.00  0.00    -0.255 C  
HETATM    4  C   UNL     1     -11.891  13.022  68.968  1.00  0.00    -0.316 C  
HETATM    5  C   UNL     1     -10.625  10.075  66.761  1.00  0.00    -0.229 C  
HETATM    6  C   UNL     1      -9.095  10.258  66.751  1.00  0.00    -0.143 C  
HETATM    7  C   UNL     1      -8.596  11.180  67.886  1.00  0.00    -0.135 C  
HETATM    8  O   UNL     1      -9.714  12.650  65.616  1.00  0.00    -0.232 OA 
HETATM    9  C   UNL     1      -9.550  12.384  68.160  1.00  0.00    -0.218 C  
HETATM   10  C   UNL     1     -11.000  12.557  66.211  1.00  0.00    -0.277 C  
HETATM   11  C   UNL     1      -9.811  13.224  66.909  1.00  0.00    -0.247 C  
ENDROOT
BRANCH   6  12
HETATM   12  O   UNL     1      -8.324   9.053  66.522  1.00  0.00    -0.112 OA 
BRANCH  12  13
HETATM   13  C   UNL     1      -8.444   8.320  65.395  1.00  0.00    -0.172 C  
HETATM   14  C   UNL     1      -7.079   6.315  66.454  1.00  0.00    -0.068 A  
HETATM   15  C   UNL     1      -8.253   6.817  65.608  1.00  0.00    -0.134 C  
HETATM   16  C   UNL     1      -9.571   6.168  66.043  1.00  0.00     0.041 C  
HETATM   17  C   UNL     1      -6.340   5.212  65.981  1.00  0.00    -0.039 A  
HETATM   18  O   UNL     1      -9.877   6.398  67.416  1.00  0.00    -0.122 OA 
HETATM   19  O   UNL     1      -8.730   8.821  64.316  1.00  0.00    -0.130 OA 
HETATM   20  C   UNL     1      -5.393   4.569  66.786  1.00  0.00    -0.013 A  
HETATM   21  H   UNL     1     -10.694   5.996  67.686  1.00  0.00     0.000 HD 
HETATM   22  C   UNL     1      -5.158   5.023  68.079  1.00  0.00    -0.003 A  
HETATM   23  C   UNL     1      -5.850   6.133  68.556  1.00  0.00    -0.013 A  
HETATM   24  C   UNL     1      -6.803   6.773  67.752  1.00  0.00    -0.081 A  
ENDBRANCH  12  13
ENDBRANCH   6  12
TORSDOF 2
ENDMDL
MODEL      206
REMARK 921   NORMALIZED FREE ENERGY PREDICTED BY IDOCK:   -3.02 KCAL/MOL
REMARK 922        TOTAL FREE ENERGY PREDICTED BY IDOCK:   -3.88 KCAL/MOL
REMARK 923 INTER-LIGAND FREE ENERGY PREDICTED BY IDOCK:   -3.35 KCAL/MOL
REMARK 924 INTRA-LIGAND FREE ENERGY PREDICTED BY IDOCK:   -0.53 KCAL/MOL
REMARK 927      BINDING AFFINITY PREDICTED BY RF-SCORE:    0.00 PKD
ROOT
HETATM    1  C   UNL     1     -11.617  11.500  69.035  1.00  0.00    -0.318 C  
HETATM    2  N   UNL     1     -10.823  11.681  67.756  1.00  0.00    -0.206 N  
HETATM    3  C   UNL     1     -10.490  10.405  66.931  1.00  0.00    -0.240 C  
HETATM    4  C   UNL     1     -11.669  12.649  66.886  1.00  0.00    -0.383 C  
HETATM    5  C   UNL     1      -9.852   9.345  67.859  1.00  0.00    -0.197 C  
HETATM    6  C   UNL     1      -8.540   9.827  68.506  1.00  0.00    -0.120 C  
HETATM    7  C   UNL     1      -8.592  11.313  68.929  1.00  0.00    -0.056 C  
HETATM    8  O   UNL     1      -8.127  10.947  66.063  1.00  0.00    -0.159 OA 
HETATM    9  C   UNL     1      -9.369  12.210  67.916  1.00  0.00    -0.192 C  
HETATM   10  C   UNL     1      -9.532  10.922  65.856  1.00  0.00    -0.207 C  
HETATM   11  C   UNL     1      -8.811  12.112  66.495  1.00  0.00    -0.151 C  
ENDROOT
BRANCH   6  12
HETATM   12  O   UNL     1      -7.940   8.913  69.457  1.00  0.00    -0.087 OA 
BRANCH  12  13
HETATM   13  C   UNL     1      -7.052   7.967  69.090  1.00  0.00    -0.069 C  
HETATM   14  C   UNL     1      -6.828   7.093  71.578  1.00  0.00    -0.056 A  
HETATM   15  C   UNL     1      -6.938   6.804  70.078  1.00  0.00    -0.062 C  
HETATM   16  C   UNL     1      -8.015   5.752  69.790  1.00  0.00    -0.100 C  
HETATM   17  C   UNL     1      -5.886   6.363  72.330  1.00  0.00    -0.038 A  
HETATM   18  O   UNL     1      -9.303   6.131  70.269  1.00  0.00    -0.157 OA 
HETATM   19  O   UNL     1      -6.435   8.022  68.034  1.00  0.00    -0.053 OA 
HETATM   20  C   UNL     1      -5.867   6.419  73.728  1.00  0.00    -0.058 A  
HETATM   21  H   UNL     1      -9.971   5.479  70.091  1.00  0.00     0.000 HD 
HETATM   22  C   UNL     1      -6.786   7.214  74.404  1.00  0.00    -0.091 A  
HETATM   23  C   UNL     1      -7.704   7.971  73.681  1.00  0.00    -0.223 A  
HETATM   24  C   UNL     1      -7.727   7.912  72.281  1.00  0.00    -0.125 A  
ENDBRANCH  12  13
ENDBRANCH   6  12
TORSDOF 2
ENDMDL
MODEL      207
REMARK 921   NORMALIZED FREE ENERGY PREDICTED BY IDOCK:   -3.01 KCAL/MOL
REMARK 922        TOTAL FREE ENERGY PREDICTED BY IDOCK:   -3.88 KCAL/MOL
REMARK 923 INTER-LIGAND FREE ENERGY PREDICTED BY IDOCK:   -3.37 KCAL/MOL
REMARK 924 INTRA-LIGAND FREE ENERGY PREDICTED BY IDOCK:   -0.51 KCAL/MOL
REMARK 927      BINDING AFFINITY PREDICTED BY RF-SCORE:    0.00 PKD
ROOT
HETATM    1  C   UNL     1     -12.052   6.907  70.888  1.00  0.00    -0.373 C  
HETATM    2  N   UNL     1     -10.755   6.634  71.625  1.00  0.00    -0.225 N  
HETATM    3  C   UNL     1      -9.595   7.653  71.434  1.00  0.00    -0.158 C  
HETATM    4  C   UNL     1     -11.146   6.575  73.125  1.00  0.00    -0.166 C  
HETATM    5  C   UNL     1      -9.360   7.888  69.923  1.00  0.00    -0.156 C  
HETATM    6  C   UNL     1      -8.969   6.601  69.170  1.00  0.00    -0.131 C  
HETATM    7  C   UNL     1      -9.749   5.361  69.661  1.00  0.00    -0.240 C  
HETATM    8  O   UNL     1      -7.538   6.102  71.428  1.00  0.00    -0.095 OA 
HETATM    9  C   UNL     1      -9.979   5.354  71.204  1.00  0.00    -0.196 C  
HETATM   10  C   UNL     1      -8.414   6.973  72.130  1.00  0.00    -0.111 C  
HETATM   11  C   UNL     1      -8.674   5.470  71.993  1.00  0.00    -0.131 C  
ENDROOT
BRANCH   6  12
HETATM   12  O   UNL     1      -8.824   6.738  67.736  1.00  0.00    -0.120 OA 
BRANCH  12  13
HETATM   13  C   UNL     1      -9.764   6.310  66.869  1.00  0.00    -0.151 C  
HETATM   14  C   UNL     1      -7.943   5.798  65.017  1.00  0.00    -0.121 A  
HETATM   15  C   UNL     1      -9.223   5.404  65.761  1.00  0.00    -0.149 C  
HETATM   16  C   UNL     1      -9.160   3.951  66.244  1.00  0.00    -0.148 C  
HETATM   17  C   UNL     1      -7.916   5.653  63.615  1.00  0.00    -0.116 A  
HETATM   18  O   UNL     1      -8.047   3.697  67.098  1.00  0.00    -0.090 OA 
HETATM   19  O   UNL     1     -10.949   6.590  66.997  1.00  0.00    -0.368 OA 
HETATM   20  C   UNL     1      -6.728   5.794  62.890  1.00  0.00    -0.036 A  
HETATM   21  H   UNL     1      -8.008   2.796  67.398  1.00  0.00     0.000 HD 
HETATM   22  C   UNL     1      -5.542   6.093  63.551  1.00  0.00    -0.018 A  
HETATM   23  C   UNL     1      -5.551   6.277  64.931  1.00  0.00    -0.022 A  
HETATM   24  C   UNL     1      -6.739   6.130  65.659  1.00  0.00    -0.048 A  
ENDBRANCH  12  13
ENDBRANCH   6  12
TORSDOF 2
ENDMDL
MODEL      208
REMARK 921   NORMALIZED FREE ENERGY PREDICTED BY IDOCK:   -3.00 KCAL/MOL
REMARK 922        TOTAL FREE ENERGY PREDICTED BY IDOCK:   -3.86 KCAL/MOL
REMARK 923 INTER-LIGAND FREE ENERGY PREDICTED BY IDOCK:   -3.69 KCAL/MOL
REMARK 924 INTRA-LIGAND FREE ENERGY PREDICTED BY IDOCK:   -0.17 KCAL/MOL
REMARK 927      BINDING AFFINITY PREDICTED BY RF-SCORE:    0.00 PKD
ROOT
HETATM    1  C   UNL     1     -11.890  10.282  70.740  1.00  0.00    -0.365 C  
HETATM    2  N   UNL     1     -12.070   8.879  71.285  1.00  0.00    -0.300 N  
HETATM    3  C   UNL     1     -11.059   8.393  72.363  1.00  0.00    -0.361 C  
HETATM    4  C   UNL     1     -13.505   8.854  71.877  1.00  0.00    -0.414 C  
HETATM    5  C   UNL     1      -9.616   8.635  71.862  1.00  0.00    -0.377 C  
HETATM    6  C   UNL     1      -9.299   7.873  70.560  1.00  0.00    -0.162 C  
HETATM    7  C   UNL     1     -10.485   7.863  69.569  1.00  0.00    -0.226 C  
HETATM    8  O   UNL     1     -10.776   5.913  71.731  1.00  0.00    -0.229 OA 
HETATM    9  C   UNL     1     -11.869   7.715  70.273  1.00  0.00     0.094 C  
HETATM   10  C   UNL     1     -11.403   6.911  72.524  1.00  0.00    -0.253 C  
HETATM   11  C   UNL     1     -11.947   6.472  71.161  1.00  0.00    -0.306 C  
ENDROOT
BRANCH   6  12
HETATM   12  O   UNL     1      -7.992   8.129  69.991  1.00  0.00    -0.100 OA 
BRANCH  12  13
HETATM   13  C   UNL     1      -6.851   7.720  70.583  1.00  0.00    -0.042 C  
HETATM   14  C   UNL     1      -7.174   5.250  69.689  1.00  0.00    -0.060 A  
HETATM   15  C   UNL     1      -6.260   6.445  69.979  1.00  0.00    -0.035 C  
HETATM   16  C   UNL     1      -5.384   6.784  68.769  1.00  0.00    -0.016 C  
HETATM   17  C   UNL     1      -6.720   3.962  70.039  1.00  0.00    -0.034 A  
HETATM   18  O   UNL     1      -6.144   7.074  67.598  1.00  0.00    -0.030 OA 
HETATM   19  O   UNL     1      -6.321   8.351  71.488  1.00  0.00    -0.042 OA 
HETATM   20  C   UNL     1      -7.397   2.812  69.624  1.00  0.00    -0.044 A  
HETATM   21  H   UNL     1      -5.601   7.285  66.847  1.00  0.00     0.000 HD 
HETATM   22  C   UNL     1      -8.551   2.924  68.855  1.00  0.00    -0.114 A  
HETATM   23  C   UNL     1      -9.038   4.186  68.526  1.00  0.00    -0.182 A  
HETATM   24  C   UNL     1      -8.357   5.339  68.937  1.00  0.00    -0.092 A  
ENDBRANCH  12  13
ENDBRANCH   6  12
TORSDOF 2
ENDMDL
MODEL      209
REMARK 921   NORMALIZED FREE ENERGY PREDICTED BY IDOCK:   -2.96 KCAL/MOL
REMARK 922        TOTAL FREE ENERGY PREDICTED BY IDOCK:   -3.81 KCAL/MOL
REMARK 923 INTER-LIGAND FREE ENERGY PREDICTED BY IDOCK:   -3.96 KCAL/MOL
REMARK 924 INTRA-LIGAND FREE ENERGY PREDICTED BY IDOCK:    0.15 KCAL/MOL
REMARK 927      BINDING AFFINITY PREDICTED BY RF-SCORE:    0.00 PKD
ROOT
HETATM    1  C   UNL     1      -6.380   8.584  71.296  1.00  0.00    -0.047 C  
HETATM    2  N   UNL     1      -7.728   8.173  71.855  1.00  0.00    -0.097 N  
HETATM    3  C   UNL     1      -8.373   6.876  71.290  1.00  0.00    -0.119 C  
HETATM    4  C   UNL     1      -7.502   8.012  73.383  1.00  0.00    -0.145 C  
HETATM    5  C   UNL     1      -8.387   6.939  69.745  1.00  0.00    -0.132 C  
HETATM    6  C   UNL     1      -9.200   8.130  69.201  1.00  0.00    -0.151 C  
HETATM    7  C   UNL     1      -9.013   9.414  70.039  1.00  0.00    -0.234 C  
HETATM    8  O   UNL     1     -10.870   7.508  71.256  1.00  0.00    -0.232 OA 
HETATM    9  C   UNL     1      -8.916   9.136  71.571  1.00  0.00    -0.008 C  
HETATM   10  C   UNL     1      -9.774   6.883  71.907  1.00  0.00    -0.161 C  
HETATM   11  C   UNL     1     -10.121   8.361  72.105  1.00  0.00    -0.306 C  
ENDROOT
BRANCH   6  12
HETATM   12  O   UNL     1      -9.176   8.296  67.763  1.00  0.00    -0.134 OA 
BRANCH  12  13
HETATM   13  C   UNL     1      -8.156   7.853  66.999  1.00  0.00    -0.116 C  
HETATM   14  C   UNL     1      -8.813   9.487  65.024  1.00  0.00    -0.232 A  
HETATM   15  C   UNL     1      -7.740   8.824  65.893  1.00  0.00    -0.094 C  
HETATM   16  C   UNL     1      -6.745   9.856  66.435  1.00  0.00    -0.085 C  
HETATM   17  C   UNL     1      -8.595   9.559  63.633  1.00  0.00    -0.222 A  
HETATM   18  O   UNL     1      -7.372  10.882  67.201  1.00  0.00    -0.095 OA 
HETATM   19  O   UNL     1      -7.590   6.789  67.216  1.00  0.00    -0.099 OA 
HETATM   20  C   UNL     1      -9.421  10.324  62.804  1.00  0.00    -0.323 A  
HETATM   21  H   UNL     1      -6.755  11.522  67.537  1.00  0.00     0.000 HD 
HETATM   22  C   UNL     1     -10.490  11.029  63.346  1.00  0.00    -0.320 A  
HETATM   23  C   UNL     1     -10.746  10.945  64.712  1.00  0.00    -0.248 A  
HETATM   24  C   UNL     1      -9.916  10.183  65.545  1.00  0.00    -0.363 A  
ENDBRANCH  12  13
ENDBRANCH   6  12
TORSDOF 2
ENDMDL
MODEL      210
REMARK 921   NORMALIZED FREE ENERGY PREDICTED BY IDOCK:   -2.95 KCAL/MOL
REMARK 922        TOTAL FREE ENERGY PREDICTED BY IDOCK:   -3.80 KCAL/MOL
REMARK 923 INTER-LIGAND FREE ENERGY PREDICTED BY IDOCK:   -3.29 KCAL/MOL
REMARK 924 INTRA-LIGAND FREE ENERGY PREDICTED BY IDOCK:   -0.51 KCAL/MOL
REMARK 927      BINDING AFFINITY PREDICTED BY RF-SCORE:    0.00 PKD
ROOT
HETATM    1  C   UNL     1      -7.445   3.725  67.718  1.00  0.00    -0.067 C  
HETATM    2  N   UNL     1      -7.871   3.170  69.063  1.00  0.00    -0.050 N  
HETATM    3  C   UNL     1      -9.370   3.311  69.455  1.00  0.00    -0.161 C  
HETATM    4  C   UNL     1      -7.489   1.666  69.021  1.00  0.00    -0.043 C  
HETATM    5  C   UNL     1      -9.812   4.782  69.272  1.00  0.00    -0.269 C  
HETATM    6  C   UNL     1      -9.014   5.762  70.154  1.00  0.00    -0.140 C  
HETATM    7  C   UNL     1      -7.515   5.398  70.247  1.00  0.00    -0.072 C  
HETATM    8  O   UNL     1      -9.206   3.761  71.986  1.00  0.00    -0.112 OA 
HETATM    9  C   UNL     1      -7.263   3.860  70.317  1.00  0.00    -0.041 C  
HETATM   10  C   UNL     1      -9.396   2.849  70.913  1.00  0.00    -0.150 C  
HETATM   11  C   UNL     1      -8.013   3.194  71.472  1.00  0.00    -0.056 C  
ENDROOT
BRANCH   6  12
HETATM   12  O   UNL     1      -9.321   7.164  69.963  1.00  0.00    -0.155 OA 
BRANCH  12  13
HETATM   13  C   UNL     1     -10.557   7.598  69.643  1.00  0.00    -0.243 C  
HETATM   14  C   UNL     1      -9.578   9.646  68.281  1.00  0.00    -0.153 A  
HETATM   15  C   UNL     1     -10.598   8.511  68.416  1.00  0.00    -0.161 C  
HETATM   16  C   UNL     1     -10.676   7.676  67.133  1.00  0.00    -0.290 C  
HETATM   17  C   UNL     1     -10.036  10.907  67.850  1.00  0.00    -0.199 A  
HETATM   18  O   UNL     1      -9.421   7.110  66.762  1.00  0.00    -0.155 OA 
HETATM   19  O   UNL     1     -11.555   7.245  70.259  1.00  0.00    -0.257 OA 
HETATM   20  C   UNL     1      -9.145  11.929  67.506  1.00  0.00    -0.178 A  
HETATM   21  H   UNL     1      -9.469   6.593  65.966  1.00  0.00     0.000 HD 
HETATM   22  C   UNL     1      -7.774  11.714  67.596  1.00  0.00    -0.133 A  
HETATM   23  C   UNL     1      -7.298  10.488  68.053  1.00  0.00    -0.089 A  
HETATM   24  C   UNL     1      -8.190   9.463  68.391  1.00  0.00    -0.117 A  
ENDBRANCH  12  13
ENDBRANCH   6  12
TORSDOF 2
ENDMDL
MODEL      211
REMARK 921   NORMALIZED FREE ENERGY PREDICTED BY IDOCK:   -2.94 KCAL/MOL
REMARK 922        TOTAL FREE ENERGY PREDICTED BY IDOCK:   -3.80 KCAL/MOL
REMARK 923 INTER-LIGAND FREE ENERGY PREDICTED BY IDOCK:   -3.08 KCAL/MOL
REMARK 924 INTRA-LIGAND FREE ENERGY PREDICTED BY IDOCK:   -0.71 KCAL/MOL
REMARK 927      BINDING AFFINITY PREDICTED BY RF-SCORE:    0.00 PKD
ROOT
HETATM    1  C   UNL     1      -6.641   8.227  65.012  1.00  0.00    -0.059 C  
HETATM    2  N   UNL     1      -7.635   9.366  65.133  1.00  0.00    -0.106 N  
HETATM    3  C   UNL     1      -7.670  10.147  66.477  1.00  0.00    -0.108 C  
HETATM    4  C   UNL     1      -7.276  10.341  63.980  1.00  0.00    -0.057 C  
HETATM    5  C   UNL     1      -7.796   9.147  67.650  1.00  0.00    -0.096 C  
HETATM    6  C   UNL     1      -9.081   8.299  67.579  1.00  0.00    -0.137 C  
HETATM    7  C   UNL     1      -9.434   7.869  66.138  1.00  0.00    -0.158 C  
HETATM    8  O   UNL     1     -10.187  10.633  66.730  1.00  0.00    -0.215 OA 
HETATM    9  C   UNL     1      -9.139   8.976  65.079  1.00  0.00    -0.111 C  
HETATM   10  C   UNL     1      -8.893  11.055  66.323  1.00  0.00    -0.180 C  
HETATM   11  C   UNL     1      -9.846  10.295  65.396  1.00  0.00    -0.296 C  
ENDROOT
BRANCH   6  12
HETATM   12  O   UNL     1      -9.212   7.281  68.601  1.00  0.00    -0.137 OA 
BRANCH  12  13
HETATM   13  C   UNL     1     -10.311   6.506  68.713  1.00  0.00    -0.193 C  
HETATM   14  C   UNL     1      -8.922   4.314  68.194  1.00  0.00    -0.151 A  
HETATM   15  C   UNL     1     -10.007   5.034  69.000  1.00  0.00    -0.251 C  
HETATM   16  C   UNL     1      -9.826   4.809  70.505  1.00  0.00    -0.230 C  
HETATM   17  C   UNL     1      -9.192   3.013  67.725  1.00  0.00    -0.244 A  
HETATM   18  O   UNL     1      -8.553   5.241  70.981  1.00  0.00    -0.119 OA 
HETATM   19  O   UNL     1     -11.444   6.963  68.641  1.00  0.00     0.017 OA 
HETATM   20  C   UNL     1      -8.188   2.216  67.165  1.00  0.00    -0.079 A  
HETATM   21  H   UNL     1      -8.440   5.102  71.914  1.00  0.00     0.000 HD 
HETATM   22  C   UNL     1      -6.892   2.707  67.054  1.00  0.00    -0.044 A  
HETATM   23  C   UNL     1      -6.608   4.002  67.478  1.00  0.00    -0.046 A  
HETATM   24  C   UNL     1      -7.612   4.799  68.044  1.00  0.00    -0.082 A  
ENDBRANCH  12  13
ENDBRANCH   6  12
TORSDOF 2
ENDMDL
MODEL      212
REMARK 921   NORMALIZED FREE ENERGY PREDICTED BY IDOCK:   -2.94 KCAL/MOL
REMARK 922        TOTAL FREE ENERGY PREDICTED BY IDOCK:   -3.79 KCAL/MOL
REMARK 923 INTER-LIGAND FREE ENERGY PREDICTED BY IDOCK:   -3.42 KCAL/MOL
REMARK 924 INTRA-LIGAND FREE ENERGY PREDICTED BY IDOCK:   -0.37 KCAL/MOL
REMARK 927      BINDING AFFINITY PREDICTED BY RF-SCORE:    0.00 PKD
ROOT
HETATM    1  C   UNL     1     -11.253   9.369  70.933  1.00  0.00    -0.325 C  
HETATM    2  N   UNL     1     -10.579   9.692  69.613  1.00  0.00    -0.220 N  
HETATM    3  C   UNL     1     -10.776   8.686  68.443  1.00  0.00    -0.046 C  
HETATM    4  C   UNL     1     -11.140  11.078  69.199  1.00  0.00    -0.243 C  
HETATM    5  C   UNL     1     -10.435   7.258  68.930  1.00  0.00    -0.216 C  
HETATM    6  C   UNL     1      -8.977   7.121  69.410  1.00  0.00    -0.136 C  
HETATM    7  C   UNL     1      -8.489   8.358  70.198  1.00  0.00    -0.126 C  
HETATM    8  O   UNL     1      -8.469   8.759  67.300  1.00  0.00    -0.110 OA 
HETATM    9  C   UNL     1      -9.024   9.703  69.617  1.00  0.00    -0.203 C  
HETATM   10  C   UNL     1      -9.816   9.204  67.370  1.00  0.00    -0.184 C  
HETATM   11  C   UNL     1      -8.679   9.883  68.138  1.00  0.00    -0.122 C  
ENDROOT
BRANCH   6  12
HETATM   12  O   UNL     1      -8.622   5.830  69.963  1.00  0.00    -0.124 OA 
BRANCH  12  13
HETATM   13  C   UNL     1      -9.524   4.842  70.133  1.00  0.00    -0.175 C  
HETATM   14  C   UNL     1      -8.515   4.213  72.498  1.00  0.00    -0.100 A  
HETATM   15  C   UNL     1      -9.731   4.433  71.593  1.00  0.00    -0.238 C  
HETATM   16  C   UNL     1     -10.765   5.346  72.261  1.00  0.00    -0.231 C  
HETATM   17  C   UNL     1      -8.510   3.089  73.347  1.00  0.00    -0.073 A  
HETATM   18  O   UNL     1     -10.233   6.621  72.616  1.00  0.00    -0.179 OA 
HETATM   19  O   UNL     1     -10.150   4.359  69.198  1.00  0.00    -0.123 OA 
HETATM   20  C   UNL     1      -7.541   2.931  74.343  1.00  0.00    -0.052 A  
HETATM   21  H   UNL     1     -10.874   7.187  73.030  1.00  0.00     0.000 HD 
HETATM   22  C   UNL     1      -6.548   3.891  74.505  1.00  0.00    -0.041 A  
HETATM   23  C   UNL     1      -6.511   4.992  73.655  1.00  0.00    -0.062 A  
HETATM   24  C   UNL     1      -7.485   5.154  72.661  1.00  0.00    -0.096 A  
ENDBRANCH  12  13
ENDBRANCH   6  12
TORSDOF 2
ENDMDL
MODEL      213
REMARK 921   NORMALIZED FREE ENERGY PREDICTED BY IDOCK:   -2.93 KCAL/MOL
REMARK 922        TOTAL FREE ENERGY PREDICTED BY IDOCK:   -3.78 KCAL/MOL
REMARK 923 INTER-LIGAND FREE ENERGY PREDICTED BY IDOCK:   -3.26 KCAL/MOL
REMARK 924 INTRA-LIGAND FREE ENERGY PREDICTED BY IDOCK:   -0.52 KCAL/MOL
REMARK 927      BINDING AFFINITY PREDICTED BY RF-SCORE:    0.00 PKD
ROOT
HETATM    1  C   UNL     1     -10.074  15.769  70.681  1.00  0.00     0.558 C  
HETATM    2  N   UNL     1     -11.452  15.382  71.182  1.00  0.00    -0.345 N  
HETATM    3  C   UNL     1     -11.796  13.866  71.234  1.00  0.00     0.136 C  
HETATM    4  C   UNL     1     -11.546  15.981  72.611  1.00  0.00    -0.257 C  
HETATM    5  C   UNL     1     -11.479  13.220  69.865  1.00  0.00    -0.170 C  
HETATM    6  C   UNL     1     -12.293  13.835  68.710  1.00  0.00    -0.006 C  
HETATM    7  C   UNL     1     -12.450  15.367  68.839  1.00  0.00     0.175 C  
HETATM    8  O   UNL     1     -14.283  13.874  70.563  1.00  0.00     0.949 OA 
HETATM    9  C   UNL     1     -12.656  15.839  70.311  1.00  0.00    -0.187 C  
HETATM   10  C   UNL     1     -13.287  13.857  71.577  1.00  0.00    -0.335 C  
HETATM   11  C   UNL     1     -13.846  15.155  70.986  1.00  0.00    -0.349 C  
ENDROOT
BRANCH   6  12
HETATM   12  O   UNL     1     -11.976  13.334  67.388  1.00  0.00    -0.363 OA 
BRANCH  12  13
HETATM   13  C   UNL     1     -12.313  13.997  66.263  1.00  0.00    -0.448 C  
HETATM   14  C   UNL     1      -9.999  15.280  66.224  1.00  0.00    -0.304 A  
HETATM   15  C   UNL     1     -11.118  14.543  65.481  1.00  0.00    -0.339 C  
HETATM   16  C   UNL     1     -10.552  13.466  64.549  1.00  0.00    -0.425 C  
HETATM   17  C   UNL     1      -9.491  16.466  65.657  1.00  0.00    -0.051 A  
HETATM   18  O   UNL     1      -9.757  12.501  65.235  1.00  0.00    -0.430 OA 
HETATM   19  O   UNL     1     -13.474  14.100  65.887  1.00  0.00    -0.252 OA 
HETATM   20  C   UNL     1      -8.340  17.081  66.162  1.00  0.00    -0.276 A  
HETATM   21  H   UNL     1      -9.407  11.832  64.657  1.00  0.00     0.000 HD 
HETATM   22  C   UNL     1      -7.677  16.527  67.251  1.00  0.00    -0.193 A  
HETATM   23  C   UNL     1      -8.180  15.375  67.849  1.00  0.00    -0.150 A  
HETATM   24  C   UNL     1      -9.329  14.755  67.341  1.00  0.00    -0.199 A  
ENDBRANCH  12  13
ENDBRANCH   6  12
TORSDOF 2
ENDMDL
MODEL      214
REMARK 921   NORMALIZED FREE ENERGY PREDICTED BY IDOCK:   -2.90 KCAL/MOL
REMARK 922        TOTAL FREE ENERGY PREDICTED BY IDOCK:   -3.76 KCAL/MOL
REMARK 923 INTER-LIGAND FREE ENERGY PREDICTED BY IDOCK:   -3.03 KCAL/MOL
REMARK 924 INTRA-LIGAND FREE ENERGY PREDICTED BY IDOCK:   -0.72 KCAL/MOL
REMARK 927      BINDING AFFINITY PREDICTED BY RF-SCORE:    0.00 PKD
ROOT
HETATM    1  C   UNL     1     -10.274   7.763  72.621  1.00  0.00    -0.279 C  
HETATM    2  N   UNL     1      -8.871   7.195  72.711  1.00  0.00    -0.121 N  
HETATM    3  C   UNL     1      -7.699   8.101  72.236  1.00  0.00    -0.120 C  
HETATM    4  C   UNL     1      -8.673   6.840  74.209  1.00  0.00    -0.161 C  
HETATM    5  C   UNL     1      -8.010   8.645  70.822  1.00  0.00    -0.127 C  
HETATM    6  C   UNL     1      -8.179   7.528  69.774  1.00  0.00    -0.128 C  
HETATM    7  C   UNL     1      -8.935   6.299  70.328  1.00  0.00    -0.154 C  
HETATM    8  O   UNL     1      -6.125   6.383  71.140  1.00  0.00    -0.033 OA 
HETATM    9  C   UNL     1      -8.565   5.968  71.807  1.00  0.00    -0.134 C  
HETATM   10  C   UNL     1      -6.493   7.160  72.270  1.00  0.00    -0.052 C  
HETATM   11  C   UNL     1      -7.062   5.763  72.004  1.00  0.00    -0.087 C  
ENDROOT
BRANCH   6  12
HETATM   12  O   UNL     1      -8.560   7.970  68.449  1.00  0.00    -0.127 OA 
BRANCH  12  13
HETATM   13  C   UNL     1      -9.634   8.757  68.229  1.00  0.00    -0.146 C  
HETATM   14  C   UNL     1      -8.097  10.830  67.638  1.00  0.00    -0.114 A  
HETATM   15  C   UNL     1      -9.340   9.979  67.357  1.00  0.00    -0.167 C  
HETATM   16  C   UNL     1      -9.439   9.612  65.872  1.00  0.00    -0.236 C  
HETATM   17  C   UNL     1      -8.229  12.233  67.612  1.00  0.00    -0.166 A  
HETATM   18  O   UNL     1      -8.295   8.906  65.397  1.00  0.00    -0.130 OA 
HETATM   19  O   UNL     1     -10.748   8.479  68.653  1.00  0.00    -0.159 OA 
HETATM   20  C   UNL     1      -7.111  13.072  67.653  1.00  0.00    -0.156 A  
HETATM   21  H   UNL     1      -8.356   8.677  64.477  1.00  0.00     0.000 HD 
HETATM   22  C   UNL     1      -5.834  12.525  67.732  1.00  0.00    -0.118 A  
HETATM   23  C   UNL     1      -5.681  11.143  67.794  1.00  0.00    -0.043 A  
HETATM   24  C   UNL     1      -6.800  10.302  67.747  1.00  0.00    -0.075 A  
ENDBRANCH  12  13
ENDBRANCH   6  12
TORSDOF 2
ENDMDL
MODEL      215
REMARK 921   NORMALIZED FREE ENERGY PREDICTED BY IDOCK:   -2.82 KCAL/MOL
REMARK 922        TOTAL FREE ENERGY PREDICTED BY IDOCK:   -3.66 KCAL/MOL
REMARK 923 INTER-LIGAND FREE ENERGY PREDICTED BY IDOCK:   -3.37 KCAL/MOL
REMARK 924 INTRA-LIGAND FREE ENERGY PREDICTED BY IDOCK:   -0.29 KCAL/MOL
REMARK 927      BINDING AFFINITY PREDICTED BY RF-SCORE:    0.00 PKD
ROOT
HETATM    1  C   UNL     1      -6.163   8.581  66.938  1.00  0.00    -0.055 C  
HETATM    2  N   UNL     1      -7.541   9.196  66.780  1.00  0.00    -0.087 N  
HETATM    3  C   UNL     1      -8.295   9.606  68.077  1.00  0.00    -0.117 C  
HETATM    4  C   UNL     1      -7.326  10.450  65.891  1.00  0.00    -0.135 C  
HETATM    5  C   UNL     1      -8.306   8.415  69.064  1.00  0.00    -0.119 C  
HETATM    6  C   UNL     1      -9.016   7.171  68.494  1.00  0.00    -0.127 C  
HETATM    7  C   UNL     1      -8.718   6.947  66.995  1.00  0.00    -0.119 C  
HETATM    8  O   UNL     1     -10.729   9.019  67.470  1.00  0.00    -0.267 OA 
HETATM    9  C   UNL     1      -8.642   8.276  66.180  1.00  0.00    -0.140 C  
HETATM   10  C   UNL     1      -9.689   9.981  67.567  1.00  0.00    -0.159 C  
HETATM   11  C   UNL     1      -9.908   9.122  66.319  1.00  0.00    -0.289 C  
ENDROOT
BRANCH   6  12
HETATM   12  O   UNL     1      -8.981   5.993  69.336  1.00  0.00    -0.125 OA 
BRANCH  12  13
HETATM   13  C   UNL     1      -7.825   5.426  69.740  1.00  0.00    -0.081 C  
HETATM   14  C   UNL     1      -8.858   4.799  72.094  1.00  0.00    -0.135 A  
HETATM   15  C   UNL     1      -7.990   4.428  70.888  1.00  0.00    -0.068 C  
HETATM   16  C   UNL     1      -8.355   3.043  70.343  1.00  0.00    -0.048 C  
HETATM   17  C   UNL     1      -8.372   4.498  73.383  1.00  0.00    -0.102 A  
HETATM   18  O   UNL     1      -9.725   2.941  69.959  1.00  0.00    -0.100 OA 
HETATM   19  O   UNL     1      -6.755   5.661  69.193  1.00  0.00    -0.055 OA 
HETATM   20  C   UNL     1      -9.185   4.614  74.515  1.00  0.00    -0.119 A  
HETATM   21  H   UNL     1      -9.951   2.082  69.621  1.00  0.00     0.000 HD 
HETATM   22  C   UNL     1     -10.501   5.043  74.384  1.00  0.00    -0.313 A  
HETATM   23  C   UNL     1     -10.993   5.380  73.126  1.00  0.00    -0.353 A  
HETATM   24  C   UNL     1     -10.181   5.258  71.991  1.00  0.00    -0.259 A  
ENDBRANCH  12  13
ENDBRANCH   6  12
TORSDOF 2
ENDMDL
MODEL      216
REMARK 921   NORMALIZED FREE ENERGY PREDICTED BY IDOCK:   -2.80 KCAL/MOL
REMARK 922        TOTAL FREE ENERGY PREDICTED BY IDOCK:   -3.64 KCAL/MOL
REMARK 923 INTER-LIGAND FREE ENERGY PREDICTED BY IDOCK:   -3.52 KCAL/MOL
REMARK 924 INTRA-LIGAND FREE ENERGY PREDICTED BY IDOCK:   -0.12 KCAL/MOL
REMARK 927      BINDING AFFINITY PREDICTED BY RF-SCORE:    0.00 PKD
ROOT
HETATM    1  C   UNL     1     -11.399  10.285  70.203  1.00  0.00    -0.316 C  
HETATM    2  N   UNL     1     -10.823  10.946  68.966  1.00  0.00    -0.214 N  
HETATM    3  C   UNL     1     -11.033  10.225  67.604  1.00  0.00    -0.294 C  
HETATM    4  C   UNL     1     -11.483  12.350  68.912  1.00  0.00    -0.307 C  
HETATM    5  C   UNL     1     -10.585   8.750  67.729  1.00  0.00    -0.256 C  
HETATM    6  C   UNL     1      -9.097   8.605  68.100  1.00  0.00    -0.141 C  
HETATM    7  C   UNL     1      -8.632   9.657  69.131  1.00  0.00    -0.146 C  
HETATM    8  O   UNL     1      -8.805  10.714  66.408  1.00  0.00    -0.146 OA 
HETATM    9  C   UNL     1      -9.274  11.061  68.904  1.00  0.00    -0.129 C  
HETATM   10  C   UNL     1     -10.168  11.039  66.639  1.00  0.00    -0.235 C  
HETATM   11  C   UNL     1      -9.026  11.598  67.494  1.00  0.00    -0.165 C  
ENDROOT
BRANCH   6  12
HETATM   12  O   UNL     1      -8.639   7.249  68.320  1.00  0.00    -0.123 OA 
BRANCH  12  13
HETATM   13  C   UNL     1      -9.479   6.244  68.643  1.00  0.00    -0.121 C  
HETATM   14  C   UNL     1      -7.857   5.388  70.551  1.00  0.00    -0.093 A  
HETATM   15  C   UNL     1      -9.274   5.691  70.054  1.00  0.00    -0.172 C  
HETATM   16  C   UNL     1     -10.054   6.528  71.074  1.00  0.00    -0.184 C  
HETATM   17  C   UNL     1      -7.638   4.184  71.251  1.00  0.00    -0.059 A  
HETATM   18  O   UNL     1      -9.414   7.763  71.385  1.00  0.00    -0.147 OA 
HETATM   19  O   UNL     1     -10.355   5.853  67.882  1.00  0.00    -0.170 OA 
HETATM   20  C   UNL     1      -6.431   3.932  71.910  1.00  0.00    -0.015 A  
HETATM   21  H   UNL     1      -9.897   8.282  72.017  1.00  0.00     0.000 HD 
HETATM   22  C   UNL     1      -5.410   4.876  71.876  1.00  0.00    -0.004 A  
HETATM   23  C   UNL     1      -5.589   6.057  71.161  1.00  0.00    -0.018 A  
HETATM   24  C   UNL     1      -6.801   6.312  70.505  1.00  0.00    -0.062 A  
ENDBRANCH  12  13
ENDBRANCH   6  12
TORSDOF 2
ENDMDL
MODEL      217
REMARK 921   NORMALIZED FREE ENERGY PREDICTED BY IDOCK:   -2.80 KCAL/MOL
REMARK 922        TOTAL FREE ENERGY PREDICTED BY IDOCK:   -3.64 KCAL/MOL
REMARK 923 INTER-LIGAND FREE ENERGY PREDICTED BY IDOCK:   -3.03 KCAL/MOL
REMARK 924 INTRA-LIGAND FREE ENERGY PREDICTED BY IDOCK:   -0.60 KCAL/MOL
REMARK 927      BINDING AFFINITY PREDICTED BY RF-SCORE:    0.00 PKD
ROOT
HETATM    1  C   UNL     1      -6.586   2.545  66.316  1.00  0.00    -0.032 C  
HETATM    2  N   UNL     1      -7.705   2.860  65.342  1.00  0.00    -0.080 N  
HETATM    3  C   UNL     1      -8.096   4.354  65.158  1.00  0.00    -0.102 C  
HETATM    4  C   UNL     1      -7.233   2.280  63.981  1.00  0.00    -0.056 C  
HETATM    5  C   UNL     1      -8.342   4.995  66.544  1.00  0.00    -0.107 C  
HETATM    6  C   UNL     1      -9.484   4.315  67.324  1.00  0.00    -0.181 C  
HETATM    7  C   UNL     1      -9.491   2.779  67.156  1.00  0.00    -0.057 C  
HETATM    8  O   UNL     1     -10.650   4.192  64.871  1.00  0.00    -0.250 OA 
HETATM    9  C   UNL     1      -9.115   2.320  65.713  1.00  0.00    -0.076 C  
HETATM   10  C   UNL     1      -9.356   4.283  64.293  1.00  0.00    -0.150 C  
HETATM   11  C   UNL     1     -10.013   2.945  64.645  1.00  0.00     0.032 C  
ENDROOT
BRANCH   6  12
HETATM   12  O   UNL     1      -9.703   4.812  68.667  1.00  0.00    -0.150 OA 
BRANCH  12  13
HETATM   13  C   UNL     1     -10.414   5.931  68.918  1.00  0.00    -0.259 C  
HETATM   14  C   UNL     1      -9.554   6.017  71.420  1.00  0.00    -0.180 A  
HETATM   15  C   UNL     1      -9.903   6.737  70.113  1.00  0.00    -0.187 C  
HETATM   16  C   UNL     1      -8.775   7.679  69.678  1.00  0.00    -0.136 C  
HETATM   17  C   UNL     1      -9.979   6.594  72.633  1.00  0.00    -0.185 A  
HETATM   18  O   UNL     1      -7.529   7.009  69.503  1.00  0.00    -0.091 OA 
HETATM   19  O   UNL     1     -11.351   6.283  68.213  1.00  0.00    -0.289 OA 
HETATM   20  C   UNL     1      -9.528   6.113  73.867  1.00  0.00    -0.154 A  
HETATM   21  H   UNL     1      -6.829   7.593  69.233  1.00  0.00     0.000 HD 
HETATM   22  C   UNL     1      -8.648   5.037  73.914  1.00  0.00    -0.106 A  
HETATM   23  C   UNL     1      -8.242   4.429  72.730  1.00  0.00    -0.098 A  
HETATM   24  C   UNL     1      -8.689   4.913  71.493  1.00  0.00    -0.141 A  
ENDBRANCH  12  13
ENDBRANCH   6  12
TORSDOF 2
ENDMDL
MODEL      218
REMARK 921   NORMALIZED FREE ENERGY PREDICTED BY IDOCK:   -2.80 KCAL/MOL
REMARK 922        TOTAL FREE ENERGY PREDICTED BY IDOCK:   -3.63 KCAL/MOL
REMARK 923 INTER-LIGAND FREE ENERGY PREDICTED BY IDOCK:   -3.04 KCAL/MOL
REMARK 924 INTRA-LIGAND FREE ENERGY PREDICTED BY IDOCK:   -0.59 KCAL/MOL
REMARK 927      BINDING AFFINITY PREDICTED BY RF-SCORE:    0.00 PKD
ROOT
HETATM    1  C   UNL     1      -6.150  14.079  69.511  1.00  0.00    -0.108 C  
HETATM    2  N   UNL     1      -7.374  14.586  68.772  1.00  0.00    -0.123 N  
HETATM    3  C   UNL     1      -8.722  13.856  69.032  1.00  0.00     0.222 C  
HETATM    4  C   UNL     1      -7.508  16.076  69.184  1.00  0.00    -0.216 C  
HETATM    5  C   UNL     1      -8.526  12.333  68.844  1.00  0.00     0.234 C  
HETATM    6  C   UNL     1      -8.070  11.959  67.421  1.00  0.00    -0.165 C  
HETATM    7  C   UNL     1      -7.047  12.961  66.838  1.00  0.00     0.400 C  
HETATM    8  O   UNL     1      -9.808  13.921  66.697  1.00  0.00    -0.267 OA 
HETATM    9  C   UNL     1      -7.354  14.441  67.224  1.00  0.00    -0.040 C  
HETATM   10  C   UNL     1      -9.662  14.476  67.997  1.00  0.00    -0.218 C  
HETATM   11  C   UNL     1      -8.764  14.873  66.821  1.00  0.00    -0.246 C  
ENDROOT
BRANCH   6  12
HETATM   12  O   UNL     1      -7.782  10.555  67.207  1.00  0.00    -0.104 OA 
BRANCH  12  13
HETATM   13  C   UNL     1      -8.119   9.912  66.070  1.00  0.00    -0.120 C  
HETATM   14  C   UNL     1      -9.898   8.421  67.342  1.00  0.00    -0.249 A  
HETATM   15  C   UNL     1      -9.496   9.248  66.116  1.00  0.00    -0.298 C  
HETATM   16  C   UNL     1     -10.588  10.256  65.743  1.00  0.00     0.006 C  
HETATM   17  C   UNL     1     -10.543   7.185  67.130  1.00  0.00    -0.417 A  
HETATM   18  O   UNL     1     -10.903  11.153  66.805  1.00  0.00    -0.264 OA 
HETATM   19  O   UNL     1      -7.399   9.911  65.080  1.00  0.00    -0.120 OA 
HETATM   20  C   UNL     1     -11.121   6.474  68.187  1.00  0.00    -0.332 A  
HETATM   21  H   UNL     1     -11.580  11.778  66.574  1.00  0.00     0.000 HD 
HETATM   22  C   UNL     1     -11.059   6.979  69.481  1.00  0.00    -0.221 A  
HETATM   23  C   UNL     1     -10.397   8.180  69.719  1.00  0.00    -0.216 A  
HETATM   24  C   UNL     1      -9.822   8.896  68.661  1.00  0.00    -0.179 A  
ENDBRANCH  12  13
ENDBRANCH   6  12
TORSDOF 2
ENDMDL
MODEL      219
REMARK 921   NORMALIZED FREE ENERGY PREDICTED BY IDOCK:   -2.77 KCAL/MOL
REMARK 922        TOTAL FREE ENERGY PREDICTED BY IDOCK:   -3.60 KCAL/MOL
REMARK 923 INTER-LIGAND FREE ENERGY PREDICTED BY IDOCK:   -3.17 KCAL/MOL
REMARK 924 INTRA-LIGAND FREE ENERGY PREDICTED BY IDOCK:   -0.43 KCAL/MOL
REMARK 927      BINDING AFFINITY PREDICTED BY RF-SCORE:    0.00 PKD
ROOT
HETATM    1  C   UNL     1      -8.328   6.522  71.230  1.00  0.00    -0.125 C  
HETATM    2  N   UNL     1      -9.242   7.731  71.187  1.00  0.00    -0.145 N  
HETATM    3  C   UNL     1     -10.668   7.532  70.600  1.00  0.00    -0.230 C  
HETATM    4  C   UNL     1      -9.353   8.209  72.660  1.00  0.00    -0.272 C  
HETATM    5  C   UNL     1     -10.565   6.839  69.221  1.00  0.00    -0.262 C  
HETATM    6  C   UNL     1      -9.760   7.661  68.197  1.00  0.00    -0.153 C  
HETATM    7  C   UNL     1      -8.529   8.355  68.822  1.00  0.00    -0.124 C  
HETATM    8  O   UNL     1     -11.038   9.760  69.362  1.00  0.00    -0.227 OA 
HETATM    9  C   UNL     1      -8.797   8.898  70.260  1.00  0.00    -0.175 C  
HETATM   10  C   UNL     1     -11.217   8.958  70.521  1.00  0.00    -0.252 C  
HETATM   11  C   UNL     1      -9.991   9.852  70.314  1.00  0.00    -0.203 C  
ENDROOT
BRANCH   6  12
HETATM   12  O   UNL     1      -9.551   7.025  66.913  1.00  0.00    -0.153 OA 
BRANCH  12  13
HETATM   13  C   UNL     1     -10.183   5.887  66.557  1.00  0.00    -0.162 C  
HETATM   14  C   UNL     1      -8.053   5.013  65.251  1.00  0.00    -0.117 A  
HETATM   15  C   UNL     1      -9.239   4.743  66.182  1.00  0.00    -0.144 C  
HETATM   16  C   UNL     1      -8.800   3.980  67.436  1.00  0.00    -0.119 C  
HETATM   17  C   UNL     1      -7.786   4.085  64.224  1.00  0.00    -0.085 A  
HETATM   18  O   UNL     1      -7.793   4.665  68.179  1.00  0.00    -0.080 OA 
HETATM   19  O   UNL     1     -11.402   5.779  66.585  1.00  0.00     0.003 OA 
HETATM   20  C   UNL     1      -6.611   4.151  63.469  1.00  0.00    -0.034 A  
HETATM   21  H   UNL     1      -7.521   4.192  68.957  1.00  0.00     0.000 HD 
HETATM   22  C   UNL     1      -5.679   5.153  63.718  1.00  0.00    -0.017 A  
HETATM   23  C   UNL     1      -5.937   6.102  64.704  1.00  0.00    -0.026 A  
HETATM   24  C   UNL     1      -7.112   6.033  65.464  1.00  0.00    -0.069 A  
ENDBRANCH  12  13
ENDBRANCH   6  12
TORSDOF 2
ENDMDL
MODEL      220
REMARK 921   NORMALIZED FREE ENERGY PREDICTED BY IDOCK:   -2.76 KCAL/MOL
REMARK 922        TOTAL FREE ENERGY PREDICTED BY IDOCK:   -3.59 KCAL/MOL
REMARK 923 INTER-LIGAND FREE ENERGY PREDICTED BY IDOCK:   -3.05 KCAL/MOL
REMARK 924 INTRA-LIGAND FREE ENERGY PREDICTED BY IDOCK:   -0.54 KCAL/MOL
REMARK 927      BINDING AFFINITY PREDICTED BY RF-SCORE:    0.00 PKD
ROOT
HETATM    1  C   UNL     1      -7.011   5.451  70.662  1.00  0.00    -0.056 C  
HETATM    2  N   UNL     1      -7.857   6.233  71.648  1.00  0.00    -0.101 N  
HETATM    3  C   UNL     1      -9.374   6.375  71.336  1.00  0.00    -0.152 C  
HETATM    4  C   UNL     1      -7.677   5.502  73.006  1.00  0.00    -0.097 C  
HETATM    5  C   UNL     1      -9.555   6.889  69.888  1.00  0.00    -0.156 C  
HETATM    6  C   UNL     1      -8.909   8.268  69.657  1.00  0.00    -0.139 C  
HETATM    7  C   UNL     1      -7.553   8.422  70.382  1.00  0.00    -0.072 C  
HETATM    8  O   UNL     1      -9.852   8.769  72.158  1.00  0.00    -0.314 OA 
HETATM    9  C   UNL     1      -7.531   7.747  71.789  1.00  0.00    -0.072 C  
HETATM   10  C   UNL     1      -9.858   7.368  72.395  1.00  0.00    -0.167 C  
HETATM   11  C   UNL     1      -8.648   8.255  72.701  1.00  0.00    -0.198 C  
ENDROOT
BRANCH   6  12
HETATM   12  O   UNL     1      -8.966   8.764  68.298  1.00  0.00    -0.140 OA 
BRANCH  12  13
HETATM   13  C   UNL     1      -8.694  10.047  67.982  1.00  0.00    -0.125 C  
HETATM   14  C   UNL     1      -7.149   9.311  65.963  1.00  0.00    -0.090 A  
HETATM   15  C   UNL     1      -8.216  10.245  66.543  1.00  0.00    -0.127 C  
HETATM   16  C   UNL     1      -9.414  10.379  65.596  1.00  0.00    -0.211 C  
HETATM   17  C   UNL     1      -6.103   9.880  65.209  1.00  0.00    -0.091 A  
HETATM   18  O   UNL     1     -10.028   9.127  65.298  1.00  0.00    -0.397 OA 
HETATM   19  O   UNL     1      -8.867  10.966  68.772  1.00  0.00    -0.158 OA 
HETATM   20  C   UNL     1      -5.214   9.084  64.479  1.00  0.00    -0.050 A  
HETATM   21  H   UNL     1     -10.771   9.209  64.711  1.00  0.00     0.000 HD 
HETATM   22  C   UNL     1      -5.346   7.700  64.495  1.00  0.00    -0.029 A  
HETATM   23  C   UNL     1      -6.350   7.114  65.261  1.00  0.00    -0.037 A  
HETATM   24  C   UNL     1      -7.244   7.910  65.988  1.00  0.00    -0.073 A  
ENDBRANCH  12  13
ENDBRANCH   6  12
TORSDOF 2
ENDMDL
MODEL      221
REMARK 921   NORMALIZED FREE ENERGY PREDICTED BY IDOCK:   -2.74 KCAL/MOL
REMARK 922        TOTAL FREE ENERGY PREDICTED BY IDOCK:   -3.58 KCAL/MOL
REMARK 923 INTER-LIGAND FREE ENERGY PREDICTED BY IDOCK:   -3.13 KCAL/MOL
REMARK 924 INTRA-LIGAND FREE ENERGY PREDICTED BY IDOCK:   -0.44 KCAL/MOL
REMARK 927      BINDING AFFINITY PREDICTED BY RF-SCORE:    0.00 PKD
ROOT
HETATM    1  C   UNL     1      -7.822   7.411  71.218  1.00  0.00    -0.095 C  
HETATM    2  N   UNL     1      -9.219   7.999  71.168  1.00  0.00    -0.146 N  
HETATM    3  C   UNL     1     -10.104   7.638  69.941  1.00  0.00    -0.198 C  
HETATM    4  C   UNL     1      -9.913   7.507  72.466  1.00  0.00    -0.198 C  
HETATM    5  C   UNL     1      -9.316   7.914  68.639  1.00  0.00    -0.145 C  
HETATM    6  C   UNL     1      -8.906   9.391  68.489  1.00  0.00    -0.128 C  
HETATM    7  C   UNL     1      -8.463  10.028  69.826  1.00  0.00    -0.189 C  
HETATM    8  O   UNL     1     -11.370   9.846  69.546  1.00  0.00    -0.209 OA 
HETATM    9  C   UNL     1      -9.311   9.546  71.043  1.00  0.00    -0.001 C  
HETATM   10  C   UNL     1     -11.326   8.544  70.112  1.00  0.00    -0.069 C  
HETATM   11  C   UNL     1     -10.809   9.785  70.847  1.00  0.00    -0.328 C  
ENDROOT
BRANCH   6  12
HETATM   12  O   UNL     1      -8.088   9.697  67.334  1.00  0.00    -0.109 OA 
BRANCH  12  13
HETATM   13  C   UNL     1      -8.165  10.876  66.682  1.00  0.00    -0.145 C  
HETATM   14  C   UNL     1      -7.403   9.764  64.405  1.00  0.00    -0.132 A  
HETATM   15  C   UNL     1      -8.306  10.740  65.165  1.00  0.00    -0.064 C  
HETATM   16  C   UNL     1      -9.778  10.553  64.780  1.00  0.00    -0.305 C  
HETATM   17  C   UNL     1      -6.826  10.195  63.193  1.00  0.00    -0.131 A  
HETATM   18  O   UNL     1     -10.249   9.228  65.017  1.00  0.00    -0.087 OA 
HETATM   19  O   UNL     1      -8.172  11.949  67.271  1.00  0.00    -0.154 OA 
HETATM   20  C   UNL     1      -6.163   9.303  62.343  1.00  0.00    -0.093 A  
HETATM   21  H   UNL     1     -11.162   9.112  64.778  1.00  0.00     0.000 HD 
HETATM   22  C   UNL     1      -6.055   7.961  62.691  1.00  0.00    -0.073 A  
HETATM   23  C   UNL     1      -6.586   7.519  63.900  1.00  0.00    -0.053 A  
HETATM   24  C   UNL     1      -7.255   8.410  64.749  1.00  0.00    -0.082 A  
ENDBRANCH  12  13
ENDBRANCH   6  12
TORSDOF 2
ENDMDL
MODEL      222
REMARK 921   NORMALIZED FREE ENERGY PREDICTED BY IDOCK:   -2.73 KCAL/MOL
REMARK 922        TOTAL FREE ENERGY PREDICTED BY IDOCK:   -3.56 KCAL/MOL
REMARK 923 INTER-LIGAND FREE ENERGY PREDICTED BY IDOCK:   -3.61 KCAL/MOL
REMARK 924 INTRA-LIGAND FREE ENERGY PREDICTED BY IDOCK:    0.05 KCAL/MOL
REMARK 927      BINDING AFFINITY PREDICTED BY RF-SCORE:    0.00 PKD
ROOT
HETATM    1  C   UNL     1      -9.762   3.679  64.971  1.00  0.00    -0.162 C  
HETATM    2  N   UNL     1      -8.707   2.856  65.685  1.00  0.00    -0.121 N  
HETATM    3  C   UNL     1      -8.927   2.566  67.197  1.00  0.00    -0.152 C  
HETATM    4  C   UNL     1      -8.646   1.514  64.908  1.00  0.00    -0.098 C  
HETATM    5  C   UNL     1      -9.220   3.892  67.938  1.00  0.00    -0.209 C  
HETATM    6  C   UNL     1      -8.066   4.907  67.828  1.00  0.00    -0.094 C  
HETATM    7  C   UNL     1      -7.408   4.916  66.430  1.00  0.00    -0.082 C  
HETATM    8  O   UNL     1      -6.519   2.688  68.105  1.00  0.00    -0.031 OA 
HETATM    9  C   UNL     1      -7.294   3.494  65.798  1.00  0.00    -0.076 C  
HETATM   10  C   UNL     1      -7.609   1.914  67.624  1.00  0.00    -0.059 C  
HETATM   11  C   UNL     1      -6.545   2.510  66.698  1.00  0.00    -0.039 C  
ENDROOT
BRANCH   6  12
HETATM   12  O   UNL     1      -8.317   6.203  68.425  1.00  0.00    -0.113 OA 
BRANCH  12  13
HETATM   13  C   UNL     1      -9.476   6.502  69.046  1.00  0.00    -0.130 C  
HETATM   14  C   UNL     1      -9.783   8.695  67.597  1.00  0.00    -0.201 A  
HETATM   15  C   UNL     1     -10.381   7.446  68.252  1.00  0.00    -0.231 C  
HETATM   16  C   UNL     1     -11.240   6.654  67.260  1.00  0.00    -0.228 C  
HETATM   17  C   UNL     1     -10.491   9.910  67.707  1.00  0.00    -0.292 A  
HETATM   18  O   UNL     1     -10.518   6.250  66.099  1.00  0.00    -0.438 OA 
HETATM   19  O   UNL     1      -9.786   6.014  70.125  1.00  0.00    -0.161 OA 
HETATM   20  C   UNL     1     -10.121  11.039  66.969  1.00  0.00    -0.232 A  
HETATM   21  H   UNL     1     -11.051   5.759  65.484  1.00  0.00     0.000 HD 
HETATM   22  C   UNL     1      -9.028  10.981  66.111  1.00  0.00    -0.203 A  
HETATM   23  C   UNL     1      -8.293   9.803  66.012  1.00  0.00    -0.123 A  
HETATM   24  C   UNL     1      -8.666   8.670  66.746  1.00  0.00    -0.135 A  
ENDBRANCH  12  13
ENDBRANCH   6  12
TORSDOF 2
ENDMDL
MODEL      223
REMARK 921   NORMALIZED FREE ENERGY PREDICTED BY IDOCK:   -2.64 KCAL/MOL
REMARK 922        TOTAL FREE ENERGY PREDICTED BY IDOCK:   -3.46 KCAL/MOL
REMARK 923 INTER-LIGAND FREE ENERGY PREDICTED BY IDOCK:   -2.93 KCAL/MOL
REMARK 924 INTRA-LIGAND FREE ENERGY PREDICTED BY IDOCK:   -0.53 KCAL/MOL
REMARK 927      BINDING AFFINITY PREDICTED BY RF-SCORE:    0.00 PKD
ROOT
HETATM    1  C   UNL     1      -8.308  10.813  68.374  1.00  0.00    -0.132 C  
HETATM    2  N   UNL     1      -8.737  11.132  66.955  1.00  0.00    -0.144 N  
HETATM    3  C   UNL     1     -10.025  10.441  66.423  1.00  0.00    -0.221 C  
HETATM    4  C   UNL     1      -8.931  12.672  66.927  1.00  0.00    -0.213 C  
HETATM    5  C   UNL     1      -9.927   8.916  66.665  1.00  0.00    -0.346 C  
HETATM    6  C   UNL     1      -8.728   8.271  65.944  1.00  0.00    -0.159 C  
HETATM    7  C   UNL     1      -7.462   9.155  65.980  1.00  0.00    -0.095 C  
HETATM    8  O   UNL     1      -9.402  10.006  63.962  1.00  0.00    -0.263 OA 
HETATM    9  C   UNL     1      -7.773  10.676  65.824  1.00  0.00    -0.130 C  
HETATM   10  C   UNL     1     -10.037  10.817  64.940  1.00  0.00    -0.322 C  
HETATM   11  C   UNL     1      -8.565  10.986  64.553  1.00  0.00     0.130 C  
ENDROOT
BRANCH   6  12
HETATM   12  O   UNL     1      -8.530   6.860  66.204  1.00  0.00    -0.123 OA 
BRANCH  12  13
HETATM   13  C   UNL     1      -8.177   5.987  65.238  1.00  0.00    -0.138 C  
HETATM   14  C   UNL     1      -6.933   4.431  66.980  1.00  0.00    -0.063 A  
HETATM   15  C   UNL     1      -7.840   4.588  65.756  1.00  0.00    -0.095 C  
HETATM   16  C   UNL     1      -9.116   3.750  65.897  1.00  0.00    -0.150 C  
HETATM   17  C   UNL     1      -5.926   3.446  66.942  1.00  0.00    -0.024 A  
HETATM   18  O   UNL     1      -9.871   4.080  67.060  1.00  0.00    -0.219 OA 
HETATM   19  O   UNL     1      -8.179   6.289  64.051  1.00  0.00    -0.096 OA 
HETATM   20  C   UNL     1      -5.197   3.103  68.086  1.00  0.00    -0.012 A  
HETATM   21  H   UNL     1     -10.662   3.560  67.148  1.00  0.00     0.000 HD 
HETATM   22  C   UNL     1      -5.453   3.746  69.292  1.00  0.00    -0.016 A  
HETATM   23  C   UNL     1      -6.419   4.747  69.345  1.00  0.00    -0.036 A  
HETATM   24  C   UNL     1      -7.153   5.087  68.202  1.00  0.00    -0.062 A  
ENDBRANCH  12  13
ENDBRANCH   6  12
TORSDOF 2
ENDMDL
MODEL      224
REMARK 921   NORMALIZED FREE ENERGY PREDICTED BY IDOCK:   -2.63 KCAL/MOL
REMARK 922        TOTAL FREE ENERGY PREDICTED BY IDOCK:   -3.45 KCAL/MOL
REMARK 923 INTER-LIGAND FREE ENERGY PREDICTED BY IDOCK:   -3.12 KCAL/MOL
REMARK 924 INTRA-LIGAND FREE ENERGY PREDICTED BY IDOCK:   -0.33 KCAL/MOL
REMARK 927      BINDING AFFINITY PREDICTED BY RF-SCORE:    0.00 PKD
ROOT
HETATM    1  C   UNL     1     -11.796  15.307  66.587  1.00  0.00     0.157 C  
HETATM    2  N   UNL     1     -10.697  15.720  67.548  1.00  0.00    -0.313 N  
HETATM    3  C   UNL     1      -9.228  15.593  67.053  1.00  0.00    -0.222 C  
HETATM    4  C   UNL     1     -10.997  17.202  67.895  1.00  0.00    -0.208 C  
HETATM    5  C   UNL     1      -8.996  14.171  66.489  1.00  0.00    -0.140 C  
HETATM    6  C   UNL     1      -9.223  13.066  67.539  1.00  0.00    -0.195 C  
HETATM    7  C   UNL     1     -10.426  13.358  68.464  1.00  0.00    -0.260 C  
HETATM    8  O   UNL     1      -8.018  14.849  69.202  1.00  0.00    -0.162 OA 
HETATM    9  C   UNL     1     -10.556  14.867  68.841  1.00  0.00    -0.247 C  
HETATM   10  C   UNL     1      -8.408  15.885  68.312  1.00  0.00    -0.165 C  
HETATM   11  C   UNL     1      -9.284  15.424  69.481  1.00  0.00    -0.240 C  
ENDROOT
BRANCH   6  12
HETATM   12  O   UNL     1      -9.109  11.708  67.048  1.00  0.00    -0.170 OA 
BRANCH  12  13
HETATM   13  C   UNL     1      -9.079  10.641  67.873  1.00  0.00    -0.145 C  
HETATM   14  C   UNL     1      -7.035   9.583  66.565  1.00  0.00    -0.085 A  
HETATM   15  C   UNL     1      -7.738   9.904  67.887  1.00  0.00    -0.090 C  
HETATM   16  C   UNL     1      -6.777  10.565  68.882  1.00  0.00    -0.060 C  
HETATM   17  C   UNL     1      -6.470   8.302  66.404  1.00  0.00    -0.054 A  
HETATM   18  O   UNL     1      -6.196  11.766  68.379  1.00  0.00    -0.049 OA 
HETATM   19  O   UNL     1     -10.030  10.331  68.577  1.00  0.00    -0.155 OA 
HETATM   20  C   UNL     1      -5.640   8.001  65.319  1.00  0.00    -0.040 A  
HETATM   21  H   UNL     1      -5.601  12.176  68.996  1.00  0.00     0.000 HD 
HETATM   22  C   UNL     1      -5.365   8.974  64.364  1.00  0.00    -0.054 A  
HETATM   23  C   UNL     1      -5.940  10.236  64.483  1.00  0.00    -0.132 A  
HETATM   24  C   UNL     1      -6.767  10.540  65.573  1.00  0.00    -0.092 A  
ENDBRANCH  12  13
ENDBRANCH   6  12
TORSDOF 2
ENDMDL
MODEL      225
REMARK 921   NORMALIZED FREE ENERGY PREDICTED BY IDOCK:   -2.58 KCAL/MOL
REMARK 922        TOTAL FREE ENERGY PREDICTED BY IDOCK:   -3.39 KCAL/MOL
REMARK 923 INTER-LIGAND FREE ENERGY PREDICTED BY IDOCK:   -3.39 KCAL/MOL
REMARK 924 INTRA-LIGAND FREE ENERGY PREDICTED BY IDOCK:   -0.00 KCAL/MOL
REMARK 927      BINDING AFFINITY PREDICTED BY RF-SCORE:    0.00 PKD
ROOT
HETATM    1  C   UNL     1     -11.135  10.899  69.681  1.00  0.00    -0.266 C  
HETATM    2  N   UNL     1     -10.669  11.506  68.372  1.00  0.00    -0.197 N  
HETATM    3  C   UNL     1     -10.970  10.715  67.067  1.00  0.00    -0.208 C  
HETATM    4  C   UNL     1     -11.357  12.896  68.301  1.00  0.00    -0.291 C  
HETATM    5  C   UNL     1     -10.487   9.254  67.228  1.00  0.00    -0.334 C  
HETATM    6  C   UNL     1      -8.972   9.150  67.488  1.00  0.00    -0.122 C  
HETATM    7  C   UNL     1      -8.449  10.259  68.427  1.00  0.00    -0.124 C  
HETATM    8  O   UNL     1      -8.851  11.175  65.678  1.00  0.00    -0.196 OA 
HETATM    9  C   UNL     1      -9.131  11.640  68.183  1.00  0.00    -0.183 C  
HETATM   10  C   UNL     1     -10.198  11.492  65.999  1.00  0.00    -0.242 C  
HETATM   11  C   UNL     1      -9.004  12.110  66.733  1.00  0.00    -0.203 C  
ENDROOT
BRANCH   6  12
HETATM   12  O   UNL     1      -8.473   7.813  67.737  1.00  0.00    -0.121 OA 
BRANCH  12  13
HETATM   13  C   UNL     1      -8.851   6.749  66.998  1.00  0.00    -0.115 C  
HETATM   14  C   UNL     1      -7.377   7.542  64.948  1.00  0.00    -0.079 A  
HETATM   15  C   UNL     1      -7.896   6.418  65.850  1.00  0.00    -0.102 C  
HETATM   16  C   UNL     1      -6.751   5.530  66.348  1.00  0.00    -0.057 C  
HETATM   17  C   UNL     1      -7.348   7.321  63.557  1.00  0.00    -0.082 A  
HETATM   18  O   UNL     1      -5.756   6.257  67.065  1.00  0.00    -0.012 OA 
HETATM   19  O   UNL     1      -9.846   6.087  67.265  1.00  0.00    -0.121 OA 
HETATM   20  C   UNL     1      -6.702   8.209  62.690  1.00  0.00    -0.086 A  
HETATM   21  H   UNL     1      -5.046   5.706  67.374  1.00  0.00     0.000 HD 
HETATM   22  C   UNL     1      -6.078   9.344  63.196  1.00  0.00    -0.091 A  
HETATM   23  C   UNL     1      -6.124   9.602  64.564  1.00  0.00    -0.088 A  
HETATM   24  C   UNL     1      -6.766   8.710  65.433  1.00  0.00    -0.067 A  
ENDBRANCH  12  13
ENDBRANCH   6  12
TORSDOF 2
ENDMDL
MODEL      226
REMARK 921   NORMALIZED FREE ENERGY PREDICTED BY IDOCK:   -2.57 KCAL/MOL
REMARK 922        TOTAL FREE ENERGY PREDICTED BY IDOCK:   -3.38 KCAL/MOL
REMARK 923 INTER-LIGAND FREE ENERGY PREDICTED BY IDOCK:   -3.00 KCAL/MOL
REMARK 924 INTRA-LIGAND FREE ENERGY PREDICTED BY IDOCK:   -0.38 KCAL/MOL
REMARK 927      BINDING AFFINITY PREDICTED BY RF-SCORE:    0.00 PKD
ROOT
HETATM    1  C   UNL     1      -8.319   8.763  65.131  1.00  0.00    -0.167 C  
HETATM    2  N   UNL     1      -7.325   7.692  64.724  1.00  0.00    -0.071 N  
HETATM    3  C   UNL     1      -7.831   6.222  64.689  1.00  0.00    -0.111 C  
HETATM    4  C   UNL     1      -6.843   8.104  63.308  1.00  0.00    -0.084 C  
HETATM    5  C   UNL     1      -8.524   5.884  66.030  1.00  0.00    -0.137 C  
HETATM    6  C   UNL     1      -7.581   6.015  67.241  1.00  0.00    -0.093 C  
HETATM    7  C   UNL     1      -6.631   7.229  67.130  1.00  0.00    -0.063 C  
HETATM    8  O   UNL     1      -5.762   4.940  65.530  1.00  0.00    -0.017 OA 
HETATM    9  C   UNL     1      -6.117   7.474  65.678  1.00  0.00    -0.038 C  
HETATM   10  C   UNL     1      -6.552   5.417  64.450  1.00  0.00    -0.042 C  
HETATM   11  C   UNL     1      -5.429   6.244  65.083  1.00  0.00    -0.017 C  
ENDROOT
BRANCH   6  12
HETATM   12  O   UNL     1      -8.194   5.799  68.535  1.00  0.00    -0.106 OA 
BRANCH  12  13
HETATM   13  C   UNL     1      -7.476   5.484  69.633  1.00  0.00    -0.070 C  
HETATM   14  C   UNL     1      -9.247   6.639  71.226  1.00  0.00    -0.155 A  
HETATM   15  C   UNL     1      -8.291   5.480  70.928  1.00  0.00    -0.120 C  
HETATM   16  C   UNL     1      -8.981   4.125  71.121  1.00  0.00    -0.117 C  
HETATM   17  C   UNL     1      -9.262   7.174  72.529  1.00  0.00    -0.159 A  
HETATM   18  O   UNL     1     -10.139   3.971  70.305  1.00  0.00    -0.120 OA 
HETATM   19  O   UNL     1      -6.292   5.181  69.576  1.00  0.00    -0.031 OA 
HETATM   20  C   UNL     1     -10.243   8.085  72.933  1.00  0.00    -0.384 A  
HETATM   21  H   UNL     1     -10.567   3.131  70.424  1.00  0.00     0.000 HD 
HETATM   22  C   UNL     1     -11.227   8.490  72.037  1.00  0.00    -0.418 A  
HETATM   23  C   UNL     1     -11.212   8.002  70.733  1.00  0.00    -0.275 A  
HETATM   24  C   UNL     1     -10.233   7.084  70.330  1.00  0.00    -0.206 A  
ENDBRANCH  12  13
ENDBRANCH   6  12
TORSDOF 2
ENDMDL
MODEL      227
REMARK 921   NORMALIZED FREE ENERGY PREDICTED BY IDOCK:   -2.57 KCAL/MOL
REMARK 922        TOTAL FREE ENERGY PREDICTED BY IDOCK:   -3.38 KCAL/MOL
REMARK 923 INTER-LIGAND FREE ENERGY PREDICTED BY IDOCK:   -2.79 KCAL/MOL
REMARK 924 INTRA-LIGAND FREE ENERGY PREDICTED BY IDOCK:   -0.59 KCAL/MOL
REMARK 927      BINDING AFFINITY PREDICTED BY RF-SCORE:    0.00 PKD
ROOT
HETATM    1  C   UNL     1     -10.341   9.838  68.315  1.00  0.00    -0.198 C  
HETATM    2  N   UNL     1     -10.669   9.539  69.765  1.00  0.00    -0.229 N  
HETATM    3  C   UNL     1      -9.477   9.273  70.729  1.00  0.00    -0.271 C  
HETATM    4  C   UNL     1     -11.467  10.774  70.263  1.00  0.00    -0.319 C  
HETATM    5  C   UNL     1      -8.550   8.198  70.116  1.00  0.00    -0.129 C  
HETATM    6  C   UNL     1      -9.263   6.852  69.887  1.00  0.00    -0.147 C  
HETATM    7  C   UNL     1     -10.713   7.022  69.379  1.00  0.00    -0.259 C  
HETATM    8  O   UNL     1     -10.447   7.445  72.262  1.00  0.00    -0.208 OA 
HETATM    9  C   UNL     1     -11.455   8.226  70.038  1.00  0.00     0.094 C  
HETATM   10  C   UNL     1     -10.165   8.815  72.018  1.00  0.00    -0.331 C  
HETATM   11  C   UNL     1     -11.465   8.144  71.566  1.00  0.00    -0.267 C  
ENDROOT
BRANCH   6  12
HETATM   12  O   UNL     1      -8.472   5.831  69.231  1.00  0.00    -0.106 OA 
BRANCH  12  13
HETATM   13  C   UNL     1      -7.695   4.966  69.916  1.00  0.00    -0.056 C  
HETATM   14  C   UNL     1      -6.527   4.126  67.694  1.00  0.00    -0.038 A  
HETATM   15  C   UNL     1      -6.432   4.538  69.166  1.00  0.00    -0.039 C  
HETATM   16  C   UNL     1      -5.309   5.557  69.387  1.00  0.00    -0.004 C  
HETATM   17  C   UNL     1      -5.819   2.982  67.274  1.00  0.00    -0.023 A  
HETATM   18  O   UNL     1      -5.465   6.736  68.601  1.00  0.00    -0.015 OA 
HETATM   19  O   UNL     1      -7.963   4.605  71.054  1.00  0.00    -0.078 OA 
HETATM   20  C   UNL     1      -5.689   2.661  65.919  1.00  0.00    -0.018 A  
HETATM   21  H   UNL     1      -4.769   7.368  68.738  1.00  0.00     0.000 HD 
HETATM   22  C   UNL     1      -6.273   3.474  64.953  1.00  0.00    -0.024 A  
HETATM   23  C   UNL     1      -7.007   4.590  65.345  1.00  0.00    -0.062 A  
HETATM   24  C   UNL     1      -7.133   4.915  66.702  1.00  0.00    -0.068 A  
ENDBRANCH  12  13
ENDBRANCH   6  12
TORSDOF 2
ENDMDL
MODEL      228
REMARK 921   NORMALIZED FREE ENERGY PREDICTED BY IDOCK:   -2.54 KCAL/MOL
REMARK 922        TOTAL FREE ENERGY PREDICTED BY IDOCK:   -3.35 KCAL/MOL
REMARK 923 INTER-LIGAND FREE ENERGY PREDICTED BY IDOCK:   -2.82 KCAL/MOL
REMARK 924 INTRA-LIGAND FREE ENERGY PREDICTED BY IDOCK:   -0.53 KCAL/MOL
REMARK 927      BINDING AFFINITY PREDICTED BY RF-SCORE:    0.00 PKD
ROOT
HETATM    1  C   UNL     1     -10.449   7.857  71.347  1.00  0.00    -0.206 C  
HETATM    2  N   UNL     1     -10.197   8.877  70.254  1.00  0.00    -0.192 N  
HETATM    3  C   UNL     1     -10.472   8.439  68.788  1.00  0.00    -0.178 C  
HETATM    4  C   UNL     1     -11.104  10.085  70.610  1.00  0.00    -0.335 C  
HETATM    5  C   UNL     1      -9.747   7.102  68.505  1.00  0.00    -0.143 C  
HETATM    6  C   UNL     1      -8.219   7.202  68.675  1.00  0.00    -0.125 C  
HETATM    7  C   UNL     1      -7.807   8.082  69.877  1.00  0.00    -0.102 C  
HETATM    8  O   UNL     1      -8.577   9.639  67.522  1.00  0.00    -0.125 OA 
HETATM    9  C   UNL     1      -8.722   9.331  70.063  1.00  0.00    -0.195 C  
HETATM   10  C   UNL     1      -9.926   9.608  67.965  1.00  0.00    -0.160 C  
HETATM   11  C   UNL     1      -8.792  10.201  68.806  1.00  0.00    -0.146 C  
ENDROOT
BRANCH   6  12
HETATM   12  O   UNL     1      -7.491   5.961  68.512  1.00  0.00    -0.082 OA 
BRANCH  12  13
HETATM   13  C   UNL     1      -7.952   4.784  68.983  1.00  0.00    -0.075 C  
HETATM   14  C   UNL     1      -8.001   3.735  66.553  1.00  0.00    -0.089 A  
HETATM   15  C   UNL     1      -7.700   3.599  68.049  1.00  0.00    -0.069 C  
HETATM   16  C   UNL     1      -6.300   3.022  68.285  1.00  0.00    -0.032 C  
HETATM   17  C   UNL     1      -8.661   2.671  65.906  1.00  0.00    -0.127 A  
HETATM   18  O   UNL     1      -5.269   3.806  67.689  1.00  0.00    -0.007 OA 
HETATM   19  O   UNL     1      -8.479   4.680  70.083  1.00  0.00    -0.073 OA 
HETATM   20  C   UNL     1      -8.787   2.629  64.514  1.00  0.00    -0.112 A  
HETATM   21  H   UNL     1      -4.401   3.448  67.836  1.00  0.00     0.000 HD 
HETATM   22  C   UNL     1      -8.263   3.657  63.738  1.00  0.00    -0.090 A  
HETATM   23  C   UNL     1      -7.637   4.736  64.357  1.00  0.00    -0.073 A  
HETATM   24  C   UNL     1      -7.506   4.776  65.751  1.00  0.00    -0.081 A  
ENDBRANCH  12  13
ENDBRANCH   6  12
TORSDOF 2
ENDMDL
MODEL      229
REMARK 921   NORMALIZED FREE ENERGY PREDICTED BY IDOCK:   -2.52 KCAL/MOL
REMARK 922        TOTAL FREE ENERGY PREDICTED BY IDOCK:   -3.33 KCAL/MOL
REMARK 923 INTER-LIGAND FREE ENERGY PREDICTED BY IDOCK:   -2.70 KCAL/MOL
REMARK 924 INTRA-LIGAND FREE ENERGY PREDICTED BY IDOCK:   -0.63 KCAL/MOL
REMARK 927      BINDING AFFINITY PREDICTED BY RF-SCORE:    0.00 PKD
ROOT
HETATM    1  C   UNL     1      -6.147   8.740  71.423  1.00  0.00    -0.056 C  
HETATM    2  N   UNL     1      -7.420   8.182  72.028  1.00  0.00    -0.090 N  
HETATM    3  C   UNL     1      -7.835   6.740  71.619  1.00  0.00    -0.101 C  
HETATM    4  C   UNL     1      -7.198   8.237  73.564  1.00  0.00    -0.116 C  
HETATM    5  C   UNL     1      -7.831   6.621  70.077  1.00  0.00    -0.111 C  
HETATM    6  C   UNL     1      -8.817   7.592  69.399  1.00  0.00    -0.136 C  
HETATM    7  C   UNL     1      -8.856   8.978  70.081  1.00  0.00    -0.196 C  
HETATM    8  O   UNL     1     -10.400   6.947  71.514  1.00  0.00    -0.203 OA 
HETATM    9  C   UNL     1      -8.743   8.898  71.635  1.00  0.00    -0.116 C  
HETATM   10  C   UNL     1      -9.229   6.589  72.233  1.00  0.00    -0.138 C  
HETATM   11  C   UNL     1      -9.816   8.003  72.257  1.00  0.00    -0.236 C  
ENDROOT
BRANCH   6  12
HETATM   12  O   UNL     1      -8.795   7.592  67.951  1.00  0.00    -0.127 OA 
BRANCH  12  13
HETATM   13  C   UNL     1      -9.908   7.416  67.209  1.00  0.00    -0.175 C  
HETATM   14  C   UNL     1      -8.609   5.907  65.466  1.00  0.00    -0.150 A  
HETATM   15  C   UNL     1      -9.862   6.186  66.302  1.00  0.00    -0.081 C  
HETATM   16  C   UNL     1     -10.307   4.937  67.072  1.00  0.00    -0.155 C  
HETATM   17  C   UNL     1      -8.777   5.510  64.124  1.00  0.00     0.083 A  
HETATM   18  O   UNL     1      -9.294   4.429  67.937  1.00  0.00    -0.131 OA 
HETATM   19  O   UNL     1     -10.880   8.155  67.302  1.00  0.00    -0.248 OA 
HETATM   20  C   UNL     1      -7.702   5.042  63.361  1.00  0.00    -0.074 A  
HETATM   21  H   UNL     1      -9.570   3.655  68.415  1.00  0.00     0.000 HD 
HETATM   22  C   UNL     1      -6.431   4.969  63.923  1.00  0.00    -0.033 A  
HETATM   23  C   UNL     1      -6.234   5.389  65.235  1.00  0.00    -0.034 A  
HETATM   24  C   UNL     1      -7.312   5.852  66.001  1.00  0.00    -0.077 A  
ENDBRANCH  12  13
ENDBRANCH   6  12
TORSDOF 2
ENDMDL
MODEL      230
REMARK 921   NORMALIZED FREE ENERGY PREDICTED BY IDOCK:   -2.49 KCAL/MOL
REMARK 922        TOTAL FREE ENERGY PREDICTED BY IDOCK:   -3.30 KCAL/MOL
REMARK 923 INTER-LIGAND FREE ENERGY PREDICTED BY IDOCK:   -3.53 KCAL/MOL
REMARK 924 INTRA-LIGAND FREE ENERGY PREDICTED BY IDOCK:    0.23 KCAL/MOL
REMARK 927      BINDING AFFINITY PREDICTED BY RF-SCORE:    0.00 PKD
ROOT
HETATM    1  C   UNL     1      -6.189   8.205  72.087  1.00  0.00    -0.054 C  
HETATM    2  N   UNL     1      -6.735   7.056  72.914  1.00  0.00    -0.068 N  
HETATM    3  C   UNL     1      -7.080   5.736  72.166  1.00  0.00    -0.087 C  
HETATM    4  C   UNL     1      -5.646   6.772  73.982  1.00  0.00    -0.054 C  
HETATM    5  C   UNL     1      -7.986   6.054  70.953  1.00  0.00    -0.115 C  
HETATM    6  C   UNL     1      -9.319   6.713  71.358  1.00  0.00    -0.151 C  
HETATM    7  C   UNL     1      -9.156   7.734  72.507  1.00  0.00    -0.223 C  
HETATM    8  O   UNL     1      -9.185   4.958  73.430  1.00  0.00    -0.123 OA 
HETATM    9  C   UNL     1      -8.120   7.284  73.583  1.00  0.00    -0.118 C  
HETATM   10  C   UNL     1      -7.779   4.898  73.239  1.00  0.00    -0.093 C  
HETATM   11  C   UNL     1      -8.445   5.912  74.174  1.00  0.00    -0.112 C  
ENDROOT
BRANCH   6  12
HETATM   12  O   UNL     1     -10.173   7.118  70.260  1.00  0.00    -0.194 OA 
BRANCH  12  13
HETATM   13  C   UNL     1     -10.203   6.456  69.085  1.00  0.00    -0.182 C  
HETATM   14  C   UNL     1      -9.923   8.704  67.716  1.00  0.00    -0.240 A  
HETATM   15  C   UNL     1      -9.576   7.227  67.921  1.00  0.00    -0.153 C  
HETATM   16  C   UNL     1      -8.060   7.000  67.887  1.00  0.00    -0.115 C  
HETATM   17  C   UNL     1     -10.192   9.151  66.407  1.00  0.00    -0.300 A  
HETATM   18  O   UNL     1      -7.362   7.765  68.867  1.00  0.00    -0.082 OA 
HETATM   19  O   UNL     1     -10.651   5.321  68.984  1.00  0.00    -0.188 OA 
HETATM   20  C   UNL     1     -10.312  10.513  66.110  1.00  0.00    -0.276 A  
HETATM   21  H   UNL     1      -6.423   7.625  68.846  1.00  0.00     0.000 HD 
HETATM   22  C   UNL     1     -10.176  11.458  67.121  1.00  0.00    -0.234 A  
HETATM   23  C   UNL     1      -9.945  11.040  68.428  1.00  0.00    -0.194 A  
HETATM   24  C   UNL     1      -9.819   9.676  68.725  1.00  0.00    -0.173 A  
ENDBRANCH  12  13
ENDBRANCH   6  12
TORSDOF 2
ENDMDL
MODEL      231
REMARK 921   NORMALIZED FREE ENERGY PREDICTED BY IDOCK:   -2.49 KCAL/MOL
REMARK 922        TOTAL FREE ENERGY PREDICTED BY IDOCK:   -3.29 KCAL/MOL
REMARK 923 INTER-LIGAND FREE ENERGY PREDICTED BY IDOCK:   -2.51 KCAL/MOL
REMARK 924 INTRA-LIGAND FREE ENERGY PREDICTED BY IDOCK:   -0.78 KCAL/MOL
REMARK 927      BINDING AFFINITY PREDICTED BY RF-SCORE:    0.00 PKD
ROOT
HETATM    1  C   UNL     1      -7.650   7.758  70.159  1.00  0.00    -0.085 C  
HETATM    2  N   UNL     1      -8.606   6.973  71.036  1.00  0.00    -0.133 N  
HETATM    3  C   UNL     1      -8.076   5.659  71.678  1.00  0.00    -0.118 C  
HETATM    4  C   UNL     1      -9.030   7.959  72.158  1.00  0.00    -0.146 C  
HETATM    5  C   UNL     1      -7.439   4.772  70.582  1.00  0.00    -0.057 C  
HETATM    6  C   UNL     1      -8.439   4.372  69.480  1.00  0.00    -0.076 C  
HETATM    7  C   UNL     1      -9.402   5.520  69.101  1.00  0.00    -0.158 C  
HETATM    8  O   UNL     1     -10.160   4.151  71.573  1.00  0.00    -0.179 OA 
HETATM    9  C   UNL     1      -9.853   6.370  70.329  1.00  0.00    -0.168 C  
HETATM   10  C   UNL     1      -9.330   5.043  72.302  1.00  0.00    -0.138 C  
HETATM   11  C   UNL     1     -10.493   5.521  71.429  1.00  0.00    -0.240 C  
ENDROOT
BRANCH   6  12
HETATM   12  O   UNL     1      -7.882   3.616  68.378  1.00  0.00    -0.063 OA 
BRANCH  12  13
HETATM   13  C   UNL     1      -8.652   2.936  67.504  1.00  0.00    -0.101 C  
HETATM   14  C   UNL     1      -7.914   4.504  65.504  1.00  0.00    -0.095 A  
HETATM   15  C   UNL     1      -8.233   3.106  66.042  1.00  0.00    -0.094 C  
HETATM   16  C   UNL     1      -7.130   2.105  65.683  1.00  0.00    -0.052 C  
HETATM   17  C   UNL     1      -8.420   4.863  64.238  1.00  0.00    -0.137 A  
HETATM   18  O   UNL     1      -5.848   2.493  66.173  1.00  0.00    -0.021 OA 
HETATM   19  O   UNL     1      -9.570   2.211  67.866  1.00  0.00    -0.175 OA 
HETATM   20  C   UNL     1      -8.006   6.032  63.591  1.00  0.00    -0.108 A  
HETATM   21  H   UNL     1      -5.164   1.872  65.951  1.00  0.00     0.000 HD 
HETATM   22  C   UNL     1      -7.082   6.874  64.202  1.00  0.00    -0.059 A  
HETATM   23  C   UNL     1      -6.595   6.558  65.467  1.00  0.00    -0.043 A  
HETATM   24  C   UNL     1      -7.005   5.384  66.113  1.00  0.00    -0.063 A  
ENDBRANCH  12  13
ENDBRANCH   6  12
TORSDOF 2
ENDMDL
MODEL      232
REMARK 921   NORMALIZED FREE ENERGY PREDICTED BY IDOCK:   -2.48 KCAL/MOL
REMARK 922        TOTAL FREE ENERGY PREDICTED BY IDOCK:   -3.28 KCAL/MOL
REMARK 923 INTER-LIGAND FREE ENERGY PREDICTED BY IDOCK:   -2.72 KCAL/MOL
REMARK 924 INTRA-LIGAND FREE ENERGY PREDICTED BY IDOCK:   -0.56 KCAL/MOL
REMARK 927      BINDING AFFINITY PREDICTED BY RF-SCORE:    0.00 PKD
ROOT
HETATM    1  C   UNL     1      -6.880   8.724  65.043  1.00  0.00    -0.072 C  
HETATM    2  N   UNL     1      -7.984   9.756  65.181  1.00  0.00    -0.123 N  
HETATM    3  C   UNL     1      -7.949  10.679  66.432  1.00  0.00    -0.142 C  
HETATM    4  C   UNL     1      -7.890  10.624  63.897  1.00  0.00     0.124 C  
HETATM    5  C   UNL     1      -7.808   9.814  67.706  1.00  0.00    -0.094 C  
HETATM    6  C   UNL     1      -8.979   8.831  67.895  1.00  0.00    -0.140 C  
HETATM    7  C   UNL     1      -9.451   8.200  66.565  1.00  0.00    -0.286 C  
HETATM    8  O   UNL     1     -10.456  10.918  66.971  1.00  0.00    -0.221 OA 
HETATM    9  C   UNL     1      -9.425   9.203  65.370  1.00  0.00    -0.160 C  
HETATM   10  C   UNL     1      -9.283  11.426  66.353  1.00  0.00    -0.197 C  
HETATM   11  C   UNL     1     -10.243  10.466  65.645  1.00  0.00    -0.238 C  
ENDROOT
BRANCH   6  12
HETATM   12  O   UNL     1      -8.860   7.929  69.022  1.00  0.00    -0.144 OA 
BRANCH  12  13
HETATM   13  C   UNL     1      -9.833   7.793  69.947  1.00  0.00    -0.177 C  
HETATM   14  C   UNL     1      -8.147   6.729  71.688  1.00  0.00    -0.106 A  
HETATM   15  C   UNL     1      -9.316   7.671  71.381  1.00  0.00    -0.157 C  
HETATM   16  C   UNL     1      -9.084   9.060  71.985  1.00  0.00     0.100 C  
HETATM   17  C   UNL     1      -8.232   5.911  72.833  1.00  0.00    -0.118 A  
HETATM   18  O   UNL     1      -7.881   9.672  71.525  1.00  0.00    -0.149 OA 
HETATM   19  O   UNL     1     -11.022   7.818  69.654  1.00  0.00    -0.220 OA 
HETATM   20  C   UNL     1      -7.131   5.182  73.292  1.00  0.00    -0.081 A  
HETATM   21  H   UNL     1      -7.737  10.534  71.899  1.00  0.00     0.000 HD 
HETATM   22  C   UNL     1      -5.921   5.247  72.609  1.00  0.00    -0.027 A  
HETATM   23  C   UNL     1      -5.823   6.019  71.455  1.00  0.00    -0.027 A  
HETATM   24  C   UNL     1      -6.924   6.755  70.998  1.00  0.00    -0.067 A  
ENDBRANCH  12  13
ENDBRANCH   6  12
TORSDOF 2
ENDMDL
MODEL      233
REMARK 921   NORMALIZED FREE ENERGY PREDICTED BY IDOCK:   -2.42 KCAL/MOL
REMARK 922        TOTAL FREE ENERGY PREDICTED BY IDOCK:   -3.21 KCAL/MOL
REMARK 923 INTER-LIGAND FREE ENERGY PREDICTED BY IDOCK:   -3.02 KCAL/MOL
REMARK 924 INTRA-LIGAND FREE ENERGY PREDICTED BY IDOCK:   -0.19 KCAL/MOL
REMARK 927      BINDING AFFINITY PREDICTED BY RF-SCORE:    0.00 PKD
ROOT
HETATM    1  C   UNL     1     -10.258   4.092  64.789  1.00  0.00    -0.212 C  
HETATM    2  N   UNL     1      -9.275   3.414  65.724  1.00  0.00    -0.153 N  
HETATM    3  C   UNL     1      -9.573   3.481  67.249  1.00  0.00    -0.122 C  
HETATM    4  C   UNL     1      -9.241   1.930  65.271  1.00  0.00    -0.059 C  
HETATM    5  C   UNL     1      -9.838   4.949  67.657  1.00  0.00    -0.205 C  
HETATM    6  C   UNL     1      -8.634   5.873  67.385  1.00  0.00    -0.106 C  
HETATM    7  C   UNL     1      -7.916   5.543  66.057  1.00  0.00    -0.106 C  
HETATM    8  O   UNL     1      -7.205   3.720  68.233  1.00  0.00    -0.054 OA 
HETATM    9  C   UNL     1      -7.840   4.012  65.767  1.00  0.00    -0.090 C  
HETATM   10  C   UNL     1      -8.307   2.897  67.880  1.00  0.00    -0.080 C  
HETATM   11  C   UNL     1      -7.177   3.231  66.902  1.00  0.00    -0.059 C  
ENDROOT
BRANCH   6  12
HETATM   12  O   UNL     1      -8.851   7.277  67.663  1.00  0.00    -0.124 OA 
BRANCH  12  13
HETATM   13  C   UNL     1      -9.862   7.978  67.108  1.00  0.00    -0.210 C  
HETATM   14  C   UNL     1      -8.652  10.279  67.605  1.00  0.00    -0.118 A  
HETATM   15  C   UNL     1      -9.470   9.389  66.664  1.00  0.00    -0.230 C  
HETATM   16  C   UNL     1      -8.862   9.357  65.258  1.00  0.00    -0.190 C  
HETATM   17  C   UNL     1      -9.029  11.630  67.741  1.00  0.00    -0.170 A  
HETATM   18  O   UNL     1      -7.512   8.899  65.248  1.00  0.00    -0.087 OA 
HETATM   19  O   UNL     1     -10.974   7.497  66.934  1.00  0.00    -0.292 OA 
HETATM   20  C   UNL     1      -8.218  12.550  68.413  1.00  0.00    -0.136 A  
HETATM   21  H   UNL     1      -7.134   8.879  64.376  1.00  0.00     0.000 HD 
HETATM   22  C   UNL     1      -7.014  12.136  68.973  1.00  0.00    -0.086 A  
HETATM   23  C   UNL     1      -6.637  10.799  68.882  1.00  0.00    -0.057 A  
HETATM   24  C   UNL     1      -7.447   9.878  68.204  1.00  0.00    -0.080 A  
ENDBRANCH  12  13
ENDBRANCH   6  12
TORSDOF 2
ENDMDL
MODEL      234
REMARK 921   NORMALIZED FREE ENERGY PREDICTED BY IDOCK:   -2.38 KCAL/MOL
REMARK 922        TOTAL FREE ENERGY PREDICTED BY IDOCK:   -3.17 KCAL/MOL
REMARK 923 INTER-LIGAND FREE ENERGY PREDICTED BY IDOCK:   -2.90 KCAL/MOL
REMARK 924 INTRA-LIGAND FREE ENERGY PREDICTED BY IDOCK:   -0.27 KCAL/MOL
REMARK 927      BINDING AFFINITY PREDICTED BY RF-SCORE:    0.00 PKD
ROOT
HETATM    1  C   UNL     1      -6.134   1.994  65.784  1.00  0.00    -0.023 C  
HETATM    2  N   UNL     1      -7.196   2.506  64.831  1.00  0.00    -0.057 N  
HETATM    3  C   UNL     1      -7.301   4.046  64.634  1.00  0.00    -0.071 C  
HETATM    4  C   UNL     1      -6.876   1.834  63.469  1.00  0.00    -0.027 C  
HETATM    5  C   UNL     1      -7.387   4.736  66.015  1.00  0.00    -0.077 C  
HETATM    6  C   UNL     1      -8.617   4.294  66.831  1.00  0.00    -0.108 C  
HETATM    7  C   UNL     1      -8.920   2.785  66.685  1.00  0.00    -0.165 C  
HETATM    8  O   UNL     1      -9.846   4.369  64.406  1.00  0.00    -0.125 OA 
HETATM    9  C   UNL     1      -8.673   2.248  65.241  1.00  0.00    -0.118 C  
HETATM   10  C   UNL     1      -8.572   4.206  63.798  1.00  0.00    -0.105 C  
HETATM   11  C   UNL     1      -9.463   3.022  64.184  1.00  0.00    -0.139 C  
ENDROOT
BRANCH   6  12
HETATM   12  O   UNL     1      -8.706   4.837  68.170  1.00  0.00    -0.101 OA 
BRANCH  12  13
HETATM   13  C   UNL     1      -7.771   4.595  69.113  1.00  0.00    -0.067 C  
HETATM   14  C   UNL     1      -9.396   5.388  71.046  1.00  0.00    -0.188 A  
HETATM   15  C   UNL     1      -8.342   4.409  70.520  1.00  0.00    -0.086 C  
HETATM   16  C   UNL     1      -8.777   2.955  70.731  1.00  0.00    -0.075 C  
HETATM   17  C   UNL     1      -9.267   5.860  72.368  1.00  0.00    -0.146 A  
HETATM   18  O   UNL     1     -10.022   2.652  70.107  1.00  0.00     0.121 OA 
HETATM   19  O   UNL     1      -6.582   4.487  68.843  1.00  0.00    -0.042 OA 
HETATM   20  C   UNL     1     -10.290   6.587  72.986  1.00  0.00    -0.239 A  
HETATM   21  H   UNL     1     -10.292   1.750  70.237  1.00  0.00     0.000 HD 
HETATM   22  C   UNL     1     -11.462   6.866  72.291  1.00  0.00    -0.313 A  
HETATM   23  C   UNL     1     -11.598   6.440  70.973  1.00  0.00    -0.386 A  
HETATM   24  C   UNL     1     -10.576   5.707  70.355  1.00  0.00    -0.364 A  
ENDBRANCH  12  13
ENDBRANCH   6  12
TORSDOF 2
ENDMDL
MODEL      235
REMARK 921   NORMALIZED FREE ENERGY PREDICTED BY IDOCK:   -2.31 KCAL/MOL
REMARK 922        TOTAL FREE ENERGY PREDICTED BY IDOCK:   -3.09 KCAL/MOL
REMARK 923 INTER-LIGAND FREE ENERGY PREDICTED BY IDOCK:   -2.50 KCAL/MOL
REMARK 924 INTRA-LIGAND FREE ENERGY PREDICTED BY IDOCK:   -0.59 KCAL/MOL
REMARK 927      BINDING AFFINITY PREDICTED BY RF-SCORE:    0.00 PKD
ROOT
HETATM    1  C   UNL     1      -6.508   2.597  66.340  1.00  0.00    -0.028 C  
HETATM    2  N   UNL     1      -7.408   3.611  65.662  1.00  0.00    -0.075 N  
HETATM    3  C   UNL     1      -7.188   5.111  66.011  1.00  0.00    -0.073 C  
HETATM    4  C   UNL     1      -7.187   3.398  64.141  1.00  0.00    -0.058 C  
HETATM    5  C   UNL     1      -7.178   5.286  67.547  1.00  0.00    -0.071 C  
HETATM    6  C   UNL     1      -8.501   4.852  68.208  1.00  0.00    -0.098 C  
HETATM    7  C   UNL     1      -9.101   3.582  67.565  1.00  0.00    -0.196 C  
HETATM    8  O   UNL     1      -9.603   6.006  66.006  1.00  0.00    -0.109 OA 
HETATM    9  C   UNL     1      -8.921   3.536  66.016  1.00  0.00    -0.140 C  
HETATM   10  C   UNL     1      -8.370   5.806  65.331  1.00  0.00    -0.142 C  
HETATM   11  C   UNL     1      -9.497   4.770  65.321  1.00  0.00    -0.132 C  
ENDROOT
BRANCH   6  12
HETATM   12  O   UNL     1      -8.522   4.908  69.655  1.00  0.00    -0.082 OA 
BRANCH  12  13
HETATM   13  C   UNL     1      -9.543   5.459  70.344  1.00  0.00    -0.175 C  
HETATM   14  C   UNL     1      -7.885   6.948  71.773  1.00  0.00    -0.099 A  
HETATM   15  C   UNL     1      -9.199   6.798  70.999  1.00  0.00    -0.156 C  
HETATM   16  C   UNL     1      -9.393   7.946  70.002  1.00  0.00    -0.157 C  
HETATM   17  C   UNL     1      -7.914   7.617  73.013  1.00  0.00    -0.148 A  
HETATM   18  O   UNL     1      -8.327   8.049  69.061  1.00  0.00    -0.126 OA 
HETATM   19  O   UNL     1     -10.654   4.947  70.390  1.00  0.00    -0.175 OA 
HETATM   20  C   UNL     1      -6.735   7.973  73.677  1.00  0.00    -0.132 A  
HETATM   21  H   UNL     1      -8.447   8.760  68.443  1.00  0.00     0.000 HD 
HETATM   22  C   UNL     1      -5.501   7.660  73.118  1.00  0.00    -0.044 A  
HETATM   23  C   UNL     1      -5.448   6.968  71.911  1.00  0.00    -0.036 A  
HETATM   24  C   UNL     1      -6.628   6.616  71.243  1.00  0.00    -0.050 A  
ENDBRANCH  12  13
ENDBRANCH   6  12
TORSDOF 2
ENDMDL
MODEL      236
REMARK 921   NORMALIZED FREE ENERGY PREDICTED BY IDOCK:   -2.24 KCAL/MOL
REMARK 922        TOTAL FREE ENERGY PREDICTED BY IDOCK:   -3.01 KCAL/MOL
REMARK 923 INTER-LIGAND FREE ENERGY PREDICTED BY IDOCK:   -2.62 KCAL/MOL
REMARK 924 INTRA-LIGAND FREE ENERGY PREDICTED BY IDOCK:   -0.40 KCAL/MOL
REMARK 927      BINDING AFFINITY PREDICTED BY RF-SCORE:    0.00 PKD
ROOT
HETATM    1  C   UNL     1      -6.800   2.253  66.081  1.00  0.00    -0.043 C  
HETATM    2  N   UNL     1      -7.892   3.140  65.515  1.00  0.00    -0.084 N  
HETATM    3  C   UNL     1      -7.617   4.670  65.461  1.00  0.00    -0.082 C  
HETATM    4  C   UNL     1      -8.141   2.611  64.077  1.00  0.00    -0.082 C  
HETATM    5  C   UNL     1      -7.143   5.157  66.850  1.00  0.00    -0.073 C  
HETATM    6  C   UNL     1      -8.188   4.918  67.957  1.00  0.00    -0.096 C  
HETATM    7  C   UNL     1      -8.921   3.567  67.805  1.00  0.00    -0.171 C  
HETATM    8  O   UNL     1      -9.941   5.637  66.006  1.00  0.00    -0.100 OA 
HETATM    9  C   UNL     1      -9.222   3.197  66.320  1.00  0.00    -0.130 C  
HETATM   10  C   UNL     1      -8.968   5.255  65.044  1.00  0.00    -0.074 C  
HETATM   11  C   UNL     1     -10.016   4.283  65.593  1.00  0.00    -0.224 C  
ENDROOT
BRANCH   6  12
HETATM   12  O   UNL     1      -7.768   5.271  69.297  1.00  0.00    -0.081 OA 
BRANCH  12  13
HETATM   13  C   UNL     1      -7.368   4.348  70.197  1.00  0.00    -0.046 C  
HETATM   14  C   UNL     1      -7.868   5.982  72.219  1.00  0.00    -0.102 A  
HETATM   15  C   UNL     1      -7.915   4.578  71.607  1.00  0.00    -0.100 C  
HETATM   16  C   UNL     1      -9.308   3.956  71.748  1.00  0.00    -0.134 C  
HETATM   17  C   UNL     1      -7.458   6.111  73.561  1.00  0.00    -0.088 A  
HETATM   18  O   UNL     1     -10.331   4.743  71.143  1.00  0.00    -0.196 OA 
HETATM   19  O   UNL     1      -6.672   3.390  69.887  1.00  0.00    -0.033 OA 
HETATM   20  C   UNL     1      -7.584   7.322  74.250  1.00  0.00    -0.142 A  
HETATM   21  H   UNL     1     -11.196   4.357  71.230  1.00  0.00     0.000 HD 
HETATM   22  C   UNL     1      -8.116   8.434  73.606  1.00  0.00    -0.178 A  
HETATM   23  C   UNL     1      -8.495   8.340  72.270  1.00  0.00    -0.248 A  
HETATM   24  C   UNL     1      -8.374   7.126  71.582  1.00  0.00    -0.110 A  
ENDBRANCH  12  13
ENDBRANCH   6  12
TORSDOF 2
ENDMDL
MODEL      237
REMARK 921   NORMALIZED FREE ENERGY PREDICTED BY IDOCK:   -2.24 KCAL/MOL
REMARK 922        TOTAL FREE ENERGY PREDICTED BY IDOCK:   -3.01 KCAL/MOL
REMARK 923 INTER-LIGAND FREE ENERGY PREDICTED BY IDOCK:   -2.39 KCAL/MOL
REMARK 924 INTRA-LIGAND FREE ENERGY PREDICTED BY IDOCK:   -0.62 KCAL/MOL
REMARK 927      BINDING AFFINITY PREDICTED BY RF-SCORE:    0.00 PKD
ROOT
HETATM    1  C   UNL     1      -5.968   8.765  71.414  1.00  0.00    -0.052 C  
HETATM    2  N   UNL     1      -7.010   7.681  71.608  1.00  0.00    -0.060 N  
HETATM    3  C   UNL     1      -7.088   6.562  70.530  1.00  0.00    -0.065 C  
HETATM    4  C   UNL     1      -6.684   7.046  72.986  1.00  0.00    -0.069 C  
HETATM    5  C   UNL     1      -7.179   7.205  69.126  1.00  0.00    -0.086 C  
HETATM    6  C   UNL     1      -8.427   8.093  68.955  1.00  0.00    -0.129 C  
HETATM    7  C   UNL     1      -8.751   8.918  70.221  1.00  0.00    -0.183 C  
HETATM    8  O   UNL     1      -9.624   6.132  70.409  1.00  0.00    -0.162 OA 
HETATM    9  C   UNL     1      -8.496   8.134  71.545  1.00  0.00    -0.127 C  
HETATM   10  C   UNL     1      -8.346   5.784  70.923  1.00  0.00    -0.125 C  
HETATM   11  C   UNL     1      -9.260   6.810  71.600  1.00  0.00    -0.144 C  
ENDROOT
BRANCH   6  12
HETATM   12  O   UNL     1      -8.523   8.795  67.692  1.00  0.00    -0.123 OA 
BRANCH  12  13
HETATM   13  C   UNL     1      -9.558   8.623  66.844  1.00  0.00    -0.194 C  
HETATM   14  C   UNL     1      -8.057   9.235  64.753  1.00  0.00    -0.133 A  
HETATM   15  C   UNL     1      -9.139   8.363  65.396  1.00  0.00    -0.050 C  
HETATM   16  C   UNL     1      -8.855   6.872  65.182  1.00  0.00     0.254 C  
HETATM   17  C   UNL     1      -8.266   9.695  63.437  1.00  0.00    -0.160 A  
HETATM   18  O   UNL     1      -7.588   6.469  65.698  1.00  0.00    -0.079 OA 
HETATM   19  O   UNL     1     -10.722   8.626  67.224  1.00  0.00    -0.271 OA 
HETATM   20  C   UNL     1      -7.245  10.317  62.710  1.00  0.00    -0.143 A  
HETATM   21  H   UNL     1      -7.412   5.545  65.566  1.00  0.00     0.000 HD 
HETATM   22  C   UNL     1      -5.994  10.501  63.289  1.00  0.00    -0.100 A  
HETATM   23  C   UNL     1      -5.774  10.087  64.600  1.00  0.00    -0.110 A  
HETATM   24  C   UNL     1      -6.794   9.458  65.325  1.00  0.00    -0.083 A  
ENDBRANCH  12  13
ENDBRANCH   6  12
TORSDOF 2
ENDMDL
MODEL      238
REMARK 921   NORMALIZED FREE ENERGY PREDICTED BY IDOCK:   -2.22 KCAL/MOL
REMARK 922        TOTAL FREE ENERGY PREDICTED BY IDOCK:   -2.99 KCAL/MOL
REMARK 923 INTER-LIGAND FREE ENERGY PREDICTED BY IDOCK:   -3.51 KCAL/MOL
REMARK 924 INTRA-LIGAND FREE ENERGY PREDICTED BY IDOCK:    0.52 KCAL/MOL
REMARK 927      BINDING AFFINITY PREDICTED BY RF-SCORE:    0.00 PKD
ROOT
HETATM    1  C   UNL     1     -10.497   9.290  69.586  1.00  0.00    -0.224 C  
HETATM    2  N   UNL     1     -10.817  10.763  69.424  1.00  0.00    -0.230 N  
HETATM    3  C   UNL     1     -11.568  11.196  68.132  1.00  0.00    -0.280 C  
HETATM    4  C   UNL     1     -11.675  11.131  70.664  1.00  0.00    -0.207 C  
HETATM    5  C   UNL     1     -10.832  10.628  66.896  1.00  0.00    -0.267 C  
HETATM    6  C   UNL     1      -9.382  11.136  66.775  1.00  0.00    -0.177 C  
HETATM    7  C   UNL     1      -8.667  11.230  68.142  1.00  0.00    -0.155 C  
HETATM    8  O   UNL     1     -10.474  13.474  67.633  1.00  0.00    -0.234 OA 
HETATM    9  C   UNL     1      -9.601  11.723  69.289  1.00  0.00     0.483 C  
HETATM   10  C   UNL     1     -11.537  12.724  68.204  1.00  0.00    -0.336 C  
HETATM   11  C   UNL     1     -10.259  13.067  68.974  1.00  0.00     0.119 C  
ENDROOT
BRANCH   6  12
HETATM   12  O   UNL     1      -8.612  10.569  65.688  1.00  0.00    -0.163 OA 
BRANCH  12  13
HETATM   13  C   UNL     1      -9.127   9.668  64.827  1.00  0.00    -0.231 C  
HETATM   14  C   UNL     1     -10.713  11.487  63.740  1.00  0.00    -0.474 A  
HETATM   15  C   UNL     1      -9.770  10.289  63.586  1.00  0.00    -0.276 C  
HETATM   16  C   UNL     1      -8.710  10.549  62.510  1.00  0.00    -0.244 C  
HETATM   17  C   UNL     1     -11.908  11.494  62.994  1.00  0.00     0.194 A  
HETATM   18  O   UNL     1      -7.923  11.709  62.775  1.00  0.00    -0.302 OA 
HETATM   19  O   UNL     1      -9.038   8.461  65.012  1.00  0.00     0.014 OA 
HETATM   20  C   UNL     1     -12.716  12.634  62.920  1.00  0.00     0.487 A  
HETATM   21  H   UNL     1      -7.266  11.870  62.108  1.00  0.00     0.000 HD 
HETATM   22  C   UNL     1     -12.349  13.790  63.601  1.00  0.00    -0.256 A  
HETATM   23  C   UNL     1     -11.191  13.796  64.373  1.00  0.00    -0.364 A  
HETATM   24  C   UNL     1     -10.378  12.656  64.442  1.00  0.00    -0.386 A  
ENDBRANCH  12  13
ENDBRANCH   6  12
TORSDOF 2
ENDMDL
MODEL      239
REMARK 921   NORMALIZED FREE ENERGY PREDICTED BY IDOCK:   -2.20 KCAL/MOL
REMARK 922        TOTAL FREE ENERGY PREDICTED BY IDOCK:   -2.97 KCAL/MOL
REMARK 923 INTER-LIGAND FREE ENERGY PREDICTED BY IDOCK:   -2.18 KCAL/MOL
REMARK 924 INTRA-LIGAND FREE ENERGY PREDICTED BY IDOCK:   -0.79 KCAL/MOL
REMARK 927      BINDING AFFINITY PREDICTED BY RF-SCORE:    0.00 PKD
ROOT
HETATM    1  C   UNL     1      -7.797   6.949  71.042  1.00  0.00    -0.097 C  
HETATM    2  N   UNL     1      -7.114   7.853  70.034  1.00  0.00    -0.050 N  
HETATM    3  C   UNL     1      -7.889   8.184  68.727  1.00  0.00    -0.113 C  
HETATM    4  C   UNL     1      -6.819   9.168  70.804  1.00  0.00    -0.087 C  
HETATM    5  C   UNL     1      -8.385   6.871  68.077  1.00  0.00    -0.121 C  
HETATM    6  C   UNL     1      -7.235   5.917  67.700  1.00  0.00    -0.076 C  
HETATM    7  C   UNL     1      -6.107   5.895  68.755  1.00  0.00    -0.025 C  
HETATM    8  O   UNL     1      -5.986   8.226  66.991  1.00  0.00    -0.050 OA 
HETATM    9  C   UNL     1      -5.820   7.297  69.375  1.00  0.00    -0.026 C  
HETATM   10  C   UNL     1      -6.849   8.921  67.880  1.00  0.00    -0.070 C  
HETATM   11  C   UNL     1      -5.495   8.352  68.316  1.00  0.00    -0.034 C  
ENDROOT
BRANCH   6  12
HETATM   12  O   UNL     1      -7.640   4.632  67.170  1.00  0.00    -0.084 OA 
BRANCH  12  13
HETATM   13  C   UNL     1      -6.835   3.549  67.200  1.00  0.00    -0.050 C  
HETATM   14  C   UNL     1      -7.992   2.647  69.403  1.00  0.00    -0.053 A  
HETATM   15  C   UNL     1      -7.392   2.383  68.019  1.00  0.00    -0.048 C  
HETATM   16  C   UNL     1      -8.330   1.528  67.159  1.00  0.00    -0.079 C  
HETATM   17  C   UNL     1      -7.658   1.768  70.453  1.00  0.00    -0.035 A  
HETATM   18  O   UNL     1      -9.616   2.118  66.986  1.00  0.00    -0.390 OA 
HETATM   19  O   UNL     1      -5.779   3.501  66.583  1.00  0.00    -0.021 OA 
HETATM   20  C   UNL     1      -8.320   1.818  71.685  1.00  0.00    -0.059 A  
HETATM   21  H   UNL     1     -10.198   1.588  66.453  1.00  0.00     0.000 HD 
HETATM   22  C   UNL     1      -9.325   2.756  71.896  1.00  0.00    -0.187 A  
HETATM   23  C   UNL     1      -9.647   3.658  70.886  1.00  0.00    -0.250 A  
HETATM   24  C   UNL     1      -8.989   3.605  69.651  1.00  0.00    -0.175 A  
ENDBRANCH  12  13
ENDBRANCH   6  12
TORSDOF 2
ENDMDL
MODEL      240
REMARK 921   NORMALIZED FREE ENERGY PREDICTED BY IDOCK:   -2.18 KCAL/MOL
REMARK 922        TOTAL FREE ENERGY PREDICTED BY IDOCK:   -2.94 KCAL/MOL
REMARK 923 INTER-LIGAND FREE ENERGY PREDICTED BY IDOCK:   -2.36 KCAL/MOL
REMARK 924 INTRA-LIGAND FREE ENERGY PREDICTED BY IDOCK:   -0.59 KCAL/MOL
REMARK 927      BINDING AFFINITY PREDICTED BY RF-SCORE:    0.00 PKD
ROOT
HETATM    1  C   UNL     1      -7.596  16.550  70.173  1.00  0.00     1.399 C  
HETATM    2  N   UNL     1      -6.486  15.863  69.401  1.00  0.00    -0.156 N  
HETATM    3  C   UNL     1      -6.714  15.620  67.882  1.00  0.00    -0.150 C  
HETATM    4  C   UNL     1      -5.238  16.763  69.598  1.00  0.00    -0.148 C  
HETATM    5  C   UNL     1      -8.078  14.924  67.671  1.00  0.00    -0.180 C  
HETATM    6  C   UNL     1      -8.166  13.554  68.371  1.00  0.00    -0.141 C  
HETATM    7  C   UNL     1      -7.487  13.548  69.759  1.00  0.00     0.752 C  
HETATM    8  O   UNL     1      -5.585  13.330  67.546  1.00  0.00    -0.287 OA 
HETATM    9  C   UNL     1      -6.176  14.393  69.802  1.00  0.00    -0.139 C  
HETATM   10  C   UNL     1      -5.521  14.747  67.484  1.00  0.00     0.184 C  
HETATM   11  C   UNL     1      -5.161  13.956  68.745  1.00  0.00    -0.076 C  
ENDROOT
BRANCH   6  12
HETATM   12  O   UNL     1      -9.451  12.892  68.286  1.00  0.00    -0.217 OA 
BRANCH  12  13
HETATM   13  C   UNL     1      -9.570  11.553  68.172  1.00  0.00    -0.187 C  
HETATM   14  C   UNL     1     -11.664  11.516  69.791  1.00  0.00    -0.426 A  
HETATM   15  C   UNL     1     -10.960  11.019  68.524  1.00  0.00    -0.276 C  
HETATM   16  C   UNL     1     -11.886  11.097  67.305  1.00  0.00     0.357 C  
HETATM   17  C   UNL     1     -12.316  10.569  70.606  1.00  0.00    -0.449 A  
HETATM   18  O   UNL     1     -12.372  12.415  67.061  1.00  0.00    -0.399 OA 
HETATM   19  O   UNL     1      -8.653  10.846  67.774  1.00  0.00    -0.125 OA 
HETATM   20  C   UNL     1     -13.149  10.963  71.658  1.00  0.00    -0.538 A  
HETATM   21  H   UNL     1     -12.946  12.464  66.305  1.00  0.00     0.000 HD 
HETATM   22  C   UNL     1     -13.341  12.314  71.925  1.00  0.00    -0.431 A  
HETATM   23  C   UNL     1     -12.679  13.267  71.155  1.00  0.00    -0.404 A  
HETATM   24  C   UNL     1     -11.849  12.874  70.097  1.00  0.00    -0.319 A  
ENDBRANCH  12  13
ENDBRANCH   6  12
TORSDOF 2
ENDMDL
MODEL      241
REMARK 921   NORMALIZED FREE ENERGY PREDICTED BY IDOCK:   -2.16 KCAL/MOL
REMARK 922        TOTAL FREE ENERGY PREDICTED BY IDOCK:   -2.92 KCAL/MOL
REMARK 923 INTER-LIGAND FREE ENERGY PREDICTED BY IDOCK:   -2.94 KCAL/MOL
REMARK 924 INTRA-LIGAND FREE ENERGY PREDICTED BY IDOCK:    0.02 KCAL/MOL
REMARK 927      BINDING AFFINITY PREDICTED BY RF-SCORE:    0.00 PKD
ROOT
HETATM    1  C   UNL     1      -6.185   8.624  66.921  1.00  0.00    -0.059 C  
HETATM    2  N   UNL     1      -7.609   9.120  66.759  1.00  0.00    -0.087 N  
HETATM    3  C   UNL     1      -8.252   9.860  67.966  1.00  0.00    -0.113 C  
HETATM    4  C   UNL     1      -7.570  10.072  65.533  1.00  0.00    -0.136 C  
HETATM    5  C   UNL     1      -8.083   9.004  69.243  1.00  0.00    -0.105 C  
HETATM    6  C   UNL     1      -8.764   7.626  69.135  1.00  0.00    -0.139 C  
HETATM    7  C   UNL     1      -8.606   6.989  67.735  1.00  0.00    -0.122 C  
HETATM    8  O   UNL     1     -10.691   9.040  67.839  1.00  0.00    -0.217 OA 
HETATM    9  C   UNL     1      -8.702   8.030  66.576  1.00  0.00    -0.146 C  
HETATM   10  C   UNL     1      -9.712  10.025  67.538  1.00  0.00    -0.159 C  
HETATM   11  C   UNL     1     -10.001   8.836  66.617  1.00  0.00    -0.285 C  
ENDROOT
BRANCH   6  12
HETATM   12  O   UNL     1      -8.564   6.742  70.265  1.00  0.00    -0.137 OA 
BRANCH  12  13
HETATM   13  C   UNL     1      -9.205   5.560  70.382  1.00  0.00    -0.151 C  
HETATM   14  C   UNL     1      -7.862   4.953  72.580  1.00  0.00    -0.093 A  
HETATM   15  C   UNL     1      -9.177   4.975  71.795  1.00  0.00    -0.171 C  
HETATM   16  C   UNL     1     -10.319   5.556  72.636  1.00  0.00    -0.198 C  
HETATM   17  C   UNL     1      -7.528   3.783  73.290  1.00  0.00    -0.069 A  
HETATM   18  O   UNL     1     -10.050   6.878  73.099  1.00  0.00    -0.179 OA 
HETATM   19  O   UNL     1      -9.796   5.040  69.444  1.00  0.00    -0.166 OA 
HETATM   20  C   UNL     1      -6.458   3.755  74.190  1.00  0.00    -0.038 A  
HETATM   21  H   UNL     1     -10.758   7.238  73.620  1.00  0.00     0.000 HD 
HETATM   22  C   UNL     1      -5.691   4.897  74.392  1.00  0.00    -0.030 A  
HETATM   23  C   UNL     1      -5.979   6.055  73.675  1.00  0.00    -0.061 A  
HETATM   24  C   UNL     1      -7.055   6.085  72.778  1.00  0.00    -0.081 A  
ENDBRANCH  12  13
ENDBRANCH   6  12
TORSDOF 2
ENDMDL
MODEL      242
REMARK 921   NORMALIZED FREE ENERGY PREDICTED BY IDOCK:   -2.10 KCAL/MOL
REMARK 922        TOTAL FREE ENERGY PREDICTED BY IDOCK:   -2.85 KCAL/MOL
REMARK 923 INTER-LIGAND FREE ENERGY PREDICTED BY IDOCK:   -2.78 KCAL/MOL
REMARK 924 INTRA-LIGAND FREE ENERGY PREDICTED BY IDOCK:   -0.07 KCAL/MOL
REMARK 927      BINDING AFFINITY PREDICTED BY RF-SCORE:    0.00 PKD
ROOT
HETATM    1  C   UNL     1      -8.796   5.132  64.351  1.00  0.00    -0.040 C  
HETATM    2  N   UNL     1      -8.596   4.703  65.791  1.00  0.00    -0.119 N  
HETATM    3  C   UNL     1      -9.487   5.380  66.871  1.00  0.00    -0.135 C  
HETATM    4  C   UNL     1      -8.853   3.172  65.798  1.00  0.00    -0.138 C  
HETATM    5  C   UNL     1      -9.409   6.917  66.713  1.00  0.00    -0.190 C  
HETATM    6  C   UNL     1      -7.980   7.465  66.888  1.00  0.00    -0.115 C  
HETATM    7  C   UNL     1      -6.907   6.554  66.251  1.00  0.00    -0.057 C  
HETATM    8  O   UNL     1      -7.847   5.583  68.846  1.00  0.00    -0.092 OA 
HETATM    9  C   UNL     1      -7.215   5.034  66.424  1.00  0.00    -0.077 C  
HETATM   10  C   UNL     1      -8.887   4.877  68.186  1.00  0.00    -0.103 C  
HETATM   11  C   UNL     1      -7.405   4.636  67.888  1.00  0.00    -0.066 C  
ENDROOT
BRANCH   6  12
HETATM   12  O   UNL     1      -7.826   8.888  66.662  1.00  0.00    -0.098 OA 
BRANCH  12  13
HETATM   13  C   UNL     1      -6.663   9.534  66.882  1.00  0.00    -0.072 C  
HETATM   14  C   UNL     1      -7.922  11.812  67.363  1.00  0.00    -0.155 A  
HETATM   15  C   UNL     1      -6.809  10.816  67.704  1.00  0.00    -0.073 C  
HETATM   16  C   UNL     1      -6.789  10.494  69.202  1.00  0.00    -0.074 C  
HETATM   17  C   UNL     1      -7.605  13.185  67.345  1.00  0.00    -0.137 A  
HETATM   18  O   UNL     1      -8.026   9.963  69.673  1.00  0.00    -0.127 OA 
HETATM   19  O   UNL     1      -5.587   9.096  66.494  1.00  0.00    -0.047 OA 
HETATM   20  C   UNL     1      -8.601  14.162  67.247  1.00  0.00    -0.231 A  
HETATM   21  H   UNL     1      -8.014   9.763  70.601  1.00  0.00     0.000 HD 
HETATM   22  C   UNL     1      -9.937  13.786  67.156  1.00  0.00    -0.243 A  
HETATM   23  C   UNL     1     -10.271  12.435  67.137  1.00  0.00    -0.226 A  
HETATM   24  C   UNL     1      -9.275  11.456  67.240  1.00  0.00    -0.167 A  
ENDBRANCH  12  13
ENDBRANCH   6  12
TORSDOF 2
ENDMDL
MODEL      243
REMARK 921   NORMALIZED FREE ENERGY PREDICTED BY IDOCK:   -2.06 KCAL/MOL
REMARK 922        TOTAL FREE ENERGY PREDICTED BY IDOCK:   -2.81 KCAL/MOL
REMARK 923 INTER-LIGAND FREE ENERGY PREDICTED BY IDOCK:   -2.85 KCAL/MOL
REMARK 924 INTRA-LIGAND FREE ENERGY PREDICTED BY IDOCK:    0.04 KCAL/MOL
REMARK 927      BINDING AFFINITY PREDICTED BY RF-SCORE:    0.00 PKD
ROOT
HETATM    1  C   UNL     1      -8.768   8.273  70.170  1.00  0.00    -0.133 C  
HETATM    2  N   UNL     1      -9.511   7.239  70.993  1.00  0.00    -0.159 N  
HETATM    3  C   UNL     1      -8.720   5.978  71.444  1.00  0.00    -0.132 C  
HETATM    4  C   UNL     1     -10.018   8.004  72.245  1.00  0.00    -0.239 C  
HETATM    5  C   UNL     1      -8.020   5.344  70.219  1.00  0.00    -0.092 C  
HETATM    6  C   UNL     1      -9.012   4.896  69.128  1.00  0.00    -0.098 C  
HETATM    7  C   UNL     1     -10.181   5.889  68.939  1.00  0.00    -0.254 C  
HETATM    8  O   UNL     1     -10.518   4.143  71.263  1.00  0.00     0.022 OA 
HETATM    9  C   UNL     1     -10.684   6.505  70.282  1.00  0.00    -0.255 C  
HETATM   10  C   UNL     1      -9.803   5.083  72.051  1.00  0.00    -0.174 C  
HETATM   11  C   UNL     1     -11.090   5.440  71.301  1.00  0.00     0.017 C  
ENDROOT
BRANCH   6  12
HETATM   12  O   UNL     1      -8.413   4.377  67.916  1.00  0.00    -0.097 OA 
BRANCH  12  13
HETATM   13  C   UNL     1      -7.291   4.901  67.380  1.00  0.00    -0.078 C  
HETATM   14  C   UNL     1      -7.871   3.919  64.992  1.00  0.00    -0.086 A  
HETATM   15  C   UNL     1      -7.346   5.067  65.861  1.00  0.00    -0.077 C  
HETATM   16  C   UNL     1      -8.014   6.396  65.492  1.00  0.00    -0.116 C  
HETATM   17  C   UNL     1      -7.167   3.598  63.814  1.00  0.00    -0.051 A  
HETATM   18  O   UNL     1      -9.434   6.355  65.613  1.00  0.00    -0.380 OA 
HETATM   19  O   UNL     1      -6.341   5.255  68.067  1.00  0.00    -0.036 OA 
HETATM   20  C   UNL     1      -7.692   2.710  62.869  1.00  0.00    -0.062 A  
HETATM   21  H   UNL     1      -9.849   7.179  65.385  1.00  0.00     0.000 HD 
HETATM   22  C   UNL     1      -8.930   2.116  63.087  1.00  0.00    -0.088 A  
HETATM   23  C   UNL     1      -9.628   2.391  64.260  1.00  0.00    -0.135 A  
HETATM   24  C   UNL     1      -9.106   3.285  65.204  1.00  0.00    -0.146 A  
ENDBRANCH  12  13
ENDBRANCH   6  12
TORSDOF 2
ENDMDL
MODEL      244
REMARK 921   NORMALIZED FREE ENERGY PREDICTED BY IDOCK:   -1.89 KCAL/MOL
REMARK 922        TOTAL FREE ENERGY PREDICTED BY IDOCK:   -2.63 KCAL/MOL
REMARK 923 INTER-LIGAND FREE ENERGY PREDICTED BY IDOCK:   -2.06 KCAL/MOL
REMARK 924 INTRA-LIGAND FREE ENERGY PREDICTED BY IDOCK:   -0.57 KCAL/MOL
REMARK 927      BINDING AFFINITY PREDICTED BY RF-SCORE:    0.00 PKD
ROOT
HETATM    1  C   UNL     1      -8.296  15.041  67.050  1.00  0.00    -0.222 C  
HETATM    2  N   UNL     1      -8.680  16.503  67.168  1.00  0.00    -0.189 N  
HETATM    3  C   UNL     1      -8.565  17.163  68.572  1.00  0.00    -0.258 C  
HETATM    4  C   UNL     1      -7.752  17.249  66.172  1.00  0.00    -0.282 C  
HETATM    5  C   UNL     1      -9.302  16.289  69.614  1.00  0.00     0.113 C  
HETATM    6  C   UNL     1     -10.803  16.127  69.305  1.00  0.00    -0.310 C  
HETATM    7  C   UNL     1     -11.088  15.961  67.795  1.00  0.00    -0.288 C  
HETATM    8  O   UNL     1     -10.602  18.739  68.575  1.00  0.00    -0.223 OA 
HETATM    9  C   UNL     1     -10.172  16.849  66.898  1.00  0.00    -0.296 C  
HETATM   10  C   UNL     1      -9.212  18.535  68.369  1.00  0.00    -0.324 C  
HETATM   11  C   UNL     1     -10.252  18.332  67.263  1.00  0.00    -0.373 C  
ENDROOT
BRANCH   6  12
HETATM   12  O   UNL     1     -11.531  15.245  70.194  1.00  0.00    -0.249 OA 
BRANCH  12  13
HETATM   13  C   UNL     1     -12.752  14.758  69.891  1.00  0.00    -0.087 C  
HETATM   14  C   UNL     1     -11.707  12.590  68.791  1.00  0.00    -0.371 A  
HETATM   15  C   UNL     1     -12.780  13.245  69.665  1.00  0.00     0.354 C  
HETATM   16  C   UNL     1     -12.936  12.510  71.001  1.00  0.00    -0.068 C  
HETATM   17  C   UNL     1     -12.112  11.613  67.858  1.00  0.00     0.040 A  
HETATM   18  O   UNL     1     -11.722  12.451  71.747  1.00  0.00     1.026 OA 
HETATM   19  O   UNL     1     -13.749  15.468  69.852  1.00  0.00     0.520 OA 
HETATM   20  C   UNL     1     -11.179  10.826  67.174  1.00  0.00    -0.222 A  
HETATM   21  H   UNL     1     -11.819  11.995  72.575  1.00  0.00     0.000 HD 
HETATM   22  C   UNL     1      -9.819  11.007  67.401  1.00  0.00    -0.197 A  
HETATM   23  C   UNL     1      -9.394  11.989  68.290  1.00  0.00    -0.197 A  
HETATM   24  C   UNL     1     -10.328  12.773  68.980  1.00  0.00     0.040 A  
ENDBRANCH  12  13
ENDBRANCH   6  12
TORSDOF 2
ENDMDL
MODEL      245
REMARK 921   NORMALIZED FREE ENERGY PREDICTED BY IDOCK:   -1.89 KCAL/MOL
REMARK 922        TOTAL FREE ENERGY PREDICTED BY IDOCK:   -2.62 KCAL/MOL
REMARK 923 INTER-LIGAND FREE ENERGY PREDICTED BY IDOCK:   -2.12 KCAL/MOL
REMARK 924 INTRA-LIGAND FREE ENERGY PREDICTED BY IDOCK:   -0.50 KCAL/MOL
REMARK 927      BINDING AFFINITY PREDICTED BY RF-SCORE:    0.00 PKD
ROOT
HETATM    1  C   UNL     1      -8.773   7.744  70.864  1.00  0.00    -0.137 C  
HETATM    2  N   UNL     1      -8.023   8.498  69.783  1.00  0.00    -0.101 N  
HETATM    3  C   UNL     1      -8.620   8.476  68.347  1.00  0.00    -0.139 C  
HETATM    4  C   UNL     1      -7.950   9.965  70.287  1.00  0.00    -0.109 C  
HETATM    5  C   UNL     1      -8.910   7.014  67.933  1.00  0.00    -0.124 C  
HETATM    6  C   UNL     1      -7.644   6.134  67.917  1.00  0.00    -0.101 C  
HETATM    7  C   UNL     1      -6.685   6.445  69.088  1.00  0.00    -0.053 C  
HETATM    8  O   UNL     1      -6.492   8.377  66.900  1.00  0.00    -0.055 OA 
HETATM    9  C   UNL     1      -6.606   7.966  69.427  1.00  0.00    -0.035 C  
HETATM   10  C   UNL     1      -7.529   9.138  67.503  1.00  0.00    -0.088 C  
HETATM   11  C   UNL     1      -6.213   8.817  68.218  1.00  0.00    -0.054 C  
ENDROOT
BRANCH   6  12
HETATM   12  O   UNL     1      -7.863   4.733  67.625  1.00  0.00    -0.089 OA 
BRANCH  12  13
HETATM   13  C   UNL     1      -9.072   4.147  67.751  1.00  0.00    -0.136 C  
HETATM   14  C   UNL     1      -9.422   4.112  65.127  1.00  0.00    -0.173 A  
HETATM   15  C   UNL     1      -9.546   3.423  66.490  1.00  0.00    -0.080 C  
HETATM   16  C   UNL     1      -8.980   1.999  66.447  1.00  0.00    -0.093 C  
HETATM   17  C   UNL     1     -10.512   4.031  64.237  1.00  0.00    -0.207 A  
HETATM   18  O   UNL     1      -7.613   1.957  66.046  1.00  0.00    -0.061 OA 
HETATM   19  O   UNL     1      -9.699   4.160  68.802  1.00  0.00    -0.158 OA 
HETATM   20  C   UNL     1     -10.401   4.453  62.908  1.00  0.00     0.095 A  
HETATM   21  H   UNL     1      -7.261   1.075  66.020  1.00  0.00     0.000 HD 
HETATM   22  C   UNL     1      -9.198   4.974  62.442  1.00  0.00    -0.000 A  
HETATM   23  C   UNL     1      -8.119   5.097  63.313  1.00  0.00    -0.106 A  
HETATM   24  C   UNL     1      -8.228   4.670  64.643  1.00  0.00    -0.113 A  
ENDBRANCH  12  13
ENDBRANCH   6  12
TORSDOF 2
ENDMDL
MODEL      246
REMARK 921   NORMALIZED FREE ENERGY PREDICTED BY IDOCK:   -1.81 KCAL/MOL
REMARK 922        TOTAL FREE ENERGY PREDICTED BY IDOCK:   -2.53 KCAL/MOL
REMARK 923 INTER-LIGAND FREE ENERGY PREDICTED BY IDOCK:   -2.78 KCAL/MOL
REMARK 924 INTRA-LIGAND FREE ENERGY PREDICTED BY IDOCK:    0.26 KCAL/MOL
REMARK 927      BINDING AFFINITY PREDICTED BY RF-SCORE:    0.00 PKD
ROOT
HETATM    1  C   UNL     1     -10.604   7.222  70.851  1.00  0.00    -0.220 C  
HETATM    2  N   UNL     1     -10.252   6.289  69.709  1.00  0.00    -0.177 N  
HETATM    3  C   UNL     1      -8.832   6.420  69.089  1.00  0.00    -0.126 C  
HETATM    4  C   UNL     1     -10.432   4.859  70.284  1.00  0.00    -0.088 C  
HETATM    5  C   UNL     1      -8.563   7.900  68.727  1.00  0.00    -0.128 C  
HETATM    6  C   UNL     1      -9.566   8.456  67.697  1.00  0.00    -0.153 C  
HETATM    7  C   UNL     1     -11.008   7.954  67.936  1.00  0.00     0.069 C  
HETATM    8  O   UNL     1      -9.310   5.983  66.596  1.00  0.00    -0.136 OA 
HETATM    9  C   UNL     1     -11.069   6.465  68.398  1.00  0.00    -0.285 C  
HETATM   10  C   UNL     1      -8.897   5.501  67.867  1.00  0.00    -0.105 C  
HETATM   11  C   UNL     1     -10.363   5.519  67.425  1.00  0.00    -0.225 C  
ENDROOT
BRANCH   6  12
HETATM   12  O   UNL     1      -9.423   9.863  67.385  1.00  0.00    -0.146 OA 
BRANCH  12  13
HETATM   13  C   UNL     1      -8.884  10.296  66.226  1.00  0.00    -0.146 C  
HETATM   14  C   UNL     1      -6.946  11.567  67.505  1.00  0.00    -0.102 A  
HETATM   15  C   UNL     1      -7.411  10.693  66.335  1.00  0.00    -0.138 C  
HETATM   16  C   UNL     1      -6.513   9.462  66.168  1.00  0.00    -0.069 C  
HETATM   17  C   UNL     1      -6.058  12.627  67.233  1.00  0.00    -0.086 A  
HETATM   18  O   UNL     1      -6.458   8.652  67.339  1.00  0.00    -0.056 OA 
HETATM   19  O   UNL     1      -9.516  10.317  65.178  1.00  0.00    -0.208 OA 
HETATM   20  C   UNL     1      -5.431  13.336  68.263  1.00  0.00    -0.092 A  
HETATM   21  H   UNL     1      -5.901   7.888  67.236  1.00  0.00     0.000 HD 
HETATM   22  C   UNL     1      -5.685  13.004  69.589  1.00  0.00    -0.103 A  
HETATM   23  C   UNL     1      -6.585  11.983  69.883  1.00  0.00     0.046 A  
HETATM   24  C   UNL     1      -7.209  11.270  68.851  1.00  0.00    -0.112 A  
ENDBRANCH  12  13
ENDBRANCH   6  12
TORSDOF 2
ENDMDL
MODEL      247
REMARK 921   NORMALIZED FREE ENERGY PREDICTED BY IDOCK:   -1.22 KCAL/MOL
REMARK 922        TOTAL FREE ENERGY PREDICTED BY IDOCK:   -1.88 KCAL/MOL
REMARK 923 INTER-LIGAND FREE ENERGY PREDICTED BY IDOCK:   -2.23 KCAL/MOL
REMARK 924 INTRA-LIGAND FREE ENERGY PREDICTED BY IDOCK:    0.35 KCAL/MOL
REMARK 927      BINDING AFFINITY PREDICTED BY RF-SCORE:    0.00 PKD
ROOT
HETATM    1  C   UNL     1      -6.730   8.354  73.224  1.00  0.00    -0.089 C  
HETATM    2  N   UNL     1      -6.519   9.035  71.885  1.00  0.00    -0.045 N  
HETATM    3  C   UNL     1      -7.787   9.458  71.089  1.00  0.00     0.114 C  
HETATM    4  C   UNL     1      -5.665  10.292  72.198  1.00  0.00     0.452 C  
HETATM    5  C   UNL     1      -8.750   8.254  70.977  1.00  0.00    -0.169 C  
HETATM    6  C   UNL     1      -8.126   7.054  70.239  1.00  0.00    -0.119 C  
HETATM    7  C   UNL     1      -6.638   6.840  70.597  1.00  0.00    -0.053 C  
HETATM    8  O   UNL     1      -7.057   8.995  68.663  1.00  0.00    -0.069 OA 
HETATM    9  C   UNL     1      -5.853   8.177  70.772  1.00  0.00    -0.033 C  
HETATM   10  C   UNL     1      -7.221   9.907  69.740  1.00  0.00    -0.118 C  
HETATM   11  C   UNL     1      -5.947   9.079  69.541  1.00  0.00    -0.036 C  
ENDROOT
BRANCH   6  12
HETATM   12  O   UNL     1      -8.947   5.862  70.181  1.00  0.00    -0.139 OA 
BRANCH  12  13
HETATM   13  C   UNL     1     -10.254   5.866  70.513  1.00  0.00    -0.211 C  
HETATM   14  C   UNL     1      -9.910   3.883  72.231  1.00  0.00    -0.228 A  
HETATM   15  C   UNL     1     -10.553   5.225  71.869  1.00  0.00    -0.274 C  
HETATM   16  C   UNL     1     -10.374   6.250  72.995  1.00  0.00    -0.212 C  
HETATM   17  C   UNL     1     -10.715   2.901  72.842  1.00  0.00    -0.177 A  
HETATM   18  O   UNL     1      -9.006   6.481  73.323  1.00  0.00    -0.128 OA 
HETATM   19  O   UNL     1     -11.108   6.385  69.805  1.00  0.00    -0.321 OA 
HETATM   20  C   UNL     1     -10.161   1.737  73.386  1.00  0.00    -0.167 A  
HETATM   21  H   UNL     1      -8.895   7.117  74.020  1.00  0.00     0.000 HD 
HETATM   22  C   UNL     1      -8.788   1.526  73.323  1.00  0.00    -0.062 A  
HETATM   23  C   UNL     1      -7.976   2.466  72.693  1.00  0.00    -0.054 A  
HETATM   24  C   UNL     1      -8.530   3.634  72.153  1.00  0.00    -0.091 A  
ENDBRANCH  12  13
ENDBRANCH   6  12
TORSDOF 2
ENDMDL
MODEL      248
REMARK 921   NORMALIZED FREE ENERGY PREDICTED BY IDOCK:   -1.14 KCAL/MOL
REMARK 922        TOTAL FREE ENERGY PREDICTED BY IDOCK:   -1.78 KCAL/MOL
REMARK 923 INTER-LIGAND FREE ENERGY PREDICTED BY IDOCK:   -2.15 KCAL/MOL
REMARK 924 INTRA-LIGAND FREE ENERGY PREDICTED BY IDOCK:    0.37 KCAL/MOL
REMARK 927      BINDING AFFINITY PREDICTED BY RF-SCORE:    0.00 PKD
ROOT
HETATM    1  C   UNL     1      -8.303   8.624  69.078  1.00  0.00    -0.119 C  
HETATM    2  N   UNL     1      -8.969   7.688  70.068  1.00  0.00    -0.143 N  
HETATM    3  C   UNL     1      -8.229   6.364  70.412  1.00  0.00    -0.121 C  
HETATM    4  C   UNL     1      -9.149   8.527  71.362  1.00  0.00    -0.206 C  
HETATM    5  C   UNL     1      -7.843   5.636  69.102  1.00  0.00    -0.089 C  
HETATM    6  C   UNL     1      -9.065   5.267  68.239  1.00  0.00    -0.110 C  
HETATM    7  C   UNL     1     -10.149   6.369  68.236  1.00  0.00    -0.169 C  
HETATM    8  O   UNL     1     -10.194   4.716  70.651  1.00  0.00    -0.217 OA 
HETATM    9  C   UNL     1     -10.321   7.062  69.624  1.00  0.00    -0.209 C  
HETATM   10  C   UNL     1      -9.254   5.596  71.250  1.00  0.00    -0.146 C  
HETATM   11  C   UNL     1     -10.622   6.065  70.744  1.00  0.00    -0.255 C  
ENDROOT
BRANCH   6  12
HETATM   12  O   UNL     1      -8.763   4.664  66.958  1.00  0.00    -0.105 OA 
BRANCH  12  13
HETATM   13  C   UNL     1      -9.677   4.569  65.969  1.00  0.00    -0.210 C  
HETATM   14  C   UNL     1      -7.980   3.263  64.413  1.00  0.00    -0.082 A  
HETATM   15  C   UNL     1      -9.396   3.446  64.969  1.00  0.00    -0.154 C  
HETATM   16  C   UNL     1      -9.970   2.120  65.481  1.00  0.00     0.770 C  
HETATM   17  C   UNL     1      -7.833   3.016  63.033  1.00  0.00    -0.068 A  
HETATM   18  O   UNL     1      -9.164   1.521  66.493  1.00  0.00    -0.272 OA 
HETATM   19  O   UNL     1     -10.664   5.292  65.918  1.00  0.00    -0.159 OA 
HETATM   20  C   UNL     1      -6.602   2.635  62.488  1.00  0.00    -0.018 A  
HETATM   21  H   UNL     1      -9.520   0.699  66.811  1.00  0.00     0.000 HD 
HETATM   22  C   UNL     1      -5.489   2.503  63.310  1.00  0.00    -0.008 A  
HETATM   23  C   UNL     1      -5.602   2.776  64.671  1.00  0.00    -0.010 A  
HETATM   24  C   UNL     1      -6.836   3.151  65.219  1.00  0.00    -0.048 A  
ENDBRANCH  12  13
ENDBRANCH   6  12
TORSDOF 2
ENDMDL
MODEL      249
REMARK 921   NORMALIZED FREE ENERGY PREDICTED BY IDOCK:   -0.88 KCAL/MOL
REMARK 922        TOTAL FREE ENERGY PREDICTED BY IDOCK:   -1.49 KCAL/MOL
REMARK 923 INTER-LIGAND FREE ENERGY PREDICTED BY IDOCK:   -0.88 KCAL/MOL
REMARK 924 INTRA-LIGAND FREE ENERGY PREDICTED BY IDOCK:   -0.61 KCAL/MOL
REMARK 927      BINDING AFFINITY PREDICTED BY RF-SCORE:    0.00 PKD
ROOT
HETATM    1  C   UNL     1      -8.280  11.453  64.609  1.00  0.00     0.794 C  
HETATM    2  N   UNL     1      -9.395  12.237  65.273  1.00  0.00     0.080 N  
HETATM    3  C   UNL     1      -9.187  12.663  66.755  1.00  0.00    -0.225 C  
HETATM    4  C   UNL     1      -9.579  13.504  64.395  1.00  0.00     1.011 C  
HETATM    5  C   UNL     1      -8.774  11.430  67.591  1.00  0.00    -0.136 C  
HETATM    6  C   UNL     1      -9.838  10.315  67.580  1.00  0.00    -0.171 C  
HETATM    7  C   UNL     1     -10.505  10.139  66.197  1.00  0.00    -0.173 C  
HETATM    8  O   UNL     1     -11.567  12.410  67.707  1.00  0.00    -0.311 OA 
HETATM    9  C   UNL     1     -10.747  11.492  65.458  1.00  0.00    -0.272 C  
HETATM   10  C   UNL     1     -10.552  13.232  67.150  1.00  0.00    -0.258 C  
HETATM   11  C   UNL     1     -11.570  12.477  66.291  1.00  0.00    -0.394 C  
ENDROOT
BRANCH   6  12
HETATM   12  O   UNL     1      -9.471   9.097  68.272  1.00  0.00    -0.141 OA 
BRANCH  12  13
HETATM   13  C   UNL     1     -10.043   8.724  69.435  1.00  0.00    -0.203 C  
HETATM   14  C   UNL     1      -7.917   7.307  70.125  1.00  0.00    -0.112 A  
HETATM   15  C   UNL     1      -9.045   8.272  70.503  1.00  0.00    -0.154 C  
HETATM   16  C   UNL     1      -8.509   9.480  71.278  1.00  0.00     0.485 C  
HETATM   17  C   UNL     1      -7.634   6.237  70.998  1.00  0.00    -0.090 A  
HETATM   18  O   UNL     1      -7.519  10.208  70.556  1.00  0.00    -0.377 OA 
HETATM   19  O   UNL     1     -11.251   8.794  69.622  1.00  0.00    -0.099 OA 
HETATM   20  C   UNL     1      -6.496   5.441  70.832  1.00  0.00    -0.035 A  
HETATM   21  H   UNL     1      -7.187  10.958  71.036  1.00  0.00     0.000 HD 
HETATM   22  C   UNL     1      -5.620   5.692  69.781  1.00  0.00    -0.008 A  
HETATM   23  C   UNL     1      -5.897   6.721  68.885  1.00  0.00    -0.018 A  
HETATM   24  C   UNL     1      -7.034   7.522  69.055  1.00  0.00    -0.073 A  
ENDBRANCH  12  13
ENDBRANCH   6  12
TORSDOF 2
ENDMDL
MODEL      250
REMARK 921   NORMALIZED FREE ENERGY PREDICTED BY IDOCK:   -0.02 KCAL/MOL
REMARK 922        TOTAL FREE ENERGY PREDICTED BY IDOCK:   -0.54 KCAL/MOL
REMARK 923 INTER-LIGAND FREE ENERGY PREDICTED BY IDOCK:   -1.12 KCAL/MOL
REMARK 924 INTRA-LIGAND FREE ENERGY PREDICTED BY IDOCK:    0.58 KCAL/MOL
REMARK 927      BINDING AFFINITY PREDICTED BY RF-SCORE:    0.00 PKD
ROOT
HETATM    1  C   UNL     1     -10.382  14.752  64.298  1.00  0.00     0.899 C  
HETATM    2  N   UNL     1     -11.035  13.415  64.593  1.00  0.00    -0.356 N  
HETATM    3  C   UNL     1     -11.724  13.243  65.976  1.00  0.00    -0.368 C  
HETATM    4  C   UNL     1     -12.085  13.219  63.467  1.00  0.00    -0.482 C  
HETATM    5  C   UNL     1     -10.742  13.663  67.096  1.00  0.00    -0.279 C  
HETATM    6  C   UNL     1      -9.457  12.813  67.115  1.00  0.00    -0.223 C  
HETATM    7  C   UNL     1      -8.938  12.482  65.698  1.00  0.00     0.440 C  
HETATM    8  O   UNL     1     -11.174  10.788  66.530  1.00  0.00    -0.121 OA 
HETATM    9  C   UNL     1     -10.083  12.188  64.680  1.00  0.00    -0.257 C  
HETATM   10  C   UNL     1     -12.077  11.754  66.010  1.00  0.00     0.541 C  
HETATM   11  C   UNL     1     -11.012  11.067  65.149  1.00  0.00    -0.033 C  
ENDROOT
BRANCH   6  12
HETATM   12  O   UNL     1      -8.458  13.217  68.084  1.00  0.00    -0.160 OA 
BRANCH  12  13
HETATM   13  C   UNL     1      -7.439  14.044  67.771  1.00  0.00    -0.161 C  
HETATM   14  C   UNL     1      -8.832  16.173  68.500  1.00  0.00    -0.200 A  
HETATM   15  C   UNL     1      -7.507  15.404  68.466  1.00  0.00    -0.117 C  
HETATM   16  C   UNL     1      -6.874  15.324  69.860  1.00  0.00    -0.135 C  
HETATM   17  C   UNL     1      -8.808  17.557  68.236  1.00  0.00    -0.274 A  
HETATM   18  O   UNL     1      -7.726  14.707  70.822  1.00  0.00     0.425 OA 
HETATM   19  O   UNL     1      -6.522  13.703  67.035  1.00  0.00    -0.053 OA 
HETATM   20  C   UNL     1      -9.933  18.360  68.449  1.00  0.00    -0.406 A  
HETATM   21  H   UNL     1      -7.333  14.657  71.686  1.00  0.00     0.000 HD 
HETATM   22  C   UNL     1     -11.112  17.794  68.922  1.00  0.00     0.698 A  
HETATM   23  C   UNL     1     -11.170  16.423  69.157  1.00  0.00    -0.275 A  
HETATM   24  C   UNL     1     -10.042  15.619  68.949  1.00  0.00    -0.217 A  
ENDBRANCH  12  13
ENDBRANCH   6  12
TORSDOF 2
ENDMDL
MODEL      251
REMARK 921   NORMALIZED FREE ENERGY PREDICTED BY IDOCK:    0.07 KCAL/MOL
REMARK 922        TOTAL FREE ENERGY PREDICTED BY IDOCK:   -0.43 KCAL/MOL
REMARK 923 INTER-LIGAND FREE ENERGY PREDICTED BY IDOCK:   -0.25 KCAL/MOL
REMARK 924 INTRA-LIGAND FREE ENERGY PREDICTED BY IDOCK:   -0.18 KCAL/MOL
REMARK 927      BINDING AFFINITY PREDICTED BY RF-SCORE:    0.00 PKD
ROOT
HETATM    1  C   UNL     1     -10.628  10.095  64.461  1.00  0.00     0.813 C  
HETATM    2  N   UNL     1     -10.259  11.546  64.220  1.00  0.00    -0.286 N  
HETATM    3  C   UNL     1      -9.439  12.271  65.325  1.00  0.00     0.074 C  
HETATM    4  C   UNL     1      -9.450  11.544  62.896  1.00  0.00    -0.277 C  
HETATM    5  C   UNL     1     -10.132  12.073  66.693  1.00  0.00    -0.220 C  
HETATM    6  C   UNL     1     -11.560  12.651  66.730  1.00  0.00    -0.374 C  
HETATM    7  C   UNL     1     -12.335  12.414  65.414  1.00  0.00    -0.308 C  
HETATM    8  O   UNL     1     -10.444  14.641  65.250  1.00  0.00    -0.342 OA 
HETATM    9  C   UNL     1     -11.441  12.555  64.144  1.00  0.00    -0.385 C  
HETATM   10  C   UNL     1      -9.430  13.728  64.857  1.00  0.00     0.751 C  
HETATM   11  C   UNL     1     -10.732  13.908  64.071  1.00  0.00     0.310 C  
ENDROOT
BRANCH   6  12
HETATM   12  O   UNL     1     -12.295  12.418  67.956  1.00  0.00    -0.237 OA 
BRANCH  12  13
HETATM   13  C   UNL     1     -11.707  11.946  69.074  1.00  0.00    -0.331 C  
HETATM   14  C   UNL     1     -10.615  14.299  69.596  1.00  0.00     0.035 A  
HETATM   15  C   UNL     1     -11.324  13.031  70.082  1.00  0.00     0.149 C  
HETATM   16  C   UNL     1     -12.518  13.370  70.981  1.00  0.00    -0.353 C  
HETATM   17  C   UNL     1      -9.524  14.783  70.347  1.00  0.00     1.089 A  
HETATM   18  O   UNL     1     -13.479  14.203  70.338  1.00  0.00    -0.247 OA 
HETATM   19  O   UNL     1     -11.547  10.748  69.274  1.00  0.00    -0.269 OA 
HETATM   20  C   UNL     1      -8.960  16.036  70.089  1.00  0.00     0.960 A  
HETATM   21  H   UNL     1     -14.219  14.413  70.895  1.00  0.00     0.000 HD 
HETATM   22  C   UNL     1      -9.469  16.831  69.068  1.00  0.00    -0.217 A  
HETATM   23  C   UNL     1     -10.523  16.360  68.290  1.00  0.00    -0.302 A  
HETATM   24  C   UNL     1     -11.092  15.107  68.551  1.00  0.00    -0.281 A  
ENDBRANCH  12  13
ENDBRANCH   6  12
TORSDOF 2
ENDMDL
MODEL      252
REMARK 921   NORMALIZED FREE ENERGY PREDICTED BY IDOCK:    0.18 KCAL/MOL
REMARK 922        TOTAL FREE ENERGY PREDICTED BY IDOCK:   -0.31 KCAL/MOL
REMARK 923 INTER-LIGAND FREE ENERGY PREDICTED BY IDOCK:    0.32 KCAL/MOL
REMARK 924 INTRA-LIGAND FREE ENERGY PREDICTED BY IDOCK:   -0.64 KCAL/MOL
REMARK 927      BINDING AFFINITY PREDICTED BY RF-SCORE:    0.00 PKD
ROOT
HETATM    1  C   UNL     1      -7.632  16.526  70.200  1.00  0.00     1.399 C  
HETATM    2  N   UNL     1      -6.586  15.818  69.361  1.00  0.00    -0.163 N  
HETATM    3  C   UNL     1      -6.905  15.597  67.855  1.00  0.00    -0.143 C  
HETATM    4  C   UNL     1      -5.304  16.684  69.494  1.00  0.00    -0.145 C  
HETATM    5  C   UNL     1      -8.298  14.939  67.715  1.00  0.00    -0.163 C  
HETATM    6  C   UNL     1      -8.382  13.565  68.408  1.00  0.00    -0.140 C  
HETATM    7  C   UNL     1      -7.626  13.526  69.755  1.00  0.00     0.885 C  
HETATM    8  O   UNL     1      -5.859  13.281  67.435  1.00  0.00    -0.327 OA 
HETATM    9  C   UNL     1      -6.293  14.336  69.731  1.00  0.00    -0.144 C  
HETATM   10  C   UNL     1      -5.761  14.697  67.382  1.00  0.00     0.339 C  
HETATM   11  C   UNL     1      -5.351  13.884  68.613  1.00  0.00    -0.088 C  
ENDROOT
BRANCH   6  12
HETATM   12  O   UNL     1      -9.688  12.937  68.390  1.00  0.00    -0.223 OA 
BRANCH  12  13
HETATM   13  C   UNL     1      -9.851  11.610  68.209  1.00  0.00    -0.199 C  
HETATM   14  C   UNL     1     -11.149  11.995  65.935  1.00  0.00    -0.369 A  
HETATM   15  C   UNL     1     -10.123  11.209  66.758  1.00  0.00    -0.255 C  
HETATM   16  C   UNL     1      -8.805  11.043  65.994  1.00  0.00    -0.191 C  
HETATM   17  C   UNL     1     -12.055  11.272  65.134  1.00  0.00     1.095 A  
HETATM   18  O   UNL     1      -8.220  12.287  65.618  1.00  0.00     0.191 OA 
HETATM   19  O   UNL     1      -9.739  10.806  69.125  1.00  0.00    -0.207 OA 
HETATM   20  C   UNL     1     -12.879  11.913  64.203  1.00  0.00    -0.199 A  
HETATM   21  H   UNL     1      -7.403  12.184  65.145  1.00  0.00     0.000 HD 
HETATM   22  C   UNL     1     -12.819  13.295  64.059  1.00  0.00     0.083 A  
HETATM   23  C   UNL     1     -11.957  14.034  64.863  1.00  0.00    -0.416 A  
HETATM   24  C   UNL     1     -11.128  13.391  65.792  1.00  0.00    -0.295 A  
ENDBRANCH  12  13
ENDBRANCH   6  12
TORSDOF 2
ENDMDL
MODEL      253
REMARK 921   NORMALIZED FREE ENERGY PREDICTED BY IDOCK:    0.46 KCAL/MOL
REMARK 922        TOTAL FREE ENERGY PREDICTED BY IDOCK:   -0.00 KCAL/MOL
REMARK 923 INTER-LIGAND FREE ENERGY PREDICTED BY IDOCK:   -0.25 KCAL/MOL
REMARK 924 INTRA-LIGAND FREE ENERGY PREDICTED BY IDOCK:    0.24 KCAL/MOL
REMARK 927      BINDING AFFINITY PREDICTED BY RF-SCORE:    0.00 PKD
ROOT
HETATM    1  C   UNL     1     -10.267  16.117  66.238  1.00  0.00    -0.320 C  
HETATM    2  N   UNL     1     -10.921  15.249  65.180  1.00  0.00    -0.392 N  
HETATM    3  C   UNL     1     -12.454  15.013  65.294  1.00  0.00     0.179 C  
HETATM    4  C   UNL     1     -10.606  15.948  63.830  1.00  0.00     2.542 C  
HETATM    5  C   UNL     1     -12.796  14.533  66.724  1.00  0.00     0.866 C  
HETATM    6  C   UNL     1     -12.099  13.209  67.093  1.00  0.00    -0.286 C  
HETATM    7  C   UNL     1     -10.651  13.126  66.562  1.00  0.00    -0.290 C  
HETATM    8  O   UNL     1     -12.662  12.568  64.511  1.00  0.00    -0.637 OA 
HETATM    9  C   UNL     1     -10.482  13.758  65.145  1.00  0.00    -0.384 C  
HETATM   10  C   UNL     1     -12.726  13.956  64.220  1.00  0.00     0.041 C  
HETATM   11  C   UNL     1     -11.431  13.146  64.113  1.00  0.00    -0.403 C  
ENDROOT
BRANCH   6  12
HETATM   12  O   UNL     1     -12.308  12.753  68.452  1.00  0.00    -0.046 OA 
BRANCH  12  13
HETATM   13  C   UNL     1     -11.294  12.347  69.244  1.00  0.00    -0.254 C  
HETATM   14  C   UNL     1     -12.229  13.731  71.296  1.00  0.00    -0.314 A  
HETATM   15  C   UNL     1     -11.591  12.454  70.740  1.00  0.00     0.663 C  
HETATM   16  C   UNL     1     -12.331  11.204  71.229  1.00  0.00    -0.297 C  
HETATM   17  C   UNL     1     -11.715  14.266  72.495  1.00  0.00     0.664 A  
HETATM   18  O   UNL     1     -13.713  11.205  70.879  1.00  0.00     0.588 OA 
HETATM   19  O   UNL     1     -10.253  11.888  68.790  1.00  0.00    -0.207 OA 
HETATM   20  C   UNL     1     -12.369  15.302  73.171  1.00  0.00    -0.558 A  
HETATM   21  H   UNL     1     -14.172  10.430  71.181  1.00  0.00     0.000 HD 
HETATM   22  C   UNL     1     -13.547  15.832  72.657  1.00  0.00    -0.630 A  
HETATM   23  C   UNL     1     -14.055  15.344  71.456  1.00  0.00    -0.596 A  
HETATM   24  C   UNL     1     -13.404  14.303  70.782  1.00  0.00    -0.174 A  
ENDBRANCH  12  13
ENDBRANCH   6  12
TORSDOF 2
ENDMDL
MODEL      254
REMARK 921   NORMALIZED FREE ENERGY PREDICTED BY IDOCK:    0.87 KCAL/MOL
REMARK 922        TOTAL FREE ENERGY PREDICTED BY IDOCK:    0.46 KCAL/MOL
REMARK 923 INTER-LIGAND FREE ENERGY PREDICTED BY IDOCK:    0.33 KCAL/MOL
REMARK 924 INTRA-LIGAND FREE ENERGY PREDICTED BY IDOCK:    0.13 KCAL/MOL
REMARK 927      BINDING AFFINITY PREDICTED BY RF-SCORE:    0.00 PKD
ROOT
HETATM    1  C   UNL     1     -12.201  14.195  71.701  1.00  0.00    -0.208 C  
HETATM    2  N   UNL     1     -12.189  12.922  70.877  1.00  0.00    -0.294 N  
HETATM    3  C   UNL     1     -10.821  12.451  70.305  1.00  0.00     1.473 C  
HETATM    4  C   UNL     1     -12.760  11.825  71.815  1.00  0.00    -0.193 C  
HETATM    5  C   UNL     1     -10.143  13.626  69.561  1.00  0.00     0.595 C  
HETATM    6  C   UNL     1     -10.979  14.147  68.376  1.00  0.00    -0.254 C  
HETATM    7  C   UNL     1     -12.494  14.179  68.682  1.00  0.00     0.170 C  
HETATM    8  O   UNL     1     -11.513  11.505  68.012  1.00  0.00    -0.276 OA 
HETATM    9  C   UNL     1     -12.972  12.963  69.534  1.00  0.00     1.226 C  
HETATM   10  C   UNL     1     -11.206  11.293  69.382  1.00  0.00    -0.280 C  
HETATM   11  C   UNL     1     -12.619  11.621  68.891  1.00  0.00     0.737 C  
ENDROOT
BRANCH   6  12
HETATM   12  O   UNL     1     -10.440  15.305  67.695  1.00  0.00    -0.254 OA 
BRANCH  12  13
HETATM   13  C   UNL     1      -9.348  15.237  66.904  1.00  0.00    -0.237 C  
HETATM   14  C   UNL     1     -10.677  13.909  65.040  1.00  0.00    -0.397 A  
HETATM   15  C   UNL     1      -9.664  14.991  65.428  1.00  0.00    -0.227 C  
HETATM   16  C   UNL     1      -9.964  16.315  64.718  1.00  0.00     1.135 C  
HETATM   17  C   UNL     1     -10.361  13.055  63.964  1.00  0.00    -0.272 A  
HETATM   18  O   UNL     1     -11.273  16.808  64.992  1.00  0.00    -0.342 OA 
HETATM   19  O   UNL     1      -8.216  15.409  67.336  1.00  0.00    -0.155 OA 
HETATM   20  C   UNL     1     -11.312  12.185  63.420  1.00  0.00    -0.495 A  
HETATM   21  H   UNL     1     -11.459  17.630  64.552  1.00  0.00     0.000 HD 
HETATM   22  C   UNL     1     -12.598  12.144  63.947  1.00  0.00    -0.545 A  
HETATM   23  C   UNL     1     -12.923  12.953  65.032  1.00  0.00    -0.171 A  
HETATM   24  C   UNL     1     -11.973  13.829  65.573  1.00  0.00    -0.404 A  
ENDBRANCH  12  13
ENDBRANCH   6  12
TORSDOF 2
ENDMDL
MODEL      255
REMARK 921   NORMALIZED FREE ENERGY PREDICTED BY IDOCK:    0.90 KCAL/MOL
REMARK 922        TOTAL FREE ENERGY PREDICTED BY IDOCK:    0.49 KCAL/MOL
REMARK 923 INTER-LIGAND FREE ENERGY PREDICTED BY IDOCK:    0.72 KCAL/MOL
REMARK 924 INTRA-LIGAND FREE ENERGY PREDICTED BY IDOCK:   -0.23 KCAL/MOL
REMARK 927      BINDING AFFINITY PREDICTED BY RF-SCORE:    0.00 PKD
ROOT
HETATM    1  C   UNL     1      -8.855  15.719  70.654  1.00  0.00     2.100 C  
HETATM    2  N   UNL     1      -9.851  16.151  69.595  1.00  0.00    -0.208 N  
HETATM    3  C   UNL     1     -11.080  15.231  69.349  1.00  0.00    -0.280 C  
HETATM    4  C   UNL     1     -10.340  17.554  70.045  1.00  0.00     0.660 C  
HETATM    5  C   UNL     1     -10.599  13.778  69.127  1.00  0.00    -0.099 C  
HETATM    6  C   UNL     1      -9.668  13.635  67.907  1.00  0.00    -0.234 C  
HETATM    7  C   UNL     1      -8.686  14.819  67.763  1.00  0.00    -0.173 C  
HETATM    8  O   UNL     1     -11.380  15.434  66.798  1.00  0.00    -0.258 OA 
HETATM    9  C   UNL     1      -9.326  16.193  68.131  1.00  0.00    -0.201 C  
HETATM   10  C   UNL     1     -11.736  15.846  68.110  1.00  0.00    -0.130 C  
HETATM   11  C   UNL     1     -10.590  16.488  67.323  1.00  0.00    -0.285 C  
ENDROOT
BRANCH   6  12
HETATM   12  O   UNL     1      -9.112  12.314  67.700  1.00  0.00    -0.170 OA 
BRANCH  12  13
HETATM   13  C   UNL     1      -9.876  11.247  67.389  1.00  0.00    -0.181 C  
HETATM   14  C   UNL     1      -8.064  10.339  65.687  1.00  0.00    -0.155 A  
HETATM   15  C   UNL     1      -9.095  10.076  66.789  1.00  0.00    -0.159 C  
HETATM   16  C   UNL     1      -8.510   9.199  67.901  1.00  0.00    -0.117 C  
HETATM   17  C   UNL     1      -8.040   9.473  64.575  1.00  0.00    -0.142 A  
HETATM   18  O   UNL     1      -7.347   9.764  68.500  1.00  0.00    -0.073 OA 
HETATM   19  O   UNL     1     -11.078  11.213  67.618  1.00  0.00    -0.247 OA 
HETATM   20  C   UNL     1      -7.005   9.520  63.635  1.00  0.00    -0.104 A  
HETATM   21  H   UNL     1      -6.984   9.220  69.190  1.00  0.00     0.000 HD 
HETATM   22  C   UNL     1      -5.974  10.441  63.783  1.00  0.00    -0.108 A  
HETATM   23  C   UNL     1      -5.994  11.330  64.854  1.00  0.00     0.975 A  
HETATM   24  C   UNL     1      -7.027  11.280  65.798  1.00  0.00     0.309 A  
ENDBRANCH  12  13
ENDBRANCH   6  12
TORSDOF 2
ENDMDL
MODEL      256
REMARK 921   NORMALIZED FREE ENERGY PREDICTED BY IDOCK:    5.70 KCAL/MOL
REMARK 922        TOTAL FREE ENERGY PREDICTED BY IDOCK:    5.85 KCAL/MOL
REMARK 923 INTER-LIGAND FREE ENERGY PREDICTED BY IDOCK:    4.26 KCAL/MOL
REMARK 924 INTRA-LIGAND FREE ENERGY PREDICTED BY IDOCK:    1.59 KCAL/MOL
REMARK 927      BINDING AFFINITY PREDICTED BY RF-SCORE:    0.00 PKD
ROOT
HETATM    1  C   UNL     1      -6.256  17.468  72.108  1.00  0.00     3.141 C  
HETATM    2  N   UNL     1      -6.123  18.479  70.986  1.00  0.00     0.436 N  
HETATM    3  C   UNL     1      -7.430  19.124  70.444  1.00  0.00     1.262 C  
HETATM    4  C   UNL     1      -5.196  19.590  71.548  1.00  0.00    -0.373 C  
HETATM    5  C   UNL     1      -8.448  18.012  70.098  1.00  0.00     2.554 C  
HETATM    6  C   UNL     1      -7.932  17.043  69.016  1.00  0.00    -0.153 C  
HETATM    7  C   UNL     1      -6.431  16.714  69.176  1.00  0.00    -0.200 C  
HETATM    8  O   UNL     1      -6.911  19.317  67.928  1.00  0.00    -0.230 OA 
HETATM    9  C   UNL     1      -5.581  17.940  69.632  1.00  0.00    -0.217 C  
HETATM   10  C   UNL     1      -6.953  19.908  69.219  1.00  0.00    -0.269 C  
HETATM   11  C   UNL     1      -5.734  19.141  68.698  1.00  0.00    -0.209 C  
ENDROOT
BRANCH   6  12
HETATM   12  O   UNL     1      -8.803  15.926  68.714  1.00  0.00    -0.187 OA 
BRANCH  12  13
HETATM   13  C   UNL     1     -10.147  16.011  68.799  1.00  0.00    -0.225 C  
HETATM   14  C   UNL     1     -10.231  17.890  66.937  1.00  0.00    -0.358 A  
HETATM   15  C   UNL     1     -10.812  16.618  67.562  1.00  0.00    -0.221 C  
HETATM   16  C   UNL     1     -11.055  15.538  66.503  1.00  0.00    -0.182 C  
HETATM   17  C   UNL     1     -11.124  18.907  66.542  1.00  0.00     0.144 A  
HETATM   18  O   UNL     1      -9.874  15.187  65.787  1.00  0.00    -0.311 OA 
HETATM   19  O   UNL     1     -10.769  15.591  69.766  1.00  0.00    -0.250 OA 
HETATM   20  C   UNL     1     -10.695  20.000  65.783  1.00  0.00    -0.357 A  
HETATM   21  H   UNL     1     -10.024  14.516  65.130  1.00  0.00     0.000 HD 
HETATM   22  C   UNL     1      -9.359  20.105  65.408  1.00  0.00     0.517 A  
HETATM   23  C   UNL     1      -8.452  19.132  65.817  1.00  0.00     0.228 A  
HETATM   24  C   UNL     1      -8.883  18.033  66.573  1.00  0.00    -0.276 A  
ENDBRANCH  12  13
ENDBRANCH   6  12
TORSDOF 2
ENDMDL
MODEL      257
REMARK 921   NORMALIZED FREE ENERGY PREDICTED BY IDOCK:    7.95 KCAL/MOL
REMARK 922        TOTAL FREE ENERGY PREDICTED BY IDOCK:    8.36 KCAL/MOL
REMARK 923 INTER-LIGAND FREE ENERGY PREDICTED BY IDOCK:   -0.27 KCAL/MOL
REMARK 924 INTRA-LIGAND FREE ENERGY PREDICTED BY IDOCK:    8.64 KCAL/MOL
REMARK 927      BINDING AFFINITY PREDICTED BY RF-SCORE:    0.00 PKD
ROOT
HETATM    1  C   UNL     1      -7.790  13.276  70.321  1.00  0.00     2.887 C  
HETATM    2  N   UNL     1      -6.677  14.201  69.868  1.00  0.00    -0.084 N  
HETATM    3  C   UNL     1      -7.035  15.699  69.649  1.00  0.00    -0.167 C  
HETATM    4  C   UNL     1      -5.584  14.088  70.965  1.00  0.00    -0.199 C  
HETATM    5  C   UNL     1      -8.277  15.803  68.734  1.00  0.00    -0.192 C  
HETATM    6  C   UNL     1      -8.050  15.178  67.344  1.00  0.00    -0.186 C  
HETATM    7  C   UNL     1      -7.223  13.874  67.402  1.00  0.00    -0.113 C  
HETATM    8  O   UNL     1      -5.581  16.287  67.605  1.00  0.00    -0.125 OA 
HETATM    9  C   UNL     1      -6.078  13.922  68.461  1.00  0.00    -0.093 C  
HETATM   10  C   UNL     1      -5.766  16.273  69.014  1.00  0.00    -0.125 C  
HETATM   11  C   UNL     1      -5.133  15.106  68.250  1.00  0.00    -0.109 C  
ENDROOT
BRANCH   6  12
HETATM   12  O   UNL     1      -9.206  15.163  66.471  1.00  0.00    -0.249 OA 
BRANCH  12  13
HETATM   13  C   UNL     1     -10.447  15.463  66.907  1.00  0.00    -0.295 C  
HETATM   14  C   UNL     1     -10.940  12.933  67.506  1.00  0.00    -0.283 A  
HETATM   15  C   UNL     1     -11.042  14.420  67.855  1.00  0.00    -0.288 C  
HETATM   16  C   UNL     1     -10.588  14.687  69.295  1.00  0.00    -0.226 C  
HETATM   17  C   UNL     1     -12.079  12.124  67.693  1.00  0.00     0.017 A  
HETATM   18  O   UNL     1      -9.251  14.258  69.543  1.00  0.00    -0.306 OA 
HETATM   19  O   UNL     1     -11.014  16.505  66.603  1.00  0.00    -0.127 OA 
HETATM   20  C   UNL     1     -12.009  10.730  67.595  1.00  0.00     0.690 A  
HETATM   21  H   UNL     1      -8.969  14.423  70.435  1.00  0.00     0.000 HD 
HETATM   22  C   UNL     1     -10.798  10.115  67.297  1.00  0.00    -0.295 A  
HETATM   23  C   UNL     1      -9.667  10.895  67.073  1.00  0.00    -0.203 A  
HETATM   24  C   UNL     1      -9.735  12.291  67.177  1.00  0.00    -0.203 A  
ENDBRANCH  12  13
ENDBRANCH   6  12
TORSDOF 2
ENDMDL
MODEL      258
REMARK 921   NORMALIZED FREE ENERGY PREDICTED BY IDOCK:    8.42 KCAL/MOL
REMARK 922        TOTAL FREE ENERGY PREDICTED BY IDOCK:    8.89 KCAL/MOL
REMARK 923 INTER-LIGAND FREE ENERGY PREDICTED BY IDOCK:    9.03 KCAL/MOL
REMARK 924 INTRA-LIGAND FREE ENERGY PREDICTED BY IDOCK:   -0.14 KCAL/MOL
REMARK 927      BINDING AFFINITY PREDICTED BY RF-SCORE:    0.00 PKD
ROOT
HETATM    1  C   UNL     1      -7.631  17.772  67.212  1.00  0.00    -0.201 C  
HETATM    2  N   UNL     1      -8.698  17.953  68.275  1.00  0.00    -0.269 N  
HETATM    3  C   UNL     1      -8.801  16.864  69.380  1.00  0.00     0.218 C  
HETATM    4  C   UNL     1      -8.388  19.325  68.932  1.00  0.00    -0.303 C  
HETATM    5  C   UNL     1      -8.878  15.467  68.720  1.00  0.00    -0.196 C  
HETATM    6  C   UNL     1     -10.104  15.305  67.801  1.00  0.00    -0.230 C  
HETATM    7  C   UNL     1     -10.410  16.580  66.982  1.00  0.00    -0.301 C  
HETATM    8  O   UNL     1     -11.347  16.738  69.750  1.00  0.00    -0.045 OA 
HETATM    9  C   UNL     1     -10.173  17.895  67.787  1.00  0.00    -0.368 C  
HETATM   10  C   UNL     1     -10.077  17.247  70.132  1.00  0.00     0.903 C  
HETATM   11  C   UNL     1     -10.968  17.936  69.093  1.00  0.00     0.823 C  
ENDROOT
BRANCH   6  12
HETATM   12  O   UNL     1     -10.184  14.050  67.083  1.00  0.00    -0.254 OA 
BRANCH  12  13
HETATM   13  C   UNL     1     -10.066  12.855  67.698  1.00  0.00    -0.221 C  
HETATM   14  C   UNL     1     -10.773  11.560  65.500  1.00  0.00    -0.328 A  
HETATM   15  C   UNL     1      -9.879  11.678  66.739  1.00  0.00    -0.222 C  
HETATM   16  C   UNL     1      -8.399  11.516  66.375  1.00  0.00    -0.118 C  
HETATM   17  C   UNL     1     -11.304  10.294  65.179  1.00  0.00     1.810 A  
HETATM   18  O   UNL     1      -7.957  12.468  65.410  1.00  0.00     1.392 OA 
HETATM   19  O   UNL     1     -10.061  12.744  68.917  1.00  0.00    -0.091 OA 
HETATM   20  C   UNL     1     -11.953  10.063  63.962  1.00  0.00     6.979 A  
HETATM   21  H   UNL     1      -7.040  12.368  65.185  1.00  0.00     0.000 HD 
HETATM   22  C   UNL     1     -12.094  11.097  63.042  1.00  0.00     0.953 A  
HETATM   23  C   UNL     1     -11.609  12.364  63.353  1.00  0.00    -0.541 A  
HETATM   24  C   UNL     1     -10.954  12.595  64.569  1.00  0.00    -0.365 A  
ENDBRANCH  12  13
ENDBRANCH   6  12
TORSDOF 2
ENDMDL
MODEL      259
REMARK 921   NORMALIZED FREE ENERGY PREDICTED BY IDOCK:    9.85 KCAL/MOL
REMARK 922        TOTAL FREE ENERGY PREDICTED BY IDOCK:   10.49 KCAL/MOL
REMARK 923 INTER-LIGAND FREE ENERGY PREDICTED BY IDOCK:    5.61 KCAL/MOL
REMARK 924 INTRA-LIGAND FREE ENERGY PREDICTED BY IDOCK:    4.88 KCAL/MOL
REMARK 927      BINDING AFFINITY PREDICTED BY RF-SCORE:    0.00 PKD
ROOT
HETATM    1  C   UNL     1     -11.676  14.235  70.998  1.00  0.00    -0.140 C  
HETATM    2  N   UNL     1     -12.290  13.152  70.132  1.00  0.00    -0.258 N  
HETATM    3  C   UNL     1     -11.463  11.852  69.918  1.00  0.00    -0.186 C  
HETATM    4  C   UNL     1     -13.636  12.798  70.818  1.00  0.00     1.148 C  
HETATM    5  C   UNL     1     -10.035  12.221  69.452  1.00  0.00     0.697 C  
HETATM    6  C   UNL     1     -10.021  12.997  68.121  1.00  0.00    -0.231 C  
HETATM    7  C   UNL     1     -11.173  14.022  68.015  1.00  0.00    -0.302 C  
HETATM    8  O   UNL     1     -12.023  11.276  67.471  1.00  0.00    -0.612 OA 
HETATM    9  C   UNL     1     -12.509  13.508  68.634  1.00  0.00     0.318 C  
HETATM   10  C   UNL     1     -12.267  11.095  68.859  1.00  0.00    -0.076 C  
HETATM   11  C   UNL     1     -12.963  12.178  68.029  1.00  0.00     3.420 C  
ENDROOT
BRANCH   6  12
HETATM   12  O   UNL     1      -8.719  13.450  67.677  1.00  0.00    -0.173 OA 
BRANCH  12  13
HETATM   13  C   UNL     1      -8.294  13.298  66.406  1.00  0.00     0.607 C  
HETATM   14  C   UNL     1      -7.889  10.707  66.762  1.00  0.00    -0.126 A  
HETATM   15  C   UNL     1      -8.385  11.862  65.887  1.00  0.00     0.370 C  
HETATM   16  C   UNL     1      -9.788  11.581  65.338  1.00  0.00    -0.235 C  
HETATM   17  C   UNL     1      -7.119   9.694  66.156  1.00  0.00    -0.094 A  
HETATM   18  O   UNL     1     -10.750  11.350  66.365  1.00  0.00    -0.258 OA 
HETATM   19  O   UNL     1      -7.918  14.243  65.724  1.00  0.00     2.123 OA 
HETATM   20  C   UNL     1      -6.805   8.512  66.834  1.00  0.00    -0.069 A  
HETATM   21  H   UNL     1     -11.621  11.177  66.024  1.00  0.00     0.000 HD 
HETATM   22  C   UNL     1      -7.247   8.320  68.139  1.00  0.00    -0.094 A  
HETATM   23  C   UNL     1      -7.979   9.322  68.771  1.00  0.00    -0.099 A  
HETATM   24  C   UNL     1      -8.299  10.504  68.090  1.00  0.00    -0.119 A  
ENDBRANCH  12  13
ENDBRANCH   6  12
TORSDOF 2
ENDMDL
MODEL      260
REMARK 921   NORMALIZED FREE ENERGY PREDICTED BY IDOCK:   24.51 KCAL/MOL
REMARK 922        TOTAL FREE ENERGY PREDICTED BY IDOCK:   26.86 KCAL/MOL
REMARK 923 INTER-LIGAND FREE ENERGY PREDICTED BY IDOCK:   15.18 KCAL/MOL
REMARK 924 INTRA-LIGAND FREE ENERGY PREDICTED BY IDOCK:   11.69 KCAL/MOL
REMARK 927      BINDING AFFINITY PREDICTED BY RF-SCORE:    0.00 PKD
ROOT
HETATM    1  C   UNL     1      -9.898  12.775  67.528  1.00  0.00    -0.211 C  
HETATM    2  N   UNL     1      -9.463  11.570  68.339  1.00  0.00    -0.192 N  
HETATM    3  C   UNL     1     -10.537  10.874  69.222  1.00  0.00    -0.217 C  
HETATM    4  C   UNL     1      -8.917  10.556  67.298  1.00  0.00    -0.139 C  
HETATM    5  C   UNL     1     -11.246  11.933  70.100  1.00  0.00     0.181 C  
HETATM    6  C   UNL     1     -10.280  12.669  71.048  1.00  0.00     7.028 C  
HETATM    7  C   UNL     1      -8.916  12.978  70.390  1.00  0.00     5.514 C  
HETATM    8  O   UNL     1      -9.156  10.204  71.291  1.00  0.00     0.860 OA 
HETATM    9  C   UNL     1      -8.414  11.833  69.456  1.00  0.00     1.048 C  
HETATM   10  C   UNL     1      -9.723   9.863  70.034  1.00  0.00    -0.227 C  
HETATM   11  C   UNL     1      -8.330  10.485  70.173  1.00  0.00     0.618 C  
ENDROOT
BRANCH   6  12
HETATM   12  O   UNL     1     -10.867  13.735  71.832  1.00  0.00     3.231 OA 
BRANCH  12  13
HETATM   13  C   UNL     1     -12.059  14.288  71.524  1.00  0.00    -0.240 C  
HETATM   14  C   UNL     1     -10.955  15.855  69.699  1.00  0.00    -0.319 A  
HETATM   15  C   UNL     1     -12.102  14.942  70.142  1.00  0.00    -0.379 C  
HETATM   16  C   UNL     1     -12.430  13.899  69.068  1.00  0.00     0.123 C  
HETATM   17  C   UNL     1     -11.277  17.066  69.053  1.00  0.00     0.165 A  
HETATM   18  O   UNL     1     -11.313  13.082  68.728  1.00  0.00    -0.252 OA 
HETATM   19  O   UNL     1     -13.025  14.221  72.273  1.00  0.00    -0.341 OA 
HETATM   20  C   UNL     1     -10.295  17.849  68.439  1.00  0.00    -0.380 A  
HETATM   21  H   UNL     1     -11.516  12.435  68.063  1.00  0.00     0.000 HD 
HETATM   22  C   UNL     1      -8.965  17.443  68.466  1.00  0.00    -0.276 A  
HETATM   23  C   UNL     1      -8.618  16.270  69.129  1.00  0.00    -0.212 A  
HETATM   24  C   UNL     1      -9.602  15.481  69.739  1.00  0.00    -0.205 A  
ENDBRANCH  12  13
ENDBRANCH   6  12
TORSDOF 2
ENDMDL
MODEL      261
REMARK 921   NORMALIZED FREE ENERGY PREDICTED BY IDOCK:   39.77 KCAL/MOL
REMARK 922        TOTAL FREE ENERGY PREDICTED BY IDOCK:   43.91 KCAL/MOL
REMARK 923 INTER-LIGAND FREE ENERGY PREDICTED BY IDOCK:   17.11 KCAL/MOL
REMARK 924 INTRA-LIGAND FREE ENERGY PREDICTED BY IDOCK:   26.79 KCAL/MOL
REMARK 927      BINDING AFFINITY PREDICTED BY RF-SCORE:    0.00 PKD
ROOT
HETATM    1  C   UNL     1      -7.065  17.172  68.198  1.00  0.00    -0.180 C  
HETATM    2  N   UNL     1      -7.197  18.560  68.796  1.00  0.00    -0.291 N  
HETATM    3  C   UNL     1      -7.791  18.669  70.229  1.00  0.00     2.037 C  
HETATM    4  C   UNL     1      -5.758  19.142  68.789  1.00  0.00    -0.206 C  
HETATM    5  C   UNL     1      -9.123  17.886  70.295  1.00  0.00     2.853 C  
HETATM    6  C   UNL     1     -10.184  18.426  69.317  1.00  0.00     0.062 C  
HETATM    7  C   UNL     1      -9.584  18.844  67.955  1.00  0.00    -0.368 C  
HETATM    8  O   UNL     1      -9.170  20.838  70.056  1.00  0.00     1.422 OA 
HETATM    9  C   UNL     1      -8.187  19.526  68.086  1.00  0.00    -0.317 C  
HETATM   10  C   UNL     1      -7.966  20.178  70.421  1.00  0.00     1.276 C  
HETATM   11  C   UNL     1      -8.210  20.739  69.017  1.00  0.00     1.455 C  
ENDROOT
BRANCH   6  12
HETATM   12  O   UNL     1     -11.423  17.678  69.266  1.00  0.00     1.193 OA 
BRANCH  12  13
HETATM   13  C   UNL     1     -11.569  16.569  68.513  1.00  0.00    -0.010 C  
HETATM   14  C   UNL     1     -10.625  17.799  66.368  1.00  0.00    -0.218 A  
HETATM   15  C   UNL     1     -10.699  16.552  67.255  1.00  0.00    -0.243 C  
HETATM   16  C   UNL     1      -9.300  16.017  67.581  1.00  0.00    -0.214 C  
HETATM   17  C   UNL     1     -10.696  17.629  64.971  1.00  0.00     0.542 A  
HETATM   18  O   UNL     1      -8.474  16.980  68.229  1.00  0.00    -0.217 OA 
HETATM   19  O   UNL     1     -12.300  15.644  68.844  1.00  0.00    -0.165 OA 
HETATM   20  C   UNL     1     -10.431  18.686  64.093  1.00  0.00     6.993 A  
HETATM   21  H   UNL     1      -7.607  16.648  68.432  1.00  0.00     0.000 HD 
HETATM   22  C   UNL     1     -10.097  19.939  64.595  1.00  0.00     2.688 A  
HETATM   23  C   UNL     1     -10.056  20.140  65.972  1.00  0.00    -0.497 A  
HETATM   24  C   UNL     1     -10.316  19.081  66.851  1.00  0.00    -0.483 A  
ENDBRANCH  12  13
ENDBRANCH   6  12
TORSDOF 2
ENDMDL
