MODEL        1
REMARK 921   NORMALIZED FREE ENERGY PREDICTED BY IDOCK:   -7.35 KCAL/MOL
REMARK 922        TOTAL FREE ENERGY PREDICTED BY IDOCK:   -8.85 KCAL/MOL
REMARK 923 INTER-LIGAND FREE ENERGY PREDICTED BY IDOCK:   -9.07 KCAL/MOL
REMARK 924 INTRA-LIGAND FREE ENERGY PREDICTED BY IDOCK:    0.22 KCAL/MOL
REMARK 927      BINDING AFFINITY PREDICTED BY RF-SCORE:    0.00 PKD
ROOT
HETATM    1  C   UNL     1     -11.553  13.986  68.158  1.00  0.00    -0.334 C  
HETATM    2  C   UNL     1     -11.997  12.645  68.764  1.00  0.00    -0.279 C  
HETATM    3  C   UNL     1     -11.589  11.765  67.733  1.00  0.00    -0.374 A  
HETATM    4  C   UNL     1     -10.779  10.677  67.785  1.00  0.00    -0.257 A  
HETATM    5  N   UNL     1     -10.467  10.415  66.484  1.00  0.00    -0.223 NA 
HETATM    6  C   UNL     1      -9.562   9.331  66.172  1.00  0.00    -0.260 C  
HETATM    7  C   UNL     1     -11.029  11.383  65.640  1.00  0.00    -0.190 A  
HETATM    8  C   UNL     1     -11.691  12.320  66.437  1.00  0.00    -0.431 A  
HETATM    9  C   UNL     1     -12.069  13.709  66.035  1.00  0.00    -0.480 A  
HETATM   10  C   UNL     1     -12.115  13.831  64.643  1.00  0.00    -0.452 A  
HETATM   11  C   UNL     1     -11.781  15.018  67.053  1.00  0.00    -0.199 C  
HETATM   12  C   UNL     1     -11.531  16.100  67.989  1.00  0.00    -0.163 C  
HETATM   13  C   UNL     1     -11.593  12.800  63.805  1.00  0.00    -0.548 A  
HETATM   14  C   UNL     1     -10.966  11.616  64.276  1.00  0.00    -0.418 A  
HETATM   15  C   UNL     1     -10.976  15.855  69.599  1.00  0.00    -0.319 C  
HETATM   16  C   UNL     1      -9.804  14.847  69.494  1.00  0.00    -0.059 C  
HETATM   17  C   UNL     1      -9.241  13.918  67.205  1.00  0.00    -0.239 C  
HETATM   18  N   UNL     1     -10.111  14.053  68.362  1.00  0.00    -0.232 NA 
ENDROOT
BRANCH  15  19
HETATM   19  C   UNL     1     -12.201  15.396  70.450  1.00  0.00    -0.391 C  
HETATM   20  O   UNL     1     -13.343  15.789  70.211  1.00  0.00    -0.214 OA 
HETATM   21  H   UNL     1     -10.851  14.357  71.614  1.00  0.00     0.000 HD 
HETATM   22  N   UNL     1     -11.821  14.668  71.565  1.00  0.00    -0.329 N  
BRANCH  22  23
HETATM   23  CA  UNL     1     -12.696  14.308  72.678  1.00  0.00    -0.307 C  
BRANCH  23  24
HETATM   24  C   UNL     1     -13.825  13.331  72.228  1.00  0.00    -0.539 C  
HETATM   25  H   UNL     1     -14.015  11.437  71.635  1.00  0.00     0.000 HD 
HETATM   26  O   UNL     1     -13.326  12.031  71.909  1.00  0.00    -0.456 OA 
ENDBRANCH  23  24
BRANCH  23  27
HETATM   27  C   UNL     1     -13.251  15.618  73.227  1.00  0.00    -0.666 C  
HETATM   28  C   UNL     1     -12.469  16.070  74.441  1.00  0.00    -0.712 C  
ENDBRANCH  23  27
ENDBRANCH  22  23
ENDBRANCH  15  19
TORSDOF 4
ENDMDL
MODEL        2
REMARK 921   NORMALIZED FREE ENERGY PREDICTED BY IDOCK:   -7.04 KCAL/MOL
REMARK 922        TOTAL FREE ENERGY PREDICTED BY IDOCK:   -8.47 KCAL/MOL
REMARK 923 INTER-LIGAND FREE ENERGY PREDICTED BY IDOCK:   -8.47 KCAL/MOL
REMARK 924 INTRA-LIGAND FREE ENERGY PREDICTED BY IDOCK:    0.00 KCAL/MOL
REMARK 927      BINDING AFFINITY PREDICTED BY RF-SCORE:    0.00 PKD
ROOT
HETATM    1  C   UNL     1     -10.858  14.038  67.741  1.00  0.00    -0.247 C  
HETATM    2  C   UNL     1     -11.748  12.980  68.414  1.00  0.00    -0.386 C  
HETATM    3  C   UNL     1     -11.452  11.860  67.598  1.00  0.00    -0.387 A  
HETATM    4  C   UNL     1     -10.999  10.628  67.941  1.00  0.00    -0.295 A  
HETATM    5  N   UNL     1     -10.580  10.074  66.768  1.00  0.00    -0.194 NA 
HETATM    6  C   UNL     1      -9.979   8.758  66.774  1.00  0.00    -0.268 C  
HETATM    7  C   UNL     1     -10.713  10.993  65.717  1.00  0.00    -0.148 A  
HETATM    8  C   UNL     1     -11.197  12.190  66.248  1.00  0.00    -0.382 A  
HETATM    9  C   UNL     1     -11.104  13.538  65.610  1.00  0.00    -0.299 A  
HETATM   10  C   UNL     1     -10.902  13.426  64.231  1.00  0.00    -0.383 A  
HETATM   11  C   UNL     1     -10.617  14.887  66.492  1.00  0.00    -0.306 C  
HETATM   12  C   UNL     1     -10.217  16.014  67.316  1.00  0.00    -0.277 C  
HETATM   13  C   UNL     1     -10.571  12.167  63.645  1.00  0.00    -0.504 A  
HETATM   14  C   UNL     1     -10.381  10.962  64.372  1.00  0.00    -0.430 A  
HETATM   15  C   UNL     1     -10.003  15.918  69.021  1.00  0.00    -0.233 C  
HETATM   16  C   UNL     1      -9.161  14.642  69.270  1.00  0.00     0.047 C  
HETATM   17  C   UNL     1      -8.542  13.219  67.267  1.00  0.00    -0.210 C  
HETATM   18  N   UNL     1      -9.503  13.769  68.208  1.00  0.00    -0.212 NA 
ENDROOT
BRANCH  15  19
HETATM   19  C   UNL     1     -11.422  15.941  69.671  1.00  0.00    -0.346 C  
HETATM   20  O   UNL     1     -12.389  16.449  69.104  1.00  0.00     0.129 OA 
HETATM   21  H   UNL     1     -10.552  15.042  71.312  1.00  0.00     0.000 HD 
HETATM   22  N   UNL     1     -11.404  15.495  70.982  1.00  0.00    -0.348 N  
BRANCH  22  23
HETATM   23  CA  UNL     1     -12.506  15.622  71.932  1.00  0.00    -0.432 C  
BRANCH  23  24
HETATM   24  C   UNL     1     -12.038  15.347  73.394  1.00  0.00    -0.491 C  
HETATM   25  H   UNL     1     -12.258  16.144  75.208  1.00  0.00     0.000 HD 
HETATM   26  O   UNL     1     -12.544  16.312  74.318  1.00  0.00    -0.687 OA 
ENDBRANCH  23  24
BRANCH  23  27
HETATM   27  C   UNL     1     -13.579  14.639  71.476  1.00  0.00    -0.481 C  
HETATM   28  C   UNL     1     -13.685  13.472  72.434  1.00  0.00    -0.704 C  
ENDBRANCH  23  27
ENDBRANCH  22  23
ENDBRANCH  15  19
TORSDOF 4
ENDMDL
MODEL        3
REMARK 921   NORMALIZED FREE ENERGY PREDICTED BY IDOCK:   -6.56 KCAL/MOL
REMARK 922        TOTAL FREE ENERGY PREDICTED BY IDOCK:   -7.87 KCAL/MOL
REMARK 923 INTER-LIGAND FREE ENERGY PREDICTED BY IDOCK:   -7.63 KCAL/MOL
REMARK 924 INTRA-LIGAND FREE ENERGY PREDICTED BY IDOCK:   -0.24 KCAL/MOL
REMARK 927      BINDING AFFINITY PREDICTED BY RF-SCORE:    0.00 PKD
ROOT
HETATM    1  C   UNL     1     -10.206   9.956  66.800  1.00  0.00    -0.236 C  
HETATM    2  C   UNL     1     -11.236  10.636  67.717  1.00  0.00    -0.383 C  
HETATM    3  C   UNL     1     -11.160   9.780  68.843  1.00  0.00    -0.139 A  
HETATM    4  C   UNL     1     -10.907  10.071  70.143  1.00  0.00    -0.311 A  
HETATM    5  N   UNL     1     -10.628   8.867  70.720  1.00  0.00    -0.211 NA 
HETATM    6  C   UNL     1     -10.256   8.814  72.117  1.00  0.00    -0.301 C  
HETATM    7  C   UNL     1     -10.642   7.848  69.758  1.00  0.00    -0.242 A  
HETATM    8  C   UNL     1     -10.901   8.429  68.515  1.00  0.00     0.030 A  
HETATM    9  C   UNL     1     -10.606   7.824  67.180  1.00  0.00    -0.401 A  
HETATM   10  C   UNL     1     -10.474   6.437  67.279  1.00  0.00    -0.326 A  
HETATM   11  C   UNL     1      -9.870   8.723  65.961  1.00  0.00    -0.234 C  
HETATM   12  C   UNL     1      -9.259   9.560  64.944  1.00  0.00    -0.284 C  
HETATM   13  C   UNL     1     -10.379   5.804  68.555  1.00  0.00    -0.274 A  
HETATM   14  C   UNL     1     -10.367   6.490  69.798  1.00  0.00    -0.234 A  
HETATM   15  C   UNL     1      -9.005  11.251  65.131  1.00  0.00    -0.047 C  
HETATM   16  C   UNL     1      -8.379  11.432  66.536  1.00  0.00    -0.164 C  
HETATM   17  C   UNL     1      -8.077   9.368  67.975  1.00  0.00    -0.106 C  
HETATM   18  N   UNL     1      -8.900  10.362  67.304  1.00  0.00    -0.132 NA 
ENDROOT
BRANCH  15  19
HETATM   19  C   UNL     1     -10.376  11.958  64.895  1.00  0.00    -0.286 C  
HETATM   20  O   UNL     1     -11.240  11.475  64.161  1.00  0.00    -0.358 OA 
HETATM   21  H   UNL     1      -9.660  13.482  66.086  1.00  0.00     0.000 HD 
HETATM   22  N   UNL     1     -10.415  13.226  65.451  1.00  0.00    -0.290 N  
BRANCH  22  23
HETATM   23  CA  UNL     1     -11.449  14.227  65.201  1.00  0.00    -0.351 C  
BRANCH  23  24
HETATM   24  C   UNL     1     -10.854  15.668  65.157  1.00  0.00    -0.431 C  
HETATM   25  H   UNL     1     -11.111  17.360  64.136  1.00  0.00     0.000 HD 
HETATM   26  O   UNL     1     -11.474  16.483  64.162  1.00  0.00    -1.059 OA 
ENDBRANCH  23  24
BRANCH  23  27
HETATM   27  C   UNL     1     -12.481  14.062  66.311  1.00  0.00    -0.439 C  
HETATM   28  C   UNL     1     -11.847  14.256  67.672  1.00  0.00    -0.420 C  
ENDBRANCH  23  27
ENDBRANCH  22  23
ENDBRANCH  15  19
TORSDOF 4
ENDMDL
MODEL        4
REMARK 921   NORMALIZED FREE ENERGY PREDICTED BY IDOCK:   -6.55 KCAL/MOL
REMARK 922        TOTAL FREE ENERGY PREDICTED BY IDOCK:   -7.86 KCAL/MOL
REMARK 923 INTER-LIGAND FREE ENERGY PREDICTED BY IDOCK:   -8.27 KCAL/MOL
REMARK 924 INTRA-LIGAND FREE ENERGY PREDICTED BY IDOCK:    0.41 KCAL/MOL
REMARK 927      BINDING AFFINITY PREDICTED BY RF-SCORE:    0.00 PKD
ROOT
HETATM    1  C   UNL     1     -10.176  15.268  67.345  1.00  0.00    -0.243 C  
HETATM    2  C   UNL     1     -10.501  15.816  65.945  1.00  0.00    -0.366 C  
HETATM    3  C   UNL     1     -10.732  14.599  65.256  1.00  0.00    -0.396 A  
HETATM    4  C   UNL     1     -11.811  14.195  64.541  1.00  0.00    -0.436 A  
HETATM    5  N   UNL     1     -11.641  12.851  64.388  1.00  0.00    -0.342 NA 
HETATM    6  C   UNL     1     -12.654  12.076  63.705  1.00  0.00    -0.490 C  
HETATM    7  C   UNL     1     -10.493  12.421  65.069  1.00  0.00    -0.294 A  
HETATM    8  C   UNL     1      -9.933  13.526  65.712  1.00  0.00    -0.266 A  
HETATM    9  C   UNL     1      -8.976  13.487  66.859  1.00  0.00    -0.219 A  
HETATM   10  C   UNL     1      -8.334  12.247  66.932  1.00  0.00    -0.137 A  
HETATM   11  C   UNL     1      -9.184  14.482  68.202  1.00  0.00    -0.195 C  
HETATM   12  C   UNL     1      -9.405  15.385  69.317  1.00  0.00    -0.254 C  
HETATM   13  C   UNL     1      -8.791  11.145  66.147  1.00  0.00    -0.195 A  
HETATM   14  C   UNL     1      -9.917  11.180  65.284  1.00  0.00    -0.311 A  
HETATM   15  C   UNL     1     -10.610  16.614  69.320  1.00  0.00    -0.343 C  
HETATM   16  C   UNL     1     -11.905  15.937  68.809  1.00  0.00    -0.268 C  
HETATM   17  C   UNL     1     -11.777  13.505  68.109  1.00  0.00    -0.361 C  
HETATM   18  N   UNL     1     -11.459  14.914  67.938  1.00  0.00    -0.330 NA 
ENDROOT
BRANCH  15  19
HETATM   19  C   UNL     1     -10.069  17.799  68.461  1.00  0.00    -0.377 C  
HETATM   20  O   UNL     1     -10.751  18.332  67.585  1.00  0.00    -0.419 OA 
HETATM   21  H   UNL     1      -8.291  17.570  69.482  1.00  0.00     0.000 HD 
HETATM   22  N   UNL     1      -8.724  18.038  68.685  1.00  0.00    -0.292 N  
BRANCH  22  23
HETATM   23  CA  UNL     1      -7.872  18.904  67.874  1.00  0.00    -0.263 C  
BRANCH  23  24
HETATM   24  C   UNL     1      -6.996  18.081  66.881  1.00  0.00    -0.191 C  
HETATM   25  H   UNL     1      -7.168  17.232  65.085  1.00  0.00     0.000 HD 
HETATM   26  O   UNL     1      -7.702  17.733  65.689  1.00  0.00    -0.545 OA 
ENDBRANCH  23  24
BRANCH  23  27
HETATM   27  C   UNL     1      -7.029  19.714  68.853  1.00  0.00    -0.382 C  
HETATM   28  C   UNL     1      -6.301  20.833  68.141  1.00  0.00    -0.354 C  
ENDBRANCH  23  27
ENDBRANCH  22  23
ENDBRANCH  15  19
TORSDOF 4
ENDMDL
MODEL        5
REMARK 921   NORMALIZED FREE ENERGY PREDICTED BY IDOCK:   -6.45 KCAL/MOL
REMARK 922        TOTAL FREE ENERGY PREDICTED BY IDOCK:   -7.74 KCAL/MOL
REMARK 923 INTER-LIGAND FREE ENERGY PREDICTED BY IDOCK:   -7.60 KCAL/MOL
REMARK 924 INTRA-LIGAND FREE ENERGY PREDICTED BY IDOCK:   -0.14 KCAL/MOL
REMARK 927      BINDING AFFINITY PREDICTED BY RF-SCORE:    0.00 PKD
ROOT
HETATM    1  C   UNL     1     -10.127  16.084  67.287  1.00  0.00    -0.266 C  
HETATM    2  C   UNL     1      -9.386  15.881  65.955  1.00  0.00    -0.385 C  
HETATM    3  C   UNL     1      -8.540  17.017  65.973  1.00  0.00    -0.164 A  
HETATM    4  C   UNL     1      -7.190  17.100  65.863  1.00  0.00     0.070 A  
HETATM    5  N   UNL     1      -6.886  18.364  66.272  1.00  0.00    -0.215 NA 
HETATM    6  C   UNL     1      -5.503  18.782  66.331  1.00  0.00    -0.150 C  
HETATM    7  C   UNL     1      -8.043  19.032  66.699  1.00  0.00    -0.274 A  
HETATM    8  C   UNL     1      -9.117  18.147  66.595  1.00  0.00    -0.290 A  
HETATM    9  C   UNL     1     -10.428  18.265  67.303  1.00  0.00    -0.419 A  
HETATM   10  C   UNL     1     -10.655  19.580  67.719  1.00  0.00    -0.542 A  
HETATM   11  C   UNL     1     -11.127  16.937  68.067  1.00  0.00    -0.190 C  
HETATM   12  C   UNL     1     -11.689  15.748  68.682  1.00  0.00    -0.353 C  
HETATM   13  C   UNL     1      -9.607  20.548  67.672  1.00  0.00    -0.489 A  
HETATM   14  C   UNL     1      -8.276  20.279  67.256  1.00  0.00    -0.393 A  
HETATM   15  C   UNL     1     -11.014  14.175  68.502  1.00  0.00    -0.271 C  
HETATM   16  C   UNL     1      -9.493  14.337  68.747  1.00  0.00    -0.131 C  
HETATM   17  C   UNL     1      -8.603  16.669  69.183  1.00  0.00    -0.110 C  
HETATM   18  N   UNL     1      -9.197  15.656  68.325  1.00  0.00    -0.186 NA 
ENDROOT
BRANCH  15  19
HETATM   19  C   UNL     1     -11.429  13.648  67.093  1.00  0.00    -0.342 C  
HETATM   20  O   UNL     1     -12.514  13.933  66.585  1.00  0.00    -0.407 OA 
HETATM   21  H   UNL     1      -9.642  12.617  67.085  1.00  0.00     0.000 HD 
HETATM   22  N   UNL     1     -10.532  12.717  66.597  1.00  0.00    -0.255 N  
BRANCH  22  23
HETATM   23  CA  UNL     1     -10.755  11.866  65.431  1.00  0.00    -0.283 C  
BRANCH  23  24
HETATM   24  C   UNL     1      -9.776  10.652  65.410  1.00  0.00    -0.252 C  
HETATM   25  H   UNL     1      -9.024   9.361  64.090  1.00  0.00     0.000 HD 
HETATM   26  O   UNL     1      -9.621  10.100  64.102  1.00  0.00    -0.290 OA 
ENDBRANCH  23  24
BRANCH  23  27
HETATM   27  C   UNL     1     -10.589  12.762  64.209  1.00  0.00    -0.424 C  
HETATM   28  C   UNL     1     -11.844  12.762  63.364  1.00  0.00    -0.591 C  
ENDBRANCH  23  27
ENDBRANCH  22  23
ENDBRANCH  15  19
TORSDOF 4
ENDMDL
MODEL        6
REMARK 921   NORMALIZED FREE ENERGY PREDICTED BY IDOCK:   -6.30 KCAL/MOL
REMARK 922        TOTAL FREE ENERGY PREDICTED BY IDOCK:   -7.54 KCAL/MOL
REMARK 923 INTER-LIGAND FREE ENERGY PREDICTED BY IDOCK:   -7.46 KCAL/MOL
REMARK 924 INTRA-LIGAND FREE ENERGY PREDICTED BY IDOCK:   -0.09 KCAL/MOL
REMARK 927      BINDING AFFINITY PREDICTED BY RF-SCORE:    0.00 PKD
ROOT
HETATM    1  C   UNL     1      -9.682  14.766  67.261  1.00  0.00    -0.230 C  
HETATM    2  C   UNL     1      -9.617  15.190  65.785  1.00  0.00    -0.344 C  
HETATM    3  C   UNL     1     -10.213  14.057  65.180  1.00  0.00    -0.396 A  
HETATM    4  C   UNL     1     -11.278  13.974  64.344  1.00  0.00    -0.306 A  
HETATM    5  N   UNL     1     -11.614  12.652  64.339  1.00  0.00    -0.336 NA 
HETATM    6  C   UNL     1     -12.761  12.210  63.578  1.00  0.00    -0.431 C  
HETATM    7  C   UNL     1     -10.797  11.937  65.227  1.00  0.00    -0.297 A  
HETATM    8  C   UNL     1      -9.936  12.843  65.849  1.00  0.00    -0.273 A  
HETATM    9  C   UNL     1      -9.200  12.621  67.131  1.00  0.00    -0.214 A  
HETATM   10  C   UNL     1      -9.088  11.257  67.413  1.00  0.00    -0.151 A  
HETATM   11  C   UNL     1      -9.164  13.803  68.330  1.00  0.00    -0.204 C  
HETATM   12  C   UNL     1      -9.150  14.873  69.311  1.00  0.00    -0.097 C  
HETATM   13  C   UNL     1      -9.837  10.297  66.668  1.00  0.00    -0.256 A  
HETATM   14  C   UNL     1     -10.762  10.615  65.640  1.00  0.00    -0.104 A  
HETATM   15  C   UNL     1      -9.792  16.442  69.017  1.00  0.00    -0.266 C  
HETATM   16  C   UNL     1     -11.181  16.216  68.371  1.00  0.00    -0.358 C  
HETATM   17  C   UNL     1     -11.906  13.831  67.920  1.00  0.00    -0.378 C  
HETATM   18  N   UNL     1     -11.062  14.989  67.675  1.00  0.00    -0.306 NA 
ENDROOT
BRANCH  15  19
HETATM   19  C   UNL     1      -8.751  17.217  68.150  1.00  0.00    -0.232 C  
HETATM   20  O   UNL     1      -7.550  16.947  68.180  1.00  0.00    -0.176 OA 
HETATM   21  H   UNL     1     -10.327  18.389  67.520  1.00  0.00     0.000 HD 
HETATM   22  N   UNL     1      -9.310  18.312  67.514  1.00  0.00    -0.260 N  
BRANCH  22  23
HETATM   23  CA  UNL     1      -8.563  19.368  66.835  1.00  0.00    -0.298 C  
BRANCH  23  24
HETATM   24  C   UNL     1      -7.798  20.273  67.849  1.00  0.00    -0.198 C  
HETATM   25  H   UNL     1      -6.650  21.902  67.827  1.00  0.00     0.000 HD 
HETATM   26  O   UNL     1      -7.115  21.352  67.209  1.00  0.00    -0.565 OA 
ENDBRANCH  23  24
BRANCH  23  27
HETATM   27  C   UNL     1      -9.581  20.154  66.015  1.00  0.00    -0.380 C  
HETATM   28  C   UNL     1     -10.864  19.367  65.850  1.00  0.00    -0.401 C  
ENDBRANCH  23  27
ENDBRANCH  22  23
ENDBRANCH  15  19
TORSDOF 4
ENDMDL
MODEL        7
REMARK 921   NORMALIZED FREE ENERGY PREDICTED BY IDOCK:   -6.22 KCAL/MOL
REMARK 922        TOTAL FREE ENERGY PREDICTED BY IDOCK:   -7.46 KCAL/MOL
REMARK 923 INTER-LIGAND FREE ENERGY PREDICTED BY IDOCK:   -7.32 KCAL/MOL
REMARK 924 INTRA-LIGAND FREE ENERGY PREDICTED BY IDOCK:   -0.13 KCAL/MOL
REMARK 927      BINDING AFFINITY PREDICTED BY RF-SCORE:    0.00 PKD
ROOT
HETATM    1  C   UNL     1     -10.528   9.647  68.809  1.00  0.00    -0.215 C  
HETATM    2  C   UNL     1     -11.431  10.022  69.996  1.00  0.00    -0.310 C  
HETATM    3  C   UNL     1     -11.227   8.891  70.823  1.00  0.00    -0.321 A  
HETATM    4  C   UNL     1     -10.813   8.818  72.113  1.00  0.00    -0.330 A  
HETATM    5  N   UNL     1     -10.478   7.509  72.297  1.00  0.00    -0.218 NA 
HETATM    6  C   UNL     1      -9.938   7.082  73.569  1.00  0.00    -0.284 C  
HETATM    7  C   UNL     1     -10.620   6.795  71.099  1.00  0.00    -0.224 A  
HETATM    8  C   UNL     1     -11.023   7.690  70.106  1.00  0.00    -0.255 A  
HETATM    9  C   UNL     1     -10.901   7.484  68.631  1.00  0.00    -0.044 A  
HETATM   10  C   UNL     1     -10.772   6.126  68.325  1.00  0.00    -0.361 A  
HETATM   11  C   UNL     1     -10.310   8.701  67.628  1.00  0.00    -0.317 C  
HETATM   12  C   UNL     1      -9.820   9.800  66.816  1.00  0.00    -0.265 C  
HETATM   13  C   UNL     1     -10.528   5.169  69.356  1.00  0.00    -0.203 A  
HETATM   14  C   UNL     1     -10.357   5.486  70.729  1.00  0.00    -0.321 A  
HETATM   15  C   UNL     1      -9.527  11.380  67.432  1.00  0.00    -0.174 C  
HETATM   16  C   UNL     1      -8.732  11.181  68.746  1.00  0.00    -0.128 C  
HETATM   17  C   UNL     1      -8.277   8.809  69.510  1.00  0.00    -0.111 C  
HETATM   18  N   UNL     1      -9.166   9.929  69.245  1.00  0.00    -0.187 NA 
ENDROOT
BRANCH  15  19
HETATM   19  C   UNL     1     -10.910  12.091  67.567  1.00  0.00    -0.241 C  
HETATM   20  O   UNL     1     -11.819  11.906  66.758  1.00  0.00    -0.598 OA 
HETATM   21  H   UNL     1     -10.116  13.059  69.207  1.00  0.00     0.000 HD 
HETATM   22  N   UNL     1     -10.911  13.048  68.568  1.00  0.00    -0.251 N  
BRANCH  22  23
HETATM   23  CA  UNL     1     -11.957  14.044  68.784  1.00  0.00    -0.347 C  
BRANCH  23  24
HETATM   24  C   UNL     1     -11.499  15.465  68.331  1.00  0.00    -0.355 C  
HETATM   25  H   UNL     1     -10.684  16.334  66.733  1.00  0.00     0.000 HD 
HETATM   26  O   UNL     1     -10.962  15.469  67.008  1.00  0.00    -0.321 OA 
ENDBRANCH  23  24
BRANCH  23  27
HETATM   27  C   UNL     1     -12.296  13.994  70.269  1.00  0.00    -0.425 C  
HETATM   28  C   UNL     1     -12.676  15.366  70.783  1.00  0.00    -0.516 C  
ENDBRANCH  23  27
ENDBRANCH  22  23
ENDBRANCH  15  19
TORSDOF 4
ENDMDL
MODEL        8
REMARK 921   NORMALIZED FREE ENERGY PREDICTED BY IDOCK:   -6.21 KCAL/MOL
REMARK 922        TOTAL FREE ENERGY PREDICTED BY IDOCK:   -7.43 KCAL/MOL
REMARK 923 INTER-LIGAND FREE ENERGY PREDICTED BY IDOCK:   -7.32 KCAL/MOL
REMARK 924 INTRA-LIGAND FREE ENERGY PREDICTED BY IDOCK:   -0.11 KCAL/MOL
REMARK 927      BINDING AFFINITY PREDICTED BY RF-SCORE:    0.00 PKD
ROOT
HETATM    1  C   UNL     1      -8.810  17.822  67.201  1.00  0.00    -0.246 C  
HETATM    2  C   UNL     1      -7.819  16.691  67.524  1.00  0.00    -0.191 C  
HETATM    3  C   UNL     1      -6.869  17.412  68.288  1.00  0.00    -0.190 A  
HETATM    4  C   UNL     1      -6.400  17.180  69.540  1.00  0.00    -0.230 A  
HETATM    5  N   UNL     1      -5.776  18.339  69.896  1.00  0.00    -0.239 NA 
HETATM    6  C   UNL     1      -5.197  18.461  71.216  1.00  0.00    -0.248 C  
HETATM    7  C   UNL     1      -5.922  19.304  68.889  1.00  0.00    -0.228 A  
HETATM    8  C   UNL     1      -6.702  18.752  67.871  1.00  0.00    -0.226 A  
HETATM    9  C   UNL     1      -7.449  19.512  66.824  1.00  0.00    -0.258 A  
HETATM   10  C   UNL     1      -6.928  20.800  66.673  1.00  0.00    -0.311 A  
HETATM   11  C   UNL     1      -9.043  19.127  66.439  1.00  0.00    -0.362 C  
HETATM   12  C   UNL     1     -10.405  18.726  66.136  1.00  0.00    -0.494 C  
HETATM   13  C   UNL     1      -5.992  21.321  67.617  1.00  0.00    -0.423 A  
HETATM   14  C   UNL     1      -5.547  20.633  68.777  1.00  0.00    -0.369 A  
HETATM   15  C   UNL     1     -11.153  17.323  66.795  1.00  0.00     0.352 C  
HETATM   16  C   UNL     1     -10.841  17.351  68.312  1.00  0.00    -0.256 C  
HETATM   17  C   UNL     1      -9.382  19.228  69.189  1.00  0.00    -0.216 C  
HETATM   18  N   UNL     1      -9.595  18.017  68.413  1.00  0.00    -0.319 NA 
ENDROOT
BRANCH  15  19
HETATM   19  C   UNL     1     -10.610  16.091  66.006  1.00  0.00    -0.316 C  
HETATM   20  O   UNL     1     -10.236  16.180  64.836  1.00  0.00    -0.502 OA 
HETATM   21  H   UNL     1     -11.032  14.978  67.691  1.00  0.00     0.000 HD 
HETATM   22  N   UNL     1     -10.769  14.908  66.708  1.00  0.00    -0.306 N  
BRANCH  22  23
HETATM   23  CA  UNL     1     -10.590  13.568  66.157  1.00  0.00    -0.290 C  
BRANCH  23  24
HETATM   24  C   UNL     1     -11.955  12.835  65.975  1.00  0.00    -0.432 C  
HETATM   25  H   UNL     1     -13.372  12.638  64.587  1.00  0.00     0.000 HD 
HETATM   26  O   UNL     1     -12.541  13.084  64.697  1.00  0.00    -0.591 OA 
ENDBRANCH  23  24
BRANCH  23  27
HETATM   27  C   UNL     1      -9.663  12.830  67.117  1.00  0.00    -0.216 C  
HETATM   28  C   UNL     1      -9.736  11.334  66.896  1.00  0.00    -0.215 C  
ENDBRANCH  23  27
ENDBRANCH  22  23
ENDBRANCH  15  19
TORSDOF 4
ENDMDL
MODEL        9
REMARK 921   NORMALIZED FREE ENERGY PREDICTED BY IDOCK:   -6.13 KCAL/MOL
REMARK 922        TOTAL FREE ENERGY PREDICTED BY IDOCK:   -7.34 KCAL/MOL
REMARK 923 INTER-LIGAND FREE ENERGY PREDICTED BY IDOCK:   -7.66 KCAL/MOL
REMARK 924 INTRA-LIGAND FREE ENERGY PREDICTED BY IDOCK:    0.32 KCAL/MOL
REMARK 927      BINDING AFFINITY PREDICTED BY RF-SCORE:    0.00 PKD
ROOT
HETATM    1  C   UNL     1     -10.257  13.596  66.986  1.00  0.00    -0.250 C  
HETATM    2  C   UNL     1      -8.759  13.629  67.334  1.00  0.00    -0.214 C  
HETATM    3  C   UNL     1      -8.598  12.315  67.838  1.00  0.00    -0.169 A  
HETATM    4  C   UNL     1      -7.734  11.339  67.464  1.00  0.00    -0.122 A  
HETATM    5  N   UNL     1      -8.226  10.203  68.036  1.00  0.00    -0.112 NA 
HETATM    6  C   UNL     1      -7.567   8.939  67.795  1.00  0.00    -0.093 C  
HETATM    7  C   UNL     1      -9.430  10.472  68.703  1.00  0.00    -0.172 A  
HETATM    8  C   UNL     1      -9.736  11.821  68.515  1.00  0.00    -0.181 A  
HETATM    9  C   UNL     1     -11.082  12.451  68.676  1.00  0.00    -0.297 A  
HETATM   10  C   UNL     1     -11.911  11.660  69.477  1.00  0.00    -0.414 A  
HETATM   11  C   UNL     1     -11.685  13.523  67.527  1.00  0.00    -0.403 C  
HETATM   12  C   UNL     1     -12.134  14.461  66.513  1.00  0.00    -0.395 C  
HETATM   13  C   UNL     1     -11.532  10.327  69.822  1.00  0.00    -0.320 A  
HETATM   14  C   UNL     1     -10.349   9.682  69.375  1.00  0.00    -0.226 A  
HETATM   15  C   UNL     1     -11.139  15.015  65.223  1.00  0.00    -0.391 C  
HETATM   16  C   UNL     1     -10.463  13.751  64.637  1.00  0.00    -0.412 C  
HETATM   17  C   UNL     1     -10.936  11.527  65.755  1.00  0.00    -0.246 C  
HETATM   18  N   UNL     1     -10.354  12.859  65.732  1.00  0.00    -0.280 NA 
ENDROOT
BRANCH  15  19
HETATM   19  C   UNL     1     -10.180  16.099  65.806  1.00  0.00    -0.374 C  
HETATM   20  O   UNL     1      -8.991  16.152  65.493  1.00  0.00    -0.304 OA 
HETATM   21  H   UNL     1     -11.786  16.741  66.932  1.00  0.00     0.000 HD 
HETATM   22  N   UNL     1     -10.778  16.841  66.812  1.00  0.00    -0.187 N  
BRANCH  22  23
HETATM   23  CA  UNL     1     -10.083  17.755  67.714  1.00  0.00    -0.345 C  
BRANCH  23  24
HETATM   24  C   UNL     1     -10.182  17.283  69.197  1.00  0.00    -0.283 C  
HETATM   25  H   UNL     1     -11.271  16.025  70.296  1.00  0.00     0.000 HD 
HETATM   26  O   UNL     1     -11.211  16.312  69.393  1.00  0.00    -0.324 OA 
ENDBRANCH  23  24
BRANCH  23  27
HETATM   27  C   UNL     1     -10.714  19.127  67.503  1.00  0.00    -0.555 C  
HETATM   28  C   UNL     1     -10.030  19.867  66.374  1.00  0.00    -0.593 C  
ENDBRANCH  23  27
ENDBRANCH  22  23
ENDBRANCH  15  19
TORSDOF 4
ENDMDL
MODEL       10
REMARK 921   NORMALIZED FREE ENERGY PREDICTED BY IDOCK:   -6.10 KCAL/MOL
REMARK 922        TOTAL FREE ENERGY PREDICTED BY IDOCK:   -7.31 KCAL/MOL
REMARK 923 INTER-LIGAND FREE ENERGY PREDICTED BY IDOCK:   -8.11 KCAL/MOL
REMARK 924 INTRA-LIGAND FREE ENERGY PREDICTED BY IDOCK:    0.80 KCAL/MOL
REMARK 927      BINDING AFFINITY PREDICTED BY RF-SCORE:    0.00 PKD
ROOT
HETATM    1  C   UNL     1     -10.060  15.773  67.228  1.00  0.00    -0.247 C  
HETATM    2  C   UNL     1      -9.273  15.907  65.914  1.00  0.00    -0.332 C  
HETATM    3  C   UNL     1      -8.327  16.890  66.297  1.00  0.00    -0.331 A  
HETATM    4  C   UNL     1      -6.972  16.861  66.245  1.00  0.00    -0.096 A  
HETATM    5  N   UNL     1      -6.574  17.904  67.029  1.00  0.00    -0.169 NA 
HETATM    6  C   UNL     1      -5.163  18.138  67.242  1.00  0.00    -0.132 C  
HETATM    7  C   UNL     1      -7.684  18.528  67.615  1.00  0.00    -0.231 A  
HETATM    8  C   UNL     1      -8.829  17.833  67.222  1.00  0.00    -0.240 A  
HETATM    9  C   UNL     1     -10.158  17.867  67.905  1.00  0.00    -0.350 A  
HETATM   10  C   UNL     1     -10.283  19.010  68.698  1.00  0.00    -0.379 A  
HETATM   11  C   UNL     1     -11.016  16.450  68.210  1.00  0.00    -0.355 C  
HETATM   12  C   UNL     1     -11.717  15.196  68.420  1.00  0.00    -0.338 C  
HETATM   13  C   UNL     1      -9.149  19.833  68.972  1.00  0.00    -0.135 A  
HETATM   14  C   UNL     1      -7.829  19.565  68.522  1.00  0.00    -0.382 A  
HETATM   15  C   UNL     1     -11.182  13.690  67.781  1.00  0.00    -0.310 C  
HETATM   16  C   UNL     1      -9.668  13.611  68.096  1.00  0.00    -0.229 C  
HETATM   17  C   UNL     1      -8.589  15.596  69.244  1.00  0.00    -0.262 C  
HETATM   18  N   UNL     1      -9.229  14.957  68.105  1.00  0.00    -0.181 NA 
ENDROOT
BRANCH  15  19
HETATM   19  C   UNL     1     -11.571  13.660  66.270  1.00  0.00    -0.348 C  
HETATM   20  O   UNL     1     -12.665  14.059  65.871  1.00  0.00    -0.495 OA 
HETATM   21  H   UNL     1      -9.742  12.764  65.941  1.00  0.00     0.000 HD 
HETATM   22  N   UNL     1     -10.634  12.990  65.501  1.00  0.00    -0.277 N  
BRANCH  22  23
HETATM   23  CA  UNL     1     -10.818  12.581  64.112  1.00  0.00    -0.382 C  
BRANCH  23  24
HETATM   24  C   UNL     1     -12.208  13.025  63.561  1.00  0.00    -0.501 C  
HETATM   25  H   UNL     1     -13.864  12.187  62.833  1.00  0.00     0.000 HD 
HETATM   26  O   UNL     1     -13.018  11.916  63.168  1.00  0.00    -0.640 OA 
ENDBRANCH  23  24
BRANCH  23  27
HETATM   27  C   UNL     1     -10.644  11.066  64.085  1.00  0.00    -0.412 C  
HETATM   28  C   UNL     1     -10.147  10.555  65.420  1.00  0.00    -0.358 C  
ENDBRANCH  23  27
ENDBRANCH  22  23
ENDBRANCH  15  19
TORSDOF 4
ENDMDL
MODEL       11
REMARK 921   NORMALIZED FREE ENERGY PREDICTED BY IDOCK:   -5.85 KCAL/MOL
REMARK 922        TOTAL FREE ENERGY PREDICTED BY IDOCK:   -7.00 KCAL/MOL
REMARK 923 INTER-LIGAND FREE ENERGY PREDICTED BY IDOCK:   -6.85 KCAL/MOL
REMARK 924 INTRA-LIGAND FREE ENERGY PREDICTED BY IDOCK:   -0.15 KCAL/MOL
REMARK 927      BINDING AFFINITY PREDICTED BY RF-SCORE:    0.00 PKD
ROOT
HETATM    1  C   UNL     1     -10.652   9.703  68.667  1.00  0.00    -0.217 C  
HETATM    2  C   UNL     1     -10.532   8.505  67.711  1.00  0.00    -0.287 C  
HETATM    3  C   UNL     1     -10.116   9.174  66.534  1.00  0.00    -0.357 A  
HETATM    4  C   UNL     1      -9.029   8.965  65.751  1.00  0.00    -0.203 A  
HETATM    5  N   UNL     1      -8.946  10.078  64.968  1.00  0.00    -0.182 NA 
HETATM    6  C   UNL     1      -7.851  10.214  64.034  1.00  0.00    -0.149 C  
HETATM    7  C   UNL     1      -9.942  11.000  65.321  1.00  0.00    -0.266 A  
HETATM    8  C   UNL     1     -10.661  10.471  66.394  1.00  0.00    -0.166 A  
HETATM    9  C   UNL     1     -11.515  11.242  67.349  1.00  0.00    -0.300 A  
HETATM   10  C   UNL     1     -11.898  12.467  66.798  1.00  0.00    -0.416 A  
HETATM   11  C   UNL     1     -11.414  10.983  69.010  1.00  0.00    -0.368 C  
HETATM   12  C   UNL     1     -11.298  10.693  70.428  1.00  0.00    -0.389 C  
HETATM   13  C   UNL     1     -11.291  12.948  65.599  1.00  0.00    -0.344 A  
HETATM   14  C   UNL     1     -10.252  12.282  64.897  1.00  0.00    -0.307 A  
HETATM   15  C   UNL     1     -10.356   9.399  71.060  1.00  0.00    -0.382 C  
HETATM   16  C   UNL     1      -8.991   9.476  70.332  1.00  0.00    -0.243 C  
HETATM   17  C   UNL     1      -8.693  11.254  68.552  1.00  0.00    -0.156 C  
HETATM   18  N   UNL     1      -9.287  10.030  69.063  1.00  0.00    -0.170 NA 
ENDROOT
BRANCH  15  19
HETATM   19  C   UNL     1     -11.171   8.085  70.852  1.00  0.00    -0.266 C  
HETATM   20  O   UNL     1     -12.388   8.038  71.030  1.00  0.00    -0.263 OA 
HETATM   21  H   UNL     1      -9.366   7.173  70.441  1.00  0.00     0.000 HD 
HETATM   22  N   UNL     1     -10.352   6.990  70.629  1.00  0.00    -0.206 N  
BRANCH  22  23
HETATM   23  CA  UNL     1     -10.783   5.595  70.640  1.00  0.00    -0.263 C  
BRANCH  23  24
HETATM   24  C   UNL     1     -10.301   4.855  71.925  1.00  0.00    -0.190 C  
HETATM   25  H   UNL     1     -10.759   4.772  73.864  1.00  0.00     0.000 HD 
HETATM   26  O   UNL     1     -11.054   5.223  73.081  1.00  0.00    -0.282 OA 
ENDBRANCH  23  24
BRANCH  23  27
HETATM   27  C   UNL     1     -10.227   4.964  69.368  1.00  0.00    -0.229 C  
HETATM   28  C   UNL     1      -9.508   3.669  69.677  1.00  0.00    -0.245 C  
ENDBRANCH  23  27
ENDBRANCH  22  23
ENDBRANCH  15  19
TORSDOF 4
ENDMDL
MODEL       12
REMARK 921   NORMALIZED FREE ENERGY PREDICTED BY IDOCK:   -5.84 KCAL/MOL
REMARK 922        TOTAL FREE ENERGY PREDICTED BY IDOCK:   -6.98 KCAL/MOL
REMARK 923 INTER-LIGAND FREE ENERGY PREDICTED BY IDOCK:   -7.39 KCAL/MOL
REMARK 924 INTRA-LIGAND FREE ENERGY PREDICTED BY IDOCK:    0.41 KCAL/MOL
REMARK 927      BINDING AFFINITY PREDICTED BY RF-SCORE:    0.00 PKD
ROOT
HETATM    1  C   UNL     1     -10.046  15.144  67.431  1.00  0.00    -0.229 C  
HETATM    2  C   UNL     1      -8.790  14.282  67.221  1.00  0.00    -0.224 C  
HETATM    3  C   UNL     1      -9.317  13.005  67.538  1.00  0.00    -0.200 A  
HETATM    4  C   UNL     1      -9.325  11.861  66.809  1.00  0.00    -0.201 A  
HETATM    5  N   UNL     1     -10.231  11.057  67.436  1.00  0.00    -0.189 NA 
HETATM    6  C   UNL     1     -10.531   9.755  66.885  1.00  0.00    -0.211 C  
HETATM    7  C   UNL     1     -10.829  11.736  68.508  1.00  0.00    -0.224 A  
HETATM    8  C   UNL     1     -10.313  13.033  68.540  1.00  0.00    -0.247 A  
HETATM    9  C   UNL     1     -10.934  14.212  69.217  1.00  0.00    -0.252 A  
HETATM   10  C   UNL     1     -11.837  13.803  70.203  1.00  0.00    -0.360 A  
HETATM   11  C   UNL     1     -11.050  15.701  68.440  1.00  0.00    -0.326 C  
HETATM   12  C   UNL     1     -11.094  16.964  67.725  1.00  0.00    -0.116 C  
HETATM   13  C   UNL     1     -12.247  12.439  70.292  1.00  0.00    -0.345 A  
HETATM   14  C   UNL     1     -11.833  11.410  69.405  1.00  0.00    -0.419 A  
HETATM   15  C   UNL     1     -10.325  17.225  66.208  1.00  0.00    -0.323 C  
HETATM   16  C   UNL     1     -10.699  16.005  65.329  1.00  0.00    -0.399 C  
HETATM   17  C   UNL     1     -12.097  14.171  66.378  1.00  0.00    -0.451 C  
HETATM   18  N   UNL     1     -10.869  14.938  66.245  1.00  0.00    -0.325 NA 
ENDROOT
BRANCH  15  19
HETATM   19  C   UNL     1      -8.803  17.430  66.485  1.00  0.00    -0.263 C  
HETATM   20  O   UNL     1      -7.937  16.902  65.787  1.00  0.00    -0.374 OA 
HETATM   21  H   UNL     1      -9.375  18.543  68.125  1.00  0.00     0.000 HD 
HETATM   22  N   UNL     1      -8.574  18.104  67.673  1.00  0.00    -0.249 N  
BRANCH  22  23
HETATM   23  CA  UNL     1      -7.277  18.238  68.332  1.00  0.00    -0.268 C  
BRANCH  23  24
HETATM   24  C   UNL     1      -6.999  17.048  69.300  1.00  0.00    -0.198 C  
HETATM   25  H   UNL     1      -5.678  16.541  70.705  1.00  0.00     0.000 HD 
HETATM   26  O   UNL     1      -5.846  17.267  70.115  1.00  0.00    -0.246 OA 
ENDBRANCH  23  24
BRANCH  23  27
HETATM   27  C   UNL     1      -7.302  19.579  69.058  1.00  0.00    -0.392 C  
HETATM   28  C   UNL     1      -6.234  20.506  68.519  1.00  0.00    -0.357 C  
ENDBRANCH  23  27
ENDBRANCH  22  23
ENDBRANCH  15  19
TORSDOF 4
ENDMDL
MODEL       13
REMARK 921   NORMALIZED FREE ENERGY PREDICTED BY IDOCK:   -5.82 KCAL/MOL
REMARK 922        TOTAL FREE ENERGY PREDICTED BY IDOCK:   -6.96 KCAL/MOL
REMARK 923 INTER-LIGAND FREE ENERGY PREDICTED BY IDOCK:   -6.87 KCAL/MOL
REMARK 924 INTRA-LIGAND FREE ENERGY PREDICTED BY IDOCK:   -0.09 KCAL/MOL
REMARK 927      BINDING AFFINITY PREDICTED BY RF-SCORE:    0.00 PKD
ROOT
HETATM    1  C   UNL     1      -9.354  11.430  68.431  1.00  0.00    -0.194 C  
HETATM    2  C   UNL     1     -10.807  11.728  68.836  1.00  0.00    -0.265 C  
HETATM    3  C   UNL     1     -11.106  12.766  67.920  1.00  0.00    -0.281 A  
HETATM    4  C   UNL     1     -12.115  12.869  67.019  1.00  0.00    -0.230 A  
HETATM    5  N   UNL     1     -11.740  13.887  66.193  1.00  0.00    -0.359 NA 
HETATM    6  C   UNL     1     -12.576  14.236  65.066  1.00  0.00    -0.347 C  
HETATM    7  C   UNL     1     -10.469  14.362  66.548  1.00  0.00    -0.289 A  
HETATM    8  C   UNL     1     -10.001  13.591  67.613  1.00  0.00    -0.229 A  
HETATM    9  C   UNL     1      -8.575  13.453  68.041  1.00  0.00    -0.174 A  
HETATM   10  C   UNL     1      -7.807  14.522  67.572  1.00  0.00    -0.212 A  
HETATM   11  C   UNL     1      -7.915  11.945  68.393  1.00  0.00    -0.154 C  
HETATM   12  C   UNL     1      -7.415  10.619  68.709  1.00  0.00    -0.104 C  
HETATM   13  C   UNL     1      -8.335  15.426  66.601  1.00  0.00    -0.255 A  
HETATM   14  C   UNL     1      -9.620  15.315  66.009  1.00  0.00    -0.372 A  
HETATM   15  C   UNL     1      -8.411   9.218  68.778  1.00  0.00    -0.129 C  
HETATM   16  C   UNL     1      -9.287   9.259  67.501  1.00  0.00    -0.127 C  
HETATM   17  C   UNL     1      -9.039  11.252  65.956  1.00  0.00    -0.209 C  
HETATM   18  N   UNL     1      -9.439  10.637  67.211  1.00  0.00    -0.158 NA 
ENDROOT
BRANCH  15  19
HETATM   19  C   UNL     1      -9.177   9.257  70.137  1.00  0.00    -0.225 C  
HETATM   20  O   UNL     1      -8.621   9.573  71.189  1.00  0.00    -0.269 OA 
HETATM   21  H   UNL     1     -10.819   8.570  69.093  1.00  0.00     0.000 HD 
HETATM   22  N   UNL     1     -10.457   8.739  70.032  1.00  0.00    -0.207 N  
BRANCH  22  23
HETATM   23  CA  UNL     1     -11.332   8.412  71.155  1.00  0.00    -0.268 C  
BRANCH  23  24
HETATM   24  C   UNL     1     -12.122   7.091  70.903  1.00  0.00    -0.357 C  
HETATM   25  H   UNL     1     -12.051   5.518  69.681  1.00  0.00     0.000 HD 
HETATM   26  O   UNL     1     -11.570   6.322  69.834  1.00  0.00    -0.435 OA 
ENDBRANCH  23  24
BRANCH  23  27
HETATM   27  C   UNL     1     -12.256   9.611  71.340  1.00  0.00    -0.471 C  
HETATM   28  C   UNL     1     -13.368   9.290  72.315  1.00  0.00    -0.547 C  
ENDBRANCH  23  27
ENDBRANCH  22  23
ENDBRANCH  15  19
TORSDOF 4
ENDMDL
MODEL       14
REMARK 921   NORMALIZED FREE ENERGY PREDICTED BY IDOCK:   -5.82 KCAL/MOL
REMARK 922        TOTAL FREE ENERGY PREDICTED BY IDOCK:   -6.96 KCAL/MOL
REMARK 923 INTER-LIGAND FREE ENERGY PREDICTED BY IDOCK:   -6.87 KCAL/MOL
REMARK 924 INTRA-LIGAND FREE ENERGY PREDICTED BY IDOCK:   -0.09 KCAL/MOL
REMARK 927      BINDING AFFINITY PREDICTED BY RF-SCORE:    0.00 PKD
ROOT
HETATM    1  C   UNL     1     -10.113  10.332  67.465  1.00  0.00    -0.198 C  
HETATM    2  C   UNL     1     -11.137  10.921  68.449  1.00  0.00    -0.320 C  
HETATM    3  C   UNL     1     -11.192   9.872  69.399  1.00  0.00    -0.196 A  
HETATM    4  C   UNL     1     -10.991   9.900  70.740  1.00  0.00    -0.337 A  
HETATM    5  N   UNL     1     -10.840   8.592  71.095  1.00  0.00    -0.232 NA 
HETATM    6  C   UNL     1     -10.553   8.254  72.471  1.00  0.00    -0.337 C  
HETATM    7  C   UNL     1     -10.880   7.769  69.960  1.00  0.00    -0.241 A  
HETATM    8  C   UNL     1     -11.021   8.586  68.837  1.00  0.00     0.106 A  
HETATM    9  C   UNL     1     -10.700   8.210  67.427  1.00  0.00    -0.247 A  
HETATM   10  C   UNL     1     -10.683   6.821  67.272  1.00  0.00    -0.423 A  
HETATM   11  C   UNL     1      -9.829   9.246  66.427  1.00  0.00    -0.347 C  
HETATM   12  C   UNL     1      -9.097  10.198  65.608  1.00  0.00    -0.216 C  
HETATM   13  C   UNL     1     -10.710   5.962  68.412  1.00  0.00    -0.323 A  
HETATM   14  C   UNL     1     -10.715   6.408  69.760  1.00  0.00    -0.341 A  
HETATM   15  C   UNL     1      -8.722  11.798  66.116  1.00  0.00    -0.057 C  
HETATM   16  C   UNL     1      -8.164  11.666  67.555  1.00  0.00    -0.148 C  
HETATM   17  C   UNL     1      -8.107   9.357  68.597  1.00  0.00    -0.104 C  
HETATM   18  N   UNL     1      -8.810  10.524  68.089  1.00  0.00    -0.131 NA 
ENDROOT
BRANCH  15  19
HETATM   19  C   UNL     1     -10.018  12.653  65.958  1.00  0.00    -0.258 C  
HETATM   20  O   UNL     1     -10.879  12.382  65.120  1.00  0.00    -0.281 OA 
HETATM   21  H   UNL     1      -9.244  13.878  67.426  1.00  0.00     0.000 HD 
HETATM   22  N   UNL     1      -9.983  13.804  66.728  1.00  0.00    -0.263 N  
BRANCH  22  23
HETATM   23  CA  UNL     1     -10.919  14.920  66.622  1.00  0.00    -0.325 C  
BRANCH  23  24
HETATM   24  C   UNL     1     -10.276  16.141  65.895  1.00  0.00    -0.360 C  
HETATM   25  H   UNL     1     -10.470  17.128  64.174  1.00  0.00     0.000 HD 
HETATM   26  O   UNL     1     -10.862  16.385  64.616  1.00  0.00    -0.717 OA 
ENDBRANCH  23  24
BRANCH  23  27
HETATM   27  C   UNL     1     -11.347  15.257  68.046  1.00  0.00    -0.345 C  
HETATM   28  C   UNL     1     -10.249  15.995  68.780  1.00  0.00    -0.225 C  
ENDBRANCH  23  27
ENDBRANCH  22  23
ENDBRANCH  15  19
TORSDOF 4
ENDMDL
MODEL       15
REMARK 921   NORMALIZED FREE ENERGY PREDICTED BY IDOCK:   -5.81 KCAL/MOL
REMARK 922        TOTAL FREE ENERGY PREDICTED BY IDOCK:   -6.95 KCAL/MOL
REMARK 923 INTER-LIGAND FREE ENERGY PREDICTED BY IDOCK:   -6.81 KCAL/MOL
REMARK 924 INTRA-LIGAND FREE ENERGY PREDICTED BY IDOCK:   -0.13 KCAL/MOL
REMARK 927      BINDING AFFINITY PREDICTED BY RF-SCORE:    0.00 PKD
ROOT
HETATM    1  C   UNL     1      -9.613  15.559  66.990  1.00  0.00    -0.224 C  
HETATM    2  C   UNL     1      -8.084  15.487  66.846  1.00  0.00    -0.284 C  
HETATM    3  C   UNL     1      -7.737  16.792  67.274  1.00  0.00    -0.200 A  
HETATM    4  C   UNL     1      -6.887  17.191  68.253  1.00  0.00    -0.177 A  
HETATM    5  N   UNL     1      -7.182  18.507  68.453  1.00  0.00    -0.266 NA 
HETATM    6  C   UNL     1      -6.487  19.245  69.484  1.00  0.00    -0.303 C  
HETATM    7  C   UNL     1      -8.261  18.895  67.645  1.00  0.00    -0.267 A  
HETATM    8  C   UNL     1      -8.694  17.775  66.933  1.00  0.00    -0.262 A  
HETATM    9  C   UNL     1     -10.030  17.604  66.287  1.00  0.00    -0.324 A  
HETATM   10  C   UNL     1     -10.639  18.843  66.062  1.00  0.00    -0.470 A  
HETATM   11  C   UNL     1     -10.909  16.180  66.468  1.00  0.00    -0.139 C  
HETATM   12  C   UNL     1     -11.603  14.916  66.642  1.00  0.00    -0.265 C  
HETATM   13  C   UNL     1     -10.106  20.031  66.648  1.00  0.00    -0.607 A  
HETATM   14  C   UNL     1      -8.981  20.072  67.512  1.00  0.00    -0.437 A  
HETATM   15  C   UNL     1     -10.904  13.545  67.411  1.00  0.00    -0.279 C  
HETATM   16  C   UNL     1     -10.255  14.076  68.713  1.00  0.00    -0.197 C  
HETATM   17  C   UNL     1     -10.352  16.569  69.156  1.00  0.00    -0.316 C  
HETATM   18  N   UNL     1      -9.883  15.409  68.414  1.00  0.00    -0.211 NA 
ENDROOT
BRANCH  15  19
HETATM   19  C   UNL     1      -9.937  12.878  66.385  1.00  0.00    -0.267 C  
HETATM   20  O   UNL     1     -10.090  13.002  65.169  1.00  0.00    -0.279 OA 
HETATM   21  H   UNL     1      -8.971  12.056  68.012  1.00  0.00     0.000 HD 
HETATM   22  N   UNL     1      -9.036  12.021  66.995  1.00  0.00    -0.191 N  
BRANCH  22  23
HETATM   23  CA  UNL     1      -8.170  11.071  66.301  1.00  0.00    -0.164 C  
BRANCH  23  24
HETATM   24  C   UNL     1      -8.796   9.643  66.267  1.00  0.00    -0.151 C  
HETATM   25  H   UNL     1     -10.445   8.749  65.589  1.00  0.00     0.000 HD 
HETATM   26  O   UNL     1     -10.064   9.619  65.609  1.00  0.00    -0.296 OA 
ENDBRANCH  23  24
BRANCH  23  27
HETATM   27  C   UNL     1      -6.833  11.096  67.033  1.00  0.00    -0.119 C  
HETATM   28  C   UNL     1      -6.673  12.378  67.821  1.00  0.00    -0.115 C  
ENDBRANCH  23  27
ENDBRANCH  22  23
ENDBRANCH  15  19
TORSDOF 4
ENDMDL
MODEL       16
REMARK 921   NORMALIZED FREE ENERGY PREDICTED BY IDOCK:   -5.80 KCAL/MOL
REMARK 922        TOTAL FREE ENERGY PREDICTED BY IDOCK:   -6.93 KCAL/MOL
REMARK 923 INTER-LIGAND FREE ENERGY PREDICTED BY IDOCK:   -6.72 KCAL/MOL
REMARK 924 INTRA-LIGAND FREE ENERGY PREDICTED BY IDOCK:   -0.21 KCAL/MOL
REMARK 927      BINDING AFFINITY PREDICTED BY RF-SCORE:    0.00 PKD
ROOT
HETATM    1  C   UNL     1     -10.136  13.360  67.076  1.00  0.00    -0.247 C  
HETATM    2  C   UNL     1      -8.669  13.589  67.476  1.00  0.00    -0.208 C  
HETATM    3  C   UNL     1      -8.212  12.249  67.501  1.00  0.00    -0.170 A  
HETATM    4  C   UNL     1      -7.173  11.670  66.848  1.00  0.00    -0.125 A  
HETATM    5  N   UNL     1      -7.390  10.329  66.972  1.00  0.00    -0.091 NA 
HETATM    6  C   UNL     1      -6.484   9.398  66.337  1.00  0.00    -0.066 C  
HETATM    7  C   UNL     1      -8.599  10.089  67.641  1.00  0.00    -0.118 A  
HETATM    8  C   UNL     1      -9.193  11.321  67.918  1.00  0.00    -0.157 A  
HETATM    9  C   UNL     1     -10.636  11.553  68.231  1.00  0.00    -0.228 A  
HETATM   10  C   UNL     1     -11.246  10.377  68.675  1.00  0.00    -0.305 A  
HETATM   11  C   UNL     1     -11.495  12.803  67.499  1.00  0.00    -0.390 C  
HETATM   12  C   UNL     1     -12.170  13.914  66.854  1.00  0.00    -0.415 C  
HETATM   13  C   UNL     1     -10.579   9.121  68.554  1.00  0.00    -0.209 A  
HETATM   14  C   UNL     1      -9.302   8.938  67.960  1.00  0.00    -0.153 A  
HETATM   15  C   UNL     1     -11.365  15.079  65.877  1.00  0.00    -0.273 C  
HETATM   16  C   UNL     1     -10.455  14.271  64.919  1.00  0.00    -0.430 C  
HETATM   17  C   UNL     1     -10.400  11.751  65.179  1.00  0.00    -0.279 C  
HETATM   18  N   UNL     1     -10.118  13.100  65.642  1.00  0.00    -0.285 NA 
ENDROOT
BRANCH  15  19
HETATM   19  C   UNL     1     -10.639  16.072  66.837  1.00  0.00    -0.300 C  
HETATM   20  O   UNL     1     -11.066  16.314  67.967  1.00  0.00    -0.340 OA 
HETATM   21  H   UNL     1      -9.312  16.407  65.294  1.00  0.00     0.000 HD 
HETATM   22  N   UNL     1      -9.604  16.746  66.211  1.00  0.00    -0.281 N  
BRANCH  22  23
HETATM   23  CA  UNL     1      -8.897  17.902  66.754  1.00  0.00    -0.258 C  
BRANCH  23  24
HETATM   24  C   UNL     1      -9.600  19.239  66.368  1.00  0.00    -0.371 C  
HETATM   25  H   UNL     1     -11.099  20.381  67.018  1.00  0.00     0.000 HD 
HETATM   26  O   UNL     1     -10.671  19.567  67.254  1.00  0.00    -0.471 OA 
ENDBRANCH  23  24
BRANCH  23  27
HETATM   27  C   UNL     1      -7.472  17.823  66.217  1.00  0.00    -0.328 C  
HETATM   28  C   UNL     1      -6.595  16.993  67.129  1.00  0.00    -0.217 C  
ENDBRANCH  23  27
ENDBRANCH  22  23
ENDBRANCH  15  19
TORSDOF 4
ENDMDL
MODEL       17
REMARK 921   NORMALIZED FREE ENERGY PREDICTED BY IDOCK:   -5.78 KCAL/MOL
REMARK 922        TOTAL FREE ENERGY PREDICTED BY IDOCK:   -6.91 KCAL/MOL
REMARK 923 INTER-LIGAND FREE ENERGY PREDICTED BY IDOCK:   -7.14 KCAL/MOL
REMARK 924 INTRA-LIGAND FREE ENERGY PREDICTED BY IDOCK:    0.22 KCAL/MOL
REMARK 927      BINDING AFFINITY PREDICTED BY RF-SCORE:    0.00 PKD
ROOT
HETATM    1  C   UNL     1      -8.551  16.592  67.991  1.00  0.00    -0.184 C  
HETATM    2  C   UNL     1      -9.609  17.465  68.686  1.00  0.00    -0.295 C  
HETATM    3  C   UNL     1     -10.644  16.512  68.846  1.00  0.00    -0.326 A  
HETATM    4  C   UNL     1     -11.301  16.119  69.966  1.00  0.00    -0.328 A  
HETATM    5  N   UNL     1     -11.941  14.970  69.607  1.00  0.00    -0.313 NA 
HETATM    6  C   UNL     1     -12.709  14.242  70.593  1.00  0.00    -0.343 C  
HETATM    7  C   UNL     1     -11.620  14.622  68.287  1.00  0.00    -0.326 A  
HETATM    8  C   UNL     1     -10.710  15.563  67.801  1.00  0.00    -0.297 A  
HETATM    9  C   UNL     1      -9.794  15.381  66.634  1.00  0.00    -0.269 A  
HETATM   10  C   UNL     1     -10.252  14.365  65.792  1.00  0.00    -0.355 A  
HETATM   11  C   UNL     1      -8.171  15.823  66.725  1.00  0.00    -0.302 C  
HETATM   12  C   UNL     1      -6.790  16.250  66.860  1.00  0.00    -0.195 C  
HETATM   13  C   UNL     1     -11.305  13.495  66.208  1.00  0.00    -0.327 A  
HETATM   14  C   UNL     1     -11.938  13.543  67.478  1.00  0.00    -0.385 A  
HETATM   15  C   UNL     1      -6.188  17.103  68.228  1.00  0.00    -0.144 C  
HETATM   16  C   UNL     1      -6.723  16.346  69.468  1.00  0.00    -0.202 C  
HETATM   17  C   UNL     1      -8.247  14.360  69.079  1.00  0.00    -0.031 C  
HETATM   18  N   UNL     1      -7.952  15.783  69.046  1.00  0.00    -0.197 NA 
ENDROOT
BRANCH  15  19
HETATM   19  C   UNL     1      -6.638  18.590  68.085  1.00  0.00    -0.221 C  
HETATM   20  O   UNL     1      -6.971  19.266  69.058  1.00  0.00    -0.320 OA 
HETATM   21  H   UNL     1      -6.409  18.338  66.050  1.00  0.00     0.000 HD 
HETATM   22  N   UNL     1      -6.778  18.970  66.760  1.00  0.00    -0.190 N  
BRANCH  22  23
HETATM   23  CA  UNL     1      -7.410  20.202  66.296  1.00  0.00    -0.279 C  
BRANCH  23  24
HETATM   24  C   UNL     1      -8.953  20.035  66.147  1.00  0.00    -0.266 C  
HETATM   25  H   UNL     1     -10.618  20.649  67.055  1.00  0.00     0.000 HD 
HETATM   26  O   UNL     1      -9.678  20.751  67.147  1.00  0.00    -0.462 OA 
ENDBRANCH  23  24
BRANCH  23  27
HETATM   27  C   UNL     1      -6.737  20.557  64.975  1.00  0.00    -0.271 C  
HETATM   28  C   UNL     1      -5.911  19.398  64.460  1.00  0.00    -0.308 C  
ENDBRANCH  23  27
ENDBRANCH  22  23
ENDBRANCH  15  19
TORSDOF 4
ENDMDL
MODEL       18
REMARK 921   NORMALIZED FREE ENERGY PREDICTED BY IDOCK:   -5.72 KCAL/MOL
REMARK 922        TOTAL FREE ENERGY PREDICTED BY IDOCK:   -6.84 KCAL/MOL
REMARK 923 INTER-LIGAND FREE ENERGY PREDICTED BY IDOCK:   -6.55 KCAL/MOL
REMARK 924 INTRA-LIGAND FREE ENERGY PREDICTED BY IDOCK:   -0.29 KCAL/MOL
REMARK 927      BINDING AFFINITY PREDICTED BY RF-SCORE:    0.00 PKD
ROOT
HETATM    1  C   UNL     1     -10.135  14.294  67.182  1.00  0.00    -0.254 C  
HETATM    2  C   UNL     1      -8.691  13.872  66.863  1.00  0.00    -0.177 C  
HETATM    3  C   UNL     1      -7.986  14.933  67.483  1.00  0.00    -0.198 A  
HETATM    4  C   UNL     1      -7.006  14.897  68.421  1.00  0.00    -0.110 A  
HETATM    5  N   UNL     1      -6.929  16.176  68.889  1.00  0.00    -0.149 NA 
HETATM    6  C   UNL     1      -6.005  16.490  69.956  1.00  0.00    -0.179 C  
HETATM    7  C   UNL     1      -7.908  16.978  68.286  1.00  0.00    -0.216 A  
HETATM    8  C   UNL     1      -8.663  16.172  67.432  1.00  0.00    -0.194 A  
HETATM    9  C   UNL     1     -10.031  16.477  66.913  1.00  0.00    -0.273 A  
HETATM   10  C   UNL     1     -10.299  17.847  66.986  1.00  0.00    -0.366 A  
HETATM   11  C   UNL     1     -11.246  15.312  66.925  1.00  0.00    -0.256 C  
HETATM   12  C   UNL     1     -12.241  14.254  66.939  1.00  0.00    -0.366 C  
HETATM   13  C   UNL     1      -9.438  18.719  67.718  1.00  0.00    -0.333 A  
HETATM   14  C   UNL     1      -8.295  18.299  68.449  1.00  0.00    -0.323 A  
HETATM   15  C   UNL     1     -11.890  12.624  67.364  1.00  0.00    -0.393 C  
HETATM   16  C   UNL     1     -11.051  12.698  68.664  1.00  0.00    -0.266 C  
HETATM   17  C   UNL     1     -10.455  14.990  69.563  1.00  0.00    -0.235 C  
HETATM   18  N   UNL     1     -10.355  13.928  68.576  1.00  0.00    -0.241 NA 
ENDROOT
BRANCH  15  19
HETATM   19  C   UNL     1     -11.195  11.961  66.135  1.00  0.00    -0.333 C  
HETATM   20  O   UNL     1     -11.474  12.278  64.979  1.00  0.00    -0.320 OA 
HETATM   21  H   UNL     1     -10.196  10.772  67.494  1.00  0.00     0.000 HD 
HETATM   22  N   UNL     1     -10.393  10.892  66.500  1.00  0.00    -0.240 N  
BRANCH  22  23
HETATM   23  CA  UNL     1      -9.806   9.922  65.580  1.00  0.00    -0.311 C  
BRANCH  23  24
HETATM   24  C   UNL     1      -9.692   8.509  66.230  1.00  0.00    -0.229 C  
HETATM   25  H   UNL     1     -10.609   7.432  67.635  1.00  0.00     0.000 HD 
HETATM   26  O   UNL     1     -10.679   8.293  67.240  1.00  0.00    -0.289 OA 
ENDBRANCH  23  24
BRANCH  23  27
HETATM   27  C   UNL     1      -8.446  10.483  65.177  1.00  0.00    -0.170 C  
HETATM   28  C   UNL     1      -7.492  10.482  66.351  1.00  0.00    -0.133 C  
ENDBRANCH  23  27
ENDBRANCH  22  23
ENDBRANCH  15  19
TORSDOF 4
ENDMDL
MODEL       19
REMARK 921   NORMALIZED FREE ENERGY PREDICTED BY IDOCK:   -5.71 KCAL/MOL
REMARK 922        TOTAL FREE ENERGY PREDICTED BY IDOCK:   -6.82 KCAL/MOL
REMARK 923 INTER-LIGAND FREE ENERGY PREDICTED BY IDOCK:   -7.35 KCAL/MOL
REMARK 924 INTRA-LIGAND FREE ENERGY PREDICTED BY IDOCK:    0.53 KCAL/MOL
REMARK 927      BINDING AFFINITY PREDICTED BY RF-SCORE:    0.00 PKD
ROOT
HETATM    1  C   UNL     1      -9.900  15.312  67.680  1.00  0.00    -0.217 C  
HETATM    2  C   UNL     1     -11.064  16.188  68.171  1.00  0.00    -0.332 C  
HETATM    3  C   UNL     1     -10.392  17.427  68.311  1.00  0.00    -0.374 A  
HETATM    4  C   UNL     1     -10.677  18.639  67.773  1.00  0.00    -0.342 A  
HETATM    5  N   UNL     1      -9.546  19.377  67.962  1.00  0.00    -0.328 NA 
HETATM    6  C   UNL     1      -9.483  20.729  67.452  1.00  0.00    -0.311 C  
HETATM    7  C   UNL     1      -8.544  18.595  68.554  1.00  0.00    -0.340 A  
HETATM    8  C   UNL     1      -9.042  17.301  68.712  1.00  0.00    -0.232 A  
HETATM    9  C   UNL     1      -8.230  16.061  68.904  1.00  0.00    -0.223 A  
HETATM   10  C   UNL     1      -6.950  16.371  69.373  1.00  0.00    -0.210 A  
HETATM   11  C   UNL     1      -8.564  14.658  68.037  1.00  0.00    -0.162 C  
HETATM   12  C   UNL     1      -8.923  13.473  67.277  1.00  0.00    -0.222 C  
HETATM   13  C   UNL     1      -6.484  17.720  69.378  1.00  0.00    -0.226 A  
HETATM   14  C   UNL     1      -7.221  18.831  68.891  1.00  0.00    -0.333 A  
HETATM   15  C   UNL     1     -10.329  13.365  66.292  1.00  0.00    -0.291 C  
HETATM   16  C   UNL     1     -10.360  14.667  65.454  1.00  0.00    -0.383 C  
HETATM   17  C   UNL     1      -8.549  16.389  65.871  1.00  0.00    -0.038 C  
HETATM   18  N   UNL     1      -9.728  15.637  66.269  1.00  0.00    -0.277 NA 
ENDROOT
BRANCH  15  19
HETATM   19  C   UNL     1     -11.546  13.130  67.240  1.00  0.00    -0.355 C  
HETATM   20  O   UNL     1     -12.623  13.702  67.072  1.00  0.00    -0.188 OA 
HETATM   21  H   UNL     1     -10.302  11.901  68.335  1.00  0.00     0.000 HD 
HETATM   22  N   UNL     1     -11.209  12.367  68.346  1.00  0.00    -0.251 N  
BRANCH  22  23
HETATM   23  CA  UNL     1     -12.045  12.176  69.528  1.00  0.00    -0.201 C  
BRANCH  23  24
HETATM   24  C   UNL     1     -11.937  13.383  70.510  1.00  0.00    -0.255 C  
HETATM   25  H   UNL     1     -13.007  14.227  71.965  1.00  0.00     0.000 HD 
HETATM   26  O   UNL     1     -13.073  13.491  71.368  1.00  0.00    -0.341 OA 
ENDBRANCH  23  24
BRANCH  23  27
HETATM   27  C   UNL     1     -11.589  10.870  70.169  1.00  0.00    -0.425 C  
HETATM   28  C   UNL     1     -12.676  10.290  71.048  1.00  0.00    -0.491 C  
ENDBRANCH  23  27
ENDBRANCH  22  23
ENDBRANCH  15  19
TORSDOF 4
ENDMDL
MODEL       20
REMARK 921   NORMALIZED FREE ENERGY PREDICTED BY IDOCK:   -5.70 KCAL/MOL
REMARK 922        TOTAL FREE ENERGY PREDICTED BY IDOCK:   -6.81 KCAL/MOL
REMARK 923 INTER-LIGAND FREE ENERGY PREDICTED BY IDOCK:   -6.65 KCAL/MOL
REMARK 924 INTRA-LIGAND FREE ENERGY PREDICTED BY IDOCK:   -0.16 KCAL/MOL
REMARK 927      BINDING AFFINITY PREDICTED BY RF-SCORE:    0.00 PKD
ROOT
HETATM    1  C   UNL     1     -10.372  12.282  66.814  1.00  0.00    -0.217 C  
HETATM    2  C   UNL     1     -11.122  11.172  67.569  1.00  0.00    -0.353 C  
HETATM    3  C   UNL     1     -10.497  10.032  67.008  1.00  0.00    -0.302 A  
HETATM    4  C   UNL     1      -9.863   8.998  67.617  1.00  0.00    -0.173 A  
HETATM    5  N   UNL     1      -9.178   8.374  66.617  1.00  0.00    -0.167 NA 
HETATM    6  C   UNL     1      -8.337   7.240  66.927  1.00  0.00    -0.118 C  
HETATM    7  C   UNL     1      -9.338   9.067  65.408  1.00  0.00    -0.144 A  
HETATM    8  C   UNL     1     -10.121  10.196  65.656  1.00  0.00    -0.324 A  
HETATM    9  C   UNL     1     -10.205  11.416  64.796  1.00  0.00    -0.338 A  
HETATM   10  C   UNL     1      -9.789  11.137  63.492  1.00  0.00    -0.392 A  
HETATM   11  C   UNL     1     -10.127  12.959  65.466  1.00  0.00    -0.270 C  
HETATM   12  C   UNL     1     -10.080  14.260  66.108  1.00  0.00    -0.325 C  
HETATM   13  C   UNL     1      -9.135   9.906  63.184  1.00  0.00    -0.290 A  
HETATM   14  C   UNL     1      -8.817   8.901  64.135  1.00  0.00     0.004 A  
HETATM   15  C   UNL     1     -10.099  14.479  67.815  1.00  0.00    -0.225 C  
HETATM   16  C   UNL     1      -9.066  13.474  68.381  1.00  0.00    -0.155 C  
HETATM   17  C   UNL     1      -7.896  11.928  66.750  1.00  0.00    -0.070 C  
HETATM   18  N   UNL     1      -9.073  12.393  67.466  1.00  0.00    -0.177 NA 
ENDROOT
BRANCH  15  19
HETATM   19  C   UNL     1     -11.572  14.291  68.293  1.00  0.00    -0.324 C  
HETATM   20  O   UNL     1     -12.530  14.493  67.546  1.00  0.00    -0.114 OA 
HETATM   21  H   UNL     1     -10.787  13.845  70.147  1.00  0.00     0.000 HD 
HETATM   22  N   UNL     1     -11.655  14.053  69.655  1.00  0.00    -0.278 N  
BRANCH  22  23
HETATM   23  CA  UNL     1     -12.884  14.075  70.443  1.00  0.00    -0.170 C  
BRANCH  23  24
HETATM   24  C   UNL     1     -13.142  15.482  71.064  1.00  0.00    -0.489 C  
HETATM   25  H   UNL     1     -12.099  16.962  71.899  1.00  0.00     0.000 HD 
HETATM   26  O   UNL     1     -11.941  16.105  71.520  1.00  0.00    -0.453 OA 
ENDBRANCH  23  24
BRANCH  23  27
HETATM   27  C   UNL     1     -12.729  12.995  71.509  1.00  0.00    -0.349 C  
HETATM   28  C   UNL     1     -12.376  11.664  70.881  1.00  0.00    -0.436 C  
ENDBRANCH  23  27
ENDBRANCH  22  23
ENDBRANCH  15  19
TORSDOF 4
ENDMDL
MODEL       21
REMARK 921   NORMALIZED FREE ENERGY PREDICTED BY IDOCK:   -5.70 KCAL/MOL
REMARK 922        TOTAL FREE ENERGY PREDICTED BY IDOCK:   -6.81 KCAL/MOL
REMARK 923 INTER-LIGAND FREE ENERGY PREDICTED BY IDOCK:   -6.66 KCAL/MOL
REMARK 924 INTRA-LIGAND FREE ENERGY PREDICTED BY IDOCK:   -0.15 KCAL/MOL
REMARK 927      BINDING AFFINITY PREDICTED BY RF-SCORE:    0.00 PKD
ROOT
HETATM    1  C   UNL     1      -7.782  17.199  68.162  1.00  0.00    -0.204 C  
HETATM    2  C   UNL     1      -8.847  17.878  67.285  1.00  0.00    -0.243 C  
HETATM    3  C   UNL     1      -8.128  19.027  66.875  1.00  0.00    -0.277 A  
HETATM    4  C   UNL     1      -7.866  19.493  65.628  1.00  0.00    -0.008 A  
HETATM    5  N   UNL     1      -6.880  20.418  65.803  1.00  0.00    -0.256 NA 
HETATM    6  C   UNL     1      -6.316  21.086  64.652  1.00  0.00    -0.180 C  
HETATM    7  C   UNL     1      -6.490  20.469  67.149  1.00  0.00    -0.246 A  
HETATM    8  C   UNL     1      -7.227  19.513  67.850  1.00  0.00    -0.306 A  
HETATM    9  C   UNL     1      -6.873  18.928  69.180  1.00  0.00    -0.327 A  
HETATM   10  C   UNL     1      -5.985  19.758  69.870  1.00  0.00    -0.333 A  
HETATM   11  C   UNL     1      -6.967  17.270  69.454  1.00  0.00    -0.123 C  
HETATM   12  C   UNL     1      -7.095  15.834  69.632  1.00  0.00    -0.150 C  
HETATM   13  C   UNL     1      -5.349  20.851  69.209  1.00  0.00    -0.402 A  
HETATM   14  C   UNL     1      -5.511  21.170  67.835  1.00  0.00    -0.370 A  
HETATM   15  C   UNL     1      -7.787  14.788  68.455  1.00  0.00    -0.128 C  
HETATM   16  C   UNL     1      -7.142  15.185  67.104  1.00  0.00    -0.008 C  
HETATM   17  C   UNL     1      -5.521  17.133  67.091  1.00  0.00    -0.154 C  
HETATM   18  N   UNL     1      -6.852  16.566  67.234  1.00  0.00    -0.159 NA 
ENDROOT
BRANCH  15  19
HETATM   19  C   UNL     1      -9.337  14.942  68.547  1.00  0.00    -0.196 C  
HETATM   20  O   UNL     1      -9.894  15.312  69.581  1.00  0.00    -0.252 OA 
HETATM   21  H   UNL     1      -9.401  14.236  66.610  1.00  0.00     0.000 HD 
HETATM   22  N   UNL     1      -9.980  14.456  67.421  1.00  0.00    -0.240 N  
BRANCH  22  23
HETATM   23  CA  UNL     1     -11.418  14.233  67.298  1.00  0.00    -0.352 C  
BRANCH  23  24
HETATM   24  C   UNL     1     -11.837  12.851  67.887  1.00  0.00    -0.339 C  
HETATM   25  H   UNL     1     -12.156  10.990  67.249  1.00  0.00     0.000 HD 
HETATM   26  O   UNL     1     -11.901  11.831  66.890  1.00  0.00    -0.591 OA 
ENDBRANCH  23  24
BRANCH  23  27
HETATM   27  C   UNL     1     -11.744  14.350  65.813  1.00  0.00    -0.362 C  
HETATM   28  C   UNL     1     -10.480  14.372  64.982  1.00  0.00    -0.454 C  
ENDBRANCH  23  27
ENDBRANCH  22  23
ENDBRANCH  15  19
TORSDOF 4
ENDMDL
MODEL       22
REMARK 921   NORMALIZED FREE ENERGY PREDICTED BY IDOCK:   -5.68 KCAL/MOL
REMARK 922        TOTAL FREE ENERGY PREDICTED BY IDOCK:   -6.78 KCAL/MOL
REMARK 923 INTER-LIGAND FREE ENERGY PREDICTED BY IDOCK:   -6.53 KCAL/MOL
REMARK 924 INTRA-LIGAND FREE ENERGY PREDICTED BY IDOCK:   -0.25 KCAL/MOL
REMARK 927      BINDING AFFINITY PREDICTED BY RF-SCORE:    0.00 PKD
ROOT
HETATM    1  C   UNL     1      -9.899   7.296  69.768  1.00  0.00    -0.177 C  
HETATM    2  C   UNL     1     -11.141   7.497  70.652  1.00  0.00    -0.280 C  
HETATM    3  C   UNL     1     -11.002   6.386  71.521  1.00  0.00    -0.310 A  
HETATM    4  C   UNL     1     -10.955   6.340  72.876  1.00  0.00    -0.254 A  
HETATM    5  N   UNL     1     -10.488   5.092  73.164  1.00  0.00    -0.193 NA 
HETATM    6  C   UNL     1     -10.262   4.715  74.542  1.00  0.00    -0.254 C  
HETATM    7  C   UNL     1     -10.183   4.399  71.984  1.00  0.00    -0.163 A  
HETATM    8  C   UNL     1     -10.428   5.251  70.906  1.00  0.00    -0.285 A  
HETATM    9  C   UNL     1      -9.873   5.107  69.525  1.00  0.00    -0.278 A  
HETATM   10  C   UNL     1      -9.459   3.794  69.287  1.00  0.00    -0.252 A  
HETATM   11  C   UNL     1      -9.222   6.428  68.708  1.00  0.00    -0.127 C  
HETATM   12  C   UNL     1      -8.700   7.611  68.048  1.00  0.00    -0.125 C  
HETATM   13  C   UNL     1      -9.366   2.855  70.359  1.00  0.00    -0.222 A  
HETATM   14  C   UNL     1      -9.631   3.155  71.721  1.00  0.00    -0.227 A  
HETATM   15  C   UNL     1      -8.834   9.199  68.697  1.00  0.00    -0.133 C  
HETATM   16  C   UNL     1      -8.412   9.085  70.182  1.00  0.00    -0.157 C  
HETATM   17  C   UNL     1      -7.829   6.788  71.078  1.00  0.00    -0.101 C  
HETATM   18  N   UNL     1      -8.770   7.768  70.560  1.00  0.00    -0.139 NA 
ENDROOT
BRANCH  15  19
HETATM   19  C   UNL     1     -10.292   9.689  68.433  1.00  0.00    -0.204 C  
HETATM   20  O   UNL     1     -10.908   9.381  67.412  1.00  0.00    -0.263 OA 
HETATM   21  H   UNL     1     -10.130  10.739  70.202  1.00  0.00     0.000 HD 
HETATM   22  N   UNL     1     -10.710  10.618  69.371  1.00  0.00    -0.230 N  
BRANCH  22  23
HETATM   23  CA  UNL     1     -11.913  11.440  69.269  1.00  0.00    -0.332 C  
BRANCH  23  24
HETATM   24  C   UNL     1     -11.669  12.709  68.397  1.00  0.00    -0.333 C  
HETATM   25  H   UNL     1     -11.933  13.301  66.511  1.00  0.00     0.000 HD 
HETATM   26  O   UNL     1     -12.082  12.528  67.042  1.00  0.00    -0.521 OA 
ENDBRANCH  23  24
BRANCH  23  27
HETATM   27  C   UNL     1     -12.314  11.791  70.698  1.00  0.00    -0.421 C  
HETATM   28  C   UNL     1     -12.880  10.583  71.412  1.00  0.00    -0.551 C  
ENDBRANCH  23  27
ENDBRANCH  22  23
ENDBRANCH  15  19
TORSDOF 4
ENDMDL
MODEL       23
REMARK 921   NORMALIZED FREE ENERGY PREDICTED BY IDOCK:   -5.63 KCAL/MOL
REMARK 922        TOTAL FREE ENERGY PREDICTED BY IDOCK:   -6.73 KCAL/MOL
REMARK 923 INTER-LIGAND FREE ENERGY PREDICTED BY IDOCK:   -6.54 KCAL/MOL
REMARK 924 INTRA-LIGAND FREE ENERGY PREDICTED BY IDOCK:   -0.19 KCAL/MOL
REMARK 927      BINDING AFFINITY PREDICTED BY RF-SCORE:    0.00 PKD
ROOT
HETATM    1  C   UNL     1     -10.382  13.026  66.192  1.00  0.00    -0.278 C  
HETATM    2  C   UNL     1     -10.144  12.539  67.631  1.00  0.00    -0.217 C  
HETATM    3  C   UNL     1     -10.537  13.696  68.347  1.00  0.00    -0.260 A  
HETATM    4  C   UNL     1     -11.457  13.839  69.334  1.00  0.00    -0.286 A  
HETATM    5  N   UNL     1     -11.664  15.184  69.422  1.00  0.00    -0.312 NA 
HETATM    6  C   UNL     1     -12.641  15.696  70.357  1.00  0.00    -0.336 C  
HETATM    7  C   UNL     1     -10.921  15.859  68.443  1.00  0.00    -0.331 A  
HETATM    8  C   UNL     1     -10.248  14.906  67.676  1.00  0.00    -0.236 A  
HETATM    9  C   UNL     1      -9.688  15.113  66.306  1.00  0.00    -0.315 A  
HETATM   10  C   UNL     1      -9.491  16.472  66.046  1.00  0.00    -0.317 A  
HETATM   11  C   UNL     1      -9.938  13.981  65.084  1.00  0.00    -0.257 C  
HETATM   12  C   UNL     1     -10.166  12.953  64.084  1.00  0.00    -0.311 C  
HETATM   13  C   UNL     1     -10.031  17.464  66.918  1.00  0.00    -0.300 A  
HETATM   14  C   UNL     1     -10.823  17.189  68.064  1.00  0.00    -0.317 A  
HETATM   15  C   UNL     1     -10.902  11.437  64.429  1.00  0.00    -0.397 C  
HETATM   16  C   UNL     1     -12.156  11.759  65.279  1.00  0.00     0.274 C  
HETATM   17  C   UNL     1     -12.582  14.180  65.895  1.00  0.00    -0.417 C  
HETATM   18  N   UNL     1     -11.823  12.943  65.981  1.00  0.00    -0.409 NA 
ENDROOT
BRANCH  15  19
HETATM   19  C   UNL     1      -9.823  10.539  65.111  1.00  0.00    -0.297 C  
HETATM   20  O   UNL     1      -8.645  10.554  64.755  1.00  0.00    -0.177 OA 
HETATM   21  H   UNL     1     -11.359   9.771  66.254  1.00  0.00     0.000 HD 
HETATM   22  N   UNL     1     -10.380   9.638  66.003  1.00  0.00    -0.168 N  
BRANCH  22  23
HETATM   23  CA  UNL     1      -9.679   8.511  66.613  1.00  0.00    -0.249 C  
BRANCH  23  24
HETATM   24  C   UNL     1     -10.661   7.358  66.984  1.00  0.00    -0.344 C  
HETATM   25  H   UNL     1     -11.048   5.484  66.422  1.00  0.00     0.000 HD 
HETATM   26  O   UNL     1     -10.450   6.186  66.195  1.00  0.00     0.030 OA 
ENDBRANCH  23  24
BRANCH  23  27
HETATM   27  C   UNL     1      -8.954   9.067  67.834  1.00  0.00    -0.135 C  
HETATM   28  C   UNL     1      -9.897   9.192  69.011  1.00  0.00    -0.176 C  
ENDBRANCH  23  27
ENDBRANCH  22  23
ENDBRANCH  15  19
TORSDOF 4
ENDMDL
MODEL       24
REMARK 921   NORMALIZED FREE ENERGY PREDICTED BY IDOCK:   -5.62 KCAL/MOL
REMARK 922        TOTAL FREE ENERGY PREDICTED BY IDOCK:   -6.71 KCAL/MOL
REMARK 923 INTER-LIGAND FREE ENERGY PREDICTED BY IDOCK:   -6.95 KCAL/MOL
REMARK 924 INTRA-LIGAND FREE ENERGY PREDICTED BY IDOCK:    0.24 KCAL/MOL
REMARK 927      BINDING AFFINITY PREDICTED BY RF-SCORE:    0.00 PKD
ROOT
HETATM    1  C   UNL     1      -9.889   9.605  67.554  1.00  0.00    -0.169 C  
HETATM    2  C   UNL     1     -10.888  10.253  68.526  1.00  0.00    -0.281 C  
HETATM    3  C   UNL     1     -10.902   9.274  69.549  1.00  0.00    -0.211 A  
HETATM    4  C   UNL     1     -10.659   9.399  70.878  1.00  0.00    -0.320 A  
HETATM    5  N   UNL     1     -10.482   8.121  71.320  1.00  0.00    -0.206 NA 
HETATM    6  C   UNL     1     -10.149   7.886  72.707  1.00  0.00    -0.300 C  
HETATM    7  C   UNL     1     -10.548   7.219  70.248  1.00  0.00    -0.229 A  
HETATM    8  C   UNL     1     -10.734   7.953  69.075  1.00  0.00    -0.113 A  
HETATM    9  C   UNL     1     -10.452   7.480  67.686  1.00  0.00    -0.319 A  
HETATM   10  C   UNL     1     -10.424   6.084  67.629  1.00  0.00    -0.297 A  
HETATM   11  C   UNL     1      -9.624   8.450  66.587  1.00  0.00    -0.294 C  
HETATM   12  C   UNL     1      -8.929   9.347  65.680  1.00  0.00    -0.236 C  
HETATM   13  C   UNL     1     -10.406   5.308  68.828  1.00  0.00    -0.206 A  
HETATM   14  C   UNL     1     -10.373   5.849  70.140  1.00  0.00    -0.305 A  
HETATM   15  C   UNL     1      -8.557  10.983  66.060  1.00  0.00    -0.173 C  
HETATM   16  C   UNL     1      -7.954  10.959  67.486  1.00  0.00    -0.115 C  
HETATM   17  C   UNL     1      -7.837   8.732  68.688  1.00  0.00    -0.103 C  
HETATM   18  N   UNL     1      -8.569   9.853  68.121  1.00  0.00    -0.118 NA 
ENDROOT
BRANCH  15  19
HETATM   19  C   UNL     1      -9.867  11.812  65.884  1.00  0.00    -0.238 C  
HETATM   20  O   UNL     1     -10.737  11.491  65.073  1.00  0.00    -0.285 OA 
HETATM   21  H   UNL     1      -9.087  13.116  67.280  1.00  0.00     0.000 HD 
HETATM   22  N   UNL     1      -9.837  12.999  66.598  1.00  0.00    -0.246 N  
BRANCH  22  23
HETATM   23  CA  UNL     1     -10.789  14.096  66.454  1.00  0.00    -0.304 C  
BRANCH  23  24
HETATM   24  C   UNL     1     -12.257  13.615  66.672  1.00  0.00    -0.389 C  
HETATM   25  H   UNL     1     -13.946  13.447  65.626  1.00  0.00     0.000 HD 
HETATM   26  O   UNL     1     -13.052  13.740  65.493  1.00  0.00    -0.671 OA 
ENDBRANCH  23  24
BRANCH  23  27
HETATM   27  C   UNL     1     -10.573  14.672  65.059  1.00  0.00    -0.461 C  
HETATM   28  C   UNL     1     -10.565  16.185  65.093  1.00  0.00    -0.366 C  
ENDBRANCH  23  27
ENDBRANCH  22  23
ENDBRANCH  15  19
TORSDOF 4
ENDMDL
MODEL       25
REMARK 921   NORMALIZED FREE ENERGY PREDICTED BY IDOCK:   -5.61 KCAL/MOL
REMARK 922        TOTAL FREE ENERGY PREDICTED BY IDOCK:   -6.70 KCAL/MOL
REMARK 923 INTER-LIGAND FREE ENERGY PREDICTED BY IDOCK:   -6.51 KCAL/MOL
REMARK 924 INTRA-LIGAND FREE ENERGY PREDICTED BY IDOCK:   -0.19 KCAL/MOL
REMARK 927      BINDING AFFINITY PREDICTED BY RF-SCORE:    0.00 PKD
ROOT
HETATM    1  C   UNL     1      -8.796  17.041  67.347  1.00  0.00    -0.203 C  
HETATM    2  C   UNL     1      -7.607  16.282  67.961  1.00  0.00    -0.143 C  
HETATM    3  C   UNL     1      -6.829  17.376  68.414  1.00  0.00    -0.194 A  
HETATM    4  C   UNL     1      -6.344  17.647  69.652  1.00  0.00    -0.182 A  
HETATM    5  N   UNL     1      -5.965  18.955  69.597  1.00  0.00    -0.257 NA 
HETATM    6  C   UNL     1      -5.442  19.598  70.782  1.00  0.00    -0.251 C  
HETATM    7  C   UNL     1      -6.282  19.505  68.346  1.00  0.00    -0.236 A  
HETATM    8  C   UNL     1      -6.923  18.521  67.591  1.00  0.00    -0.212 A  
HETATM    9  C   UNL     1      -7.788  18.752  66.394  1.00  0.00    -0.297 A  
HETATM   10  C   UNL     1      -7.528  20.000  65.823  1.00  0.00    -0.311 A  
HETATM   11  C   UNL     1      -9.269  17.967  66.227  1.00  0.00    -0.203 C  
HETATM   12  C   UNL     1     -10.521  17.238  66.130  1.00  0.00    -0.279 C  
HETATM   13  C   UNL     1      -6.728  20.962  66.510  1.00  0.00    -0.307 A  
HETATM   14  C   UNL     1      -6.174  20.776  67.804  1.00  0.00    -0.357 A  
HETATM   15  C   UNL     1     -10.988  16.001  67.231  1.00  0.00    -0.207 C  
HETATM   16  C   UNL     1     -10.712  16.567  68.646  1.00  0.00    -0.334 C  
HETATM   17  C   UNL     1      -9.664  18.868  68.819  1.00  0.00    -0.400 C  
HETATM   18  N   UNL     1      -9.623  17.456  68.474  1.00  0.00    -0.288 NA 
ENDROOT
BRANCH  15  19
HETATM   19  C   UNL     1     -10.202  14.710  66.843  1.00  0.00    -0.262 C  
HETATM   20  O   UNL     1      -9.854  14.483  65.684  1.00  0.00    -0.327 OA 
HETATM   21  H   UNL     1     -10.386  14.149  68.820  1.00  0.00     0.000 HD 
HETATM   22  N   UNL     1     -10.113  13.815  67.896  1.00  0.00    -0.240 N  
BRANCH  22  23
HETATM   23  CA  UNL     1      -9.661  12.430  67.792  1.00  0.00    -0.202 C  
BRANCH  23  24
HETATM   24  C   UNL     1     -10.387  11.510  68.820  1.00  0.00    -0.196 C  
HETATM   25  H   UNL     1     -12.250  11.041  69.352  1.00  0.00     0.000 HD 
HETATM   26  O   UNL     1     -11.809  11.602  68.725  1.00  0.00    -0.309 OA 
ENDBRANCH  23  24
BRANCH  23  27
HETATM   27  C   UNL     1      -8.151  12.456  68.006  1.00  0.00    -0.162 C  
HETATM   28  C   UNL     1      -7.442  11.626  66.958  1.00  0.00    -0.150 C  
ENDBRANCH  23  27
ENDBRANCH  22  23
ENDBRANCH  15  19
TORSDOF 4
ENDMDL
MODEL       26
REMARK 921   NORMALIZED FREE ENERGY PREDICTED BY IDOCK:   -5.57 KCAL/MOL
REMARK 922        TOTAL FREE ENERGY PREDICTED BY IDOCK:   -6.65 KCAL/MOL
REMARK 923 INTER-LIGAND FREE ENERGY PREDICTED BY IDOCK:   -7.37 KCAL/MOL
REMARK 924 INTRA-LIGAND FREE ENERGY PREDICTED BY IDOCK:    0.72 KCAL/MOL
REMARK 927      BINDING AFFINITY PREDICTED BY RF-SCORE:    0.00 PKD
ROOT
HETATM    1  C   UNL     1     -10.115  13.119  67.758  1.00  0.00    -0.226 C  
HETATM    2  C   UNL     1     -10.923  13.875  68.826  1.00  0.00    -0.286 C  
HETATM    3  C   UNL     1     -10.478  15.196  68.576  1.00  0.00    -0.233 A  
HETATM    4  C   UNL     1     -11.191  16.318  68.302  1.00  0.00    -0.324 A  
HETATM    5  N   UNL     1     -10.270  17.206  67.829  1.00  0.00    -0.310 NA 
HETATM    6  C   UNL     1     -10.702  18.513  67.385  1.00  0.00    -0.381 C  
HETATM    7  C   UNL     1      -9.006  16.605  67.749  1.00  0.00    -0.211 A  
HETATM    8  C   UNL     1      -9.134  15.273  68.148  1.00  0.00    -0.174 A  
HETATM    9  C   UNL     1      -8.179  14.165  67.838  1.00  0.00    -0.155 A  
HETATM   10  C   UNL     1      -6.918  14.670  67.510  1.00  0.00    -0.193 A  
HETATM   11  C   UNL     1      -8.729  12.669  67.296  1.00  0.00    -0.198 C  
HETATM   12  C   UNL     1      -9.270  11.394  66.859  1.00  0.00    -0.183 C  
HETATM   13  C   UNL     1      -6.734  16.064  67.264  1.00  0.00    -0.232 A  
HETATM   14  C   UNL     1      -7.772  17.032  67.286  1.00  0.00    -0.196 A  
HETATM   15  C   UNL     1     -10.952  11.034  66.834  1.00  0.00    -0.311 C  
HETATM   16  C   UNL     1     -11.636  12.254  66.170  1.00  0.00    -0.390 C  
HETATM   17  C   UNL     1     -10.179  14.219  65.512  1.00  0.00    -0.357 C  
HETATM   18  N   UNL     1     -10.809  13.355  66.498  1.00  0.00    -0.281 NA 
ENDROOT
BRANCH  15  19
HETATM   19  C   UNL     1     -11.383  10.718  68.300  1.00  0.00    -0.309 C  
HETATM   20  O   UNL     1     -12.407  11.191  68.794  1.00  0.00    -0.539 OA 
HETATM   21  H   UNL     1      -9.637   9.630  68.451  1.00  0.00     0.000 HD 
HETATM   22  N   UNL     1     -10.411  10.016  68.992  1.00  0.00    -0.194 N  
BRANCH  22  23
HETATM   23  CA  UNL     1     -10.402   9.783  70.434  1.00  0.00    -0.293 C  
BRANCH  23  24
HETATM   24  C   UNL     1      -9.077   9.104  70.898  1.00  0.00    -0.252 C  
HETATM   25  H   UNL     1      -8.274   8.381  72.574  1.00  0.00     0.000 HD 
HETATM   26  O   UNL     1      -9.082   8.795  72.292  1.00  0.00    -0.355 OA 
ENDBRANCH  23  24
BRANCH  23  27
HETATM   27  C   UNL     1     -11.626   8.925  70.737  1.00  0.00    -0.301 C  
HETATM   28  C   UNL     1     -12.486   9.567  71.803  1.00  0.00    -0.484 C  
ENDBRANCH  23  27
ENDBRANCH  22  23
ENDBRANCH  15  19
TORSDOF 4
ENDMDL
MODEL       27
REMARK 921   NORMALIZED FREE ENERGY PREDICTED BY IDOCK:   -5.57 KCAL/MOL
REMARK 922        TOTAL FREE ENERGY PREDICTED BY IDOCK:   -6.65 KCAL/MOL
REMARK 923 INTER-LIGAND FREE ENERGY PREDICTED BY IDOCK:   -6.40 KCAL/MOL
REMARK 924 INTRA-LIGAND FREE ENERGY PREDICTED BY IDOCK:   -0.25 KCAL/MOL
REMARK 927      BINDING AFFINITY PREDICTED BY RF-SCORE:    0.00 PKD
ROOT
HETATM    1  C   UNL     1     -10.185   8.659  69.507  1.00  0.00    -0.209 C  
HETATM    2  C   UNL     1     -10.497   7.829  68.251  1.00  0.00    -0.215 C  
HETATM    3  C   UNL     1     -10.513   8.859  67.278  1.00  0.00    -0.348 A  
HETATM    4  C   UNL     1      -9.810   8.979  66.124  1.00  0.00    -0.278 A  
HETATM    5  N   UNL     1      -9.962  10.284  65.760  1.00  0.00    -0.259 NA 
HETATM    6  C   UNL     1      -9.288  10.779  64.580  1.00  0.00    -0.236 C  
HETATM    7  C   UNL     1     -10.702  10.980  66.727  1.00  0.00    -0.266 A  
HETATM    8  C   UNL     1     -10.998  10.094  67.765  1.00  0.00    -0.338 A  
HETATM    9  C   UNL     1     -11.390  10.469  69.158  1.00  0.00    -0.319 A  
HETATM   10  C   UNL     1     -11.882  11.776  69.204  1.00  0.00    -0.389 A  
HETATM   11  C   UNL     1     -10.692   9.714  70.491  1.00  0.00    -0.374 C  
HETATM   12  C   UNL     1     -10.073   9.004  71.596  1.00  0.00    -0.405 C  
HETATM   13  C   UNL     1     -11.739  12.647  68.081  1.00  0.00    -0.396 A  
HETATM   14  C   UNL     1     -11.075  12.306  66.873  1.00  0.00    -0.341 A  
HETATM   15  C   UNL     1      -9.037   7.646  71.393  1.00  0.00    -0.146 C  
HETATM   16  C   UNL     1      -8.039   8.038  70.276  1.00  0.00    -0.113 C  
HETATM   17  C   UNL     1      -8.326  10.299  69.168  1.00  0.00    -0.154 C  
HETATM   18  N   UNL     1      -8.755   8.938  69.451  1.00  0.00    -0.139 NA 
ENDROOT
BRANCH  15  19
HETATM   19  C   UNL     1      -9.942   6.409  71.101  1.00  0.00    -0.180 C  
HETATM   20  O   UNL     1     -11.096   6.331  71.524  1.00  0.00    -0.259 OA 
HETATM   21  H   UNL     1      -8.313   5.597  70.131  1.00  0.00     0.000 HD 
HETATM   22  N   UNL     1      -9.245   5.383  70.485  1.00  0.00    -0.144 N  
BRANCH  22  23
HETATM   23  CA  UNL     1      -9.734   4.019  70.302  1.00  0.00    -0.193 C  
BRANCH  23  24
HETATM   24  C   UNL     1      -9.411   3.122  71.537  1.00  0.00    -0.145 C  
HETATM   25  H   UNL     1     -10.294   2.526  73.222  1.00  0.00     0.000 HD 
HETATM   26  O   UNL     1     -10.491   3.072  72.471  1.00  0.00    -0.144 OA 
ENDBRANCH  23  24
BRANCH  23  27
HETATM   27  C   UNL     1      -9.083   3.498  69.025  1.00  0.00    -0.202 C  
HETATM   28  C   UNL     1      -9.561   4.276  67.819  1.00  0.00    -0.210 C  
ENDBRANCH  23  27
ENDBRANCH  22  23
ENDBRANCH  15  19
TORSDOF 4
ENDMDL
MODEL       28
REMARK 921   NORMALIZED FREE ENERGY PREDICTED BY IDOCK:   -5.56 KCAL/MOL
REMARK 922        TOTAL FREE ENERGY PREDICTED BY IDOCK:   -6.64 KCAL/MOL
REMARK 923 INTER-LIGAND FREE ENERGY PREDICTED BY IDOCK:   -7.07 KCAL/MOL
REMARK 924 INTRA-LIGAND FREE ENERGY PREDICTED BY IDOCK:    0.43 KCAL/MOL
REMARK 927      BINDING AFFINITY PREDICTED BY RF-SCORE:    0.00 PKD
ROOT
HETATM    1  C   UNL     1      -9.648  10.513  68.230  1.00  0.00    -0.158 C  
HETATM    2  C   UNL     1     -10.693  11.026  69.235  1.00  0.00    -0.263 C  
HETATM    3  C   UNL     1     -10.975   9.822  69.926  1.00  0.00    -0.299 A  
HETATM    4  C   UNL     1     -10.917   9.545  71.253  1.00  0.00    -0.370 A  
HETATM    5  N   UNL     1     -10.964   8.184  71.325  1.00  0.00    -0.235 NA 
HETATM    6  C   UNL     1     -10.869   7.534  72.613  1.00  0.00    -0.315 C  
HETATM    7  C   UNL     1     -10.981   7.626  70.039  1.00  0.00    -0.228 A  
HETATM    8  C   UNL     1     -10.902   8.668  69.114  1.00  0.00    -0.060 A  
HETATM    9  C   UNL     1     -10.480   8.548  67.685  1.00  0.00    -0.308 A  
HETATM   10  C   UNL     1     -10.614   7.232  67.233  1.00  0.00    -0.395 A  
HETATM   11  C   UNL     1      -9.387   9.635  67.006  1.00  0.00    -0.180 C  
HETATM   12  C   UNL     1      -8.463  10.621  66.475  1.00  0.00    -0.144 C  
HETATM   13  C   UNL     1     -10.867   6.170  68.153  1.00  0.00    -0.389 A  
HETATM   14  C   UNL     1     -10.962   6.325  69.561  1.00  0.00    -0.445 A  
HETATM   15  C   UNL     1      -7.954  12.013  67.347  1.00  0.00    -0.165 C  
HETATM   16  C   UNL     1      -7.573  11.511  68.762  1.00  0.00    -0.129 C  
HETATM   17  C   UNL     1      -7.907   9.053  69.277  1.00  0.00    -0.095 C  
HETATM   18  N   UNL     1      -8.405  10.387  68.982  1.00  0.00    -0.140 NA 
ENDROOT
BRANCH  15  19
HETATM   19  C   UNL     1      -9.113  13.056  67.278  1.00  0.00    -0.209 C  
HETATM   20  O   UNL     1      -9.429  13.744  68.249  1.00  0.00    -0.207 OA 
HETATM   21  H   UNL     1      -9.416  12.411  65.342  1.00  0.00     0.000 HD 
HETATM   22  N   UNL     1      -9.818  12.977  66.089  1.00  0.00    -0.277 N  
BRANCH  22  23
HETATM   23  CA  UNL     1     -11.092  13.637  65.816  1.00  0.00    -0.287 C  
BRANCH  23  24
HETATM   24  C   UNL     1     -12.223  12.604  65.524  1.00  0.00    -0.440 C  
HETATM   25  H   UNL     1     -14.052  12.574  64.729  1.00  0.00     0.000 HD 
HETATM   26  O   UNL     1     -13.363  13.204  64.906  1.00  0.00    -0.553 OA 
ENDBRANCH  23  24
BRANCH  23  27
HETATM   27  C   UNL     1     -10.847  14.572  64.637  1.00  0.00    -0.351 C  
HETATM   28  C   UNL     1     -10.734  16.008  65.101  1.00  0.00    -0.429 C  
ENDBRANCH  23  27
ENDBRANCH  22  23
ENDBRANCH  15  19
TORSDOF 4
ENDMDL
MODEL       29
REMARK 921   NORMALIZED FREE ENERGY PREDICTED BY IDOCK:   -5.55 KCAL/MOL
REMARK 922        TOTAL FREE ENERGY PREDICTED BY IDOCK:   -6.63 KCAL/MOL
REMARK 923 INTER-LIGAND FREE ENERGY PREDICTED BY IDOCK:   -6.33 KCAL/MOL
REMARK 924 INTRA-LIGAND FREE ENERGY PREDICTED BY IDOCK:   -0.30 KCAL/MOL
REMARK 927      BINDING AFFINITY PREDICTED BY RF-SCORE:    0.00 PKD
ROOT
HETATM    1  C   UNL     1     -10.016  14.301  68.251  1.00  0.00    -0.239 C  
HETATM    2  C   UNL     1      -8.782  13.485  68.670  1.00  0.00    -0.001 C  
HETATM    3  C   UNL     1      -7.816  14.519  68.731  1.00  0.00    -0.145 A  
HETATM    4  C   UNL     1      -7.000  14.890  69.749  1.00  0.00    -0.175 A  
HETATM    5  N   UNL     1      -6.531  16.119  69.388  1.00  0.00    -0.175 NA 
HETATM    6  C   UNL     1      -5.659  16.842  70.286  1.00  0.00    -0.203 C  
HETATM    7  C   UNL     1      -7.115  16.530  68.181  1.00  0.00    -0.145 A  
HETATM    8  C   UNL     1      -8.019  15.544  67.779  1.00  0.00    -0.157 A  
HETATM    9  C   UNL     1      -9.144  15.722  66.812  1.00  0.00    -0.276 A  
HETATM   10  C   UNL     1      -8.931  16.837  65.997  1.00  0.00    -0.220 A  
HETATM   11  C   UNL     1     -10.681  15.121  67.146  1.00  0.00    -0.310 C  
HETATM   12  C   UNL     1     -11.976  14.554  67.482  1.00  0.00    -0.358 C  
HETATM   13  C   UNL     1      -7.895  17.771  66.298  1.00  0.00    -0.299 A  
HETATM   14  C   UNL     1      -7.039  17.691  67.428  1.00  0.00    -0.187 A  
HETATM   15  C   UNL     1     -12.247  13.549  68.851  1.00  0.00    -0.194 C  
HETATM   16  C   UNL     1     -11.558  14.261  70.042  1.00  0.00    -0.261 C  
HETATM   17  C   UNL     1     -10.297  16.408  69.571  1.00  0.00    -0.278 C  
HETATM   18  N   UNL     1     -10.476  14.969  69.463  1.00  0.00    -0.245 NA 
ENDROOT
BRANCH  15  19
HETATM   19  C   UNL     1     -11.711  12.126  68.499  1.00  0.00    -0.330 C  
HETATM   20  O   UNL     1     -11.838  11.642  67.374  1.00  0.00    -0.603 OA 
HETATM   21  H   UNL     1     -11.145  11.981  70.478  1.00  0.00     0.000 HD 
HETATM   22  N   UNL     1     -11.256  11.446  69.617  1.00  0.00    -0.252 N  
BRANCH  22  23
HETATM   23  CA  UNL     1     -10.924  10.025  69.664  1.00  0.00    -0.264 C  
BRANCH  23  24
HETATM   24  C   UNL     1     -11.426   9.361  70.983  1.00  0.00    -0.334 C  
HETATM   25  H   UNL     1     -12.442   9.872  72.621  1.00  0.00     0.000 HD 
HETATM   26  O   UNL     1     -12.136  10.277  71.818  1.00  0.00    -0.315 OA 
ENDBRANCH  23  24
BRANCH  23  27
HETATM   27  C   UNL     1      -9.409   9.934  69.514  1.00  0.00    -0.236 C  
HETATM   28  C   UNL     1      -9.031   9.443  68.133  1.00  0.00    -0.128 C  
ENDBRANCH  23  27
ENDBRANCH  22  23
ENDBRANCH  15  19
TORSDOF 4
ENDMDL
MODEL       30
REMARK 921   NORMALIZED FREE ENERGY PREDICTED BY IDOCK:   -5.55 KCAL/MOL
REMARK 922        TOTAL FREE ENERGY PREDICTED BY IDOCK:   -6.62 KCAL/MOL
REMARK 923 INTER-LIGAND FREE ENERGY PREDICTED BY IDOCK:   -6.52 KCAL/MOL
REMARK 924 INTRA-LIGAND FREE ENERGY PREDICTED BY IDOCK:   -0.10 KCAL/MOL
REMARK 927      BINDING AFFINITY PREDICTED BY RF-SCORE:    0.00 PKD
ROOT
HETATM    1  C   UNL     1      -9.846  10.527  66.703  1.00  0.00    -0.199 C  
HETATM    2  C   UNL     1     -10.005   9.000  66.784  1.00  0.00    -0.332 C  
HETATM    3  C   UNL     1      -9.184   8.612  65.697  1.00  0.00    -0.204 A  
HETATM    4  C   UNL     1      -8.130   7.760  65.662  1.00  0.00    -0.129 A  
HETATM    5  N   UNL     1      -7.521   8.010  64.468  1.00  0.00    -0.095 NA 
HETATM    6  C   UNL     1      -6.309   7.301  64.122  1.00  0.00    -0.044 C  
HETATM    7  C   UNL     1      -8.164   9.064  63.802  1.00  0.00    -0.173 A  
HETATM    8  C   UNL     1      -9.195   9.528  64.621  1.00  0.00    -0.247 A  
HETATM    9  C   UNL     1      -9.862  10.862  64.526  1.00  0.00    -0.356 A  
HETATM   10  C   UNL     1      -9.681  11.423  63.259  1.00  0.00    -0.413 A  
HETATM   11  C   UNL     1     -10.143  11.794  65.900  1.00  0.00    -0.267 C  
HETATM   12  C   UNL     1     -10.380  12.535  67.126  1.00  0.00    -0.230 C  
HETATM   13  C   UNL     1      -8.748  10.855  62.339  1.00  0.00    -0.355 A  
HETATM   14  C   UNL     1      -7.916   9.739  62.618  1.00  0.00    -0.131 A  
HETATM   15  C   UNL     1     -10.087  11.895  68.696  1.00  0.00    -0.186 C  
HETATM   16  C   UNL     1      -8.684  11.243  68.632  1.00  0.00    -0.136 C  
HETATM   17  C   UNL     1      -7.471  11.255  66.407  1.00  0.00    -0.064 C  
HETATM   18  N   UNL     1      -8.543  10.820  67.287  1.00  0.00    -0.130 NA 
ENDROOT
BRANCH  15  19
HETATM   19  C   UNL     1     -11.272  10.940  69.039  1.00  0.00    -0.266 C  
HETATM   20  O   UNL     1     -12.400  11.109  68.575  1.00  0.00    -0.561 OA 
HETATM   21  H   UNL     1      -9.957   9.952  70.284  1.00  0.00     0.000 HD 
HETATM   22  N   UNL     1     -10.942  10.030  70.029  1.00  0.00    -0.278 N  
BRANCH  22  23
HETATM   23  CA  UNL     1     -11.887   9.172  70.738  1.00  0.00    -0.227 C  
BRANCH  23  24
HETATM   24  C   UNL     1     -12.552   9.917  71.936  1.00  0.00    -0.381 C  
HETATM   25  H   UNL     1     -14.311   9.971  72.872  1.00  0.00     0.000 HD 
HETATM   26  O   UNL     1     -13.907   9.516  72.142  1.00  0.00    -0.390 OA 
ENDBRANCH  23  24
BRANCH  23  27
HETATM   27  C   UNL     1     -11.099   7.946  71.187  1.00  0.00    -0.278 C  
HETATM   28  C   UNL     1     -11.638   6.689  70.537  1.00  0.00    -0.448 C  
ENDBRANCH  23  27
ENDBRANCH  22  23
ENDBRANCH  15  19
TORSDOF 4
ENDMDL
MODEL       31
REMARK 921   NORMALIZED FREE ENERGY PREDICTED BY IDOCK:   -5.52 KCAL/MOL
REMARK 922        TOTAL FREE ENERGY PREDICTED BY IDOCK:   -6.59 KCAL/MOL
REMARK 923 INTER-LIGAND FREE ENERGY PREDICTED BY IDOCK:   -6.84 KCAL/MOL
REMARK 924 INTRA-LIGAND FREE ENERGY PREDICTED BY IDOCK:    0.25 KCAL/MOL
REMARK 927      BINDING AFFINITY PREDICTED BY RF-SCORE:    0.00 PKD
ROOT
HETATM    1  C   UNL     1      -9.841  14.203  67.837  1.00  0.00    -0.224 C  
HETATM    2  C   UNL     1     -10.435  15.000  69.010  1.00  0.00    -0.245 C  
HETATM    3  C   UNL     1     -10.161  16.319  68.570  1.00  0.00    -0.239 A  
HETATM    4  C   UNL     1     -11.000  17.370  68.395  1.00  0.00    -0.118 A  
HETATM    5  N   UNL     1     -10.283  18.266  67.657  1.00  0.00    -0.362 NA 
HETATM    6  C   UNL     1     -10.903  19.503  67.237  1.00  0.00    -0.437 C  
HETATM    7  C   UNL     1      -9.030  17.733  67.323  1.00  0.00    -0.246 A  
HETATM    8  C   UNL     1      -8.961  16.435  67.832  1.00  0.00    -0.196 A  
HETATM    9  C   UNL     1      -8.023  15.361  67.384  1.00  0.00    -0.213 A  
HETATM   10  C   UNL     1      -6.914  15.906  66.733  1.00  0.00     0.058 A  
HETATM   11  C   UNL     1      -8.569  13.795  67.093  1.00  0.00    -0.210 C  
HETATM   12  C   UNL     1      -9.099  12.459  66.886  1.00  0.00    -0.211 C  
HETATM   13  C   UNL     1      -6.897  17.283  66.354  1.00  0.00    -0.300 A  
HETATM   14  C   UNL     1      -7.971  18.189  66.553  1.00  0.00    -0.290 A  
HETATM   15  C   UNL     1     -10.709  12.002  67.284  1.00  0.00    -0.269 C  
HETATM   16  C   UNL     1     -11.619  13.121  66.717  1.00  0.00    -0.366 C  
HETATM   17  C   UNL     1     -10.504  15.102  65.599  1.00  0.00    -0.359 C  
HETATM   18  N   UNL     1     -10.823  14.291  66.763  1.00  0.00    -0.295 NA 
ENDROOT
BRANCH  15  19
HETATM   19  C   UNL     1     -10.765  11.790  68.829  1.00  0.00    -0.221 C  
HETATM   20  O   UNL     1      -9.994  11.024  69.409  1.00  0.00    -0.131 OA 
HETATM   21  H   UNL     1     -12.387  13.064  68.825  1.00  0.00     0.000 HD 
HETATM   22  N   UNL     1     -11.862  12.409  69.404  1.00  0.00    -0.312 N  
BRANCH  22  23
HETATM   23  CA  UNL     1     -12.330  12.201  70.772  1.00  0.00    -0.297 C  
BRANCH  23  24
HETATM   24  C   UNL     1     -12.938  10.778  70.960  1.00  0.00    -0.332 C  
HETATM   25  H   UNL     1     -12.456   9.049  71.828  1.00  0.00     0.000 HD 
HETATM   26  O   UNL     1     -12.085   9.916  71.714  1.00  0.00    -0.389 OA 
ENDBRANCH  23  24
BRANCH  23  27
HETATM   27  C   UNL     1     -13.346  13.304  71.049  1.00  0.00     0.040 C  
HETATM   28  C   UNL     1     -13.562  13.478  72.537  1.00  0.00    -0.674 C  
ENDBRANCH  23  27
ENDBRANCH  22  23
ENDBRANCH  15  19
TORSDOF 4
ENDMDL
MODEL       32
REMARK 921   NORMALIZED FREE ENERGY PREDICTED BY IDOCK:   -5.50 KCAL/MOL
REMARK 922        TOTAL FREE ENERGY PREDICTED BY IDOCK:   -6.57 KCAL/MOL
REMARK 923 INTER-LIGAND FREE ENERGY PREDICTED BY IDOCK:   -6.81 KCAL/MOL
REMARK 924 INTRA-LIGAND FREE ENERGY PREDICTED BY IDOCK:    0.24 KCAL/MOL
REMARK 927      BINDING AFFINITY PREDICTED BY RF-SCORE:    0.00 PKD
ROOT
HETATM    1  C   UNL     1     -10.115  13.563  67.357  1.00  0.00    -0.237 C  
HETATM    2  C   UNL     1      -8.684  13.841  67.847  1.00  0.00    -0.183 C  
HETATM    3  C   UNL     1      -8.221  12.512  68.011  1.00  0.00    -0.166 A  
HETATM    4  C   UNL     1      -7.132  11.898  67.486  1.00  0.00    -0.123 A  
HETATM    5  N   UNL     1      -7.349  10.568  67.697  1.00  0.00    -0.086 NA 
HETATM    6  C   UNL     1      -6.391   9.602  67.207  1.00  0.00    -0.068 C  
HETATM    7  C   UNL     1      -8.604  10.364  68.290  1.00  0.00    -0.128 A  
HETATM    8  C   UNL     1      -9.225  11.607  68.424  1.00  0.00    -0.182 A  
HETATM    9  C   UNL     1     -10.689  11.845  68.608  1.00  0.00    -0.266 A  
HETATM   10  C   UNL     1     -11.324  10.698  69.095  1.00  0.00    -0.338 A  
HETATM   11  C   UNL     1     -11.498  13.023  67.718  1.00  0.00    -0.359 C  
HETATM   12  C   UNL     1     -12.130  14.073  66.939  1.00  0.00    -0.465 C  
HETATM   13  C   UNL     1     -10.641   9.445  69.123  1.00  0.00    -0.234 A  
HETATM   14  C   UNL     1      -9.322   9.233  68.644  1.00  0.00    -0.139 A  
HETATM   15  C   UNL     1     -11.260  15.168  65.937  1.00  0.00    -0.280 C  
HETATM   16  C   UNL     1     -10.274  14.300  65.117  1.00  0.00    -0.385 C  
HETATM   17  C   UNL     1     -10.223  11.809  65.576  1.00  0.00    -0.252 C  
HETATM   18  N   UNL     1      -9.986  13.193  65.952  1.00  0.00    -0.282 NA 
ENDROOT
BRANCH  15  19
HETATM   19  C   UNL     1     -10.617  16.241  66.870  1.00  0.00    -0.270 C  
HETATM   20  O   UNL     1     -11.160  16.609  67.912  1.00  0.00    -0.315 OA 
HETATM   21  H   UNL     1      -9.114  16.387  65.464  1.00  0.00     0.000 HD 
HETATM   22  N   UNL     1      -9.497  16.825  66.302  1.00  0.00    -0.282 N  
BRANCH  22  23
HETATM   23  CA  UNL     1      -8.819  18.018  66.804  1.00  0.00    -0.263 C  
BRANCH  23  24
HETATM   24  C   UNL     1      -8.686  17.992  68.357  1.00  0.00    -0.293 C  
HETATM   25  H   UNL     1      -7.475  17.220  69.741  1.00  0.00     0.000 HD 
HETATM   26  O   UNL     1      -7.555  17.236  68.795  1.00  0.00    -0.247 OA 
ENDBRANCH  23  24
BRANCH  23  27
HETATM   27  C   UNL     1      -9.633  19.211  66.315  1.00  0.00    -0.386 C  
HETATM   28  C   UNL     1      -9.715  20.282  67.381  1.00  0.00    -0.584 C  
ENDBRANCH  23  27
ENDBRANCH  22  23
ENDBRANCH  15  19
TORSDOF 4
ENDMDL
MODEL       33
REMARK 921   NORMALIZED FREE ENERGY PREDICTED BY IDOCK:   -5.45 KCAL/MOL
REMARK 922        TOTAL FREE ENERGY PREDICTED BY IDOCK:   -6.50 KCAL/MOL
REMARK 923 INTER-LIGAND FREE ENERGY PREDICTED BY IDOCK:   -6.30 KCAL/MOL
REMARK 924 INTRA-LIGAND FREE ENERGY PREDICTED BY IDOCK:   -0.20 KCAL/MOL
REMARK 927      BINDING AFFINITY PREDICTED BY RF-SCORE:    0.00 PKD
ROOT
HETATM    1  C   UNL     1      -9.948  15.470  68.229  1.00  0.00    -0.213 C  
HETATM    2  C   UNL     1     -10.927  16.544  68.733  1.00  0.00    -0.330 C  
HETATM    3  C   UNL     1     -11.564  15.823  69.772  1.00  0.00    -0.359 A  
HETATM    4  C   UNL     1     -11.705  16.130  71.086  1.00  0.00    -0.407 A  
HETATM    5  N   UNL     1     -12.093  14.963  71.675  1.00  0.00    -0.335 NA 
HETATM    6  C   UNL     1     -12.287  14.916  73.107  1.00  0.00    -0.365 C  
HETATM    7  C   UNL     1     -12.122  13.925  70.733  1.00  0.00    -0.330 A  
HETATM    8  C   UNL     1     -11.699  14.441  69.507  1.00  0.00    -0.362 A  
HETATM    9  C   UNL     1     -11.182  13.650  68.348  1.00  0.00    -0.306 A  
HETATM   10  C   UNL     1     -11.593  12.317  68.431  1.00  0.00    -0.377 A  
HETATM   11  C   UNL     1      -9.795  14.124  67.521  1.00  0.00    -0.235 C  
HETATM   12  C   UNL     1      -8.609  14.603  66.833  1.00  0.00    -0.233 C  
HETATM   13  C   UNL     1     -12.188  11.812  69.626  1.00  0.00    -0.248 A  
HETATM   14  C   UNL     1     -12.378  12.565  70.815  1.00  0.00    -0.376 A  
HETATM   15  C   UNL     1      -7.859  16.114  67.169  1.00  0.00    -0.234 C  
HETATM   16  C   UNL     1      -7.753  16.199  68.712  1.00  0.00    -0.200 C  
HETATM   17  C   UNL     1      -8.732  14.301  70.075  1.00  0.00     1.388 C  
HETATM   18  N   UNL     1      -8.854  15.449  69.192  1.00  0.00    -0.233 NA 
ENDROOT
BRANCH  15  19
HETATM   19  C   UNL     1      -8.712  17.222  66.477  1.00  0.00    -0.262 C  
HETATM   20  O   UNL     1      -9.419  16.983  65.498  1.00  0.00    -0.496 OA 
HETATM   21  H   UNL     1      -7.881  18.538  67.831  1.00  0.00     0.000 HD 
HETATM   22  N   UNL     1      -8.438  18.484  66.979  1.00  0.00    -0.258 N  
BRANCH  22  23
HETATM   23  CA  UNL     1      -8.881  19.743  66.387  1.00  0.00    -0.377 C  
BRANCH  23  24
HETATM   24  C   UNL     1      -7.842  20.883  66.616  1.00  0.00     0.126 C  
HETATM   25  H   UNL     1      -5.900  21.075  67.024  1.00  0.00     0.000 HD 
HETATM   26  O   UNL     1      -6.532  20.380  66.885  1.00  0.00    -0.204 OA 
ENDBRANCH  23  24
BRANCH  23  27
HETATM   27  C   UNL     1     -10.233  20.060  67.017  1.00  0.00    -0.587 C  
HETATM   28  C   UNL     1     -10.150  20.010  68.528  1.00  0.00    -0.487 C  
ENDBRANCH  23  27
ENDBRANCH  22  23
ENDBRANCH  15  19
TORSDOF 4
ENDMDL
MODEL       34
REMARK 921   NORMALIZED FREE ENERGY PREDICTED BY IDOCK:   -5.37 KCAL/MOL
REMARK 922        TOTAL FREE ENERGY PREDICTED BY IDOCK:   -6.40 KCAL/MOL
REMARK 923 INTER-LIGAND FREE ENERGY PREDICTED BY IDOCK:   -6.10 KCAL/MOL
REMARK 924 INTRA-LIGAND FREE ENERGY PREDICTED BY IDOCK:   -0.30 KCAL/MOL
REMARK 927      BINDING AFFINITY PREDICTED BY RF-SCORE:    0.00 PKD
ROOT
HETATM    1  C   UNL     1     -10.324   9.518  68.947  1.00  0.00    -0.208 C  
HETATM    2  C   UNL     1     -10.869   9.259  67.533  1.00  0.00    -0.182 C  
HETATM    3  C   UNL     1     -11.074  10.593  67.104  1.00  0.00    -0.267 A  
HETATM    4  C   UNL     1     -10.605  11.236  66.005  1.00  0.00    -0.258 A  
HETATM    5  N   UNL     1     -10.827  12.558  66.256  1.00  0.00    -0.262 NA 
HETATM    6  C   UNL     1     -10.393  13.549  65.297  1.00  0.00    -0.331 C  
HETATM    7  C   UNL     1     -11.370  12.728  67.538  1.00  0.00    -0.312 A  
HETATM    8  C   UNL     1     -11.459  11.472  68.141  1.00  0.00    -0.385 A  
HETATM    9  C   UNL     1     -11.577  11.205  69.607  1.00  0.00    -0.398 A  
HETATM   10  C   UNL     1     -12.055  12.331  70.283  1.00  0.00    -0.376 A  
HETATM   11  C   UNL     1     -10.635  10.027  70.355  1.00  0.00    -0.343 C  
HETATM   12  C   UNL     1      -9.813   8.979  70.934  1.00  0.00    -0.330 C  
HETATM   13  C   UNL     1     -12.132  13.596  69.625  1.00  0.00    -0.378 A  
HETATM   14  C   UNL     1     -11.712  13.840  68.291  1.00  0.00    -0.394 A  
HETATM   15  C   UNL     1      -8.832   7.916  70.002  1.00  0.00    -0.141 C  
HETATM   16  C   UNL     1      -8.068   8.816  69.000  1.00  0.00    -0.116 C  
HETATM   17  C   UNL     1      -8.568  11.300  69.015  1.00  0.00     0.025 C  
HETATM   18  N   UNL     1      -8.932   9.914  68.767  1.00  0.00    -0.134 NA 
ENDROOT
BRANCH  15  19
HETATM   19  C   UNL     1      -9.774   6.840  69.378  1.00  0.00    -0.152 C  
HETATM   20  O   UNL     1     -10.801   6.465  69.944  1.00  0.00    -0.248 OA 
HETATM   21  H   UNL     1      -8.402   6.705  67.843  1.00  0.00     0.000 HD 
HETATM   22  N   UNL     1      -9.228   6.261  68.244  1.00  0.00    -0.113 N  
BRANCH  22  23
HETATM   23  CA  UNL     1      -9.739   5.068  67.575  1.00  0.00    -0.157 C  
BRANCH  23  24
HETATM   24  C   UNL     1      -9.078   3.770  68.132  1.00  0.00    -0.144 C  
HETATM   25  H   UNL     1      -9.255   2.560  69.706  1.00  0.00     0.000 HD 
HETATM   26  O   UNL     1      -9.658   3.350  69.368  1.00  0.00    -0.172 OA 
ENDBRANCH  23  24
BRANCH  23  27
HETATM   27  C   UNL     1      -9.466   5.261  66.087  1.00  0.00    -0.170 C  
HETATM   28  C   UNL     1      -8.545   6.439  65.855  1.00  0.00    -0.151 C  
ENDBRANCH  23  27
ENDBRANCH  22  23
ENDBRANCH  15  19
TORSDOF 4
ENDMDL
MODEL       35
REMARK 921   NORMALIZED FREE ENERGY PREDICTED BY IDOCK:   -5.30 KCAL/MOL
REMARK 922        TOTAL FREE ENERGY PREDICTED BY IDOCK:   -6.32 KCAL/MOL
REMARK 923 INTER-LIGAND FREE ENERGY PREDICTED BY IDOCK:   -6.52 KCAL/MOL
REMARK 924 INTRA-LIGAND FREE ENERGY PREDICTED BY IDOCK:    0.20 KCAL/MOL
REMARK 927      BINDING AFFINITY PREDICTED BY RF-SCORE:    0.00 PKD
ROOT
HETATM    1  C   UNL     1      -9.766  10.146  68.605  1.00  0.00    -0.163 C  
HETATM    2  C   UNL     1      -8.409  10.280  69.317  1.00  0.00    -0.167 C  
HETATM    3  C   UNL     1      -8.647   9.460  70.447  1.00  0.00    -0.266 A  
HETATM    4  C   UNL     1      -7.950   8.392  70.910  1.00  0.00    -0.108 A  
HETATM    5  N   UNL     1      -8.787   7.795  71.806  1.00  0.00    -0.115 NA 
HETATM    6  C   UNL     1      -8.375   6.574  72.463  1.00  0.00    -0.114 C  
HETATM    7  C   UNL     1     -10.021   8.459  71.841  1.00  0.00    -0.261 A  
HETATM    8  C   UNL     1      -9.984   9.492  70.903  1.00  0.00    -0.308 A  
HETATM    9  C   UNL     1     -11.167  10.182  70.304  1.00  0.00    -0.387 A  
HETATM   10  C   UNL     1     -12.300  10.018  71.105  1.00  0.00    -0.477 A  
HETATM   11  C   UNL     1     -11.260  10.469  68.647  1.00  0.00    -0.328 C  
HETATM   12  C   UNL     1     -11.265  10.710  67.215  1.00  0.00    -0.237 C  
HETATM   13  C   UNL     1     -12.299   9.081  72.183  1.00  0.00    -0.442 A  
HETATM   14  C   UNL     1     -11.212   8.229  72.512  1.00  0.00    -0.446 A  
HETATM   15  C   UNL     1      -9.917  10.397  66.193  1.00  0.00    -0.290 C  
HETATM   16  C   UNL     1      -9.414   8.984  66.578  1.00  0.00    -0.206 C  
HETATM   17  C   UNL     1     -10.583   7.785  68.480  1.00  0.00    -0.114 C  
HETATM   18  N   UNL     1      -9.740   8.844  67.949  1.00  0.00    -0.155 NA 
ENDROOT
BRANCH  15  19
HETATM   19  C   UNL     1      -8.901  11.564  66.391  1.00  0.00    -0.193 C  
HETATM   20  O   UNL     1      -7.702  11.359  66.581  1.00  0.00    -0.152 OA 
HETATM   21  H   UNL     1     -10.520  12.836  66.258  1.00  0.00     0.000 HD 
HETATM   22  N   UNL     1      -9.529  12.794  66.497  1.00  0.00    -0.255 N  
BRANCH  22  23
HETATM   23  CA  UNL     1      -8.891  14.036  66.925  1.00  0.00    -0.194 C  
BRANCH  23  24
HETATM   24  C   UNL     1      -8.996  14.234  68.468  1.00  0.00    -0.185 C  
HETATM   25  H   UNL     1     -10.376  14.107  69.901  1.00  0.00     0.000 HD 
HETATM   26  O   UNL     1     -10.313  13.986  68.961  1.00  0.00    -0.214 OA 
ENDBRANCH  23  24
BRANCH  23  27
HETATM   27  C   UNL     1      -9.575  15.158  66.152  1.00  0.00    -0.344 C  
HETATM   28  C   UNL     1     -10.694  14.615  65.289  1.00  0.00    -0.396 C  
ENDBRANCH  23  27
ENDBRANCH  22  23
ENDBRANCH  15  19
TORSDOF 4
ENDMDL
MODEL       36
REMARK 921   NORMALIZED FREE ENERGY PREDICTED BY IDOCK:   -5.29 KCAL/MOL
REMARK 922        TOTAL FREE ENERGY PREDICTED BY IDOCK:   -6.31 KCAL/MOL
REMARK 923 INTER-LIGAND FREE ENERGY PREDICTED BY IDOCK:   -6.06 KCAL/MOL
REMARK 924 INTRA-LIGAND FREE ENERGY PREDICTED BY IDOCK:   -0.24 KCAL/MOL
REMARK 927      BINDING AFFINITY PREDICTED BY RF-SCORE:    0.00 PKD
ROOT
HETATM    1  C   UNL     1      -9.710  11.413  67.272  1.00  0.00    -0.185 C  
HETATM    2  C   UNL     1      -8.538  12.400  67.399  1.00  0.00    -0.181 C  
HETATM    3  C   UNL     1      -9.147  13.568  66.878  1.00  0.00    -0.246 A  
HETATM    4  C   UNL     1      -9.281  14.801  67.429  1.00  0.00    -0.196 A  
HETATM    5  N   UNL     1     -10.216  15.426  66.658  1.00  0.00    -0.269 NA 
HETATM    6  C   UNL     1     -10.645  16.763  67.000  1.00  0.00    -0.234 C  
HETATM    7  C   UNL     1     -10.705  14.551  65.677  1.00  0.00    -0.327 A  
HETATM    8  C   UNL     1     -10.088  13.312  65.855  1.00  0.00    -0.296 A  
HETATM    9  C   UNL     1     -10.580  11.999  65.336  1.00  0.00    -0.319 A  
HETATM   10  C   UNL     1     -11.463  12.184  64.268  1.00  0.00    -0.437 A  
HETATM   11  C   UNL     1     -10.616  10.633  66.319  1.00  0.00    -0.229 C  
HETATM   12  C   UNL     1     -10.595   9.487  67.210  1.00  0.00    -0.317 C  
HETATM   13  C   UNL     1     -11.975  13.482  63.964  1.00  0.00    -0.501 A  
HETATM   14  C   UNL     1     -11.686  14.658  64.704  1.00  0.00    -0.431 A  
HETATM   15  C   UNL     1      -9.883   9.513  68.776  1.00  0.00    -0.177 C  
HETATM   16  C   UNL     1     -10.394  10.810  69.451  1.00  0.00    -0.179 C  
HETATM   17  C   UNL     1     -11.880  12.348  68.093  1.00  0.00    -0.315 C  
HETATM   18  N   UNL     1     -10.603  11.716  68.383  1.00  0.00    -0.202 NA 
ENDROOT
BRANCH  15  19
HETATM   19  C   UNL     1      -8.338   9.401  68.588  1.00  0.00    -0.117 C  
HETATM   20  O   UNL     1      -7.838   8.676  67.728  1.00  0.00    -0.101 OA 
HETATM   21  H   UNL     1      -8.170  10.670  70.206  1.00  0.00     0.000 HD 
HETATM   22  N   UNL     1      -7.640  10.054  69.590  1.00  0.00    -0.129 N  
BRANCH  22  23
HETATM   23  CA  UNL     1      -6.205   9.935  69.836  1.00  0.00    -0.055 C  
BRANCH  23  24
HETATM   24  C   UNL     1      -5.907   9.548  71.317  1.00  0.00    -0.075 C  
HETATM   25  H   UNL     1      -6.899   8.905  72.923  1.00  0.00     0.000 HD 
HETATM   26  O   UNL     1      -7.081   9.140  72.021  1.00  0.00    -0.323 OA 
ENDBRANCH  23  24
BRANCH  23  27
HETATM   27  C   UNL     1      -5.592  11.278  69.457  1.00  0.00    -0.057 C  
HETATM   28  C   UNL     1      -5.617  12.234  70.630  1.00  0.00    -0.161 C  
ENDBRANCH  23  27
ENDBRANCH  22  23
ENDBRANCH  15  19
TORSDOF 4
ENDMDL
MODEL       37
REMARK 921   NORMALIZED FREE ENERGY PREDICTED BY IDOCK:   -5.28 KCAL/MOL
REMARK 922        TOTAL FREE ENERGY PREDICTED BY IDOCK:   -6.29 KCAL/MOL
REMARK 923 INTER-LIGAND FREE ENERGY PREDICTED BY IDOCK:   -6.45 KCAL/MOL
REMARK 924 INTRA-LIGAND FREE ENERGY PREDICTED BY IDOCK:    0.16 KCAL/MOL
REMARK 927      BINDING AFFINITY PREDICTED BY RF-SCORE:    0.00 PKD
ROOT
HETATM    1  C   UNL     1      -9.581  11.313  68.396  1.00  0.00    -0.195 C  
HETATM    2  C   UNL     1     -11.066  11.650  68.611  1.00  0.00    -0.287 C  
HETATM    3  C   UNL     1     -11.213  12.706  67.678  1.00  0.00    -0.329 A  
HETATM    4  C   UNL     1     -12.090  12.848  66.654  1.00  0.00    -0.289 A  
HETATM    5  N   UNL     1     -11.581  13.863  65.899  1.00  0.00    -0.330 NA 
HETATM    6  C   UNL     1     -12.251  14.249  64.677  1.00  0.00    -0.454 C  
HETATM    7  C   UNL     1     -10.355  14.296  66.424  1.00  0.00    -0.286 A  
HETATM    8  C   UNL     1     -10.053  13.501  67.531  1.00  0.00    -0.234 A  
HETATM    9  C   UNL     1      -8.701  13.316  68.141  1.00  0.00    -0.179 A  
HETATM   10  C   UNL     1      -7.848  14.366  67.791  1.00  0.00    -0.169 A  
HETATM   11  C   UNL     1      -8.136  11.785  68.555  1.00  0.00    -0.140 C  
HETATM   12  C   UNL     1      -7.719  10.441  68.915  1.00  0.00    -0.111 C  
HETATM   13  C   UNL     1      -8.217  15.295  66.773  1.00  0.00    -0.215 A  
HETATM   14  C   UNL     1      -9.416  15.229  66.015  1.00  0.00    -0.372 A  
HETATM   15  C   UNL     1      -8.756   9.070  68.832  1.00  0.00    -0.136 C  
HETATM   16  C   UNL     1      -9.454   9.151  67.452  1.00  0.00    -0.143 C  
HETATM   17  C   UNL     1      -8.948  11.151  65.981  1.00  0.00    -0.200 C  
HETATM   18  N   UNL     1      -9.528  10.535  67.164  1.00  0.00    -0.158 NA 
ENDROOT
BRANCH  15  19
HETATM   19  C   UNL     1      -9.693   9.118  70.079  1.00  0.00    -0.195 C  
HETATM   20  O   UNL     1      -9.321   9.586  71.156  1.00  0.00    -0.222 OA 
HETATM   21  H   UNL     1     -11.091   8.146  68.916  1.00  0.00     0.000 HD 
HETATM   22  N   UNL     1     -10.878   8.433  69.871  1.00  0.00    -0.233 N  
BRANCH  22  23
HETATM   23  CA  UNL     1     -11.848   8.087  70.907  1.00  0.00    -0.224 C  
BRANCH  23  24
HETATM   24  C   UNL     1     -12.344   9.351  71.673  1.00  0.00    -0.385 C  
HETATM   25  H   UNL     1     -13.648  10.838  71.419  1.00  0.00     0.000 HD 
HETATM   26  O   UNL     1     -13.346  10.068  70.951  1.00  0.00    -0.382 OA 
ENDBRANCH  23  24
BRANCH  23  27
HETATM   27  C   UNL     1     -11.153   7.090  71.828  1.00  0.00    -0.270 C  
HETATM   28  C   UNL     1     -10.860   5.796  71.100  1.00  0.00    -0.316 C  
ENDBRANCH  23  27
ENDBRANCH  22  23
ENDBRANCH  15  19
TORSDOF 4
ENDMDL
MODEL       38
REMARK 921   NORMALIZED FREE ENERGY PREDICTED BY IDOCK:   -5.28 KCAL/MOL
REMARK 922        TOTAL FREE ENERGY PREDICTED BY IDOCK:   -6.29 KCAL/MOL
REMARK 923 INTER-LIGAND FREE ENERGY PREDICTED BY IDOCK:   -6.00 KCAL/MOL
REMARK 924 INTRA-LIGAND FREE ENERGY PREDICTED BY IDOCK:   -0.29 KCAL/MOL
REMARK 927      BINDING AFFINITY PREDICTED BY RF-SCORE:    0.00 PKD
ROOT
HETATM    1  C   UNL     1     -10.207  12.745  67.704  1.00  0.00    -0.219 C  
HETATM    2  C   UNL     1      -8.765  13.107  68.094  1.00  0.00    -0.193 C  
HETATM    3  C   UNL     1      -8.783  14.498  67.829  1.00  0.00    -0.174 A  
HETATM    4  C   UNL     1      -8.480  15.543  68.639  1.00  0.00    -0.174 A  
HETATM    5  N   UNL     1      -8.979  16.637  67.995  1.00  0.00    -0.207 NA 
HETATM    6  C   UNL     1      -8.875  17.939  68.615  1.00  0.00    -0.261 C  
HETATM    7  C   UNL     1      -9.648  16.252  66.824  1.00  0.00    -0.239 A  
HETATM    8  C   UNL     1      -9.608  14.860  66.740  1.00  0.00    -0.265 A  
HETATM    9  C   UNL     1     -10.515  14.000  65.920  1.00  0.00    -0.314 A  
HETATM   10  C   UNL     1     -11.106  14.737  64.890  1.00  0.00    -0.416 A  
HETATM   11  C   UNL     1     -11.221  12.614  66.567  1.00  0.00    -0.342 C  
HETATM   12  C   UNL     1     -11.775  11.418  67.176  1.00  0.00    -0.059 C  
HETATM   13  C   UNL     1     -11.011  16.161  64.869  1.00  0.00    -0.364 A  
HETATM   14  C   UNL     1     -10.372  16.944  65.866  1.00  0.00    -0.327 A  
HETATM   15  C   UNL     1     -11.318  10.845  68.733  1.00  0.00    -0.357 C  
HETATM   16  C   UNL     1     -11.348  12.082  69.664  1.00  0.00    -0.179 C  
HETATM   17  C   UNL     1     -11.905  14.329  68.635  1.00  0.00    -0.344 C  
HETATM   18  N   UNL     1     -11.038  13.177  68.821  1.00  0.00    -0.260 NA 
ENDROOT
BRANCH  15  19
HETATM   19  C   UNL     1      -9.938  10.134  68.581  1.00  0.00    -0.170 C  
HETATM   20  O   UNL     1      -9.626   9.529  67.555  1.00  0.00    -0.139 OA 
HETATM   21  H   UNL     1      -9.562  10.712  70.525  1.00  0.00     0.000 HD 
HETATM   22  N   UNL     1      -9.221  10.122  69.766  1.00  0.00    -0.188 N  
BRANCH  22  23
HETATM   23  CA  UNL     1      -8.018   9.334  70.019  1.00  0.00    -0.121 C  
BRANCH  23  24
HETATM   24  C   UNL     1      -8.167   8.453  71.297  1.00  0.00    -0.134 C  
HETATM   25  H   UNL     1      -9.099   8.520  73.059  1.00  0.00     0.000 HD 
HETATM   26  O   UNL     1      -9.009   9.057  72.281  1.00  0.00    -0.360 OA 
ENDBRANCH  23  24
BRANCH  23  27
HETATM   27  C   UNL     1      -6.870  10.330  70.136  1.00  0.00    -0.152 C  
HETATM   28  C   UNL     1      -6.127  10.455  68.824  1.00  0.00    -0.040 C  
ENDBRANCH  23  27
ENDBRANCH  22  23
ENDBRANCH  15  19
TORSDOF 4
ENDMDL
MODEL       39
REMARK 921   NORMALIZED FREE ENERGY PREDICTED BY IDOCK:   -5.26 KCAL/MOL
REMARK 922        TOTAL FREE ENERGY PREDICTED BY IDOCK:   -6.27 KCAL/MOL
REMARK 923 INTER-LIGAND FREE ENERGY PREDICTED BY IDOCK:   -6.85 KCAL/MOL
REMARK 924 INTRA-LIGAND FREE ENERGY PREDICTED BY IDOCK:    0.58 KCAL/MOL
REMARK 927      BINDING AFFINITY PREDICTED BY RF-SCORE:    0.00 PKD
ROOT
HETATM    1  C   UNL     1      -9.215  15.959  67.494  1.00  0.00    -0.207 C  
HETATM    2  C   UNL     1     -10.200  16.145  68.660  1.00  0.00    -0.244 C  
HETATM    3  C   UNL     1     -11.020  15.007  68.468  1.00  0.00    -0.259 A  
HETATM    4  C   UNL     1     -11.338  14.007  69.328  1.00  0.00    -0.273 A  
HETATM    5  N   UNL     1     -11.870  13.028  68.541  1.00  0.00    -0.330 NA 
HETATM    6  C   UNL     1     -12.276  11.775  69.137  1.00  0.00    -0.108 C  
HETATM    7  C   UNL     1     -11.813  13.401  67.191  1.00  0.00    -0.382 A  
HETATM    8  C   UNL     1     -11.187  14.646  67.112  1.00  0.00    -0.349 A  
HETATM    9  C   UNL     1     -10.546  15.235  65.896  1.00  0.00    -0.345 A  
HETATM   10  C   UNL     1     -11.033  14.632  64.733  1.00  0.00    -0.399 A  
HETATM   11  C   UNL     1      -9.028  15.959  65.976  1.00  0.00    -0.337 C  
HETATM   12  C   UNL     1      -7.730  16.594  66.119  1.00  0.00    -0.148 C  
HETATM   13  C   UNL     1     -11.824  13.445  64.806  1.00  0.00    -0.415 A  
HETATM   14  C   UNL     1     -12.149  12.763  66.008  1.00  0.00    -0.458 A  
HETATM   15  C   UNL     1      -6.961  16.854  67.636  1.00  0.00    -0.156 C  
HETATM   16  C   UNL     1      -7.080  15.516  68.406  1.00  0.00    -0.111 C  
HETATM   17  C   UNL     1      -8.348  13.620  67.300  1.00  0.00    -0.171 C  
HETATM   18  N   UNL     1      -8.278  14.930  67.928  1.00  0.00    -0.136 NA 
ENDROOT
BRANCH  15  19
HETATM   19  C   UNL     1      -7.643  18.091  68.299  1.00  0.00    -0.275 C  
HETATM   20  O   UNL     1      -7.746  18.200  69.521  1.00  0.00     0.148 OA 
HETATM   21  H   UNL     1      -8.034  18.751  66.384  1.00  0.00     0.000 HD 
HETATM   22  N   UNL     1      -8.247  18.918  67.367  1.00  0.00    -0.268 N  
BRANCH  22  23
HETATM   23  CA  UNL     1      -9.164  20.012  67.677  1.00  0.00    -0.349 C  
BRANCH  23  24
HETATM   24  C   UNL     1     -10.263  19.570  68.691  1.00  0.00    -0.384 C  
HETATM   25  H   UNL     1     -10.905  20.069  70.511  1.00  0.00     0.000 HD 
HETATM   26  O   UNL     1     -10.236  20.339  69.894  1.00  0.00    -0.038 OA 
ENDBRANCH  23  24
BRANCH  23  27
HETATM   27  C   UNL     1      -9.755  20.464  66.346  1.00  0.00    -0.400 C  
HETATM   28  C   UNL     1     -10.680  19.408  65.779  1.00  0.00    -0.458 C  
ENDBRANCH  23  27
ENDBRANCH  22  23
ENDBRANCH  15  19
TORSDOF 4
ENDMDL
MODEL       40
REMARK 921   NORMALIZED FREE ENERGY PREDICTED BY IDOCK:   -5.26 KCAL/MOL
REMARK 922        TOTAL FREE ENERGY PREDICTED BY IDOCK:   -6.27 KCAL/MOL
REMARK 923 INTER-LIGAND FREE ENERGY PREDICTED BY IDOCK:   -7.08 KCAL/MOL
REMARK 924 INTRA-LIGAND FREE ENERGY PREDICTED BY IDOCK:    0.81 KCAL/MOL
REMARK 927      BINDING AFFINITY PREDICTED BY RF-SCORE:    0.00 PKD
ROOT
HETATM    1  C   UNL     1      -9.837  11.056  67.438  1.00  0.00    -0.173 C  
HETATM    2  C   UNL     1     -10.640  10.224  66.424  1.00  0.00    -0.177 C  
HETATM    3  C   UNL     1     -10.064   8.949  66.647  1.00  0.00    -0.357 A  
HETATM    4  C   UNL     1     -10.655   7.770  66.966  1.00  0.00    -0.326 A  
HETATM    5  N   UNL     1      -9.631   6.970  67.380  1.00  0.00    -0.131 NA 
HETATM    6  C   UNL     1      -9.916   5.634  67.852  1.00  0.00    -0.143 C  
HETATM    7  C   UNL     1      -8.423   7.682  67.379  1.00  0.00    -0.122 A  
HETATM    8  C   UNL     1      -8.694   8.994  66.988  1.00  0.00    -0.124 A  
HETATM    9  C   UNL     1      -7.824  10.185  67.235  1.00  0.00    -0.103 A  
HETATM   10  C   UNL     1      -6.505   9.797  67.483  1.00  0.00    -0.068 A  
HETATM   11  C   UNL     1      -8.469  11.630  67.810  1.00  0.00    -0.144 C  
HETATM   12  C   UNL     1      -9.093  12.854  68.280  1.00  0.00    -0.180 C  
HETATM   13  C   UNL     1      -6.182   8.426  67.718  1.00  0.00    -0.052 A  
HETATM   14  C   UNL     1      -7.128   7.369  67.763  1.00  0.00    -0.085 A  
HETATM   15  C   UNL     1     -10.796  13.064  68.412  1.00  0.00    -0.280 C  
HETATM   16  C   UNL     1     -11.325  11.792  69.118  1.00  0.00    -0.279 C  
HETATM   17  C   UNL     1      -9.660   9.968  69.684  1.00  0.00    -0.226 C  
HETATM   18  N   UNL     1     -10.425  10.767  68.740  1.00  0.00    -0.187 NA 
ENDROOT
BRANCH  15  19
HETATM   19  C   UNL     1     -11.345  13.330  66.976  1.00  0.00    -0.312 C  
HETATM   20  O   UNL     1     -12.352  12.765  66.549  1.00  0.00    -0.476 OA 
HETATM   21  H   UNL     1      -9.716  14.568  66.712  1.00  0.00     0.000 HD 
HETATM   22  N   UNL     1     -10.485  14.112  66.222  1.00  0.00    -0.281 N  
BRANCH  22  23
HETATM   23  CA  UNL     1     -10.588  14.335  64.783  1.00  0.00    -0.412 C  
BRANCH  23  24
HETATM   24  C   UNL     1     -11.860  15.162  64.420  1.00  0.00    -0.305 C  
HETATM   25  H   UNL     1     -12.315  16.937  63.635  1.00  0.00     0.000 HD 
HETATM   26  O   UNL     1     -11.541  16.434  63.856  1.00  0.00    -1.100 OA 
ENDBRANCH  23  24
BRANCH  23  27
HETATM   27  C   UNL     1     -10.594  12.955  64.134  1.00  0.00    -0.442 C  
HETATM   28  C   UNL     1     -11.890  12.712  63.392  1.00  0.00    -0.594 C  
ENDBRANCH  23  27
ENDBRANCH  22  23
ENDBRANCH  15  19
TORSDOF 4
ENDMDL
MODEL       41
REMARK 921   NORMALIZED FREE ENERGY PREDICTED BY IDOCK:   -5.19 KCAL/MOL
REMARK 922        TOTAL FREE ENERGY PREDICTED BY IDOCK:   -6.18 KCAL/MOL
REMARK 923 INTER-LIGAND FREE ENERGY PREDICTED BY IDOCK:   -5.96 KCAL/MOL
REMARK 924 INTRA-LIGAND FREE ENERGY PREDICTED BY IDOCK:   -0.23 KCAL/MOL
REMARK 927      BINDING AFFINITY PREDICTED BY RF-SCORE:    0.00 PKD
ROOT
HETATM    1  C   UNL     1      -8.804  15.255  67.007  1.00  0.00    -0.237 C  
HETATM    2  C   UNL     1      -7.660  14.318  67.428  1.00  0.00    -0.185 C  
HETATM    3  C   UNL     1      -6.795  15.254  68.046  1.00  0.00    -0.152 A  
HETATM    4  C   UNL     1      -6.263  15.257  69.294  1.00  0.00    -0.118 A  
HETATM    5  N   UNL     1      -5.792  16.525  69.467  1.00  0.00    -0.166 NA 
HETATM    6  C   UNL     1      -5.196  16.899  70.730  1.00  0.00    -0.211 C  
HETATM    7  C   UNL     1      -6.097  17.317  68.351  1.00  0.00    -0.151 A  
HETATM    8  C   UNL     1      -6.824  16.536  67.451  1.00  0.00    -0.191 A  
HETATM    9  C   UNL     1      -7.698  17.043  66.350  1.00  0.00    -0.350 A  
HETATM   10  C   UNL     1      -7.361  18.356  66.009  1.00  0.00    -0.273 A  
HETATM   11  C   UNL     1      -9.235  16.403  66.094  1.00  0.00    -0.365 C  
HETATM   12  C   UNL     1     -10.538  15.790  65.911  1.00  0.00    -0.350 C  
HETATM   13  C   UNL     1      -6.478  19.117  66.832  1.00  0.00    -0.195 A  
HETATM   14  C   UNL     1      -5.910  18.656  68.049  1.00  0.00    -0.191 A  
HETATM   15  C   UNL     1     -11.068  14.404  66.781  1.00  0.00    -0.323 C  
HETATM   16  C   UNL     1     -10.720  14.677  68.265  1.00  0.00    -0.239 C  
HETATM   17  C   UNL     1      -9.504  16.830  68.821  1.00  0.00    -0.259 C  
HETATM   18  N   UNL     1      -9.573  15.508  68.220  1.00  0.00    -0.199 NA 
ENDROOT
BRANCH  15  19
HETATM   19  C   UNL     1     -10.386  13.158  66.134  1.00  0.00    -0.284 C  
HETATM   20  O   UNL     1     -10.221  13.065  64.917  1.00  0.00    -0.311 OA 
HETATM   21  H   UNL     1     -10.291  12.372  68.039  1.00  0.00     0.000 HD 
HETATM   22  N   UNL     1     -10.168  12.145  67.052  1.00  0.00    -0.207 N  
BRANCH  22  23
HETATM   23  CA  UNL     1      -9.777  10.777  66.723  1.00  0.00    -0.187 C  
BRANCH  23  24
HETATM   24  C   UNL     1     -10.551   9.735  67.588  1.00  0.00    -0.276 C  
HETATM   25  H   UNL     1     -11.171   7.844  67.452  1.00  0.00     0.000 HD 
HETATM   26  O   UNL     1     -10.699   8.479  66.925  1.00  0.00    -0.265 OA 
ENDBRANCH  23  24
BRANCH  23  27
HETATM   27  C   UNL     1      -8.270  10.699  66.939  1.00  0.00    -0.123 C  
HETATM   28  C   UNL     1      -7.567  10.237  65.680  1.00  0.00    -0.148 C  
ENDBRANCH  23  27
ENDBRANCH  22  23
ENDBRANCH  15  19
TORSDOF 4
ENDMDL
MODEL       42
REMARK 921   NORMALIZED FREE ENERGY PREDICTED BY IDOCK:   -5.17 KCAL/MOL
REMARK 922        TOTAL FREE ENERGY PREDICTED BY IDOCK:   -6.16 KCAL/MOL
REMARK 923 INTER-LIGAND FREE ENERGY PREDICTED BY IDOCK:   -5.93 KCAL/MOL
REMARK 924 INTRA-LIGAND FREE ENERGY PREDICTED BY IDOCK:   -0.23 KCAL/MOL
REMARK 927      BINDING AFFINITY PREDICTED BY RF-SCORE:    0.00 PKD
ROOT
HETATM    1  C   UNL     1     -10.007  11.321  68.663  1.00  0.00    -0.204 C  
HETATM    2  C   UNL     1      -8.555  11.756  68.401  1.00  0.00    -0.156 C  
HETATM    3  C   UNL     1      -7.912  10.495  68.448  1.00  0.00    -0.116 A  
HETATM    4  C   UNL     1      -7.117   9.888  67.532  1.00  0.00    -0.088 A  
HETATM    5  N   UNL     1      -7.051   8.587  67.938  1.00  0.00    -0.085 NA 
HETATM    6  C   UNL     1      -6.313   7.629  67.146  1.00  0.00    -0.054 C  
HETATM    7  C   UNL     1      -7.862   8.384  69.064  1.00  0.00    -0.102 A  
HETATM    8  C   UNL     1      -8.499   9.590  69.362  1.00  0.00    -0.146 A  
HETATM    9  C   UNL     1      -9.734   9.754  70.187  1.00  0.00    -0.299 A  
HETATM   10  C   UNL     1      -9.933   8.645  71.014  1.00  0.00    -0.272 A  
HETATM   11  C   UNL     1     -10.996  10.745  69.677  1.00  0.00    -0.320 C  
HETATM   12  C   UNL     1     -12.036  11.636  69.192  1.00  0.00    -0.378 C  
HETATM   13  C   UNL     1      -9.167   7.455  70.832  1.00  0.00    -0.154 A  
HETATM   14  C   UNL     1      -8.197   7.267  69.812  1.00  0.00    -0.130 A  
HETATM   15  C   UNL     1     -11.858  12.641  67.807  1.00  0.00    -0.381 C  
HETATM   16  C   UNL     1     -11.258  11.736  66.703  1.00  0.00    -0.323 C  
HETATM   17  C   UNL     1     -10.702   9.338  67.305  1.00  0.00    -0.174 C  
HETATM   18  N   UNL     1     -10.489  10.774  67.401  1.00  0.00    -0.211 NA 
ENDROOT
BRANCH  15  19
HETATM   19  C   UNL     1     -10.995  13.870  68.230  1.00  0.00    -0.255 C  
HETATM   20  O   UNL     1     -10.985  14.291  69.387  1.00  0.00    -0.248 OA 
HETATM   21  H   UNL     1     -10.448  14.017  66.247  1.00  0.00     0.000 HD 
HETATM   22  N   UNL     1     -10.414  14.501  67.143  1.00  0.00    -0.266 N  
BRANCH  22  23
HETATM   23  CA  UNL     1      -9.757  15.805  67.175  1.00  0.00    -0.223 C  
BRANCH  23  24
HETATM   24  C   UNL     1     -10.452  16.822  66.218  1.00  0.00    -0.261 C  
HETATM   25  H   UNL     1     -10.986  16.946  64.302  1.00  0.00     0.000 HD 
HETATM   26  O   UNL     1     -10.563  16.326  64.884  1.00  0.00    -0.650 OA 
ENDBRANCH  23  24
BRANCH  23  27
HETATM   27  C   UNL     1      -8.300  15.560  66.796  1.00  0.00    -0.301 C  
HETATM   28  C   UNL     1      -7.459  15.298  68.026  1.00  0.00    -0.129 C  
ENDBRANCH  23  27
ENDBRANCH  22  23
ENDBRANCH  15  19
TORSDOF 4
ENDMDL
MODEL       43
REMARK 921   NORMALIZED FREE ENERGY PREDICTED BY IDOCK:   -5.16 KCAL/MOL
REMARK 922        TOTAL FREE ENERGY PREDICTED BY IDOCK:   -6.14 KCAL/MOL
REMARK 923 INTER-LIGAND FREE ENERGY PREDICTED BY IDOCK:   -6.57 KCAL/MOL
REMARK 924 INTRA-LIGAND FREE ENERGY PREDICTED BY IDOCK:    0.43 KCAL/MOL
REMARK 927      BINDING AFFINITY PREDICTED BY RF-SCORE:    0.00 PKD
ROOT
HETATM    1  C   UNL     1      -9.171   8.883  68.363  1.00  0.00    -0.140 C  
HETATM    2  C   UNL     1      -8.194   9.971  68.838  1.00  0.00    -0.121 C  
HETATM    3  C   UNL     1      -8.118   9.645  70.214  1.00  0.00    -0.206 A  
HETATM    4  C   UNL     1      -7.037   9.376  70.987  1.00  0.00    -0.044 A  
HETATM    5  N   UNL     1      -7.550   8.814  72.119  1.00  0.00    -0.334 NA 
HETATM    6  C   UNL     1      -6.655   8.351  73.156  1.00  0.00    -0.096 C  
HETATM    7  C   UNL     1      -8.942   8.677  72.009  1.00  0.00    -0.216 A  
HETATM    8  C   UNL     1      -9.323   9.131  70.745  1.00  0.00    -0.325 A  
HETATM    9  C   UNL     1     -10.599   8.803  70.039  1.00  0.00    -0.232 A  
HETATM   10  C   UNL     1     -11.575   8.378  70.943  1.00  0.00    -0.288 A  
HETATM   11  C   UNL     1     -10.604   8.351  68.417  1.00  0.00    -0.155 C  
HETATM   12  C   UNL     1     -10.541   7.995  67.010  1.00  0.00    -0.364 C  
HETATM   13  C   UNL     1     -11.231   8.070  72.294  1.00  0.00    -0.402 A  
HETATM   14  C   UNL     1      -9.915   8.122  72.824  1.00  0.00    -0.361 A  
HETATM   15  C   UNL     1      -9.105   8.089  66.068  1.00  0.00    -0.193 C  
HETATM   16  C   UNL     1      -7.996   7.426  66.921  1.00  0.00    -0.115 C  
HETATM   17  C   UNL     1      -8.611   6.607  69.239  1.00  0.00    -0.131 C  
HETATM   18  N   UNL     1      -8.383   7.661  68.263  1.00  0.00    -0.124 NA 
ENDROOT
BRANCH  15  19
HETATM   19  C   UNL     1      -8.884   9.590  65.702  1.00  0.00    -0.161 C  
HETATM   20  O   UNL     1      -7.821  10.167  65.932  1.00  0.00    -0.120 OA 
HETATM   21  H   UNL     1     -10.847   9.599  65.066  1.00  0.00     0.000 HD 
HETATM   22  N   UNL     1     -10.050  10.201  65.272  1.00  0.00    -0.314 N  
BRANCH  22  23
HETATM   23  CA  UNL     1     -10.233  11.639  65.090  1.00  0.00    -0.274 C  
BRANCH  23  24
HETATM   24  C   UNL     1     -11.037  12.269  66.269  1.00  0.00    -0.302 C  
HETATM   25  H   UNL     1     -12.322  11.690  67.680  1.00  0.00     0.000 HD 
HETATM   26  O   UNL     1     -11.832  11.306  66.963  1.00  0.00    -0.484 OA 
ENDBRANCH  23  24
BRANCH  23  27
HETATM   27  C   UNL     1     -10.941  11.814  63.751  1.00  0.00    -0.500 C  
HETATM   28  C   UNL     1     -12.051  12.838  63.856  1.00  0.00    -0.562 C  
ENDBRANCH  23  27
ENDBRANCH  22  23
ENDBRANCH  15  19
TORSDOF 4
ENDMDL
MODEL       44
REMARK 921   NORMALIZED FREE ENERGY PREDICTED BY IDOCK:   -5.14 KCAL/MOL
REMARK 922        TOTAL FREE ENERGY PREDICTED BY IDOCK:   -6.12 KCAL/MOL
REMARK 923 INTER-LIGAND FREE ENERGY PREDICTED BY IDOCK:   -6.51 KCAL/MOL
REMARK 924 INTRA-LIGAND FREE ENERGY PREDICTED BY IDOCK:    0.39 KCAL/MOL
REMARK 927      BINDING AFFINITY PREDICTED BY RF-SCORE:    0.00 PKD
ROOT
HETATM    1  C   UNL     1      -9.526   9.405  68.399  1.00  0.00    -0.141 C  
HETATM    2  C   UNL     1     -10.099   8.668  67.177  1.00  0.00    -0.329 C  
HETATM    3  C   UNL     1     -10.492   9.777  66.388  1.00  0.00    -0.190 A  
HETATM    4  C   UNL     1     -10.160  10.100  65.113  1.00  0.00    -0.259 A  
HETATM    5  N   UNL     1     -10.538  11.403  64.976  1.00  0.00    -0.297 NA 
HETATM    6  C   UNL     1     -10.278  12.094  63.733  1.00  0.00    -0.424 C  
HETATM    7  C   UNL     1     -11.038  11.898  66.189  1.00  0.00    -0.326 A  
HETATM    8  C   UNL     1     -10.938  10.885  67.144  1.00  0.00    -0.334 A  
HETATM    9  C   UNL     1     -10.953  11.067  68.627  1.00  0.00    -0.271 A  
HETATM   10  C   UNL     1     -11.539  12.288  68.974  1.00  0.00    -0.368 A  
HETATM   11  C   UNL     1      -9.835  10.283  69.612  1.00  0.00    -0.230 C  
HETATM   12  C   UNL     1      -8.860   9.557  70.407  1.00  0.00    -0.279 C  
HETATM   13  C   UNL     1     -11.807  13.275  67.979  1.00  0.00    -0.392 A  
HETATM   14  C   UNL     1     -11.483  13.143  66.603  1.00  0.00    -0.389 A  
HETATM   15  C   UNL     1      -7.796   8.372  69.756  1.00  0.00    -0.099 C  
HETATM   16  C   UNL     1      -7.200   8.999  68.472  1.00  0.00    -0.073 C  
HETATM   17  C   UNL     1      -8.012  11.300  67.787  1.00  0.00    -0.117 C  
HETATM   18  N   UNL     1      -8.206   9.874  67.995  1.00  0.00    -0.112 NA 
ENDROOT
BRANCH  15  19
HETATM   19  C   UNL     1      -8.620   7.062  69.561  1.00  0.00    -0.134 C  
HETATM   20  O   UNL     1      -8.573   6.412  68.516  1.00  0.00    -0.122 OA 
HETATM   21  H   UNL     1      -9.401   7.416  71.438  1.00  0.00     0.000 HD 
HETATM   22  N   UNL     1      -9.505   6.839  70.603  1.00  0.00    -0.169 N  
BRANCH  22  23
HETATM   23  CA  UNL     1     -10.576   5.847  70.605  1.00  0.00    -0.268 C  
BRANCH  23  24
HETATM   24  C   UNL     1     -11.950   6.486  70.972  1.00  0.00    -0.297 C  
HETATM   25  H   UNL     1     -12.677   8.263  71.510  1.00  0.00     0.000 HD 
HETATM   26  O   UNL     1     -11.839   7.875  71.286  1.00  0.00    -0.288 OA 
ENDBRANCH  23  24
BRANCH  23  27
HETATM   27  C   UNL     1     -10.158   4.768  71.598  1.00  0.00    -0.264 C  
HETATM   28  C   UNL     1     -10.958   4.873  72.879  1.00  0.00    -0.332 C  
ENDBRANCH  23  27
ENDBRANCH  22  23
ENDBRANCH  15  19
TORSDOF 4
ENDMDL
MODEL       45
REMARK 921   NORMALIZED FREE ENERGY PREDICTED BY IDOCK:   -5.08 KCAL/MOL
REMARK 922        TOTAL FREE ENERGY PREDICTED BY IDOCK:   -6.04 KCAL/MOL
REMARK 923 INTER-LIGAND FREE ENERGY PREDICTED BY IDOCK:   -5.74 KCAL/MOL
REMARK 924 INTRA-LIGAND FREE ENERGY PREDICTED BY IDOCK:   -0.30 KCAL/MOL
REMARK 927      BINDING AFFINITY PREDICTED BY RF-SCORE:    0.00 PKD
ROOT
HETATM    1  C   UNL     1     -10.008  12.844  67.130  1.00  0.00    -0.240 C  
HETATM    2  C   UNL     1      -8.478  12.813  67.273  1.00  0.00    -0.194 C  
HETATM    3  C   UNL     1      -8.215  14.201  67.373  1.00  0.00    -0.207 A  
HETATM    4  C   UNL     1      -7.552  14.895  68.331  1.00  0.00    -0.113 A  
HETATM    5  N   UNL     1      -7.880  16.199  68.105  1.00  0.00    -0.143 NA 
HETATM    6  C   UNL     1      -7.379  17.226  68.991  1.00  0.00    -0.209 C  
HETATM    7  C   UNL     1      -8.799  16.296  67.050  1.00  0.00    -0.205 A  
HETATM    8  C   UNL     1      -9.097  15.004  66.615  1.00  0.00    -0.309 A  
HETATM    9  C   UNL     1     -10.299  14.595  65.825  1.00  0.00    -0.349 A  
HETATM   10  C   UNL     1     -10.860  15.691  65.166  1.00  0.00    -0.448 A  
HETATM   11  C   UNL     1     -11.193  13.231  66.245  1.00  0.00    -0.321 C  
HETATM   12  C   UNL     1     -11.905  12.030  66.644  1.00  0.00    -0.239 C  
HETATM   13  C   UNL     1     -10.441  17.020  65.478  1.00  0.00    -0.181 A  
HETATM   14  C   UNL     1      -9.486  17.353  66.475  1.00  0.00    -0.288 A  
HETATM   15  C   UNL     1     -11.350  10.959  67.871  1.00  0.00    -0.380 C  
HETATM   16  C   UNL     1     -10.942  11.858  69.064  1.00  0.00    -0.219 C  
HETATM   17  C   UNL     1     -11.120  14.369  68.772  1.00  0.00    -0.257 C  
HETATM   18  N   UNL     1     -10.526  13.076  68.473  1.00  0.00    -0.253 NA 
ENDROOT
BRANCH  15  19
HETATM   19  C   UNL     1     -10.215  10.086  67.250  1.00  0.00    -0.222 C  
HETATM   20  O   UNL     1     -10.231   9.743  66.068  1.00  0.00    -0.259 OA 
HETATM   21  H   UNL     1      -9.389  10.032  69.139  1.00  0.00     0.000 HD 
HETATM   22  N   UNL     1      -9.328   9.623  68.207  1.00  0.00    -0.133 N  
BRANCH  22  23
HETATM   23  CA  UNL     1      -8.311   8.597  67.991  1.00  0.00    -0.123 C  
BRANCH  23  24
HETATM   24  C   UNL     1      -8.673   7.267  68.719  1.00  0.00    -0.125 C  
HETATM   25  H   UNL     1     -10.009   5.794  68.566  1.00  0.00     0.000 HD 
HETATM   26  O   UNL     1      -9.788   6.604  68.122  1.00  0.00    -0.129 OA 
ENDBRANCH  23  24
BRANCH  23  27
HETATM   27  C   UNL     1      -6.995   9.187  68.487  1.00  0.00    -0.067 C  
HETATM   28  C   UNL     1      -7.207   9.993  69.751  1.00  0.00    -0.127 C  
ENDBRANCH  23  27
ENDBRANCH  22  23
ENDBRANCH  15  19
TORSDOF 4
ENDMDL
MODEL       46
REMARK 921   NORMALIZED FREE ENERGY PREDICTED BY IDOCK:   -5.06 KCAL/MOL
REMARK 922        TOTAL FREE ENERGY PREDICTED BY IDOCK:   -6.02 KCAL/MOL
REMARK 923 INTER-LIGAND FREE ENERGY PREDICTED BY IDOCK:   -6.34 KCAL/MOL
REMARK 924 INTRA-LIGAND FREE ENERGY PREDICTED BY IDOCK:    0.31 KCAL/MOL
REMARK 927      BINDING AFFINITY PREDICTED BY RF-SCORE:    0.00 PKD
ROOT
HETATM    1  C   UNL     1     -10.378  12.758  67.913  1.00  0.00    -0.226 C  
HETATM    2  C   UNL     1      -8.907  13.047  68.259  1.00  0.00    -0.172 C  
HETATM    3  C   UNL     1      -8.846  14.423  67.926  1.00  0.00    -0.179 A  
HETATM    4  C   UNL     1      -8.462  15.484  68.678  1.00  0.00    -0.174 A  
HETATM    5  N   UNL     1      -8.906  16.575  67.991  1.00  0.00    -0.194 NA 
HETATM    6  C   UNL     1      -8.710  17.896  68.544  1.00  0.00    -0.292 C  
HETATM    7  C   UNL     1      -9.623  16.177  66.853  1.00  0.00    -0.230 A  
HETATM    8  C   UNL     1      -9.670  14.782  66.836  1.00  0.00    -0.247 A  
HETATM    9  C   UNL     1     -10.645  13.943  66.076  1.00  0.00    -0.293 A  
HETATM   10  C   UNL     1     -11.212  14.665  65.022  1.00  0.00    -0.388 A  
HETATM   11  C   UNL     1     -11.421  12.637  66.802  1.00  0.00    -0.410 C  
HETATM   12  C   UNL     1     -12.034  11.508  67.480  1.00  0.00     0.006 C  
HETATM   13  C   UNL     1     -11.030  16.078  64.929  1.00  0.00    -0.399 A  
HETATM   14  C   UNL     1     -10.323  16.866  65.875  1.00  0.00    -0.327 A  
HETATM   15  C   UNL     1     -11.581  10.983  69.054  1.00  0.00    -0.392 C  
HETATM   16  C   UNL     1     -11.515  12.262  69.924  1.00  0.00    -0.114 C  
HETATM   17  C   UNL     1     -11.955  14.488  68.796  1.00  0.00    -0.280 C  
HETATM   18  N   UNL     1     -11.156  13.294  69.023  1.00  0.00    -0.258 NA 
ENDROOT
BRANCH  15  19
HETATM   19  C   UNL     1     -10.250  10.180  68.912  1.00  0.00    -0.199 C  
HETATM   20  O   UNL     1      -9.282  10.390  69.643  1.00  0.00    -0.169 OA 
HETATM   21  H   UNL     1     -11.133   9.234  67.305  1.00  0.00     0.000 HD 
HETATM   22  N   UNL     1     -10.246   9.366  67.792  1.00  0.00    -0.208 N  
BRANCH  22  23
HETATM   23  CA  UNL     1      -9.076   8.681  67.249  1.00  0.00    -0.133 C  
BRANCH  23  24
HETATM   24  C   UNL     1      -8.836   9.054  65.753  1.00  0.00    -0.179 C  
HETATM   25  H   UNL     1      -9.735  10.092  64.308  1.00  0.00     0.000 HD 
HETATM   26  O   UNL     1      -9.882   9.866  65.219  1.00  0.00    -0.302 OA 
ENDBRANCH  23  24
BRANCH  23  27
HETATM   27  C   UNL     1      -9.327   7.189  67.438  1.00  0.00    -0.144 C  
HETATM   28  C   UNL     1     -10.722   6.814  66.988  1.00  0.00    -0.435 C  
ENDBRANCH  23  27
ENDBRANCH  22  23
ENDBRANCH  15  19
TORSDOF 4
ENDMDL
MODEL       47
REMARK 921   NORMALIZED FREE ENERGY PREDICTED BY IDOCK:   -5.01 KCAL/MOL
REMARK 922        TOTAL FREE ENERGY PREDICTED BY IDOCK:   -5.95 KCAL/MOL
REMARK 923 INTER-LIGAND FREE ENERGY PREDICTED BY IDOCK:   -6.24 KCAL/MOL
REMARK 924 INTRA-LIGAND FREE ENERGY PREDICTED BY IDOCK:    0.29 KCAL/MOL
REMARK 927      BINDING AFFINITY PREDICTED BY RF-SCORE:    0.00 PKD
ROOT
HETATM    1  C   UNL     1      -9.745   6.874  70.033  1.00  0.00    -0.167 C  
HETATM    2  C   UNL     1     -10.217   5.757  70.978  1.00  0.00    -0.275 C  
HETATM    3  C   UNL     1      -9.939   4.625  70.173  1.00  0.00    -0.304 A  
HETATM    4  C   UNL     1      -9.191   3.526  70.444  1.00  0.00    -0.149 A  
HETATM    5  N   UNL     1      -8.993   2.934  69.232  1.00  0.00    -0.102 NA 
HETATM    6  C   UNL     1      -8.177   1.743  69.144  1.00  0.00    -0.048 C  
HETATM    7  C   UNL     1      -9.562   3.707  68.210  1.00  0.00    -0.099 A  
HETATM    8  C   UNL     1     -10.108   4.855  68.789  1.00  0.00    -0.169 A  
HETATM    9  C   UNL     1     -10.436   6.129  68.079  1.00  0.00    -0.284 A  
HETATM   10  C   UNL     1     -10.580   5.913  66.706  1.00  0.00    -0.368 A  
HETATM   11  C   UNL     1      -9.998   7.622  68.724  1.00  0.00    -0.178 C  
HETATM   12  C   UNL     1      -9.616   8.876  69.347  1.00  0.00    -0.163 C  
HETATM   13  C   UNL     1     -10.183   4.674  66.119  1.00  0.00    -0.308 A  
HETATM   14  C   UNL     1      -9.590   3.597  66.829  1.00  0.00    -0.176 A  
HETATM   15  C   UNL     1      -8.955   8.989  70.931  1.00  0.00    -0.300 C  
HETATM   16  C   UNL     1      -7.854   7.902  71.008  1.00  0.00    -0.089 C  
HETATM   17  C   UNL     1      -7.520   6.407  68.990  1.00  0.00    -0.095 C  
HETATM   18  N   UNL     1      -8.290   6.882  70.128  1.00  0.00    -0.133 NA 
ENDROOT
BRANCH  15  19
HETATM   19  C   UNL     1     -10.136   8.842  71.941  1.00  0.00    -0.322 C  
HETATM   20  O   UNL     1     -10.057   8.118  72.933  1.00  0.00    -0.299 OA 
HETATM   21  H   UNL     1     -11.204  10.083  70.686  1.00  0.00     0.000 HD 
HETATM   22  N   UNL     1     -11.289   9.464  71.492  1.00  0.00    -0.379 N  
BRANCH  22  23
HETATM   23  CA  UNL     1     -12.617   9.306  72.078  1.00  0.00    -0.390 C  
BRANCH  23  24
HETATM   24  C   UNL     1     -13.444   8.208  71.341  1.00  0.00    -0.211 C  
HETATM   25  H   UNL     1     -13.697   6.232  71.408  1.00  0.00     0.000 HD 
HETATM   26  O   UNL     1     -13.194   6.900  71.857  1.00  0.00    -0.307 OA 
ENDBRANCH  23  24
BRANCH  23  27
HETATM   27  C   UNL     1     -13.283  10.676  72.004  1.00  0.00    -0.473 C  
HETATM   28  C   UNL     1     -12.572  11.570  71.012  1.00  0.00    -0.457 C  
ENDBRANCH  23  27
ENDBRANCH  22  23
ENDBRANCH  15  19
TORSDOF 4
ENDMDL
MODEL       48
REMARK 921   NORMALIZED FREE ENERGY PREDICTED BY IDOCK:   -5.00 KCAL/MOL
REMARK 922        TOTAL FREE ENERGY PREDICTED BY IDOCK:   -5.94 KCAL/MOL
REMARK 923 INTER-LIGAND FREE ENERGY PREDICTED BY IDOCK:   -6.46 KCAL/MOL
REMARK 924 INTRA-LIGAND FREE ENERGY PREDICTED BY IDOCK:    0.52 KCAL/MOL
REMARK 927      BINDING AFFINITY PREDICTED BY RF-SCORE:    0.00 PKD
ROOT
HETATM    1  C   UNL     1     -10.073  12.716  66.850  1.00  0.00    -0.230 C  
HETATM    2  C   UNL     1      -8.620  13.059  67.217  1.00  0.00    -0.206 C  
HETATM    3  C   UNL     1      -8.064  11.756  67.250  1.00  0.00    -0.164 A  
HETATM    4  C   UNL     1      -6.998  11.247  66.584  1.00  0.00    -0.129 A  
HETATM    5  N   UNL     1      -7.112   9.896  66.730  1.00  0.00    -0.089 NA 
HETATM    6  C   UNL     1      -6.152   9.025  66.089  1.00  0.00    -0.059 C  
HETATM    7  C   UNL     1      -8.286   9.575  67.426  1.00  0.00    -0.125 A  
HETATM    8  C   UNL     1      -8.965  10.764  67.700  1.00  0.00    -0.140 A  
HETATM    9  C   UNL     1     -10.415  10.893  68.039  1.00  0.00    -0.222 A  
HETATM   10  C   UNL     1     -10.927   9.682  68.510  1.00  0.00    -0.153 A  
HETATM   11  C   UNL     1     -11.379  12.065  67.308  1.00  0.00    -0.394 C  
HETATM   12  C   UNL     1     -12.147  13.114  66.662  1.00  0.00    -0.409 C  
HETATM   13  C   UNL     1     -10.171   8.477  68.392  1.00  0.00    -0.236 A  
HETATM   14  C   UNL     1      -8.896   8.381  67.775  1.00  0.00    -0.137 A  
HETATM   15  C   UNL     1     -11.450  14.321  65.654  1.00  0.00    -0.329 C  
HETATM   16  C   UNL     1     -10.501  13.568  64.688  1.00  0.00    -0.421 C  
HETATM   17  C   UNL     1     -10.253  11.064  64.980  1.00  0.00    -0.299 C  
HETATM   18  N   UNL     1     -10.064  12.437  65.419  1.00  0.00    -0.274 NA 
ENDROOT
BRANCH  15  19
HETATM   19  C   UNL     1     -10.782  15.378  66.586  1.00  0.00    -0.309 C  
HETATM   20  O   UNL     1      -9.750  15.969  66.267  1.00  0.00    -0.263 OA 
HETATM   21  H   UNL     1     -12.263  14.933  67.951  1.00  0.00     0.000 HD 
HETATM   22  N   UNL     1     -11.378  15.426  67.835  1.00  0.00    -0.334 N  
BRANCH  22  23
HETATM   23  CA  UNL     1     -10.843  16.125  69.001  1.00  0.00    -0.299 C  
BRANCH  23  24
HETATM   24  C   UNL     1      -9.385  15.675  69.321  1.00  0.00    -0.267 C  
HETATM   25  H   UNL     1      -7.543  16.439  69.284  1.00  0.00     0.000 HD 
HETATM   26  O   UNL     1      -8.431  16.713  69.090  1.00  0.00    -0.216 OA 
ENDBRANCH  23  24
BRANCH  23  27
HETATM   27  C   UNL     1     -11.801  15.835  70.151  1.00  0.00    -0.369 C  
HETATM   28  C   UNL     1     -12.366  14.435  70.043  1.00  0.00    -0.391 C  
ENDBRANCH  23  27
ENDBRANCH  22  23
ENDBRANCH  15  19
TORSDOF 4
ENDMDL
MODEL       49
REMARK 921   NORMALIZED FREE ENERGY PREDICTED BY IDOCK:   -4.93 KCAL/MOL
REMARK 922        TOTAL FREE ENERGY PREDICTED BY IDOCK:   -5.86 KCAL/MOL
REMARK 923 INTER-LIGAND FREE ENERGY PREDICTED BY IDOCK:   -5.69 KCAL/MOL
REMARK 924 INTRA-LIGAND FREE ENERGY PREDICTED BY IDOCK:   -0.17 KCAL/MOL
REMARK 927      BINDING AFFINITY PREDICTED BY RF-SCORE:    0.00 PKD
ROOT
HETATM    1  C   UNL     1      -9.250   8.145  66.291  1.00  0.00    -0.191 C  
HETATM    2  C   UNL     1     -10.637   8.202  66.952  1.00  0.00    -0.311 C  
HETATM    3  C   UNL     1     -10.588   7.015  67.723  1.00  0.00    -0.298 A  
HETATM    4  C   UNL     1     -10.776   6.832  69.054  1.00  0.00    -0.246 A  
HETATM    5  N   UNL     1     -10.294   5.582  69.304  1.00  0.00    -0.250 NA 
HETATM    6  C   UNL     1     -10.291   5.075  70.658  1.00  0.00    -0.208 C  
HETATM    7  C   UNL     1      -9.746   5.026  68.138  1.00  0.00    -0.148 A  
HETATM    8  C   UNL     1      -9.849   5.974  67.118  1.00  0.00    -0.165 A  
HETATM    9  C   UNL     1      -9.052   5.996  65.853  1.00  0.00    -0.117 A  
HETATM   10  C   UNL     1      -8.527   4.732  65.572  1.00  0.00    -0.127 A  
HETATM   11  C   UNL     1      -8.347   7.419  65.294  1.00  0.00    -0.110 C  
HETATM   12  C   UNL     1      -7.789   8.684  64.852  1.00  0.00    -0.116 C  
HETATM   13  C   UNL     1      -8.567   3.693  66.550  1.00  0.00    -0.115 A  
HETATM   14  C   UNL     1      -9.084   3.840  67.864  1.00  0.00    -0.191 A  
HETATM   15  C   UNL     1      -8.127  10.190  65.613  1.00  0.00    -0.149 C  
HETATM   16  C   UNL     1      -7.967   9.942  67.133  1.00  0.00    -0.109 C  
HETATM   17  C   UNL     1      -7.415   7.591  67.899  1.00  0.00    -0.105 C  
HETATM   18  N   UNL     1      -8.307   8.579  67.315  1.00  0.00    -0.115 NA 
ENDROOT
BRANCH  15  19
HETATM   19  C   UNL     1      -9.543  10.644  65.137  1.00  0.00    -0.251 C  
HETATM   20  O   UNL     1      -9.985  10.344  64.028  1.00  0.00    -0.323 OA 
HETATM   21  H   UNL     1      -9.688  11.653  66.931  1.00  0.00     0.000 HD 
HETATM   22  N   UNL     1     -10.130  11.537  66.019  1.00  0.00    -0.223 N  
BRANCH  22  23
HETATM   23  CA  UNL     1     -11.329  12.325  65.749  1.00  0.00    -0.355 C  
BRANCH  23  24
HETATM   24  C   UNL     1     -11.026  13.526  64.801  1.00  0.00    -0.373 C  
HETATM   25  H   UNL     1     -11.898  15.216  64.204  1.00  0.00     0.000 HD 
HETATM   26  O   UNL     1     -12.083  14.486  64.782  1.00  0.00    -0.418 OA 
ENDBRANCH  23  24
BRANCH  23  27
HETATM   27  C   UNL     1     -11.855  12.782  67.106  1.00  0.00    -0.415 C  
HETATM   28  C   UNL     1     -10.877  12.438  68.208  1.00  0.00    -0.264 C  
ENDBRANCH  23  27
ENDBRANCH  22  23
ENDBRANCH  15  19
TORSDOF 4
ENDMDL
MODEL       50
REMARK 921   NORMALIZED FREE ENERGY PREDICTED BY IDOCK:   -4.91 KCAL/MOL
REMARK 922        TOTAL FREE ENERGY PREDICTED BY IDOCK:   -5.84 KCAL/MOL
REMARK 923 INTER-LIGAND FREE ENERGY PREDICTED BY IDOCK:   -6.24 KCAL/MOL
REMARK 924 INTRA-LIGAND FREE ENERGY PREDICTED BY IDOCK:    0.40 KCAL/MOL
REMARK 927      BINDING AFFINITY PREDICTED BY RF-SCORE:    0.00 PKD
ROOT
HETATM    1  C   UNL     1     -10.070  10.829  68.753  1.00  0.00    -0.191 C  
HETATM    2  C   UNL     1      -8.592  10.896  69.171  1.00  0.00    -0.060 C  
HETATM    3  C   UNL     1      -8.508   9.716  69.952  1.00  0.00    -0.211 A  
HETATM    4  C   UNL     1      -7.665   8.659  69.844  1.00  0.00    -0.084 A  
HETATM    5  N   UNL     1      -8.229   7.686  70.615  1.00  0.00    -0.111 NA 
HETATM    6  C   UNL     1      -7.608   6.382  70.686  1.00  0.00    -0.103 C  
HETATM    7  C   UNL     1      -9.454   8.125  71.138  1.00  0.00    -0.157 A  
HETATM    8  C   UNL     1      -9.697   9.410  70.651  1.00  0.00    -0.336 A  
HETATM    9  C   UNL     1     -11.024  10.096  70.597  1.00  0.00    -0.357 A  
HETATM   10  C   UNL     1     -11.922   9.517  71.498  1.00  0.00    -0.475 A  
HETATM   11  C   UNL     1     -11.526  10.913  69.213  1.00  0.00    -0.372 C  
HETATM   12  C   UNL     1     -11.886  11.623  67.999  1.00  0.00    -0.295 C  
HETATM   13  C   UNL     1     -11.613   8.280  72.140  1.00  0.00    -0.428 A  
HETATM   14  C   UNL     1     -10.435   7.522  71.909  1.00  0.00    -0.235 A  
HETATM   15  C   UNL     1     -10.807  11.861  66.680  1.00  0.00    -0.315 C  
HETATM   16  C   UNL     1     -10.151  10.483  66.416  1.00  0.00    -0.228 C  
HETATM   17  C   UNL     1     -10.766   8.563  67.952  1.00  0.00    -0.082 C  
HETATM   18  N   UNL     1     -10.132   9.844  67.680  1.00  0.00    -0.185 NA 
ENDROOT
BRANCH  15  19
HETATM   19  C   UNL     1      -9.837  13.018  67.074  1.00  0.00    -0.238 C  
HETATM   20  O   UNL     1      -8.624  12.947  66.876  1.00  0.00    -0.195 OA 
HETATM   21  H   UNL     1     -11.491  13.979  67.847  1.00  0.00     0.000 HD 
HETATM   22  N   UNL     1     -10.472  14.008  67.806  1.00  0.00    -0.234 N  
BRANCH  22  23
HETATM   23  CA  UNL     1      -9.803  15.090  68.523  1.00  0.00    -0.217 C  
BRANCH  23  24
HETATM   24  C   UNL     1     -10.586  15.495  69.810  1.00  0.00    -0.295 C  
HETATM   25  H   UNL     1     -12.003  14.747  70.995  1.00  0.00     0.000 HD 
HETATM   26  O   UNL     1     -11.527  14.499  70.212  1.00  0.00    -0.264 OA 
ENDBRANCH  23  24
BRANCH  23  27
HETATM   27  C   UNL     1      -9.678  16.245  67.536  1.00  0.00    -0.234 C  
HETATM   28  C   UNL     1     -10.737  17.295  67.796  1.00  0.00    -0.333 C  
ENDBRANCH  23  27
ENDBRANCH  22  23
ENDBRANCH  15  19
TORSDOF 4
ENDMDL
MODEL       51
REMARK 921   NORMALIZED FREE ENERGY PREDICTED BY IDOCK:   -4.89 KCAL/MOL
REMARK 922        TOTAL FREE ENERGY PREDICTED BY IDOCK:   -5.81 KCAL/MOL
REMARK 923 INTER-LIGAND FREE ENERGY PREDICTED BY IDOCK:   -6.21 KCAL/MOL
REMARK 924 INTRA-LIGAND FREE ENERGY PREDICTED BY IDOCK:    0.40 KCAL/MOL
REMARK 927      BINDING AFFINITY PREDICTED BY RF-SCORE:    0.00 PKD
ROOT
HETATM    1  C   UNL     1     -10.557  12.856  66.075  1.00  0.00    -0.270 C  
HETATM    2  C   UNL     1     -10.442  12.147  67.435  1.00  0.00    -0.233 C  
HETATM    3  C   UNL     1     -10.822  13.208  68.294  1.00  0.00    -0.274 A  
HETATM    4  C   UNL     1     -11.798  13.260  69.235  1.00  0.00    -0.331 A  
HETATM    5  N   UNL     1     -11.939  14.587  69.514  1.00  0.00    -0.308 NA 
HETATM    6  C   UNL     1     -12.950  15.014  70.456  1.00  0.00    -0.299 C  
HETATM    7  C   UNL     1     -11.098  15.352  68.694  1.00  0.00    -0.289 A  
HETATM    8  C   UNL     1     -10.425  14.484  67.833  1.00  0.00    -0.242 A  
HETATM    9  C   UNL     1      -9.764  14.856  66.546  1.00  0.00    -0.294 A  
HETATM   10  C   UNL     1      -9.479  16.224  66.508  1.00  0.00    -0.289 A  
HETATM   11  C   UNL     1      -9.989  13.936  65.154  1.00  0.00    -0.249 C  
HETATM   12  C   UNL     1     -10.202  13.084  63.997  1.00  0.00    -0.166 C  
HETATM   13  C   UNL     1     -10.024  17.107  67.487  1.00  0.00    -0.279 A  
HETATM   14  C   UNL     1     -10.905  16.715  68.529  1.00  0.00    -0.356 A  
HETATM   15  C   UNL     1     -11.039  11.582  64.063  1.00  0.00    -0.441 C  
HETATM   16  C   UNL     1     -12.329  11.852  64.877  1.00  0.00     0.139 C  
HETATM   17  C   UNL     1     -12.668  14.176  65.827  1.00  0.00    -0.413 C  
HETATM   18  N   UNL     1     -11.982  12.895  65.769  1.00  0.00    -0.421 NA 
ENDROOT
BRANCH  15  19
HETATM   19  C   UNL     1     -10.057  10.528  64.663  1.00  0.00    -0.338 C  
HETATM   20  O   UNL     1     -10.392   9.770  65.574  1.00  0.00    -0.178 OA 
HETATM   21  H   UNL     1      -8.635  11.301  63.384  1.00  0.00     0.000 HD 
HETATM   22  N   UNL     1      -8.768  10.678  64.180  1.00  0.00    -0.163 N  
BRANCH  22  23
HETATM   23  CA  UNL     1      -7.581  10.018  64.718  1.00  0.00    -0.143 C  
BRANCH  23  24
HETATM   24  C   UNL     1      -7.054  10.737  65.997  1.00  0.00    -0.102 C  
HETATM   25  H   UNL     1      -6.618  10.291  67.891  1.00  0.00     0.000 HD 
HETATM   26  O   UNL     1      -6.939   9.852  67.112  1.00  0.00    -0.082 OA 
ENDBRANCH  23  24
BRANCH  23  27
HETATM   27  C   UNL     1      -6.550  10.009  63.595  1.00  0.00    -0.130 C  
HETATM   28  C   UNL     1      -5.462   8.993  63.868  1.00  0.00    -0.062 C  
ENDBRANCH  23  27
ENDBRANCH  22  23
ENDBRANCH  15  19
TORSDOF 4
ENDMDL
MODEL       52
REMARK 921   NORMALIZED FREE ENERGY PREDICTED BY IDOCK:   -4.88 KCAL/MOL
REMARK 922        TOTAL FREE ENERGY PREDICTED BY IDOCK:   -5.80 KCAL/MOL
REMARK 923 INTER-LIGAND FREE ENERGY PREDICTED BY IDOCK:   -6.54 KCAL/MOL
REMARK 924 INTRA-LIGAND FREE ENERGY PREDICTED BY IDOCK:    0.74 KCAL/MOL
REMARK 927      BINDING AFFINITY PREDICTED BY RF-SCORE:    0.00 PKD
ROOT
HETATM    1  C   UNL     1     -10.665  12.682  67.254  1.00  0.00    -0.237 C  
HETATM    2  C   UNL     1     -11.813  11.662  67.168  1.00  0.00    -0.090 C  
HETATM    3  C   UNL     1     -11.505  10.856  68.291  1.00  0.00    -0.376 A  
HETATM    4  C   UNL     1     -12.272  10.520  69.359  1.00  0.00    -0.023 A  
HETATM    5  N   UNL     1     -11.394  10.019  70.273  1.00  0.00    -0.286 NA 
HETATM    6  C   UNL     1     -11.874   9.605  71.573  1.00  0.00    -0.407 C  
HETATM    7  C   UNL     1     -10.080  10.112  69.792  1.00  0.00    -0.231 A  
HETATM    8  C   UNL     1     -10.120  10.732  68.542  1.00  0.00    -0.187 A  
HETATM    9  C   UNL     1      -8.975  11.403  67.854  1.00  0.00    -0.153 A  
HETATM   10  C   UNL     1      -7.754  10.955  68.363  1.00  0.00    -0.116 A  
HETATM   11  C   UNL     1      -9.159  12.913  67.130  1.00  0.00    -0.220 C  
HETATM   12  C   UNL     1      -9.392  14.202  66.503  1.00  0.00    -0.285 C  
HETATM   13  C   UNL     1      -7.707  10.171  69.555  1.00  0.00    -0.155 A  
HETATM   14  C   UNL     1      -8.839   9.817  70.334  1.00  0.00    -0.125 A  
HETATM   15  C   UNL     1     -10.946  14.925  66.363  1.00  0.00    -0.336 C  
HETATM   16  C   UNL     1     -11.602  14.792  67.760  1.00  0.00    -0.357 C  
HETATM   17  C   UNL     1     -10.310  13.572  69.566  1.00  0.00     0.494 C  
HETATM   18  N   UNL     1     -11.043  13.613  68.311  1.00  0.00    -0.246 NA 
ENDROOT
BRANCH  15  19
HETATM   19  C   UNL     1     -11.687  14.214  65.187  1.00  0.00    -0.361 C  
HETATM   20  O   UNL     1     -12.915  14.178  65.118  1.00  0.00    -0.729 OA 
HETATM   21  H   UNL     1      -9.819  13.672  64.498  1.00  0.00     0.000 HD 
HETATM   22  N   UNL     1     -10.818  13.509  64.371  1.00  0.00    -0.403 N  
BRANCH  22  23
HETATM   23  CA  UNL     1     -11.214  12.552  63.342  1.00  0.00    -0.397 C  
BRANCH  23  24
HETATM   24  C   UNL     1     -12.459  11.721  63.779  1.00  0.00    -0.327 C  
HETATM   25  H   UNL     1     -14.282  11.288  63.098  1.00  0.00     0.000 HD 
HETATM   26  O   UNL     1     -13.524  11.794  62.831  1.00  0.00    -0.186 OA 
ENDBRANCH  23  24
BRANCH  23  27
HETATM   27  C   UNL     1      -9.996  11.672  63.084  1.00  0.00    -0.400 C  
HETATM   28  C   UNL     1      -9.878  10.590  64.135  1.00  0.00    -0.401 C  
ENDBRANCH  23  27
ENDBRANCH  22  23
ENDBRANCH  15  19
TORSDOF 4
ENDMDL
MODEL       53
REMARK 921   NORMALIZED FREE ENERGY PREDICTED BY IDOCK:   -4.87 KCAL/MOL
REMARK 922        TOTAL FREE ENERGY PREDICTED BY IDOCK:   -5.79 KCAL/MOL
REMARK 923 INTER-LIGAND FREE ENERGY PREDICTED BY IDOCK:   -5.57 KCAL/MOL
REMARK 924 INTRA-LIGAND FREE ENERGY PREDICTED BY IDOCK:   -0.22 KCAL/MOL
REMARK 927      BINDING AFFINITY PREDICTED BY RF-SCORE:    0.00 PKD
ROOT
HETATM    1  C   UNL     1      -9.713   8.855  68.741  1.00  0.00    -0.164 C  
HETATM    2  C   UNL     1      -9.442   9.732  69.974  1.00  0.00    -0.278 C  
HETATM    3  C   UNL     1      -8.882   8.764  70.843  1.00  0.00    -0.243 A  
HETATM    4  C   UNL     1      -7.695   8.764  71.498  1.00  0.00    -0.101 A  
HETATM    5  N   UNL     1      -7.526   7.476  71.911  1.00  0.00    -0.078 NA 
HETATM    6  C   UNL     1      -6.316   7.102  72.610  1.00  0.00    -0.052 C  
HETATM    7  C   UNL     1      -8.578   6.672  71.448  1.00  0.00    -0.125 A  
HETATM    8  C   UNL     1      -9.426   7.470  70.679  1.00  0.00    -0.164 A  
HETATM    9  C   UNL     1     -10.416   6.985  69.669  1.00  0.00    -0.238 A  
HETATM   10  C   UNL     1     -10.744   5.646  69.894  1.00  0.00    -0.399 A  
HETATM   11  C   UNL     1     -10.538   7.709  68.154  1.00  0.00    -0.187 C  
HETATM   12  C   UNL     1     -10.611   8.395  66.876  1.00  0.00    -0.285 C  
HETATM   13  C   UNL     1      -9.987   4.856  70.811  1.00  0.00    -0.292 A  
HETATM   14  C   UNL     1      -8.851   5.315  71.527  1.00  0.00    -0.144 A  
HETATM   15  C   UNL     1      -9.741   9.835  66.518  1.00  0.00    -0.267 C  
HETATM   16  C   UNL     1      -8.291   9.583  67.000  1.00  0.00    -0.124 C  
HETATM   17  C   UNL     1      -7.786   7.377  68.140  1.00  0.00    -0.120 C  
HETATM   18  N   UNL     1      -8.422   8.684  68.086  1.00  0.00    -0.130 NA 
ENDROOT
BRANCH  15  19
HETATM   19  C   UNL     1     -10.495  11.018  67.201  1.00  0.00    -0.232 C  
HETATM   20  O   UNL     1     -11.703  10.972  67.434  1.00  0.00    -0.539 OA 
HETATM   21  H   UNL     1      -8.697  12.028  67.162  1.00  0.00     0.000 HD 
HETATM   22  N   UNL     1      -9.696  12.141  67.336  1.00  0.00    -0.178 N  
BRANCH  22  23
HETATM   23  CA  UNL     1     -10.166  13.473  67.706  1.00  0.00    -0.242 C  
BRANCH  23  24
HETATM   24  C   UNL     1     -10.608  14.294  66.456  1.00  0.00    -0.286 C  
HETATM   25  H   UNL     1     -12.291  14.986  65.641  1.00  0.00     0.000 HD 
HETATM   26  O   UNL     1     -12.022  14.486  66.403  1.00  0.00    -0.392 OA 
ENDBRANCH  23  24
BRANCH  23  27
HETATM   27  C   UNL     1      -9.017  14.139  68.456  1.00  0.00    -0.174 C  
HETATM   28  C   UNL     1      -7.748  13.324  68.335  1.00  0.00    -0.138 C  
ENDBRANCH  23  27
ENDBRANCH  22  23
ENDBRANCH  15  19
TORSDOF 4
ENDMDL
MODEL       54
REMARK 921   NORMALIZED FREE ENERGY PREDICTED BY IDOCK:   -4.87 KCAL/MOL
REMARK 922        TOTAL FREE ENERGY PREDICTED BY IDOCK:   -5.79 KCAL/MOL
REMARK 923 INTER-LIGAND FREE ENERGY PREDICTED BY IDOCK:   -6.10 KCAL/MOL
REMARK 924 INTRA-LIGAND FREE ENERGY PREDICTED BY IDOCK:    0.31 KCAL/MOL
REMARK 927      BINDING AFFINITY PREDICTED BY RF-SCORE:    0.00 PKD
ROOT
HETATM    1  C   UNL     1      -9.300  10.345  67.391  1.00  0.00    -0.145 C  
HETATM    2  C   UNL     1     -10.139   9.826  66.212  1.00  0.00    -0.313 C  
HETATM    3  C   UNL     1     -10.889  10.990  65.917  1.00  0.00    -0.183 A  
HETATM    4  C   UNL     1     -11.019  11.671  64.750  1.00  0.00    -0.289 A  
HETATM    5  N   UNL     1     -11.571  12.866  65.106  1.00  0.00    -0.318 NA 
HETATM    6  C   UNL     1     -11.802  13.874  64.096  1.00  0.00    -0.385 C  
HETATM    7  C   UNL     1     -11.715  12.943  66.499  1.00  0.00    -0.393 A  
HETATM    8  C   UNL     1     -11.200  11.771  67.053  1.00  0.00    -0.382 A  
HETATM    9  C   UNL     1     -10.766  11.583  68.471  1.00  0.00    -0.242 A  
HETATM   10  C   UNL     1     -11.351  12.541  69.304  1.00  0.00    -0.307 A  
HETATM   11  C   UNL     1      -9.309  10.824  68.842  1.00  0.00    -0.183 C  
HETATM   12  C   UNL     1      -8.055  10.137  69.095  1.00  0.00    -0.134 C  
HETATM   13  C   UNL     1     -12.034  13.665  68.750  1.00  0.00    -0.394 A  
HETATM   14  C   UNL     1     -12.150  13.937  67.361  1.00  0.00    -0.380 A  
HETATM   15  C   UNL     1      -7.120   9.382  67.864  1.00  0.00    -0.081 C  
HETATM   16  C   UNL     1      -7.039  10.407  66.705  1.00  0.00    -0.105 C  
HETATM   17  C   UNL     1      -8.291  12.594  66.967  1.00  0.00    -0.130 C  
HETATM   18  N   UNL     1      -8.240  11.151  66.797  1.00  0.00    -0.148 NA 
ENDROOT
BRANCH  15  19
HETATM   19  C   UNL     1      -7.803   8.020  67.529  1.00  0.00    -0.118 C  
HETATM   20  O   UNL     1      -7.956   7.636  66.369  1.00  0.00    -0.101 OA 
HETATM   21  H   UNL     1      -8.097   7.806  69.560  1.00  0.00     0.000 HD 
HETATM   22  N   UNL     1      -8.348   7.418  68.651  1.00  0.00    -0.128 N  
BRANCH  22  23
HETATM   23  CA  UNL     1      -9.254   6.272  68.639  1.00  0.00    -0.124 C  
BRANCH  23  24
HETATM   24  C   UNL     1     -10.711   6.696  68.280  1.00  0.00    -0.257 C  
HETATM   25  H   UNL     1     -11.946   6.629  66.716  1.00  0.00     0.000 HD 
HETATM   26  O   UNL     1     -11.058   6.370  66.934  1.00  0.00    -0.384 OA 
ENDBRANCH  23  24
BRANCH  23  27
HETATM   27  C   UNL     1      -9.162   5.639  70.023  1.00  0.00    -0.172 C  
HETATM   28  C   UNL     1     -10.538   5.456  70.626  1.00  0.00    -0.302 C  
ENDBRANCH  23  27
ENDBRANCH  22  23
ENDBRANCH  15  19
TORSDOF 4
ENDMDL
MODEL       55
REMARK 921   NORMALIZED FREE ENERGY PREDICTED BY IDOCK:   -4.83 KCAL/MOL
REMARK 922        TOTAL FREE ENERGY PREDICTED BY IDOCK:   -5.73 KCAL/MOL
REMARK 923 INTER-LIGAND FREE ENERGY PREDICTED BY IDOCK:   -6.17 KCAL/MOL
REMARK 924 INTRA-LIGAND FREE ENERGY PREDICTED BY IDOCK:    0.43 KCAL/MOL
REMARK 927      BINDING AFFINITY PREDICTED BY RF-SCORE:    0.00 PKD
ROOT
HETATM    1  C   UNL     1     -10.219   7.378  70.528  1.00  0.00    -0.193 C  
HETATM    2  C   UNL     1     -11.105   7.101  69.302  1.00  0.00    -0.112 C  
HETATM    3  C   UNL     1     -10.177   6.415  68.482  1.00  0.00    -0.198 A  
HETATM    4  C   UNL     1     -10.266   5.193  67.900  1.00  0.00    -0.119 A  
HETATM    5  N   UNL     1      -8.991   4.899  67.515  1.00  0.00    -0.107 NA 
HETATM    6  C   UNL     1      -8.709   3.623  66.895  1.00  0.00    -0.117 C  
HETATM    7  C   UNL     1      -8.110   5.911  67.923  1.00  0.00    -0.105 A  
HETATM    8  C   UNL     1      -8.845   6.865  68.629  1.00  0.00    -0.124 A  
HETATM    9  C   UNL     1      -8.292   7.874  69.584  1.00  0.00    -0.131 A  
HETATM   10  C   UNL     1      -6.929   8.081  69.357  1.00  0.00    -0.055 A  
HETATM   11  C   UNL     1      -9.017   8.145  71.079  1.00  0.00    -0.173 C  
HETATM   12  C   UNL     1      -9.705   8.350  72.342  1.00  0.00    -0.376 C  
HETATM   13  C   UNL     1      -6.194   7.210  68.498  1.00  0.00    -0.035 A  
HETATM   14  C   UNL     1      -6.736   6.071  67.847  1.00  0.00    -0.061 A  
HETATM   15  C   UNL     1     -11.212   7.618  72.732  1.00  0.00    -0.431 C  
HETATM   16  C   UNL     1     -11.072   6.126  72.342  1.00  0.00    -0.275 C  
HETATM   17  C   UNL     1      -8.904   5.381  71.264  1.00  0.00    -0.130 C  
HETATM   18  N   UNL     1     -10.156   6.120  71.262  1.00  0.00    -0.185 NA 
ENDROOT
BRANCH  15  19
HETATM   19  C   UNL     1     -12.326   8.420  71.990  1.00  0.00    -0.361 C  
HETATM   20  O   UNL     1     -13.261   7.859  71.417  1.00  0.00    -0.309 OA 
HETATM   21  H   UNL     1     -11.264  10.119  72.483  1.00  0.00     0.000 HD 
HETATM   22  N   UNL     1     -12.036   9.772  71.913  1.00  0.00    -0.336 N  
BRANCH  22  23
HETATM   23  CA  UNL     1     -12.744  10.743  71.083  1.00  0.00    -0.431 C  
BRANCH  23  24
HETATM   24  C   UNL     1     -11.816  11.343  69.983  1.00  0.00    -0.359 C  
HETATM   25  H   UNL     1     -11.699  11.400  67.994  1.00  0.00     0.000 HD 
HETATM   26  O   UNL     1     -12.265  11.034  68.663  1.00  0.00    -0.571 OA 
ENDBRANCH  23  24
BRANCH  23  27
HETATM   27  C   UNL     1     -13.277  11.810  72.033  1.00  0.00    -0.460 C  
HETATM   28  C   UNL     1     -12.962  13.198  71.518  1.00  0.00    -0.412 C  
ENDBRANCH  23  27
ENDBRANCH  22  23
ENDBRANCH  15  19
TORSDOF 4
ENDMDL
MODEL       56
REMARK 921   NORMALIZED FREE ENERGY PREDICTED BY IDOCK:   -4.83 KCAL/MOL
REMARK 922        TOTAL FREE ENERGY PREDICTED BY IDOCK:   -5.73 KCAL/MOL
REMARK 923 INTER-LIGAND FREE ENERGY PREDICTED BY IDOCK:   -5.44 KCAL/MOL
REMARK 924 INTRA-LIGAND FREE ENERGY PREDICTED BY IDOCK:   -0.30 KCAL/MOL
REMARK 927      BINDING AFFINITY PREDICTED BY RF-SCORE:    0.00 PKD
ROOT
HETATM    1  C   UNL     1     -10.102   9.985  68.725  1.00  0.00    -0.185 C  
HETATM    2  C   UNL     1      -8.873   9.987  69.649  1.00  0.00    -0.217 C  
HETATM    3  C   UNL     1      -9.418   9.329  70.779  1.00  0.00    -0.336 A  
HETATM    4  C   UNL     1      -8.988   8.221  71.434  1.00  0.00    -0.166 A  
HETATM    5  N   UNL     1     -10.042   7.848  72.214  1.00  0.00    -0.217 NA 
HETATM    6  C   UNL     1      -9.946   6.652  73.021  1.00  0.00    -0.174 C  
HETATM    7  C   UNL     1     -11.142   8.688  71.985  1.00  0.00    -0.367 A  
HETATM    8  C   UNL     1     -10.787   9.605  70.994  1.00  0.00    -0.412 A  
HETATM    9  C   UNL     1     -11.731  10.399  70.149  1.00  0.00    -0.394 A  
HETATM   10  C   UNL     1     -12.989  10.486  70.752  1.00  0.00    -0.413 A  
HETATM   11  C   UNL     1     -11.511  10.528  68.485  1.00  0.00    -0.284 C  
HETATM   12  C   UNL     1     -11.248  10.622  67.059  1.00  0.00    -0.117 C  
HETATM   13  C   UNL     1     -13.312   9.673  71.880  1.00  0.00    -0.526 A  
HETATM   14  C   UNL     1     -12.445   8.707  72.455  1.00  0.00    -0.428 A  
HETATM   15  C   UNL     1      -9.825  10.011  66.312  1.00  0.00    -0.297 C  
HETATM   16  C   UNL     1      -9.627   8.585  66.882  1.00  0.00    -0.197 C  
HETATM   17  C   UNL     1     -11.264   7.771  68.636  1.00  0.00     0.482 C  
HETATM   18  N   UNL     1     -10.186   8.634  68.182  1.00  0.00    -0.198 NA 
ENDROOT
BRANCH  15  19
HETATM   19  C   UNL     1      -8.676  11.029  66.595  1.00  0.00    -0.160 C  
HETATM   20  O   UNL     1      -8.888  12.237  66.705  1.00  0.00    -0.204 OA 
HETATM   21  H   UNL     1      -7.389   9.420  66.495  1.00  0.00     0.000 HD 
HETATM   22  N   UNL     1      -7.425  10.438  66.529  1.00  0.00    -0.113 N  
BRANCH  22  23
HETATM   23  CA  UNL     1      -6.152  11.155  66.504  1.00  0.00    -0.144 C  
BRANCH  23  24
HETATM   24  C   UNL     1      -5.276  10.727  65.287  1.00  0.00    -0.144 C  
HETATM   25  H   UNL     1      -5.527  10.127  63.402  1.00  0.00     0.000 HD 
HETATM   26  O   UNL     1      -6.061  10.387  64.143  1.00  0.00    -0.136 OA 
ENDBRANCH  23  24
BRANCH  23  27
HETATM   27  C   UNL     1      -5.470  10.862  67.836  1.00  0.00    -0.039 C  
HETATM   28  C   UNL     1      -5.831  11.909  68.869  1.00  0.00    -0.052 C  
ENDBRANCH  23  27
ENDBRANCH  22  23
ENDBRANCH  15  19
TORSDOF 4
ENDMDL
MODEL       57
REMARK 921   NORMALIZED FREE ENERGY PREDICTED BY IDOCK:   -4.77 KCAL/MOL
REMARK 922        TOTAL FREE ENERGY PREDICTED BY IDOCK:   -5.66 KCAL/MOL
REMARK 923 INTER-LIGAND FREE ENERGY PREDICTED BY IDOCK:   -5.43 KCAL/MOL
REMARK 924 INTRA-LIGAND FREE ENERGY PREDICTED BY IDOCK:   -0.23 KCAL/MOL
REMARK 927      BINDING AFFINITY PREDICTED BY RF-SCORE:    0.00 PKD
ROOT
HETATM    1  C   UNL     1      -8.332  14.517  67.506  1.00  0.00    -0.188 C  
HETATM    2  C   UNL     1      -8.701  15.450  66.341  1.00  0.00    -0.307 C  
HETATM    3  C   UNL     1      -9.792  14.732  65.793  1.00  0.00    -0.373 A  
HETATM    4  C   UNL     1     -11.065  15.134  65.548  1.00  0.00    -0.345 A  
HETATM    5  N   UNL     1     -11.759  13.979  65.338  1.00  0.00    -0.330 NA 
HETATM    6  C   UNL     1     -13.183  14.036  65.097  1.00  0.00     0.141 C  
HETATM    7  C   UNL     1     -10.925  12.866  65.523  1.00  0.00    -0.274 A  
HETATM    8  C   UNL     1      -9.664  13.329  65.904  1.00  0.00    -0.188 A  
HETATM    9  C   UNL     1      -8.604  12.532  66.593  1.00  0.00    -0.057 A  
HETATM   10  C   UNL     1      -8.811  11.162  66.410  1.00  0.00    -0.182 A  
HETATM   11  C   UNL     1      -7.767  13.156  67.914  1.00  0.00    -0.147 C  
HETATM   12  C   UNL     1      -7.063  13.763  69.030  1.00  0.00    -0.088 C  
HETATM   13  C   UNL     1     -10.037  10.678  65.860  1.00  0.00    -0.321 A  
HETATM   14  C   UNL     1     -11.138  11.497  65.498  1.00  0.00    -0.254 A  
HETATM   15  C   UNL     1      -7.264  15.406  69.499  1.00  0.00    -0.202 C  
HETATM   16  C   UNL     1      -8.792  15.655  69.525  1.00  0.00    -0.213 C  
HETATM   17  C   UNL     1     -10.316  13.755  68.826  1.00  0.00    -0.192 C  
HETATM   18  N   UNL     1      -9.319  14.776  68.548  1.00  0.00    -0.194 NA 
ENDROOT
BRANCH  15  19
HETATM   19  C   UNL     1      -6.443  16.280  68.501  1.00  0.00    -0.129 C  
HETATM   20  O   UNL     1      -5.463  15.838  67.901  1.00  0.00    -0.118 OA 
HETATM   21  H   UNL     1      -7.704  17.832  69.010  1.00  0.00     0.000 HD 
HETATM   22  N   UNL     1      -6.839  17.607  68.518  1.00  0.00    -0.214 N  
BRANCH  22  23
HETATM   23  CA  UNL     1      -6.120  18.712  67.890  1.00  0.00    -0.191 C  
BRANCH  23  24
HETATM   24  C   UNL     1      -5.940  19.911  68.871  1.00  0.00    -0.263 C  
HETATM   25  H   UNL     1      -6.822  20.660  70.494  1.00  0.00     0.000 HD 
HETATM   26  O   UNL     1      -6.932  19.930  69.897  1.00  0.00    -0.282 OA 
ENDBRANCH  23  24
BRANCH  23  27
HETATM   27  C   UNL     1      -6.922  19.096  66.651  1.00  0.00    -0.216 C  
HETATM   28  C   UNL     1      -6.317  18.488  65.405  1.00  0.00    -0.306 C  
ENDBRANCH  23  27
ENDBRANCH  22  23
ENDBRANCH  15  19
TORSDOF 4
ENDMDL
MODEL       58
REMARK 921   NORMALIZED FREE ENERGY PREDICTED BY IDOCK:   -4.74 KCAL/MOL
REMARK 922        TOTAL FREE ENERGY PREDICTED BY IDOCK:   -5.63 KCAL/MOL
REMARK 923 INTER-LIGAND FREE ENERGY PREDICTED BY IDOCK:   -5.92 KCAL/MOL
REMARK 924 INTRA-LIGAND FREE ENERGY PREDICTED BY IDOCK:    0.29 KCAL/MOL
REMARK 927      BINDING AFFINITY PREDICTED BY RF-SCORE:    0.00 PKD
ROOT
HETATM    1  C   UNL     1     -10.127   8.364  69.828  1.00  0.00    -0.197 C  
HETATM    2  C   UNL     1     -11.241   9.251  70.408  1.00  0.00    -0.290 C  
HETATM    3  C   UNL     1     -11.053  10.418  69.627  1.00  0.00    -0.328 A  
HETATM    4  C   UNL     1     -11.933  11.096  68.848  1.00  0.00    -0.298 A  
HETATM    5  N   UNL     1     -11.158  11.919  68.085  1.00  0.00    -0.225 NA 
HETATM    6  C   UNL     1     -11.778  12.762  67.088  1.00  0.00    -0.380 C  
HETATM    7  C   UNL     1      -9.799  11.694  68.348  1.00  0.00    -0.202 A  
HETATM    8  C   UNL     1      -9.704  10.662  69.284  1.00  0.00    -0.181 A  
HETATM    9  C   UNL     1      -8.498   9.819  69.547  1.00  0.00    -0.176 A  
HETATM   10  C   UNL     1      -7.336  10.455  69.101  1.00  0.00    -0.102 A  
HETATM   11  C   UNL     1      -8.620   8.146  69.689  1.00  0.00    -0.131 C  
HETATM   12  C   UNL     1      -8.799   6.711  69.827  1.00  0.00    -0.144 C  
HETATM   13  C   UNL     1      -7.415  11.619  68.278  1.00  0.00    -0.097 A  
HETATM   14  C   UNL     1      -8.625  12.200  67.814  1.00  0.00    -0.164 A  
HETATM   15  C   UNL     1     -10.338   5.944  69.870  1.00  0.00    -0.307 C  
HETATM   16  C   UNL     1     -11.148   6.556  68.700  1.00  0.00    -0.270 C  
HETATM   17  C   UNL     1     -10.054   8.383  67.327  1.00  0.00    -0.253 C  
HETATM   18  N   UNL     1     -10.639   7.869  68.556  1.00  0.00    -0.154 NA 
ENDROOT
BRANCH  15  19
HETATM   19  C   UNL     1     -10.927   6.160  71.299  1.00  0.00    -0.282 C  
HETATM   20  O   UNL     1     -12.112   6.438  71.480  1.00  0.00    -0.328 OA 
HETATM   21  H   UNL     1      -9.010   5.866  72.002  1.00  0.00     0.000 HD 
HETATM   22  N   UNL     1      -9.943   6.172  72.274  1.00  0.00    -0.167 N  
BRANCH  22  23
HETATM   23  CA  UNL     1     -10.134   6.589  73.661  1.00  0.00    -0.258 C  
BRANCH  23  24
HETATM   24  C   UNL     1      -8.974   7.510  74.149  1.00  0.00    -0.218 C  
HETATM   25  H   UNL     1      -7.908   9.055  73.476  1.00  0.00     0.000 HD 
HETATM   26  O   UNL     1      -8.615   8.494  73.178  1.00  0.00    -0.362 OA 
ENDBRANCH  23  24
BRANCH  23  27
HETATM   27  C   UNL     1     -10.237   5.308  74.482  1.00  0.00    -0.299 C  
HETATM   28  C   UNL     1      -9.030   4.424  74.259  1.00  0.00    -0.105 C  
ENDBRANCH  23  27
ENDBRANCH  22  23
ENDBRANCH  15  19
TORSDOF 4
ENDMDL
MODEL       59
REMARK 921   NORMALIZED FREE ENERGY PREDICTED BY IDOCK:   -4.73 KCAL/MOL
REMARK 922        TOTAL FREE ENERGY PREDICTED BY IDOCK:   -5.61 KCAL/MOL
REMARK 923 INTER-LIGAND FREE ENERGY PREDICTED BY IDOCK:   -5.95 KCAL/MOL
REMARK 924 INTRA-LIGAND FREE ENERGY PREDICTED BY IDOCK:    0.34 KCAL/MOL
REMARK 927      BINDING AFFINITY PREDICTED BY RF-SCORE:    0.00 PKD
ROOT
HETATM    1  C   UNL     1     -10.006   8.695  68.767  1.00  0.00    -0.183 C  
HETATM    2  C   UNL     1     -11.141   9.470  69.456  1.00  0.00    -0.168 C  
HETATM    3  C   UNL     1     -10.954  10.747  68.871  1.00  0.00    -0.289 A  
HETATM    4  C   UNL     1     -11.828  11.530  68.190  1.00  0.00    -0.236 A  
HETATM    5  N   UNL     1     -11.049  12.468  67.580  1.00  0.00    -0.254 NA 
HETATM    6  C   UNL     1     -11.663  13.451  66.714  1.00  0.00    -0.385 C  
HETATM    7  C   UNL     1      -9.693  12.218  67.831  1.00  0.00    -0.202 A  
HETATM    8  C   UNL     1      -9.602  11.054  68.597  1.00  0.00    -0.198 A  
HETATM    9  C   UNL     1      -8.391  10.192  68.749  1.00  0.00    -0.122 A  
HETATM   10  C   UNL     1      -7.229  10.901  68.431  1.00  0.00    -0.087 A  
HETATM   11  C   UNL     1      -8.494   8.516  68.626  1.00  0.00    -0.131 C  
HETATM   12  C   UNL     1      -8.657   7.075  68.535  1.00  0.00    -0.123 C  
HETATM   13  C   UNL     1      -7.308  12.178  67.798  1.00  0.00    -0.114 A  
HETATM   14  C   UNL     1      -8.516  12.813  67.406  1.00  0.00    -0.191 A  
HETATM   15  C   UNL     1     -10.187   6.296  68.427  1.00  0.00    -0.200 C  
HETATM   16  C   UNL     1     -10.984   7.075  67.352  1.00  0.00    -0.266 C  
HETATM   17  C   UNL     1      -9.888   9.105  66.302  1.00  0.00    -0.289 C  
HETATM   18  N   UNL     1     -10.488   8.400  67.423  1.00  0.00    -0.282 NA 
ENDROOT
BRANCH  15  19
HETATM   19  C   UNL     1     -10.805   6.281  69.860  1.00  0.00    -0.335 C  
HETATM   20  O   UNL     1     -11.993   6.533  70.061  1.00  0.00    -0.358 OA 
HETATM   21  H   UNL     1      -8.903   5.866  70.544  1.00  0.00     0.000 HD 
HETATM   22  N   UNL     1      -9.841   6.130  70.844  1.00  0.00    -0.180 N  
BRANCH  22  23
HETATM   23  CA  UNL     1     -10.059   6.317  72.276  1.00  0.00    -0.177 C  
BRANCH  23  24
HETATM   24  C   UNL     1     -11.326   5.553  72.769  1.00  0.00    -0.303 C  
HETATM   25  H   UNL     1     -11.891   4.441  74.324  1.00  0.00     0.000 HD 
HETATM   26  O   UNL     1     -11.119   4.906  74.025  1.00  0.00    -0.287 OA 
ENDBRANCH  23  24
BRANCH  23  27
HETATM   27  C   UNL     1     -10.169   7.821  72.499  1.00  0.00    -0.320 C  
HETATM   28  C   UNL     1      -8.815   8.486  72.379  1.00  0.00    -0.268 C  
ENDBRANCH  23  27
ENDBRANCH  22  23
ENDBRANCH  15  19
TORSDOF 4
ENDMDL
MODEL       60
REMARK 921   NORMALIZED FREE ENERGY PREDICTED BY IDOCK:   -4.72 KCAL/MOL
REMARK 922        TOTAL FREE ENERGY PREDICTED BY IDOCK:   -5.60 KCAL/MOL
REMARK 923 INTER-LIGAND FREE ENERGY PREDICTED BY IDOCK:   -5.25 KCAL/MOL
REMARK 924 INTRA-LIGAND FREE ENERGY PREDICTED BY IDOCK:   -0.36 KCAL/MOL
REMARK 927      BINDING AFFINITY PREDICTED BY RF-SCORE:    0.00 PKD
ROOT
HETATM    1  C   UNL     1      -9.072   7.687  70.735  1.00  0.00    -0.153 C  
HETATM    2  C   UNL     1      -9.388   7.775  72.238  1.00  0.00    -0.212 C  
HETATM    3  C   UNL     1     -10.618   8.476  72.186  1.00  0.00    -0.419 A  
HETATM    4  C   UNL     1     -11.829   8.151  72.704  1.00  0.00    -0.326 A  
HETATM    5  N   UNL     1     -12.707   8.992  72.086  1.00  0.00    -0.387 NA 
HETATM    6  C   UNL     1     -14.120   8.881  72.369  1.00  0.00    -0.420 C  
HETATM    7  C   UNL     1     -12.042   9.785  71.140  1.00  0.00    -0.370 A  
HETATM    8  C   UNL     1     -10.698   9.408  71.126  1.00  0.00    -0.417 A  
HETATM    9  C   UNL     1      -9.720   9.668  70.026  1.00  0.00    -0.280 A  
HETATM   10  C   UNL     1     -10.149  10.723  69.216  1.00  0.00    -0.200 A  
HETATM   11  C   UNL     1      -8.692   8.456  69.470  1.00  0.00    -0.137 C  
HETATM   12  C   UNL     1      -7.815   7.375  69.056  1.00  0.00    -0.120 C  
HETATM   13  C   UNL     1     -11.475  11.239  69.335  1.00  0.00    -0.370 A  
HETATM   14  C   UNL     1     -12.464  10.730  70.218  1.00  0.00    -0.395 A  
HETATM   15  C   UNL     1      -7.722   5.862  69.869  1.00  0.00    -0.088 C  
HETATM   16  C   UNL     1      -9.187   5.414  70.099  1.00  0.00    -0.140 C  
HETATM   17  C   UNL     1     -11.036   6.979  69.356  1.00  0.00    -0.201 C  
HETATM   18  N   UNL     1      -9.920   6.620  70.216  1.00  0.00    -0.174 NA 
ENDROOT
BRANCH  15  19
HETATM   19  C   UNL     1      -6.861   6.075  71.153  1.00  0.00    -0.066 C  
HETATM   20  O   UNL     1      -5.870   6.806  71.159  1.00  0.00    -0.027 OA 
HETATM   21  H   UNL     1      -8.114   4.718  72.073  1.00  0.00     0.000 HD 
HETATM   22  N   UNL     1      -7.239   5.230  72.184  1.00  0.00    -0.084 N  
BRANCH  22  23
HETATM   23  CA  UNL     1      -6.486   5.011  73.416  1.00  0.00    -0.065 C  
BRANCH  23  24
HETATM   24  C   UNL     1      -5.479   3.829  73.272  1.00  0.00     0.000 C  
HETATM   25  H   UNL     1      -5.322   2.114  72.268  1.00  0.00     0.000 HD 
HETATM   26  O   UNL     1      -5.935   2.834  72.355  1.00  0.00    -0.008 OA 
ENDBRANCH  23  24
BRANCH  23  27
HETATM   27  C   UNL     1      -7.519   4.758  74.509  1.00  0.00    -0.085 C  
HETATM   28  C   UNL     1      -8.872   4.438  73.911  1.00  0.00    -0.103 C  
ENDBRANCH  23  27
ENDBRANCH  22  23
ENDBRANCH  15  19
TORSDOF 4
ENDMDL
MODEL       61
REMARK 921   NORMALIZED FREE ENERGY PREDICTED BY IDOCK:   -4.70 KCAL/MOL
REMARK 922        TOTAL FREE ENERGY PREDICTED BY IDOCK:   -5.58 KCAL/MOL
REMARK 923 INTER-LIGAND FREE ENERGY PREDICTED BY IDOCK:   -5.33 KCAL/MOL
REMARK 924 INTRA-LIGAND FREE ENERGY PREDICTED BY IDOCK:   -0.25 KCAL/MOL
REMARK 927      BINDING AFFINITY PREDICTED BY RF-SCORE:    0.00 PKD
ROOT
HETATM    1  C   UNL     1      -9.845  12.095  67.307  1.00  0.00    -0.196 C  
HETATM    2  C   UNL     1      -8.568  12.697  67.916  1.00  0.00    -0.181 C  
HETATM    3  C   UNL     1      -8.869  14.076  67.794  1.00  0.00    -0.187 A  
HETATM    4  C   UNL     1      -8.894  15.049  68.738  1.00  0.00    -0.192 A  
HETATM    5  N   UNL     1      -9.554  16.087  68.150  1.00  0.00    -0.208 NA 
HETATM    6  C   UNL     1      -9.810  17.292  68.907  1.00  0.00    -0.286 C  
HETATM    7  C   UNL     1      -9.994  15.724  66.869  1.00  0.00    -0.243 A  
HETATM    8  C   UNL     1      -9.636  14.393  66.649  1.00  0.00    -0.295 A  
HETATM    9  C   UNL     1     -10.236  13.474  65.635  1.00  0.00    -0.306 A  
HETATM   10  C   UNL     1     -10.866  14.196  64.617  1.00  0.00    -0.401 A  
HETATM   11  C   UNL     1     -10.678  11.900  66.040  1.00  0.00    -0.326 C  
HETATM   12  C   UNL     1     -11.012  10.547  66.447  1.00  0.00    -0.019 C  
HETATM   13  C   UNL     1     -11.090  15.599  64.753  1.00  0.00    -0.426 A  
HETATM   14  C   UNL     1     -10.750  16.365  65.900  1.00  0.00    -0.219 A  
HETATM   15  C   UNL     1     -10.605   9.888  67.983  1.00  0.00    -0.288 C  
HETATM   16  C   UNL     1     -11.008  10.962  69.024  1.00  0.00    -0.235 C  
HETATM   17  C   UNL     1     -11.942  13.155  68.165  1.00  0.00    -0.294 C  
HETATM   18  N   UNL     1     -10.864  12.196  68.345  1.00  0.00    -0.214 NA 
ENDROOT
BRANCH  15  19
HETATM   19  C   UNL     1      -9.092   9.507  67.941  1.00  0.00    -0.125 C  
HETATM   20  O   UNL     1      -8.545   9.127  66.906  1.00  0.00    -0.121 OA 
HETATM   21  H   UNL     1      -9.065   9.880  69.970  1.00  0.00     0.000 HD 
HETATM   22  N   UNL     1      -8.522   9.483  69.203  1.00  0.00    -0.124 N  
BRANCH  22  23
HETATM   23  CA  UNL     1      -7.208   8.936  69.527  1.00  0.00    -0.063 C  
BRANCH  23  24
HETATM   24  C   UNL     1      -7.281   7.408  69.831  1.00  0.00    -0.081 C  
HETATM   25  H   UNL     1      -7.084   5.679  68.858  1.00  0.00     0.000 HD 
HETATM   26  O   UNL     1      -7.038   6.609  68.672  1.00  0.00    -0.077 OA 
ENDBRANCH  23  24
BRANCH  23  27
HETATM   27  C   UNL     1      -6.692   9.736  70.717  1.00  0.00    -0.081 C  
HETATM   28  C   UNL     1      -5.956  10.976  70.257  1.00  0.00    -0.139 C  
ENDBRANCH  23  27
ENDBRANCH  22  23
ENDBRANCH  15  19
TORSDOF 4
ENDMDL
MODEL       62
REMARK 921   NORMALIZED FREE ENERGY PREDICTED BY IDOCK:   -4.70 KCAL/MOL
REMARK 922        TOTAL FREE ENERGY PREDICTED BY IDOCK:   -5.57 KCAL/MOL
REMARK 923 INTER-LIGAND FREE ENERGY PREDICTED BY IDOCK:   -6.23 KCAL/MOL
REMARK 924 INTRA-LIGAND FREE ENERGY PREDICTED BY IDOCK:    0.66 KCAL/MOL
REMARK 927      BINDING AFFINITY PREDICTED BY RF-SCORE:    0.00 PKD
ROOT
HETATM    1  C   UNL     1     -10.090  10.960  68.385  1.00  0.00    -0.183 C  
HETATM    2  C   UNL     1      -8.624  11.221  68.768  1.00  0.00    -0.109 C  
HETATM    3  C   UNL     1      -8.376  10.079  69.570  1.00  0.00    -0.180 A  
HETATM    4  C   UNL     1      -7.408   9.134  69.464  1.00  0.00    -0.068 A  
HETATM    5  N   UNL     1      -7.830   8.115  70.266  1.00  0.00    -0.091 NA 
HETATM    6  C   UNL     1      -7.048   6.902  70.349  1.00  0.00    -0.067 C  
HETATM    7  C   UNL     1      -9.089   8.409  70.809  1.00  0.00    -0.156 A  
HETATM    8  C   UNL     1      -9.502   9.642  70.302  1.00  0.00    -0.300 A  
HETATM    9  C   UNL     1     -10.906  10.154  70.265  1.00  0.00    -0.370 A  
HETATM   10  C   UNL     1     -11.706   9.488  71.198  1.00  0.00    -0.438 A  
HETATM   11  C   UNL     1     -11.535  10.870  68.877  1.00  0.00    -0.369 C  
HETATM   12  C   UNL     1     -12.006  11.502  67.657  1.00  0.00    -0.054 C  
HETATM   13  C   UNL     1     -11.230   8.314  71.857  1.00  0.00    -0.365 A  
HETATM   14  C   UNL     1      -9.971   7.705  71.614  1.00  0.00    -0.207 A  
HETATM   15  C   UNL     1     -10.993  11.844  66.310  1.00  0.00    -0.345 C  
HETATM   16  C   UNL     1     -10.174  10.554  66.059  1.00  0.00    -0.245 C  
HETATM   17  C   UNL     1     -10.511   8.607  67.645  1.00  0.00    -0.244 C  
HETATM   18  N   UNL     1     -10.049   9.950  67.334  1.00  0.00    -0.192 NA 
ENDROOT
BRANCH  15  19
HETATM   19  C   UNL     1     -10.169  13.122  66.659  1.00  0.00    -0.259 C  
HETATM   20  O   UNL     1      -8.939  13.106  66.728  1.00  0.00    -0.226 OA 
HETATM   21  H   UNL     1     -11.981  14.084  66.878  1.00  0.00     0.000 HD 
HETATM   22  N   UNL     1     -10.978  14.180  67.039  1.00  0.00    -0.295 N  
BRANCH  22  23
HETATM   23  CA  UNL     1     -10.514  15.421  67.652  1.00  0.00    -0.272 C  
BRANCH  23  24
HETATM   24  C   UNL     1      -9.389  16.094  66.807  1.00  0.00    -0.234 C  
HETATM   25  H   UNL     1      -9.060  16.634  64.916  1.00  0.00     0.000 HD 
HETATM   26  O   UNL     1      -9.746  16.225  65.430  1.00  0.00    -0.473 OA 
ENDBRANCH  23  24
BRANCH  23  27
HETATM   27  C   UNL     1     -10.041  15.056  69.055  1.00  0.00    -0.241 C  
HETATM   28  C   UNL     1     -11.184  14.516  69.887  1.00  0.00    -0.247 C  
ENDBRANCH  23  27
ENDBRANCH  22  23
ENDBRANCH  15  19
TORSDOF 4
ENDMDL
MODEL       63
REMARK 921   NORMALIZED FREE ENERGY PREDICTED BY IDOCK:   -4.69 KCAL/MOL
REMARK 922        TOTAL FREE ENERGY PREDICTED BY IDOCK:   -5.56 KCAL/MOL
REMARK 923 INTER-LIGAND FREE ENERGY PREDICTED BY IDOCK:   -5.71 KCAL/MOL
REMARK 924 INTRA-LIGAND FREE ENERGY PREDICTED BY IDOCK:    0.14 KCAL/MOL
REMARK 927      BINDING AFFINITY PREDICTED BY RF-SCORE:    0.00 PKD
ROOT
HETATM    1  C   UNL     1      -9.626   9.368  68.447  1.00  0.00    -0.146 C  
HETATM    2  C   UNL     1     -10.052   8.588  67.192  1.00  0.00    -0.331 C  
HETATM    3  C   UNL     1     -10.417   9.666  66.349  1.00  0.00    -0.181 A  
HETATM    4  C   UNL     1      -9.984   9.984  65.103  1.00  0.00    -0.280 A  
HETATM    5  N   UNL     1     -10.402  11.267  64.907  1.00  0.00    -0.286 NA 
HETATM    6  C   UNL     1     -10.059  11.950  63.680  1.00  0.00    -0.426 C  
HETATM    7  C   UNL     1     -11.032  11.758  66.060  1.00  0.00    -0.306 A  
HETATM    8  C   UNL     1     -10.977  10.765  67.039  1.00  0.00    -0.292 A  
HETATM    9  C   UNL     1     -11.137  10.969  68.511  1.00  0.00    -0.297 A  
HETATM   10  C   UNL     1     -11.803  12.168  68.780  1.00  0.00    -0.356 A  
HETATM   11  C   UNL     1     -10.082  10.250  69.609  1.00  0.00    -0.257 C  
HETATM   12  C   UNL     1      -9.154   9.580  70.503  1.00  0.00    -0.276 C  
HETATM   13  C   UNL     1     -12.020  13.127  67.745  1.00  0.00    -0.352 A  
HETATM   14  C   UNL     1     -11.566  12.989  66.407  1.00  0.00    -0.413 A  
HETATM   15  C   UNL     1      -7.985   8.433  69.975  1.00  0.00    -0.109 C  
HETATM   16  C   UNL     1      -7.301   9.066  68.739  1.00  0.00    -0.076 C  
HETATM   17  C   UNL     1      -8.143  11.318  67.939  1.00  0.00    -0.121 C  
HETATM   18  N   UNL     1      -8.296   9.888  68.156  1.00  0.00    -0.109 NA 
ENDROOT
BRANCH  15  19
HETATM   19  C   UNL     1      -8.732   7.085  69.731  1.00  0.00    -0.142 C  
HETATM   20  O   UNL     1      -9.705   6.747  70.407  1.00  0.00    -0.175 OA 
HETATM   21  H   UNL     1      -7.314   6.700  68.283  1.00  0.00     0.000 HD 
HETATM   22  N   UNL     1      -8.073   6.279  68.818  1.00  0.00    -0.108 N  
BRANCH  22  23
HETATM   23  CA  UNL     1      -8.375   4.874  68.558  1.00  0.00    -0.083 C  
BRANCH  23  24
HETATM   24  C   UNL     1      -9.857   4.678  68.114  1.00  0.00    -0.107 C  
HETATM   25  H   UNL     1     -10.955   4.836  66.457  1.00  0.00     0.000 HD 
HETATM   26  O   UNL     1     -10.052   4.955  66.727  1.00  0.00    -0.199 OA 
ENDBRANCH  23  24
BRANCH  23  27
HETATM   27  C   UNL     1      -8.055   4.122  69.846  1.00  0.00    -0.059 C  
HETATM   28  C   UNL     1      -9.163   3.151  70.194  1.00  0.00    -0.219 C  
ENDBRANCH  23  27
ENDBRANCH  22  23
ENDBRANCH  15  19
TORSDOF 4
ENDMDL
MODEL       64
REMARK 921   NORMALIZED FREE ENERGY PREDICTED BY IDOCK:   -4.66 KCAL/MOL
REMARK 922        TOTAL FREE ENERGY PREDICTED BY IDOCK:   -5.53 KCAL/MOL
REMARK 923 INTER-LIGAND FREE ENERGY PREDICTED BY IDOCK:   -5.32 KCAL/MOL
REMARK 924 INTRA-LIGAND FREE ENERGY PREDICTED BY IDOCK:   -0.21 KCAL/MOL
REMARK 927      BINDING AFFINITY PREDICTED BY RF-SCORE:    0.00 PKD
ROOT
HETATM    1  C   UNL     1      -9.691  10.683  67.213  1.00  0.00    -0.168 C  
HETATM    2  C   UNL     1     -10.231  11.311  65.917  1.00  0.00    -0.298 C  
HETATM    3  C   UNL     1     -10.773  12.512  66.438  1.00  0.00    -0.275 A  
HETATM    4  C   UNL     1     -10.530  13.800  66.089  1.00  0.00    -0.297 A  
HETATM    5  N   UNL     1     -11.051  14.540  67.110  1.00  0.00    -0.311 NA 
HETATM    6  C   UNL     1     -10.919  15.979  67.089  1.00  0.00    -0.183 C  
HETATM    7  C   UNL     1     -11.551  13.701  68.117  1.00  0.00    -0.332 A  
HETATM    8  C   UNL     1     -11.303  12.379  67.741  1.00  0.00    -0.356 A  
HETATM    9  C   UNL     1     -11.277  11.194  68.652  1.00  0.00    -0.314 A  
HETATM   10  C   UNL     1     -11.976  11.457  69.834  1.00  0.00    -0.434 A  
HETATM   11  C   UNL     1     -10.042  10.054  68.561  1.00  0.00    -0.187 C  
HETATM   12  C   UNL     1      -8.963   9.093  68.413  1.00  0.00    -0.133 C  
HETATM   13  C   UNL     1     -12.389  12.785  70.154  1.00  0.00    -0.235 A  
HETATM   14  C   UNL     1     -12.110  13.931  69.363  1.00  0.00    -0.384 A  
HETATM   15  C   UNL     1      -7.805   9.153  67.142  1.00  0.00    -0.102 C  
HETATM   16  C   UNL     1      -7.333  10.626  67.068  1.00  0.00    -0.102 C  
HETATM   17  C   UNL     1      -8.415  12.298  68.634  1.00  0.00     0.007 C  
HETATM   18  N   UNL     1      -8.447  11.385  67.503  1.00  0.00    -0.133 NA 
ENDROOT
BRANCH  15  19
HETATM   19  C   UNL     1      -8.491   8.587  65.859  1.00  0.00    -0.152 C  
HETATM   20  O   UNL     1      -9.364   7.720  65.916  1.00  0.00    -0.095 OA 
HETATM   21  H   UNL     1      -7.215   9.802  64.786  1.00  0.00     0.000 HD 
HETATM   22  N   UNL     1      -7.886   9.039  64.698  1.00  0.00    -0.115 N  
BRANCH  22  23
HETATM   23  CA  UNL     1      -8.129   8.513  63.358  1.00  0.00    -0.160 C  
BRANCH  23  24
HETATM   24  C   UNL     1      -7.274   7.240  63.077  1.00  0.00    -0.078 C  
HETATM   25  H   UNL     1      -5.351   6.733  62.928  1.00  0.00     0.000 HD 
HETATM   26  O   UNL     1      -5.872   7.509  63.099  1.00  0.00    -0.048 OA 
ENDBRANCH  23  24
BRANCH  23  27
HETATM   27  C   UNL     1      -7.811   9.646  62.389  1.00  0.00    -0.126 C  
HETATM   28  C   UNL     1      -8.663  10.863  62.682  1.00  0.00    -0.308 C  
ENDBRANCH  23  27
ENDBRANCH  22  23
ENDBRANCH  15  19
TORSDOF 4
ENDMDL
MODEL       65
REMARK 921   NORMALIZED FREE ENERGY PREDICTED BY IDOCK:   -4.66 KCAL/MOL
REMARK 922        TOTAL FREE ENERGY PREDICTED BY IDOCK:   -5.53 KCAL/MOL
REMARK 923 INTER-LIGAND FREE ENERGY PREDICTED BY IDOCK:   -5.96 KCAL/MOL
REMARK 924 INTRA-LIGAND FREE ENERGY PREDICTED BY IDOCK:    0.43 KCAL/MOL
REMARK 927      BINDING AFFINITY PREDICTED BY RF-SCORE:    0.00 PKD
ROOT
HETATM    1  C   UNL     1      -9.378   9.304  67.465  1.00  0.00    -0.127 C  
HETATM    2  C   UNL     1     -10.272   9.687  66.274  1.00  0.00    -0.286 C  
HETATM    3  C   UNL     1     -10.988  10.767  66.846  1.00  0.00    -0.255 A  
HETATM    4  C   UNL     1     -11.129  12.045  66.414  1.00  0.00    -0.318 A  
HETATM    5  N   UNL     1     -11.626  12.722  67.488  1.00  0.00    -0.335 NA 
HETATM    6  C   UNL     1     -11.852  14.147  67.393  1.00  0.00    -0.413 C  
HETATM    7  C   UNL     1     -11.725  11.871  68.599  1.00  0.00    -0.323 A  
HETATM    8  C   UNL     1     -11.235  10.617  68.229  1.00  0.00    -0.362 A  
HETATM    9  C   UNL     1     -10.765   9.545  69.159  1.00  0.00    -0.228 A  
HETATM   10  C   UNL     1     -11.289   9.731  70.441  1.00  0.00    -0.362 A  
HETATM   11  C   UNL     1      -9.326   8.718  68.876  1.00  0.00    -0.145 C  
HETATM   12  C   UNL     1      -8.090   8.024  68.560  1.00  0.00    -0.125 C  
HETATM   13  C   UNL     1     -11.949  10.949  70.788  1.00  0.00    -0.449 A  
HETATM   14  C   UNL     1     -12.097  12.063  69.920  1.00  0.00    -0.334 A  
HETATM   15  C   UNL     1      -7.221   8.250  67.093  1.00  0.00    -0.084 C  
HETATM   16  C   UNL     1      -7.139   9.782  66.881  1.00  0.00    -0.089 C  
HETATM   17  C   UNL     1      -8.303  11.276  68.565  1.00  0.00    -0.155 C  
HETATM   18  N   UNL     1      -8.310  10.295  67.492  1.00  0.00    -0.115 NA 
ENDROOT
BRANCH  15  19
HETATM   19  C   UNL     1      -7.963   7.443  65.983  1.00  0.00    -0.115 C  
HETATM   20  O   UNL     1      -8.282   7.954  64.909  1.00  0.00    -0.147 OA 
HETATM   21  H   UNL     1      -7.973   5.862  67.308  1.00  0.00     0.000 HD 
HETATM   22  N   UNL     1      -8.354   6.188  66.420  1.00  0.00    -0.116 N  
BRANCH  22  23
HETATM   23  CA  UNL     1      -9.268   5.294  65.714  1.00  0.00    -0.151 C  
BRANCH  23  24
HETATM   24  C   UNL     1     -10.625   5.147  66.470  1.00  0.00    -0.260 C  
HETATM   25  H   UNL     1     -11.884   6.285  67.515  1.00  0.00     0.000 HD 
HETATM   26  O   UNL     1     -11.058   6.375  67.055  1.00  0.00    -0.384 OA 
ENDBRANCH  23  24
BRANCH  23  27
HETATM   27  C   UNL     1      -8.540   3.962  65.573  1.00  0.00    -0.111 C  
HETATM   28  C   UNL     1      -8.961   2.997  66.660  1.00  0.00    -0.169 C  
ENDBRANCH  23  27
ENDBRANCH  22  23
ENDBRANCH  15  19
TORSDOF 4
ENDMDL
MODEL       66
REMARK 921   NORMALIZED FREE ENERGY PREDICTED BY IDOCK:   -4.63 KCAL/MOL
REMARK 922        TOTAL FREE ENERGY PREDICTED BY IDOCK:   -5.49 KCAL/MOL
REMARK 923 INTER-LIGAND FREE ENERGY PREDICTED BY IDOCK:   -5.21 KCAL/MOL
REMARK 924 INTRA-LIGAND FREE ENERGY PREDICTED BY IDOCK:   -0.28 KCAL/MOL
REMARK 927      BINDING AFFINITY PREDICTED BY RF-SCORE:    0.00 PKD
ROOT
HETATM    1  C   UNL     1      -9.703   6.592  69.927  1.00  0.00    -0.164 C  
HETATM    2  C   UNL     1      -9.762   8.101  70.215  1.00  0.00    -0.175 C  
HETATM    3  C   UNL     1      -9.498   8.093  71.607  1.00  0.00    -0.233 A  
HETATM    4  C   UNL     1      -8.542   8.743  72.316  1.00  0.00     0.013 A  
HETATM    5  N   UNL     1      -8.536   8.129  73.534  1.00  0.00    -0.241 NA 
HETATM    6  C   UNL     1      -7.583   8.546  74.538  1.00  0.00    -0.171 C  
HETATM    7  C   UNL     1      -9.441   7.058  73.546  1.00  0.00    -0.192 A  
HETATM    8  C   UNL     1     -10.014   6.961  72.278  1.00  0.00    -0.176 A  
HETATM    9  C   UNL     1     -10.696   5.759  71.708  1.00  0.00    -0.305 A  
HETATM   10  C   UNL     1     -11.115   4.894  72.723  1.00  0.00    -0.283 A  
HETATM   11  C   UNL     1     -10.366   5.231  70.144  1.00  0.00    -0.354 C  
HETATM   12  C   UNL     1     -10.057   4.845  68.778  1.00  0.00    -0.169 C  
HETATM   13  C   UNL     1     -10.671   5.081  74.067  1.00  0.00    -0.341 A  
HETATM   14  C   UNL     1      -9.766   6.092  74.485  1.00  0.00    -0.287 A  
HETATM   15  C   UNL     1      -9.077   5.785  67.723  1.00  0.00    -0.106 C  
HETATM   16  C   UNL     1      -7.828   6.184  68.548  1.00  0.00    -0.104 C  
HETATM   17  C   UNL     1      -7.732   5.464  70.976  1.00  0.00    -0.098 C  
HETATM   18  N   UNL     1      -8.286   6.252  69.887  1.00  0.00    -0.127 NA 
ENDROOT
BRANCH  15  19
HETATM   19  C   UNL     1      -9.955   6.962  67.195  1.00  0.00    -0.183 C  
HETATM   20  O   UNL     1     -11.165   6.838  67.007  1.00  0.00    -0.393 OA 
HETATM   21  H   UNL     1      -8.209   8.056  67.083  1.00  0.00     0.000 HD 
HETATM   22  N   UNL     1      -9.194   8.055  66.816  1.00  0.00    -0.155 N  
BRANCH  22  23
HETATM   23  CA  UNL     1      -9.685   9.208  66.065  1.00  0.00    -0.287 C  
BRANCH  23  24
HETATM   24  C   UNL     1      -8.559   9.848  65.196  1.00  0.00    -0.153 C  
HETATM   25  H   UNL     1      -6.959   9.268  64.158  1.00  0.00     0.000 HD 
HETATM   26  O   UNL     1      -7.645   8.877  64.687  1.00  0.00    -0.101 OA 
ENDBRANCH  23  24
BRANCH  23  27
HETATM   27  C   UNL     1     -10.244  10.183  67.095  1.00  0.00    -0.278 C  
HETATM   28  C   UNL     1      -9.132  10.979  67.745  1.00  0.00    -0.147 C  
ENDBRANCH  23  27
ENDBRANCH  22  23
ENDBRANCH  15  19
TORSDOF 4
ENDMDL
MODEL       67
REMARK 921   NORMALIZED FREE ENERGY PREDICTED BY IDOCK:   -4.60 KCAL/MOL
REMARK 922        TOTAL FREE ENERGY PREDICTED BY IDOCK:   -5.45 KCAL/MOL
REMARK 923 INTER-LIGAND FREE ENERGY PREDICTED BY IDOCK:   -5.76 KCAL/MOL
REMARK 924 INTRA-LIGAND FREE ENERGY PREDICTED BY IDOCK:    0.31 KCAL/MOL
REMARK 927      BINDING AFFINITY PREDICTED BY RF-SCORE:    0.00 PKD
ROOT
HETATM    1  C   UNL     1      -9.546  11.134  67.010  1.00  0.00    -0.181 C  
HETATM    2  C   UNL     1      -8.391  12.146  67.087  1.00  0.00    -0.183 C  
HETATM    3  C   UNL     1      -9.053  13.306  66.614  1.00  0.00    -0.181 A  
HETATM    4  C   UNL     1      -9.184  14.529  67.186  1.00  0.00    -0.223 A  
HETATM    5  N   UNL     1     -10.172  15.141  66.473  1.00  0.00    -0.268 NA 
HETATM    6  C   UNL     1     -10.612  16.465  66.854  1.00  0.00    -0.252 C  
HETATM    7  C   UNL     1     -10.694  14.266  65.508  1.00  0.00    -0.331 A  
HETATM    8  C   UNL     1     -10.041  13.039  65.639  1.00  0.00    -0.276 A  
HETATM    9  C   UNL     1     -10.531  11.722  65.130  1.00  0.00    -0.330 A  
HETATM   10  C   UNL     1     -11.474  11.898  64.114  1.00  0.00    -0.449 A  
HETATM   11  C   UNL     1     -10.484  10.344  66.097  1.00  0.00    -0.224 C  
HETATM   12  C   UNL     1     -10.391   9.189  66.973  1.00  0.00    -0.333 C  
HETATM   13  C   UNL     1     -12.029  13.187  63.853  1.00  0.00    -0.550 A  
HETATM   14  C   UNL     1     -11.728  14.361  64.591  1.00  0.00    -0.438 A  
HETATM   15  C   UNL     1      -9.597   9.214  68.499  1.00  0.00    -0.156 C  
HETATM   16  C   UNL     1     -10.100  10.492  69.216  1.00  0.00    -0.224 C  
HETATM   17  C   UNL     1     -11.689  12.011  67.957  1.00  0.00    -0.331 C  
HETATM   18  N   UNL     1     -10.386  11.404  68.171  1.00  0.00    -0.182 NA 
ENDROOT
BRANCH  15  19
HETATM   19  C   UNL     1      -8.062   9.139  68.228  1.00  0.00    -0.104 C  
HETATM   20  O   UNL     1      -7.248   9.746  68.924  1.00  0.00    -0.069 OA 
HETATM   21  H   UNL     1      -8.530   7.966  66.597  1.00  0.00     0.000 HD 
HETATM   22  N   UNL     1      -7.771   8.476  67.047  1.00  0.00    -0.092 N  
BRANCH  22  23
HETATM   23  CA  UNL     1      -6.465   8.448  66.394  1.00  0.00    -0.058 C  
BRANCH  23  24
HETATM   24  C   UNL     1      -6.201   9.754  65.583  1.00  0.00    -0.072 C  
HETATM   25  H   UNL     1      -6.478  10.448  63.735  1.00  0.00     0.000 HD 
HETATM   26  O   UNL     1      -6.640   9.653  64.228  1.00  0.00    -0.099 OA 
ENDBRANCH  23  24
BRANCH  23  27
HETATM   27  C   UNL     1      -6.456   7.208  65.508  1.00  0.00    -0.047 C  
HETATM   28  C   UNL     1      -7.848   6.631  65.371  1.00  0.00    -0.111 C  
ENDBRANCH  23  27
ENDBRANCH  22  23
ENDBRANCH  15  19
TORSDOF 4
ENDMDL
MODEL       68
REMARK 921   NORMALIZED FREE ENERGY PREDICTED BY IDOCK:   -4.58 KCAL/MOL
REMARK 922        TOTAL FREE ENERGY PREDICTED BY IDOCK:   -5.43 KCAL/MOL
REMARK 923 INTER-LIGAND FREE ENERGY PREDICTED BY IDOCK:   -5.28 KCAL/MOL
REMARK 924 INTRA-LIGAND FREE ENERGY PREDICTED BY IDOCK:   -0.15 KCAL/MOL
REMARK 927      BINDING AFFINITY PREDICTED BY RF-SCORE:    0.00 PKD
ROOT
HETATM    1  C   UNL     1      -9.176   7.234  68.303  1.00  0.00    -0.133 C  
HETATM    2  C   UNL     1     -10.643   7.509  68.673  1.00  0.00    -0.171 C  
HETATM    3  C   UNL     1     -10.817   6.550  69.701  1.00  0.00    -0.359 A  
HETATM    4  C   UNL     1     -11.234   6.712  70.982  1.00  0.00    -0.300 A  
HETATM    5  N   UNL     1     -10.902   5.545  71.605  1.00  0.00    -0.233 NA 
HETATM    6  C   UNL     1     -11.161   5.392  73.019  1.00  0.00    -0.313 C  
HETATM    7  C   UNL     1     -10.221   4.696  70.721  1.00  0.00    -0.144 A  
HETATM    8  C   UNL     1     -10.077   5.362  69.503  1.00  0.00    -0.310 A  
HETATM    9  C   UNL     1      -9.087   5.037  68.432  1.00  0.00    -0.137 A  
HETATM   10  C   UNL     1      -8.628   3.723  68.558  1.00  0.00    -0.120 A  
HETATM   11  C   UNL     1      -8.186   6.247  67.684  1.00  0.00    -0.117 C  
HETATM   12  C   UNL     1      -7.461   7.340  67.060  1.00  0.00    -0.105 C  
HETATM   13  C   UNL     1      -8.913   2.963  69.732  1.00  0.00    -0.169 A  
HETATM   14  C   UNL     1      -9.622   3.453  70.860  1.00  0.00    -0.239 A  
HETATM   15  C   UNL     1      -7.794   8.999  67.366  1.00  0.00    -0.100 C  
HETATM   16  C   UNL     1      -7.903   9.131  68.905  1.00  0.00    -0.094 C  
HETATM   17  C   UNL     1      -7.679   7.025  70.296  1.00  0.00    -0.099 C  
HETATM   18  N   UNL     1      -8.379   7.872  69.344  1.00  0.00    -0.130 NA 
ENDROOT
BRANCH  15  19
HETATM   19  C   UNL     1      -9.071   9.377  66.553  1.00  0.00    -0.153 C  
HETATM   20  O   UNL     1      -9.336   8.847  65.474  1.00  0.00    -0.215 OA 
HETATM   21  H   UNL     1      -9.451  10.770  68.026  1.00  0.00     0.000 HD 
HETATM   22  N   UNL     1      -9.736  10.463  67.096  1.00  0.00    -0.168 N  
BRANCH  22  23
HETATM   23  CA  UNL     1     -10.813  11.206  66.447  1.00  0.00    -0.225 C  
BRANCH  23  24
HETATM   24  C   UNL     1     -10.277  12.090  65.280  1.00  0.00    -0.271 C  
HETATM   25  H   UNL     1     -10.511  12.264  63.307  1.00  0.00     0.000 HD 
HETATM   26  O   UNL     1     -10.838  11.725  64.018  1.00  0.00    -0.322 OA 
ENDBRANCH  23  24
BRANCH  23  27
HETATM   27  C   UNL     1     -11.480  12.035  67.539  1.00  0.00    -0.403 C  
HETATM   28  C   UNL     1     -10.454  12.569  68.516  1.00  0.00    -0.246 C  
ENDBRANCH  23  27
ENDBRANCH  22  23
ENDBRANCH  15  19
TORSDOF 4
ENDMDL
MODEL       69
REMARK 921   NORMALIZED FREE ENERGY PREDICTED BY IDOCK:   -4.55 KCAL/MOL
REMARK 922        TOTAL FREE ENERGY PREDICTED BY IDOCK:   -5.39 KCAL/MOL
REMARK 923 INTER-LIGAND FREE ENERGY PREDICTED BY IDOCK:   -5.17 KCAL/MOL
REMARK 924 INTRA-LIGAND FREE ENERGY PREDICTED BY IDOCK:   -0.22 KCAL/MOL
REMARK 927      BINDING AFFINITY PREDICTED BY RF-SCORE:    0.00 PKD
ROOT
HETATM    1  C   UNL     1      -9.414   8.159  68.645  1.00  0.00    -0.147 C  
HETATM    2  C   UNL     1      -8.510   9.323  69.081  1.00  0.00    -0.133 C  
HETATM    3  C   UNL     1      -8.511   9.120  70.483  1.00  0.00    -0.236 A  
HETATM    4  C   UNL     1      -7.473   8.962  71.342  1.00  0.00    -0.079 A  
HETATM    5  N   UNL     1      -8.039   8.478  72.485  1.00  0.00    -0.339 NA 
HETATM    6  C   UNL     1      -7.196   8.142  73.611  1.00  0.00    -0.141 C  
HETATM    7  C   UNL     1      -9.414   8.275  72.302  1.00  0.00    -0.271 A  
HETATM    8  C   UNL     1      -9.729   8.603  70.982  1.00  0.00    -0.266 A  
HETATM    9  C   UNL     1     -10.943   8.163  70.230  1.00  0.00    -0.240 A  
HETATM   10  C   UNL     1     -11.961   7.777  71.107  1.00  0.00    -0.312 A  
HETATM   11  C   UNL     1     -10.827   7.575  68.657  1.00  0.00    -0.044 C  
HETATM   12  C   UNL     1     -10.661   7.103  67.293  1.00  0.00    -0.399 C  
HETATM   13  C   UNL     1     -11.694   7.600  72.498  1.00  0.00    -0.352 A  
HETATM   14  C   UNL     1     -10.418   7.752  73.101  1.00  0.00    -0.413 A  
HETATM   15  C   UNL     1      -9.171   7.176  66.437  1.00  0.00    -0.196 C  
HETATM   16  C   UNL     1      -8.096   6.634  67.411  1.00  0.00    -0.121 C  
HETATM   17  C   UNL     1      -8.831   5.991  69.750  1.00  0.00    -0.134 C  
HETATM   18  N   UNL     1      -8.577   6.966  68.701  1.00  0.00    -0.124 NA 
ENDROOT
BRANCH  15  19
HETATM   19  C   UNL     1      -8.981   8.648  65.955  1.00  0.00    -0.184 C  
HETATM   20  O   UNL     1      -9.938   9.371  65.679  1.00  0.00    -0.304 OA 
HETATM   21  H   UNL     1      -6.952   8.289  66.047  1.00  0.00     0.000 HD 
HETATM   22  N   UNL     1      -7.651   8.954  65.719  1.00  0.00    -0.089 N  
BRANCH  22  23
HETATM   23  CA  UNL     1      -7.168  10.153  65.038  1.00  0.00    -0.139 C  
BRANCH  23  24
HETATM   24  C   UNL     1      -6.788   9.856  63.555  1.00  0.00    -0.123 C  
HETATM   25  H   UNL     1      -7.608   9.024  61.939  1.00  0.00     0.000 HD 
HETATM   26  O   UNL     1      -7.840   9.204  62.842  1.00  0.00    -0.120 OA 
ENDBRANCH  23  24
BRANCH  23  27
HETATM   27  C   UNL     1      -5.979  10.656  65.848  1.00  0.00    -0.133 C  
HETATM   28  C   UNL     1      -6.426  11.630  66.917  1.00  0.00    -0.134 C  
ENDBRANCH  23  27
ENDBRANCH  22  23
ENDBRANCH  15  19
TORSDOF 4
ENDMDL
MODEL       70
REMARK 921   NORMALIZED FREE ENERGY PREDICTED BY IDOCK:   -4.45 KCAL/MOL
REMARK 922        TOTAL FREE ENERGY PREDICTED BY IDOCK:   -5.27 KCAL/MOL
REMARK 923 INTER-LIGAND FREE ENERGY PREDICTED BY IDOCK:   -5.54 KCAL/MOL
REMARK 924 INTRA-LIGAND FREE ENERGY PREDICTED BY IDOCK:    0.27 KCAL/MOL
REMARK 927      BINDING AFFINITY PREDICTED BY RF-SCORE:    0.00 PKD
ROOT
HETATM    1  C   UNL     1      -9.573  10.823  67.782  1.00  0.00    -0.162 C  
HETATM    2  C   UNL     1      -8.473  11.871  68.020  1.00  0.00    -0.162 C  
HETATM    3  C   UNL     1      -8.954  12.919  67.196  1.00  0.00    -0.219 A  
HETATM    4  C   UNL     1      -9.225  14.212  67.502  1.00  0.00    -0.192 A  
HETATM    5  N   UNL     1      -9.958  14.671  66.447  1.00  0.00    -0.271 NA 
HETATM    6  C   UNL     1     -10.468  16.024  66.467  1.00  0.00    -0.302 C  
HETATM    7  C   UNL     1     -10.194  13.638  65.528  1.00  0.00    -0.302 A  
HETATM    8  C   UNL     1      -9.624  12.469  66.036  1.00  0.00    -0.205 A  
HETATM    9  C   UNL     1      -9.968  11.072  65.629  1.00  0.00    -0.299 A  
HETATM   10  C   UNL     1     -10.576  11.054  64.371  1.00  0.00    -0.395 A  
HETATM   11  C   UNL     1     -10.221   9.868  66.779  1.00  0.00    -0.301 C  
HETATM   12  C   UNL     1     -10.400   8.871  67.819  1.00  0.00    -0.301 C  
HETATM   13  C   UNL     1     -11.014  12.266  63.758  1.00  0.00    -0.495 A  
HETATM   14  C   UNL     1     -10.919  13.552  64.351  1.00  0.00    -0.399 A  
HETATM   15  C   UNL     1     -10.078   9.165  69.483  1.00  0.00    -0.202 C  
HETATM   16  C   UNL     1     -10.746  10.523  69.811  1.00  0.00    -0.264 C  
HETATM   17  C   UNL     1     -11.884  11.771  67.921  1.00  0.00    -0.219 C  
HETATM   18  N   UNL     1     -10.706  11.248  68.595  1.00  0.00    -0.194 NA 
ENDROOT
BRANCH  15  19
HETATM   19  C   UNL     1      -8.531   9.096  69.678  1.00  0.00    -0.133 C  
HETATM   20  O   UNL     1      -7.924   9.919  70.364  1.00  0.00    -0.190 OA 
HETATM   21  H   UNL     1      -8.562   7.481  68.394  1.00  0.00     0.000 HD 
HETATM   22  N   UNL     1      -7.943   8.139  68.868  1.00  0.00    -0.113 N  
BRANCH  22  23
HETATM   23  CA  UNL     1      -6.508   7.995  68.635  1.00  0.00    -0.053 C  
BRANCH  23  24
HETATM   24  C   UNL     1      -5.714   7.921  69.975  1.00  0.00    -0.023 C  
HETATM   25  H   UNL     1      -5.661   6.798  71.622  1.00  0.00     0.000 HD 
HETATM   26  O   UNL     1      -6.145   6.842  70.806  1.00  0.00    -0.031 OA 
ENDBRANCH  23  24
BRANCH  23  27
HETATM   27  C   UNL     1      -6.091   9.188  67.782  1.00  0.00    -0.050 C  
HETATM   28  C   UNL     1      -6.600   9.044  66.365  1.00  0.00    -0.067 C  
ENDBRANCH  23  27
ENDBRANCH  22  23
ENDBRANCH  15  19
TORSDOF 4
ENDMDL
MODEL       71
REMARK 921   NORMALIZED FREE ENERGY PREDICTED BY IDOCK:   -4.42 KCAL/MOL
REMARK 922        TOTAL FREE ENERGY PREDICTED BY IDOCK:   -5.23 KCAL/MOL
REMARK 923 INTER-LIGAND FREE ENERGY PREDICTED BY IDOCK:   -5.81 KCAL/MOL
REMARK 924 INTRA-LIGAND FREE ENERGY PREDICTED BY IDOCK:    0.57 KCAL/MOL
REMARK 927      BINDING AFFINITY PREDICTED BY RF-SCORE:    0.00 PKD
ROOT
HETATM    1  C   UNL     1      -9.856   6.614  68.806  1.00  0.00    -0.138 C  
HETATM    2  C   UNL     1     -11.026   6.437  67.824  1.00  0.00    -0.425 C  
HETATM    3  C   UNL     1     -10.324   5.937  66.699  1.00  0.00    -0.283 A  
HETATM    4  C   UNL     1     -10.519   4.800  65.986  1.00  0.00    -0.292 A  
HETATM    5  N   UNL     1      -9.383   4.656  65.246  1.00  0.00    -0.155 NA 
HETATM    6  C   UNL     1      -9.229   3.498  64.393  1.00  0.00    -0.134 C  
HETATM    7  C   UNL     1      -8.464   5.668  65.558  1.00  0.00    -0.146 A  
HETATM    8  C   UNL     1      -9.019   6.462  66.563  1.00  0.00    -0.153 A  
HETATM    9  C   UNL     1      -8.270   7.374  67.480  1.00  0.00    -0.113 A  
HETATM   10  C   UNL     1      -7.025   7.711  66.943  1.00  0.00    -0.079 A  
HETATM   11  C   UNL     1      -8.580   7.389  69.135  1.00  0.00    -0.136 C  
HETATM   12  C   UNL     1      -8.915   7.373  70.548  1.00  0.00    -0.156 C  
HETATM   13  C   UNL     1      -6.514   7.019  65.803  1.00  0.00    -0.051 A  
HETATM   14  C   UNL     1      -7.167   5.939  65.153  1.00  0.00    -0.066 A  
HETATM   15  C   UNL     1     -10.235   6.485  71.203  1.00  0.00    -0.219 C  
HETATM   16  C   UNL     1     -10.148   5.072  70.573  1.00  0.00    -0.253 C  
HETATM   17  C   UNL     1      -8.319   4.641  68.874  1.00  0.00    -0.081 C  
HETATM   18  N   UNL     1      -9.553   5.278  69.305  1.00  0.00    -0.143 NA 
ENDROOT
BRANCH  15  19
HETATM   19  C   UNL     1     -11.535   7.292  70.900  1.00  0.00    -0.292 C  
HETATM   20  O   UNL     1     -12.550   6.751  70.459  1.00  0.00    -0.211 OA 
HETATM   21  H   UNL     1     -10.476   8.974  71.452  1.00  0.00     0.000 HD 
HETATM   22  N   UNL     1     -11.343   8.659  71.018  1.00  0.00    -0.266 N  
BRANCH  22  23
HETATM   23  CA  UNL     1     -12.281   9.686  70.572  1.00  0.00    -0.083 C  
BRANCH  23  24
HETATM   24  C   UNL     1     -11.554  10.829  69.799  1.00  0.00    -0.317 C  
HETATM   25  H   UNL     1     -11.827  11.935  68.163  1.00  0.00     0.000 HD 
HETATM   26  O   UNL     1     -12.270  11.239  68.633  1.00  0.00    -0.562 OA 
ENDBRANCH  23  24
BRANCH  23  27
HETATM   27  C   UNL     1     -12.987  10.194  71.824  1.00  0.00    -0.567 C  
HETATM   28  C   UNL     1     -13.143  11.699  71.783  1.00  0.00    -0.487 C  
ENDBRANCH  23  27
ENDBRANCH  22  23
ENDBRANCH  15  19
TORSDOF 4
ENDMDL
MODEL       72
REMARK 921   NORMALIZED FREE ENERGY PREDICTED BY IDOCK:   -4.40 KCAL/MOL
REMARK 922        TOTAL FREE ENERGY PREDICTED BY IDOCK:   -5.21 KCAL/MOL
REMARK 923 INTER-LIGAND FREE ENERGY PREDICTED BY IDOCK:   -5.53 KCAL/MOL
REMARK 924 INTRA-LIGAND FREE ENERGY PREDICTED BY IDOCK:    0.32 KCAL/MOL
REMARK 927      BINDING AFFINITY PREDICTED BY RF-SCORE:    0.00 PKD
ROOT
HETATM    1  C   UNL     1      -9.425   7.521  68.640  1.00  0.00    -0.146 C  
HETATM    2  C   UNL     1      -8.462   8.471  69.371  1.00  0.00    -0.127 C  
HETATM    3  C   UNL     1      -8.568   7.958  70.687  1.00  0.00    -0.130 A  
HETATM    4  C   UNL     1      -7.602   7.519  71.532  1.00  0.00    -0.084 A  
HETATM    5  N   UNL     1      -8.274   6.844  72.507  1.00  0.00    -0.106 NA 
HETATM    6  C   UNL     1      -7.533   6.188  73.562  1.00  0.00    -0.088 C  
HETATM    7  C   UNL     1      -9.647   6.811  72.222  1.00  0.00    -0.144 A  
HETATM    8  C   UNL     1      -9.851   7.455  71.001  1.00  0.00    -0.179 A  
HETATM    9  C   UNL     1     -11.046   7.306  70.115  1.00  0.00    -0.281 A  
HETATM   10  C   UNL     1     -12.144   6.826  70.834  1.00  0.00    -0.421 A  
HETATM   11  C   UNL     1     -10.877   7.079  68.456  1.00  0.00    -0.187 C  
HETATM   12  C   UNL     1     -10.662   6.913  67.029  1.00  0.00    -0.432 C  
HETATM   13  C   UNL     1     -11.980   6.318  72.158  1.00  0.00    -0.338 A  
HETATM   14  C   UNL     1     -10.737   6.214  72.836  1.00  0.00    -0.274 A  
HETATM   15  C   UNL     1      -9.120   7.042  66.278  1.00  0.00    -0.178 C  
HETATM   16  C   UNL     1      -8.154   6.200  67.148  1.00  0.00    -0.106 C  
HETATM   17  C   UNL     1      -9.083   5.117  69.242  1.00  0.00    -0.105 C  
HETATM   18  N   UNL     1      -8.688   6.276  68.458  1.00  0.00    -0.113 NA 
ENDROOT
BRANCH  15  19
HETATM   19  C   UNL     1      -8.786   8.561  66.156  1.00  0.00    -0.167 C  
HETATM   20  O   UNL     1      -7.675   9.009  66.441  1.00  0.00    -0.097 OA 
HETATM   21  H   UNL     1     -10.754   8.825  65.594  1.00  0.00     0.000 HD 
HETATM   22  N   UNL     1      -9.907   9.322  65.870  1.00  0.00    -0.290 N  
BRANCH  22  23
HETATM   23  CA  UNL     1      -9.978  10.780  65.932  1.00  0.00    -0.250 C  
BRANCH  23  24
HETATM   24  C   UNL     1     -11.096  11.260  66.907  1.00  0.00    -0.275 C  
HETATM   25  H   UNL     1     -11.629  11.006  68.811  1.00  0.00     0.000 HD 
HETATM   26  O   UNL     1     -10.948  10.713  68.218  1.00  0.00    -0.223 OA 
ENDBRANCH  23  24
BRANCH  23  27
HETATM   27  C   UNL     1     -10.214  11.258  64.503  1.00  0.00    -0.370 C  
HETATM   28  C   UNL     1     -11.475  12.090  64.414  1.00  0.00    -0.413 C  
ENDBRANCH  23  27
ENDBRANCH  22  23
ENDBRANCH  15  19
TORSDOF 4
ENDMDL
MODEL       73
REMARK 921   NORMALIZED FREE ENERGY PREDICTED BY IDOCK:   -4.35 KCAL/MOL
REMARK 922        TOTAL FREE ENERGY PREDICTED BY IDOCK:   -5.15 KCAL/MOL
REMARK 923 INTER-LIGAND FREE ENERGY PREDICTED BY IDOCK:   -5.97 KCAL/MOL
REMARK 924 INTRA-LIGAND FREE ENERGY PREDICTED BY IDOCK:    0.82 KCAL/MOL
REMARK 927      BINDING AFFINITY PREDICTED BY RF-SCORE:    0.00 PKD
ROOT
HETATM    1  C   UNL     1      -8.423  16.152  68.067  1.00  0.00    -0.168 C  
HETATM    2  C   UNL     1      -9.417  17.172  68.647  1.00  0.00    -0.275 C  
HETATM    3  C   UNL     1     -10.538  16.331  68.850  1.00  0.00    -0.284 A  
HETATM    4  C   UNL     1     -11.259  16.096  69.974  1.00  0.00    -0.357 A  
HETATM    5  N   UNL     1     -11.991  14.980  69.690  1.00  0.00    -0.313 NA 
HETATM    6  C   UNL     1     -12.848  14.412  70.706  1.00  0.00    -0.353 C  
HETATM    7  C   UNL     1     -11.665  14.492  68.417  1.00  0.00    -0.333 A  
HETATM    8  C   UNL     1     -10.661  15.304  67.886  1.00  0.00    -0.260 A  
HETATM    9  C   UNL     1      -9.732  14.942  66.773  1.00  0.00    -0.263 A  
HETATM   10  C   UNL     1     -10.256  13.900  66.003  1.00  0.00    -0.317 A  
HETATM   11  C   UNL     1      -8.079  15.246  66.884  1.00  0.00    -0.224 C  
HETATM   12  C   UNL     1      -6.669  15.560  67.033  1.00  0.00     0.135 C  
HETATM   13  C   UNL     1     -11.395  13.166  66.452  1.00  0.00    -0.349 A  
HETATM   14  C   UNL     1     -12.057  13.379  67.690  1.00  0.00    -0.311 A  
HETATM   15  C   UNL     1      -6.031  16.472  68.344  1.00  0.00    -0.123 C  
HETATM   16  C   UNL     1      -6.668  15.876  69.624  1.00  0.00    -0.173 C  
HETATM   17  C   UNL     1      -8.354  14.005  69.349  1.00  0.00     0.517 C  
HETATM   18  N   UNL     1      -7.930  15.388  69.206  1.00  0.00    -0.215 NA 
ENDROOT
BRANCH  15  19
HETATM   19  C   UNL     1      -6.340  17.975  68.061  1.00  0.00    -0.183 C  
HETATM   20  O   UNL     1      -6.285  18.449  66.925  1.00  0.00    -0.168 OA 
HETATM   21  H   UNL     1      -6.586  18.185  70.098  1.00  0.00     0.000 HD 
HETATM   22  N   UNL     1      -6.500  18.706  69.226  1.00  0.00    -0.270 N  
BRANCH  22  23
HETATM   23  CA  UNL     1      -6.556  20.163  69.309  1.00  0.00    -0.267 C  
BRANCH  23  24
HETATM   24  C   UNL     1      -6.505  20.821  67.896  1.00  0.00    -0.330 C  
HETATM   25  H   UNL     1      -7.773  21.539  66.534  1.00  0.00     0.000 HD 
HETATM   26  O   UNL     1      -7.804  21.138  67.395  1.00  0.00    -0.300 OA 
ENDBRANCH  23  24
BRANCH  23  27
HETATM   27  C   UNL     1      -5.382  20.588  70.185  1.00  0.00    -0.351 C  
HETATM   28  C   UNL     1      -5.523  20.031  71.585  1.00  0.00    -0.433 C  
ENDBRANCH  23  27
ENDBRANCH  22  23
ENDBRANCH  15  19
TORSDOF 4
ENDMDL
MODEL       74
REMARK 921   NORMALIZED FREE ENERGY PREDICTED BY IDOCK:   -4.31 KCAL/MOL
REMARK 922        TOTAL FREE ENERGY PREDICTED BY IDOCK:   -5.09 KCAL/MOL
REMARK 923 INTER-LIGAND FREE ENERGY PREDICTED BY IDOCK:   -5.50 KCAL/MOL
REMARK 924 INTRA-LIGAND FREE ENERGY PREDICTED BY IDOCK:    0.41 KCAL/MOL
REMARK 927      BINDING AFFINITY PREDICTED BY RF-SCORE:    0.00 PKD
ROOT
HETATM    1  C   UNL     1      -9.485   9.381  67.510  1.00  0.00    -0.127 C  
HETATM    2  C   UNL     1     -10.674   8.604  66.922  1.00  0.00    -0.152 C  
HETATM    3  C   UNL     1     -10.111   7.305  66.864  1.00  0.00    -0.317 A  
HETATM    4  C   UNL     1     -10.558   6.137  67.390  1.00  0.00    -0.281 A  
HETATM    5  N   UNL     1      -9.489   5.294  67.321  1.00  0.00    -0.122 NA 
HETATM    6  C   UNL     1      -9.601   3.954  67.852  1.00  0.00    -0.136 C  
HETATM    7  C   UNL     1      -8.367   5.967  66.816  1.00  0.00    -0.106 A  
HETATM    8  C   UNL     1      -8.724   7.298  66.593  1.00  0.00    -0.136 A  
HETATM    9  C   UNL     1      -7.784   8.453  66.463  1.00  0.00    -0.089 A  
HETATM   10  C   UNL     1      -6.500   8.017  66.124  1.00  0.00    -0.046 A  
HETATM   11  C   UNL     1      -8.067   9.901  67.275  1.00  0.00    -0.113 C  
HETATM   12  C   UNL     1      -8.383  11.130  67.980  1.00  0.00    -0.134 C  
HETATM   13  C   UNL     1      -6.165   6.630  66.182  1.00  0.00    -0.041 A  
HETATM   14  C   UNL     1      -7.045   5.603  66.611  1.00  0.00    -0.069 A  
HETATM   15  C   UNL     1      -9.860  11.390  68.824  1.00  0.00    -0.175 C  
HETATM   16  C   UNL     1     -10.092  10.116  69.673  1.00  0.00    -0.234 C  
HETATM   17  C   UNL     1      -8.419   8.225  69.456  1.00  0.00    -0.125 C  
HETATM   18  N   UNL     1      -9.479   9.073  68.935  1.00  0.00    -0.150 NA 
ENDROOT
BRANCH  15  19
HETATM   19  C   UNL     1     -10.954  11.714  67.759  1.00  0.00    -0.233 C  
HETATM   20  O   UNL     1     -12.088  11.241  67.827  1.00  0.00    -0.631 OA 
HETATM   21  H   UNL     1      -9.506  12.810  66.780  1.00  0.00     0.000 HD 
HETATM   22  N   UNL     1     -10.445  12.425  66.685  1.00  0.00    -0.228 N  
BRANCH  22  23
HETATM   23  CA  UNL     1     -11.144  12.668  65.426  1.00  0.00    -0.292 C  
BRANCH  23  24
HETATM   24  C   UNL     1     -10.765  11.610  64.345  1.00  0.00    -0.330 C  
HETATM   25  H   UNL     1      -9.597  11.469  62.735  1.00  0.00     0.000 HD 
HETATM   26  O   UNL     1      -9.827  12.114  63.393  1.00  0.00    -0.368 OA 
ENDBRANCH  23  24
BRANCH  23  27
HETATM   27  C   UNL     1     -10.776  14.085  64.999  1.00  0.00    -0.409 C  
HETATM   28  C   UNL     1     -11.988  14.821  64.469  1.00  0.00    -0.451 C  
ENDBRANCH  23  27
ENDBRANCH  22  23
ENDBRANCH  15  19
TORSDOF 4
ENDMDL
MODEL       75
REMARK 921   NORMALIZED FREE ENERGY PREDICTED BY IDOCK:   -4.28 KCAL/MOL
REMARK 922        TOTAL FREE ENERGY PREDICTED BY IDOCK:   -5.06 KCAL/MOL
REMARK 923 INTER-LIGAND FREE ENERGY PREDICTED BY IDOCK:   -5.44 KCAL/MOL
REMARK 924 INTRA-LIGAND FREE ENERGY PREDICTED BY IDOCK:    0.38 KCAL/MOL
REMARK 927      BINDING AFFINITY PREDICTED BY RF-SCORE:    0.00 PKD
ROOT
HETATM    1  C   UNL     1     -10.177   8.141  70.517  1.00  0.00    -0.198 C  
HETATM    2  C   UNL     1      -8.755   8.504  70.975  1.00  0.00    -0.209 C  
HETATM    3  C   UNL     1      -8.285   9.161  69.811  1.00  0.00    -0.128 A  
HETATM    4  C   UNL     1      -7.760  10.402  69.663  1.00  0.00    -0.144 A  
HETATM    5  N   UNL     1      -7.791  10.635  68.320  1.00  0.00    -0.108 NA 
HETATM    6  C   UNL     1      -7.345  11.910  67.805  1.00  0.00    -0.109 C  
HETATM    7  C   UNL     1      -8.400   9.562  67.652  1.00  0.00    -0.125 A  
HETATM    8  C   UNL     1      -8.807   8.631  68.609  1.00  0.00    -0.142 A  
HETATM    9  C   UNL     1      -9.836   7.564  68.419  1.00  0.00    -0.173 A  
HETATM   10  C   UNL     1     -10.023   7.286  67.062  1.00  0.00    -0.293 A  
HETATM   11  C   UNL     1     -11.029   7.290  69.575  1.00  0.00    -0.182 C  
HETATM   12  C   UNL     1     -12.014   7.087  70.623  1.00  0.00    -0.361 C  
HETATM   13  C   UNL     1      -9.466   8.139  66.062  1.00  0.00    -0.158 A  
HETATM   14  C   UNL     1      -8.735   9.326  66.328  1.00  0.00    -0.160 A  
HETATM   15  C   UNL     1     -11.965   7.892  72.143  1.00  0.00    -0.379 C  
HETATM   16  C   UNL     1     -11.704   9.384  71.823  1.00  0.00    -0.374 C  
HETATM   17  C   UNL     1     -11.366  10.037  69.398  1.00  0.00    -0.141 C  
HETATM   18  N   UNL     1     -10.952   9.371  70.623  1.00  0.00    -0.265 NA 
ENDROOT
BRANCH  15  19
HETATM   19  C   UNL     1     -10.885   7.178  73.014  1.00  0.00    -0.328 C  
HETATM   20  O   UNL     1      -9.991   7.803  73.584  1.00  0.00    -0.301 OA 
HETATM   21  H   UNL     1     -11.784   5.405  72.460  1.00  0.00     0.000 HD 
HETATM   22  N   UNL     1     -10.959   5.798  72.913  1.00  0.00    -0.258 N  
BRANCH  22  23
HETATM   23  CA  UNL     1      -9.953   4.860  73.403  1.00  0.00    -0.156 C  
BRANCH  23  24
HETATM   24  C   UNL     1      -8.742   4.755  72.427  1.00  0.00    -0.119 C  
HETATM   25  H   UNL     1      -6.861   5.405  72.303  1.00  0.00     0.000 HD 
HETATM   26  O   UNL     1      -7.598   5.469  72.898  1.00  0.00    -0.095 OA 
ENDBRANCH  23  24
BRANCH  23  27
HETATM   27  C   UNL     1     -10.666   3.523  73.583  1.00  0.00    -0.306 C  
HETATM   28  C   UNL     1     -10.242   2.537  72.516  1.00  0.00    -0.231 C  
ENDBRANCH  23  27
ENDBRANCH  22  23
ENDBRANCH  15  19
TORSDOF 4
ENDMDL
MODEL       76
REMARK 921   NORMALIZED FREE ENERGY PREDICTED BY IDOCK:   -4.28 KCAL/MOL
REMARK 922        TOTAL FREE ENERGY PREDICTED BY IDOCK:   -5.05 KCAL/MOL
REMARK 923 INTER-LIGAND FREE ENERGY PREDICTED BY IDOCK:   -5.31 KCAL/MOL
REMARK 924 INTRA-LIGAND FREE ENERGY PREDICTED BY IDOCK:    0.26 KCAL/MOL
REMARK 927      BINDING AFFINITY PREDICTED BY RF-SCORE:    0.00 PKD
ROOT
HETATM    1  C   UNL     1      -9.423   8.058  68.661  1.00  0.00    -0.147 C  
HETATM    2  C   UNL     1      -8.251   8.032  69.655  1.00  0.00    -0.121 C  
HETATM    3  C   UNL     1      -8.967   8.105  70.876  1.00  0.00    -0.163 A  
HETATM    4  C   UNL     1      -8.936   7.284  71.954  1.00  0.00    -0.126 A  
HETATM    5  N   UNL     1     -10.038   7.625  72.682  1.00  0.00    -0.219 NA 
HETATM    6  C   UNL     1     -10.347   6.899  73.893  1.00  0.00    -0.365 C  
HETATM    7  C   UNL     1     -10.780   8.609  72.013  1.00  0.00    -0.357 A  
HETATM    8  C   UNL     1     -10.150   8.875  70.796  1.00  0.00    -0.282 A  
HETATM    9  C   UNL     1     -10.776   9.519  69.602  1.00  0.00    -0.257 A  
HETATM   10  C   UNL     1     -11.911  10.249  69.965  1.00  0.00    -0.305 A  
HETATM   11  C   UNL     1     -10.559   8.884  68.057  1.00  0.00    -0.226 C  
HETATM   12  C   UNL     1     -10.310   8.302  66.750  1.00  0.00    -0.361 C  
HETATM   13  C   UNL     1     -12.473  10.117  71.270  1.00  0.00    -0.510 A  
HETATM   14  C   UNL     1     -11.986   9.240  72.275  1.00  0.00    -0.204 A  
HETATM   15  C   UNL     1      -9.204   7.013  66.478  1.00  0.00    -0.198 C  
HETATM   16  C   UNL     1      -9.504   5.961  67.574  1.00  0.00    -0.110 C  
HETATM   17  C   UNL     1     -11.285   6.510  69.291  1.00  0.00    -0.328 C  
HETATM   18  N   UNL     1      -9.983   6.712  68.675  1.00  0.00    -0.143 NA 
ENDROOT
BRANCH  15  19
HETATM   19  C   UNL     1      -7.768   7.622  66.485  1.00  0.00    -0.097 C  
HETATM   20  O   UNL     1      -6.837   7.086  67.088  1.00  0.00    -0.061 OA 
HETATM   21  H   UNL     1      -8.552   9.180  65.384  1.00  0.00     0.000 HD 
HETATM   22  N   UNL     1      -7.728   8.877  65.902  1.00  0.00    -0.096 N  
BRANCH  22  23
HETATM   23  CA  UNL     1      -6.601   9.804  65.968  1.00  0.00    -0.082 C  
BRANCH  23  24
HETATM   24  C   UNL     1      -7.005  11.153  66.638  1.00  0.00    -0.142 C  
HETATM   25  H   UNL     1      -8.664  12.178  67.051  1.00  0.00     0.000 HD 
HETATM   26  O   UNL     1      -8.419  11.357  66.643  1.00  0.00    -0.163 OA 
ENDBRANCH  23  24
BRANCH  23  27
HETATM   27  C   UNL     1      -6.119   9.994  64.533  1.00  0.00    -0.125 C  
HETATM   28  C   UNL     1      -7.272   9.897  63.558  1.00  0.00    -0.126 C  
ENDBRANCH  23  27
ENDBRANCH  22  23
ENDBRANCH  15  19
TORSDOF 4
ENDMDL
MODEL       77
REMARK 921   NORMALIZED FREE ENERGY PREDICTED BY IDOCK:   -4.21 KCAL/MOL
REMARK 922        TOTAL FREE ENERGY PREDICTED BY IDOCK:   -4.97 KCAL/MOL
REMARK 923 INTER-LIGAND FREE ENERGY PREDICTED BY IDOCK:   -5.75 KCAL/MOL
REMARK 924 INTRA-LIGAND FREE ENERGY PREDICTED BY IDOCK:    0.78 KCAL/MOL
REMARK 927      BINDING AFFINITY PREDICTED BY RF-SCORE:    0.00 PKD
ROOT
HETATM    1  C   UNL     1      -9.445  10.567  67.462  1.00  0.00    -0.149 C  
HETATM    2  C   UNL     1     -10.180  11.036  66.195  1.00  0.00    -0.298 C  
HETATM    3  C   UNL     1      -9.205  10.720  65.217  1.00  0.00    -0.233 A  
HETATM    4  C   UNL     1      -9.307   9.956  64.101  1.00  0.00    -0.237 A  
HETATM    5  N   UNL     1      -8.018   9.724  63.721  1.00  0.00    -0.137 NA 
HETATM    6  C   UNL     1      -7.752   8.883  62.575  1.00  0.00    -0.115 C  
HETATM    7  C   UNL     1      -7.126  10.288  64.645  1.00  0.00    -0.081 A  
HETATM    8  C   UNL     1      -7.875  10.866  65.672  1.00  0.00    -0.011 A  
HETATM    9  C   UNL     1      -7.380  11.205  67.041  1.00  0.00    -0.128 A  
HETATM   10  C   UNL     1      -5.987  11.318  67.054  1.00  0.00    -0.100 A  
HETATM   11  C   UNL     1      -8.272  10.808  68.412  1.00  0.00    -0.129 C  
HETATM   12  C   UNL     1      -9.104  10.463  69.552  1.00  0.00    -0.129 C  
HETATM   13  C   UNL     1      -5.211  10.886  65.936  1.00  0.00    -0.131 A  
HETATM   14  C   UNL     1      -5.746  10.286  64.766  1.00  0.00    -0.130 A  
HETATM   15  C   UNL     1     -10.699   9.835  69.409  1.00  0.00    -0.250 C  
HETATM   16  C   UNL     1     -10.620   8.715  68.343  1.00  0.00    -0.120 C  
HETATM   17  C   UNL     1      -8.389   8.313  67.210  1.00  0.00    -0.124 C  
HETATM   18  N   UNL     1      -9.572   9.114  67.477  1.00  0.00    -0.145 NA 
ENDROOT
BRANCH  15  19
HETATM   19  C   UNL     1     -11.643  11.032  69.078  1.00  0.00    -0.323 C  
HETATM   20  O   UNL     1     -12.253  11.105  68.011  1.00  0.00    -0.584 OA 
HETATM   21  H   UNL     1     -11.071  11.829  70.893  1.00  0.00     0.000 HD 
HETATM   22  N   UNL     1     -11.564  12.040  70.025  1.00  0.00    -0.247 N  
BRANCH  22  23
HETATM   23  CA  UNL     1     -12.128  13.379  69.883  1.00  0.00    -0.322 C  
BRANCH  23  24
HETATM   24  C   UNL     1     -11.163  14.330  69.110  1.00  0.00    -0.270 C  
HETATM   25  H   UNL     1     -10.979  16.276  68.717  1.00  0.00     0.000 HD 
HETATM   26  O   UNL     1     -11.567  15.697  69.188  1.00  0.00    -0.337 OA 
ENDBRANCH  23  24
BRANCH  23  27
HETATM   27  C   UNL     1     -12.415  13.875  71.297  1.00  0.00    -0.440 C  
HETATM   28  C   UNL     1     -13.296  12.897  72.044  1.00  0.00    -0.579 C  
ENDBRANCH  23  27
ENDBRANCH  22  23
ENDBRANCH  15  19
TORSDOF 4
ENDMDL
MODEL       78
REMARK 921   NORMALIZED FREE ENERGY PREDICTED BY IDOCK:   -4.19 KCAL/MOL
REMARK 922        TOTAL FREE ENERGY PREDICTED BY IDOCK:   -4.95 KCAL/MOL
REMARK 923 INTER-LIGAND FREE ENERGY PREDICTED BY IDOCK:   -4.65 KCAL/MOL
REMARK 924 INTRA-LIGAND FREE ENERGY PREDICTED BY IDOCK:   -0.30 KCAL/MOL
REMARK 927      BINDING AFFINITY PREDICTED BY RF-SCORE:    0.00 PKD
ROOT
HETATM    1  C   UNL     1      -9.467   7.426  69.002  1.00  0.00    -0.148 C  
HETATM    2  C   UNL     1      -8.268   7.777  69.899  1.00  0.00    -0.125 C  
HETATM    3  C   UNL     1      -7.752   8.889  69.190  1.00  0.00    -0.092 A  
HETATM    4  C   UNL     1      -7.497  10.152  69.615  1.00  0.00    -0.147 A  
HETATM    5  N   UNL     1      -7.335  10.877  68.472  1.00  0.00    -0.092 NA 
HETATM    6  C   UNL     1      -7.097  12.300  68.557  1.00  0.00    -0.099 C  
HETATM    7  C   UNL     1      -7.559  10.071  67.345  1.00  0.00    -0.091 A  
HETATM    8  C   UNL     1      -7.916   8.797  67.789  1.00  0.00    -0.106 A  
HETATM    9  C   UNL     1      -8.632   7.755  66.991  1.00  0.00    -0.129 A  
HETATM   10  C   UNL     1      -8.502   7.998  65.621  1.00  0.00    -0.162 A  
HETATM   11  C   UNL     1      -9.924   6.895  67.644  1.00  0.00    -0.180 C  
HETATM   12  C   UNL     1     -11.013   6.170  68.275  1.00  0.00    -0.397 C  
HETATM   13  C   UNL     1      -7.976   9.238  65.149  1.00  0.00    -0.116 A  
HETATM   14  C   UNL     1      -7.587  10.320  65.983  1.00  0.00    -0.128 A  
HETATM   15  C   UNL     1     -11.420   6.325  69.939  1.00  0.00    -0.459 C  
HETATM   16  C   UNL     1     -11.442   7.846  70.229  1.00  0.00    -0.088 C  
HETATM   17  C   UNL     1     -10.823   9.422  68.344  1.00  0.00    -0.109 C  
HETATM   18  N   UNL     1     -10.501   8.400  69.327  1.00  0.00    -0.222 NA 
ENDROOT
BRANCH  15  19
HETATM   19  C   UNL     1     -10.385   5.487  70.752  1.00  0.00    -0.251 C  
HETATM   20  O   UNL     1      -9.931   4.424  70.329  1.00  0.00    -0.217 OA 
HETATM   21  H   UNL     1     -10.580   6.908  72.235  1.00  0.00     0.000 HD 
HETATM   22  N   UNL     1     -10.195   5.987  72.030  1.00  0.00    -0.191 N  
BRANCH  22  23
HETATM   23  CA  UNL     1      -9.487   5.302  73.108  1.00  0.00    -0.142 C  
BRANCH  23  24
HETATM   24  C   UNL     1     -10.470   4.784  74.203  1.00  0.00    -0.283 C  
HETATM   25  H   UNL     1     -12.131   3.688  74.322  1.00  0.00     0.000 HD 
HETATM   26  O   UNL     1     -11.533   4.003  73.655  1.00  0.00    -0.220 OA 
ENDBRANCH  23  24
BRANCH  23  27
HETATM   27  C   UNL     1      -8.481   6.304  73.665  1.00  0.00    -0.123 C  
HETATM   28  C   UNL     1      -9.077   7.695  73.718  1.00  0.00    -0.332 C  
ENDBRANCH  23  27
ENDBRANCH  22  23
ENDBRANCH  15  19
TORSDOF 4
ENDMDL
MODEL       79
REMARK 921   NORMALIZED FREE ENERGY PREDICTED BY IDOCK:   -4.18 KCAL/MOL
REMARK 922        TOTAL FREE ENERGY PREDICTED BY IDOCK:   -4.93 KCAL/MOL
REMARK 923 INTER-LIGAND FREE ENERGY PREDICTED BY IDOCK:   -4.71 KCAL/MOL
REMARK 924 INTRA-LIGAND FREE ENERGY PREDICTED BY IDOCK:   -0.22 KCAL/MOL
REMARK 927      BINDING AFFINITY PREDICTED BY RF-SCORE:    0.00 PKD
ROOT
HETATM    1  C   UNL     1      -9.428   6.684  69.222  1.00  0.00    -0.141 C  
HETATM    2  C   UNL     1      -8.689   5.346  69.395  1.00  0.00    -0.110 C  
HETATM    3  C   UNL     1      -9.083   5.021  70.717  1.00  0.00    -0.174 A  
HETATM    4  C   UNL     1      -9.686   3.905  71.196  1.00  0.00    -0.178 A  
HETATM    5  N   UNL     1     -10.124   4.255  72.439  1.00  0.00    -0.171 NA 
HETATM    6  C   UNL     1     -10.871   3.300  73.228  1.00  0.00    -0.180 C  
HETATM    7  C   UNL     1      -9.850   5.606  72.693  1.00  0.00    -0.161 A  
HETATM    8  C   UNL     1      -9.250   6.147  71.554  1.00  0.00    -0.152 A  
HETATM    9  C   UNL     1      -9.166   7.599  71.208  1.00  0.00    -0.155 A  
HETATM   10  C   UNL     1      -9.330   8.394  72.346  1.00  0.00    -0.356 A  
HETATM   11  C   UNL     1      -9.525   8.146  69.657  1.00  0.00    -0.159 C  
HETATM   12  C   UNL     1      -9.822   8.549  68.294  1.00  0.00    -0.190 C  
HETATM   13  C   UNL     1      -9.782   7.822  73.573  1.00  0.00    -0.319 A  
HETATM   14  C   UNL     1     -10.135   6.458  73.748  1.00  0.00    -0.282 A  
HETATM   15  C   UNL     1     -10.106   7.435  67.014  1.00  0.00    -0.328 C  
HETATM   16  C   UNL     1     -11.098   6.387  67.576  1.00  0.00    -0.306 C  
HETATM   17  C   UNL     1     -11.804   6.604  70.000  1.00  0.00    -0.238 C  
HETATM   18  N   UNL     1     -10.820   6.335  68.964  1.00  0.00    -0.302 NA 
ENDROOT
BRANCH  15  19
HETATM   19  C   UNL     1      -8.718   6.889  66.554  1.00  0.00    -0.133 C  
HETATM   20  O   UNL     1      -7.688   7.554  66.665  1.00  0.00    -0.097 OA 
HETATM   21  H   UNL     1      -9.728   5.211  65.906  1.00  0.00     0.000 HD 
HETATM   22  N   UNL     1      -8.827   5.688  65.874  1.00  0.00    -0.150 N  
BRANCH  22  23
HETATM   23  CA  UNL     1      -7.757   5.048  65.113  1.00  0.00    -0.083 C  
BRANCH  23  24
HETATM   24  C   UNL     1      -8.137   4.889  63.609  1.00  0.00    -0.105 C  
HETATM   25  H   UNL     1      -7.223   4.652  61.853  1.00  0.00     0.000 HD 
HETATM   26  O   UNL     1      -6.991   4.749  62.769  1.00  0.00    -0.033 OA 
ENDBRANCH  23  24
BRANCH  23  27
HETATM   27  C   UNL     1      -7.497   3.705  65.787  1.00  0.00    -0.077 C  
HETATM   28  C   UNL     1      -8.746   3.192  66.471  1.00  0.00    -0.133 C  
ENDBRANCH  23  27
ENDBRANCH  22  23
ENDBRANCH  15  19
TORSDOF 4
ENDMDL
MODEL       80
REMARK 921   NORMALIZED FREE ENERGY PREDICTED BY IDOCK:   -4.16 KCAL/MOL
REMARK 922        TOTAL FREE ENERGY PREDICTED BY IDOCK:   -4.91 KCAL/MOL
REMARK 923 INTER-LIGAND FREE ENERGY PREDICTED BY IDOCK:   -5.19 KCAL/MOL
REMARK 924 INTRA-LIGAND FREE ENERGY PREDICTED BY IDOCK:    0.28 KCAL/MOL
REMARK 927      BINDING AFFINITY PREDICTED BY RF-SCORE:    0.00 PKD
ROOT
HETATM    1  C   UNL     1      -9.615  11.458  66.632  1.00  0.00    -0.191 C  
HETATM    2  C   UNL     1     -10.008  11.655  65.159  1.00  0.00    -0.297 C  
HETATM    3  C   UNL     1      -9.068  10.795  64.540  1.00  0.00    -0.220 A  
HETATM    4  C   UNL     1      -9.264   9.759  63.686  1.00  0.00    -0.183 A  
HETATM    5  N   UNL     1      -8.075   9.092  63.671  1.00  0.00    -0.150 NA 
HETATM    6  C   UNL     1      -7.944   7.883  62.890  1.00  0.00    -0.145 C  
HETATM    7  C   UNL     1      -7.172   9.681  64.568  1.00  0.00    -0.121 A  
HETATM    8  C   UNL     1      -7.824  10.737  65.208  1.00  0.00     0.033 A  
HETATM    9  C   UNL     1      -7.418  11.369  66.500  1.00  0.00    -0.068 A  
HETATM   10  C   UNL     1      -6.072  11.120  66.778  1.00  0.00    -0.119 A  
HETATM   11  C   UNL     1      -8.551  11.690  67.705  1.00  0.00    -0.142 C  
HETATM   12  C   UNL     1      -9.581  11.965  68.691  1.00  0.00    -0.101 C  
HETATM   13  C   UNL     1      -5.338  10.159  66.018  1.00  0.00    -0.050 A  
HETATM   14  C   UNL     1      -5.886   9.365  64.976  1.00  0.00    -0.064 A  
HETATM   15  C   UNL     1     -11.262  11.757  68.393  1.00  0.00    -0.307 C  
HETATM   16  C   UNL     1     -11.404  10.367  67.725  1.00  0.00    -0.128 C  
HETATM   17  C   UNL     1      -9.288   9.056  67.252  1.00  0.00    -0.139 C  
HETATM   18  N   UNL     1     -10.187  10.176  67.026  1.00  0.00    -0.222 NA 
ENDROOT
BRANCH  15  19
HETATM   19  C   UNL     1     -11.741  12.977  67.547  1.00  0.00    -0.370 C  
HETATM   20  O   UNL     1     -12.483  12.844  66.574  1.00  0.00    -0.396 OA 
HETATM   21  H   UNL     1     -10.557  14.139  68.774  1.00  0.00     0.000 HD 
HETATM   22  N   UNL     1     -11.102  14.151  67.912  1.00  0.00    -0.260 N  
BRANCH  22  23
HETATM   23  CA  UNL     1     -11.145  15.404  67.164  1.00  0.00    -0.291 C  
BRANCH  23  24
HETATM   24  C   UNL     1      -9.947  15.522  66.172  1.00  0.00    -0.309 C  
HETATM   25  H   UNL     1      -8.037  14.960  66.062  1.00  0.00     0.000 HD 
HETATM   26  O   UNL     1      -8.766  14.888  66.666  1.00  0.00    -0.261 OA 
ENDBRANCH  23  24
BRANCH  23  27
HETATM   27  C   UNL     1     -11.147  16.522  68.201  1.00  0.00    -0.303 C  
HETATM   28  C   UNL     1     -10.549  17.790  67.630  1.00  0.00    -0.385 C  
ENDBRANCH  23  27
ENDBRANCH  22  23
ENDBRANCH  15  19
TORSDOF 4
ENDMDL
MODEL       81
REMARK 921   NORMALIZED FREE ENERGY PREDICTED BY IDOCK:   -4.15 KCAL/MOL
REMARK 922        TOTAL FREE ENERGY PREDICTED BY IDOCK:   -4.90 KCAL/MOL
REMARK 923 INTER-LIGAND FREE ENERGY PREDICTED BY IDOCK:   -5.39 KCAL/MOL
REMARK 924 INTRA-LIGAND FREE ENERGY PREDICTED BY IDOCK:    0.50 KCAL/MOL
REMARK 927      BINDING AFFINITY PREDICTED BY RF-SCORE:    0.00 PKD
ROOT
HETATM    1  C   UNL     1      -9.449   9.880  67.108  1.00  0.00    -0.158 C  
HETATM    2  C   UNL     1     -10.941  10.241  67.015  1.00  0.00    -0.189 C  
HETATM    3  C   UNL     1     -10.837  11.618  66.697  1.00  0.00    -0.327 A  
HETATM    4  C   UNL     1     -11.361  12.314  65.658  1.00  0.00    -0.350 A  
HETATM    5  N   UNL     1     -10.687  13.500  65.660  1.00  0.00    -0.277 NA 
HETATM    6  C   UNL     1     -10.963  14.480  64.633  1.00  0.00    -0.336 C  
HETATM    7  C   UNL     1      -9.703  13.502  66.659  1.00  0.00    -0.280 A  
HETATM    8  C   UNL     1      -9.724  12.257  67.289  1.00  0.00    -0.195 A  
HETATM    9  C   UNL     1      -8.619  11.661  68.102  1.00  0.00    -0.158 A  
HETATM   10  C   UNL     1      -7.746  12.652  68.558  1.00  0.00    -0.114 A  
HETATM   11  C   UNL     1      -8.145  10.061  67.885  1.00  0.00    -0.109 C  
HETATM   12  C   UNL     1      -7.803   8.666  67.668  1.00  0.00    -0.103 C  
HETATM   13  C   UNL     1      -7.822  13.982  68.045  1.00  0.00    -0.152 A  
HETATM   14  C   UNL     1      -8.724  14.407  67.035  1.00  0.00    -0.244 A  
HETATM   15  C   UNL     1      -8.704   7.614  66.648  1.00  0.00    -0.150 C  
HETATM   16  C   UNL     1      -8.945   8.401  65.336  1.00  0.00    -0.052 C  
HETATM   17  C   UNL     1      -8.095  10.785  65.209  1.00  0.00    -0.021 C  
HETATM   18  N   UNL     1      -8.985   9.760  65.732  1.00  0.00    -0.151 NA 
ENDROOT
BRANCH  15  19
HETATM   19  C   UNL     1      -9.981   7.183  67.433  1.00  0.00    -0.172 C  
HETATM   20  O   UNL     1     -11.067   7.024  66.875  1.00  0.00    -0.359 OA 
HETATM   21  H   UNL     1      -8.817   7.268  69.134  1.00  0.00     0.000 HD 
HETATM   22  N   UNL     1      -9.777   7.180  68.803  1.00  0.00    -0.144 N  
BRANCH  22  23
HETATM   23  CA  UNL     1     -10.826   7.062  69.813  1.00  0.00    -0.248 C  
BRANCH  23  24
HETATM   24  C   UNL     1     -10.578   8.027  71.013  1.00  0.00    -0.213 C  
HETATM   25  H   UNL     1     -11.544   9.467  71.998  1.00  0.00     0.000 HD 
HETATM   26  O   UNL     1     -11.695   8.879  71.267  1.00  0.00    -0.276 OA 
ENDBRANCH  23  24
BRANCH  23  27
HETATM   27  C   UNL     1     -10.843   5.599  70.244  1.00  0.00    -0.336 C  
HETATM   28  C   UNL     1     -10.854   5.480  71.753  1.00  0.00    -0.277 C  
ENDBRANCH  23  27
ENDBRANCH  22  23
ENDBRANCH  15  19
TORSDOF 4
ENDMDL
MODEL       82
REMARK 921   NORMALIZED FREE ENERGY PREDICTED BY IDOCK:   -4.09 KCAL/MOL
REMARK 922        TOTAL FREE ENERGY PREDICTED BY IDOCK:   -4.83 KCAL/MOL
REMARK 923 INTER-LIGAND FREE ENERGY PREDICTED BY IDOCK:   -4.58 KCAL/MOL
REMARK 924 INTRA-LIGAND FREE ENERGY PREDICTED BY IDOCK:   -0.25 KCAL/MOL
REMARK 927      BINDING AFFINITY PREDICTED BY RF-SCORE:    0.00 PKD
ROOT
HETATM    1  C   UNL     1      -8.619   7.024  69.225  1.00  0.00    -0.136 C  
HETATM    2  C   UNL     1      -9.697   5.965  68.942  1.00  0.00    -0.168 C  
HETATM    3  C   UNL     1     -10.572   6.213  70.028  1.00  0.00    -0.323 A  
HETATM    4  C   UNL     1     -11.899   6.495  70.031  1.00  0.00    -0.217 A  
HETATM    5  N   UNL     1     -12.152   6.961  71.287  1.00  0.00    -0.355 NA 
HETATM    6  C   UNL     1     -13.483   7.412  71.627  1.00  0.00    -0.366 C  
HETATM    7  C   UNL     1     -10.965   7.029  72.032  1.00  0.00    -0.232 A  
HETATM    8  C   UNL     1      -9.913   6.630  71.207  1.00  0.00    -0.196 A  
HETATM    9  C   UNL     1      -8.464   6.929  71.420  1.00  0.00    -0.119 A  
HETATM   10  C   UNL     1      -8.210   7.247  72.757  1.00  0.00    -0.125 A  
HETATM   11  C   UNL     1      -7.493   7.473  70.156  1.00  0.00    -0.086 C  
HETATM   12  C   UNL     1      -6.705   7.913  69.018  1.00  0.00    -0.049 C  
HETATM   13  C   UNL     1      -9.286   7.494  73.662  1.00  0.00    -0.329 A  
HETATM   14  C   UNL     1     -10.661   7.482  73.306  1.00  0.00    -0.438 A  
HETATM   15  C   UNL     1      -7.303   7.953  67.406  1.00  0.00    -0.092 C  
HETATM   16  C   UNL     1      -8.696   8.624  67.488  1.00  0.00    -0.135 C  
HETATM   17  C   UNL     1      -9.568   9.272  69.777  1.00  0.00    -0.190 C  
HETATM   18  N   UNL     1      -9.183   8.291  68.775  1.00  0.00    -0.144 NA 
ENDROOT
BRANCH  15  19
HETATM   19  C   UNL     1      -7.277   6.490  66.863  1.00  0.00    -0.078 C  
HETATM   20  O   UNL     1      -6.440   5.670  67.242  1.00  0.00    -0.041 OA 
HETATM   21  H   UNL     1      -8.846   7.043  65.643  1.00  0.00     0.000 HD 
HETATM   22  N   UNL     1      -8.166   6.303  65.818  1.00  0.00    -0.129 N  
BRANCH  22  23
HETATM   23  CA  UNL     1      -8.209   5.134  64.944  1.00  0.00    -0.136 C  
BRANCH  23  24
HETATM   24  C   UNL     1      -8.093   5.535  63.441  1.00  0.00    -0.106 C  
HETATM   25  H   UNL     1      -7.661   4.678  61.694  1.00  0.00     0.000 HD 
HETATM   26  O   UNL     1      -7.732   4.433  62.609  1.00  0.00    -0.061 OA 
ENDBRANCH  23  24
BRANCH  23  27
HETATM   27  C   UNL     1      -9.520   4.418  65.250  1.00  0.00    -0.172 C  
HETATM   28  C   UNL     1      -9.327   3.375  66.329  1.00  0.00    -0.157 C  
ENDBRANCH  23  27
ENDBRANCH  22  23
ENDBRANCH  15  19
TORSDOF 4
ENDMDL
MODEL       83
REMARK 921   NORMALIZED FREE ENERGY PREDICTED BY IDOCK:   -4.05 KCAL/MOL
REMARK 922        TOTAL FREE ENERGY PREDICTED BY IDOCK:   -4.78 KCAL/MOL
REMARK 923 INTER-LIGAND FREE ENERGY PREDICTED BY IDOCK:   -4.54 KCAL/MOL
REMARK 924 INTRA-LIGAND FREE ENERGY PREDICTED BY IDOCK:   -0.24 KCAL/MOL
REMARK 927      BINDING AFFINITY PREDICTED BY RF-SCORE:    0.00 PKD
ROOT
HETATM    1  C   UNL     1      -9.463   7.911  69.006  1.00  0.00    -0.151 C  
HETATM    2  C   UNL     1      -8.102   7.197  68.965  1.00  0.00    -0.121 C  
HETATM    3  C   UNL     1      -8.212   6.398  70.129  1.00  0.00    -0.129 A  
HETATM    4  C   UNL     1      -8.080   5.056  70.280  1.00  0.00    -0.085 A  
HETATM    5  N   UNL     1      -8.604   4.793  71.512  1.00  0.00    -0.115 NA 
HETATM    6  C   UNL     1      -8.673   3.427  71.981  1.00  0.00    -0.089 C  
HETATM    7  C   UNL     1      -9.119   5.965  72.085  1.00  0.00    -0.143 A  
HETATM    8  C   UNL     1      -8.953   7.004  71.168  1.00  0.00    -0.146 A  
HETATM    9  C   UNL     1      -9.698   8.300  71.161  1.00  0.00    -0.209 A  
HETATM   10  C   UNL     1     -10.244   8.570  72.418  1.00  0.00    -0.369 A  
HETATM   11  C   UNL     1     -10.344   8.924  69.737  1.00  0.00    -0.213 C  
HETATM   12  C   UNL     1     -10.852   9.420  68.470  1.00  0.00    -0.149 C  
HETATM   13  C   UNL     1     -10.269   7.564  73.431  1.00  0.00    -0.399 A  
HETATM   14  C   UNL     1      -9.800   6.234  73.261  1.00  0.00    -0.175 A  
HETATM   15  C   UNL     1     -10.505   8.687  66.953  1.00  0.00    -0.329 C  
HETATM   16  C   UNL     1     -10.732   7.168  67.156  1.00  0.00    -0.352 C  
HETATM   17  C   UNL     1     -11.373   6.363  69.471  1.00  0.00    -0.393 C  
HETATM   18  N   UNL     1     -10.434   6.937  68.521  1.00  0.00    -0.193 NA 
ENDROOT
BRANCH  15  19
HETATM   19  C   UNL     1      -9.061   9.117  66.547  1.00  0.00    -0.156 C  
HETATM   20  O   UNL     1      -8.572  10.185  66.915  1.00  0.00    -0.125 OA 
HETATM   21  H   UNL     1      -8.985   7.378  65.439  1.00  0.00     0.000 HD 
HETATM   22  N   UNL     1      -8.502   8.259  65.614  1.00  0.00    -0.151 N  
BRANCH  22  23
HETATM   23  CA  UNL     1      -7.278   8.513  64.859  1.00  0.00    -0.084 C  
BRANCH  23  24
HETATM   24  C   UNL     1      -7.393   8.002  63.390  1.00  0.00    -0.107 C  
HETATM   25  H   UNL     1      -6.383   8.139  61.676  1.00  0.00     0.000 HD 
HETATM   26  O   UNL     1      -6.313   8.450  62.571  1.00  0.00    -0.087 OA 
ENDBRANCH  23  24
BRANCH  23  27
HETATM   27  C   UNL     1      -6.153   7.823  65.623  1.00  0.00    -0.038 C  
HETATM   28  C   UNL     1      -5.200   8.839  66.214  1.00  0.00    -0.030 C  
ENDBRANCH  23  27
ENDBRANCH  22  23
ENDBRANCH  15  19
TORSDOF 4
ENDMDL
MODEL       84
REMARK 921   NORMALIZED FREE ENERGY PREDICTED BY IDOCK:   -4.01 KCAL/MOL
REMARK 922        TOTAL FREE ENERGY PREDICTED BY IDOCK:   -4.73 KCAL/MOL
REMARK 923 INTER-LIGAND FREE ENERGY PREDICTED BY IDOCK:   -5.04 KCAL/MOL
REMARK 924 INTRA-LIGAND FREE ENERGY PREDICTED BY IDOCK:    0.31 KCAL/MOL
REMARK 927      BINDING AFFINITY PREDICTED BY RF-SCORE:    0.00 PKD
ROOT
HETATM    1  C   UNL     1      -9.574   9.513  69.313  1.00  0.00    -0.175 C  
HETATM    2  C   UNL     1      -8.299  10.334  69.570  1.00  0.00    -0.162 C  
HETATM    3  C   UNL     1      -8.365  11.232  68.477  1.00  0.00    -0.155 A  
HETATM    4  C   UNL     1      -8.348  12.588  68.462  1.00  0.00    -0.069 A  
HETATM    5  N   UNL     1      -8.765  12.926  67.208  1.00  0.00    -0.197 NA 
HETATM    6  C   UNL     1      -8.916  14.321  66.858  1.00  0.00    -0.236 C  
HETATM    7  C   UNL     1      -9.103  11.777  66.478  1.00  0.00    -0.203 A  
HETATM    8  C   UNL     1      -8.933  10.670  67.311  1.00  0.00    -0.141 A  
HETATM    9  C   UNL     1      -9.547   9.321  67.119  1.00  0.00    -0.208 A  
HETATM   10  C   UNL     1      -9.932   9.132  65.789  1.00  0.00    -0.145 A  
HETATM   11  C   UNL     1     -10.273   8.505  68.401  1.00  0.00    -0.236 C  
HETATM   12  C   UNL     1     -10.860   7.844  69.553  1.00  0.00    -0.141 C  
HETATM   13  C   UNL     1      -9.948  10.227  64.874  1.00  0.00    -0.393 A  
HETATM   14  C   UNL     1      -9.629  11.568  65.214  1.00  0.00    -0.244 A  
HETATM   15  C   UNL     1     -10.744   8.451  71.159  1.00  0.00    -0.280 C  
HETATM   16  C   UNL     1     -11.093   9.957  71.068  1.00  0.00    -0.331 C  
HETATM   17  C   UNL     1     -11.566  10.929  68.777  1.00  0.00    -0.309 C  
HETATM   18  N   UNL     1     -10.679  10.347  69.771  1.00  0.00    -0.267 NA 
ENDROOT
BRANCH  15  19
HETATM   19  C   UNL     1      -9.315   8.108  71.684  1.00  0.00    -0.174 C  
HETATM   20  O   UNL     1      -8.650   8.914  72.336  1.00  0.00    -0.399 OA 
HETATM   21  H   UNL     1      -9.520   6.302  70.709  1.00  0.00     0.000 HD 
HETATM   22  N   UNL     1      -8.849   6.903  71.187  1.00  0.00    -0.142 N  
BRANCH  22  23
HETATM   23  CA  UNL     1      -7.474   6.421  71.290  1.00  0.00    -0.089 C  
BRANCH  23  24
HETATM   24  C   UNL     1      -6.769   6.393  69.899  1.00  0.00    -0.053 C  
HETATM   25  H   UNL     1      -7.225   5.989  68.000  1.00  0.00     0.000 HD 
HETATM   26  O   UNL     1      -7.655   6.006  68.847  1.00  0.00    -0.087 OA 
ENDBRANCH  23  24
BRANCH  23  27
HETATM   27  C   UNL     1      -7.552   5.036  71.924  1.00  0.00    -0.102 C  
HETATM   28  C   UNL     1      -7.727   5.138  73.424  1.00  0.00    -0.099 C  
ENDBRANCH  23  27
ENDBRANCH  22  23
ENDBRANCH  15  19
TORSDOF 4
ENDMDL
MODEL       85
REMARK 921   NORMALIZED FREE ENERGY PREDICTED BY IDOCK:   -3.95 KCAL/MOL
REMARK 922        TOTAL FREE ENERGY PREDICTED BY IDOCK:   -4.65 KCAL/MOL
REMARK 923 INTER-LIGAND FREE ENERGY PREDICTED BY IDOCK:   -5.28 KCAL/MOL
REMARK 924 INTRA-LIGAND FREE ENERGY PREDICTED BY IDOCK:    0.63 KCAL/MOL
REMARK 927      BINDING AFFINITY PREDICTED BY RF-SCORE:    0.00 PKD
ROOT
HETATM    1  C   UNL     1      -9.948  11.249  67.844  1.00  0.00    -0.175 C  
HETATM    2  C   UNL     1     -11.405  11.018  67.411  1.00  0.00    -0.306 C  
HETATM    3  C   UNL     1     -11.657  12.243  66.746  1.00  0.00    -0.434 A  
HETATM    4  C   UNL     1     -12.094  12.475  65.483  1.00  0.00    -0.419 A  
HETATM    5  N   UNL     1     -11.844  13.799  65.268  1.00  0.00    -0.337 NA 
HETATM    6  C   UNL     1     -12.144  14.381  63.979  1.00  0.00    -0.280 C  
HETATM    7  C   UNL     1     -11.191  14.360  66.375  1.00  0.00    -0.345 A  
HETATM    8  C   UNL     1     -10.982  13.348  67.313  1.00  0.00    -0.286 A  
HETATM    9  C   UNL     1      -9.987  13.372  68.429  1.00  0.00    -0.231 A  
HETATM   10  C   UNL     1      -9.606  14.682  68.730  1.00  0.00    -0.210 A  
HETATM   11  C   UNL     1      -9.001  12.044  68.744  1.00  0.00     0.077 C  
HETATM   12  C   UNL     1      -8.201  10.855  68.981  1.00  0.00    -0.126 C  
HETATM   13  C   UNL     1      -9.960  15.760  67.864  1.00  0.00    -0.227 A  
HETATM   14  C   UNL     1     -10.667  15.615  66.641  1.00  0.00    -0.296 A  
HETATM   15  C   UNL     1      -8.447   9.364  68.158  1.00  0.00    -0.120 C  
HETATM   16  C   UNL     1      -8.584   9.727  66.658  1.00  0.00    -0.128 C  
HETATM   17  C   UNL     1      -8.512  12.177  66.018  1.00  0.00     0.362 C  
HETATM   18  N   UNL     1      -9.141  11.029  66.650  1.00  0.00    -0.162 NA 
ENDROOT
BRANCH  15  19
HETATM   19  C   UNL     1      -9.681   8.669  68.811  1.00  0.00    -0.166 C  
HETATM   20  O   UNL     1     -10.053   8.941  69.953  1.00  0.00    -0.185 OA 
HETATM   21  H   UNL     1      -9.809   7.545  67.086  1.00  0.00     0.000 HD 
HETATM   22  N   UNL     1     -10.165   7.626  68.038  1.00  0.00    -0.194 N  
BRANCH  22  23
HETATM   23  CA  UNL     1     -11.143   6.634  68.475  1.00  0.00    -0.206 C  
BRANCH  23  24
HETATM   24  C   UNL     1     -11.019   6.338  70.001  1.00  0.00    -0.358 C  
HETATM   25  H   UNL     1     -12.041   6.684  71.679  1.00  0.00     0.000 HD 
HETATM   26  O   UNL     1     -12.117   6.864  70.749  1.00  0.00    -0.374 OA 
ENDBRANCH  23  24
BRANCH  23  27
HETATM   27  C   UNL     1     -10.900   5.391  67.626  1.00  0.00     0.021 C  
HETATM   28  C   UNL     1     -10.113   5.733  66.380  1.00  0.00    -0.182 C  
ENDBRANCH  23  27
ENDBRANCH  22  23
ENDBRANCH  15  19
TORSDOF 4
ENDMDL
MODEL       86
REMARK 921   NORMALIZED FREE ENERGY PREDICTED BY IDOCK:   -3.95 KCAL/MOL
REMARK 922        TOTAL FREE ENERGY PREDICTED BY IDOCK:   -4.65 KCAL/MOL
REMARK 923 INTER-LIGAND FREE ENERGY PREDICTED BY IDOCK:   -4.53 KCAL/MOL
REMARK 924 INTRA-LIGAND FREE ENERGY PREDICTED BY IDOCK:   -0.12 KCAL/MOL
REMARK 927      BINDING AFFINITY PREDICTED BY RF-SCORE:    0.00 PKD
ROOT
HETATM    1  C   UNL     1      -8.464   9.794  67.731  1.00  0.00    -0.121 C  
HETATM    2  C   UNL     1      -7.724   9.865  66.385  1.00  0.00    -0.104 C  
HETATM    3  C   UNL     1      -6.819   8.787  66.549  1.00  0.00    -0.072 A  
HETATM    4  C   UNL     1      -6.610   7.699  65.767  1.00  0.00    -0.045 A  
HETATM    5  N   UNL     1      -5.889   6.844  66.547  1.00  0.00    -0.028 NA 
HETATM    6  C   UNL     1      -5.531   5.540  66.035  1.00  0.00    -0.013 C  
HETATM    7  C   UNL     1      -5.716   7.382  67.831  1.00  0.00    -0.030 A  
HETATM    8  C   UNL     1      -6.386   8.605  67.882  1.00  0.00    -0.057 A  
HETATM    9  C   UNL     1      -6.822   9.320  69.120  1.00  0.00    -0.050 A  
HETATM   10  C   UNL     1      -6.096   8.884  70.231  1.00  0.00    -0.031 A  
HETATM   11  C   UNL     1      -8.367   9.979  69.246  1.00  0.00    -0.154 C  
HETATM   12  C   UNL     1      -9.703  10.548  69.279  1.00  0.00    -0.215 C  
HETATM   13  C   UNL     1      -5.267   7.724  70.149  1.00  0.00    -0.023 A  
HETATM   14  C   UNL     1      -5.133   6.908  68.995  1.00  0.00    -0.013 A  
HETATM   15  C   UNL     1     -10.752  10.590  67.916  1.00  0.00    -0.305 C  
HETATM   16  C   UNL     1     -10.702   9.170  67.299  1.00  0.00    -0.154 C  
HETATM   17  C   UNL     1      -9.149   7.471  68.358  1.00  0.00    -0.133 C  
HETATM   18  N   UNL     1      -9.406   8.689  67.605  1.00  0.00    -0.136 NA 
ENDROOT
BRANCH  15  19
HETATM   19  C   UNL     1     -10.274  11.756  66.996  1.00  0.00    -0.214 C  
HETATM   20  O   UNL     1      -9.862  12.821  67.455  1.00  0.00    -0.205 OA 
HETATM   21  H   UNL     1     -10.820  10.562  65.404  1.00  0.00     0.000 HD 
HETATM   22  N   UNL     1     -10.534  11.507  65.658  1.00  0.00    -0.259 N  
BRANCH  22  23
HETATM   23  CA  UNL     1     -10.434  12.488  64.581  1.00  0.00    -0.319 C  
BRANCH  23  24
HETATM   24  C   UNL     1     -11.461  13.648  64.763  1.00  0.00    -0.352 C  
HETATM   25  H   UNL     1     -13.432  13.882  64.956  1.00  0.00     0.000 HD 
HETATM   26  O   UNL     1     -12.806  13.176  64.845  1.00  0.00    -0.703 OA 
ENDBRANCH  23  24
BRANCH  23  27
HETATM   27  C   UNL     1     -10.653  11.722  63.282  1.00  0.00    -0.427 C  
HETATM   28  C   UNL     1      -9.772  10.493  63.223  1.00  0.00    -0.361 C  
ENDBRANCH  23  27
ENDBRANCH  22  23
ENDBRANCH  15  19
TORSDOF 4
ENDMDL
MODEL       87
REMARK 921   NORMALIZED FREE ENERGY PREDICTED BY IDOCK:   -3.93 KCAL/MOL
REMARK 922        TOTAL FREE ENERGY PREDICTED BY IDOCK:   -4.62 KCAL/MOL
REMARK 923 INTER-LIGAND FREE ENERGY PREDICTED BY IDOCK:   -5.24 KCAL/MOL
REMARK 924 INTRA-LIGAND FREE ENERGY PREDICTED BY IDOCK:    0.61 KCAL/MOL
REMARK 927      BINDING AFFINITY PREDICTED BY RF-SCORE:    0.00 PKD
ROOT
HETATM    1  C   UNL     1      -9.651   6.627  68.744  1.00  0.00    -0.131 C  
HETATM    2  C   UNL     1     -10.914   5.842  69.138  1.00  0.00    -0.382 C  
HETATM    3  C   UNL     1     -11.221   6.478  70.366  1.00  0.00    -0.414 A  
HETATM    4  C   UNL     1     -12.365   7.082  70.772  1.00  0.00    -0.258 A  
HETATM    5  N   UNL     1     -12.007   7.796  71.878  1.00  0.00    -0.289 NA 
HETATM    6  C   UNL     1     -12.991   8.617  72.547  1.00  0.00    -0.290 C  
HETATM    7  C   UNL     1     -10.628   7.683  72.108  1.00  0.00    -0.232 A  
HETATM    8  C   UNL     1     -10.082   6.901  71.088  1.00  0.00    -0.204 A  
HETATM    9  C   UNL     1      -8.643   6.855  70.688  1.00  0.00    -0.141 A  
HETATM   10  C   UNL     1      -7.822   7.313  71.722  1.00  0.00    -0.091 A  
HETATM   11  C   UNL     1      -8.187   6.923  69.069  1.00  0.00    -0.125 C  
HETATM   12  C   UNL     1      -7.863   6.958  67.653  1.00  0.00    -0.112 C  
HETATM   13  C   UNL     1      -8.383   7.968  72.860  1.00  0.00    -0.229 A  
HETATM   14  C   UNL     1      -9.764   8.246  73.033  1.00  0.00    -0.276 A  
HETATM   15  C   UNL     1      -9.045   6.882  66.405  1.00  0.00    -0.185 C  
HETATM   16  C   UNL     1     -10.151   7.888  66.809  1.00  0.00    -0.281 C  
HETATM   17  C   UNL     1      -9.903   9.101  69.020  1.00  0.00    -0.174 C  
HETATM   18  N   UNL     1     -10.126   7.904  68.225  1.00  0.00    -0.188 NA 
ENDROOT
BRANCH  15  19
HETATM   19  C   UNL     1      -9.488   5.392  66.272  1.00  0.00    -0.157 C  
HETATM   20  O   UNL     1     -10.675   5.066  66.232  1.00  0.00    -0.312 OA 
HETATM   21  H   UNL     1      -7.482   4.915  66.347  1.00  0.00     0.000 HD 
HETATM   22  N   UNL     1      -8.420   4.517  66.381  1.00  0.00    -0.112 N  
BRANCH  22  23
HETATM   23  CA  UNL     1      -8.527   3.069  66.541  1.00  0.00    -0.106 C  
BRANCH  23  24
HETATM   24  C   UNL     1      -9.103   2.390  65.260  1.00  0.00    -0.123 C  
HETATM   25  H   UNL     1      -8.430   1.578  63.568  1.00  0.00     0.000 HD 
HETATM   26  O   UNL     1      -8.079   1.991  64.348  1.00  0.00    -0.072 OA 
ENDBRANCH  23  24
BRANCH  23  27
HETATM   27  C   UNL     1      -9.411   2.838  67.762  1.00  0.00    -0.239 C  
HETATM   28  C   UNL     1      -8.584   2.400  68.952  1.00  0.00    -0.113 C  
ENDBRANCH  23  27
ENDBRANCH  22  23
ENDBRANCH  15  19
TORSDOF 4
ENDMDL
MODEL       88
REMARK 921   NORMALIZED FREE ENERGY PREDICTED BY IDOCK:   -3.89 KCAL/MOL
REMARK 922        TOTAL FREE ENERGY PREDICTED BY IDOCK:   -4.58 KCAL/MOL
REMARK 923 INTER-LIGAND FREE ENERGY PREDICTED BY IDOCK:   -4.40 KCAL/MOL
REMARK 924 INTRA-LIGAND FREE ENERGY PREDICTED BY IDOCK:   -0.18 KCAL/MOL
REMARK 927      BINDING AFFINITY PREDICTED BY RF-SCORE:    0.00 PKD
ROOT
HETATM    1  C   UNL     1      -9.515   6.814  69.902  1.00  0.00    -0.156 C  
HETATM    2  C   UNL     1      -8.115   7.446  69.831  1.00  0.00    -0.126 C  
HETATM    3  C   UNL     1      -7.604   7.046  71.090  1.00  0.00    -0.086 A  
HETATM    4  C   UNL     1      -6.473   6.363  71.395  1.00  0.00    -0.050 A  
HETATM    5  N   UNL     1      -6.642   5.972  72.690  1.00  0.00    -0.066 NA 
HETATM    6  C   UNL     1      -5.629   5.162  73.329  1.00  0.00    -0.022 C  
HETATM    7  C   UNL     1      -7.907   6.357  73.157  1.00  0.00    -0.101 A  
HETATM    8  C   UNL     1      -8.584   6.981  72.107  1.00  0.00    -0.117 A  
HETATM    9  C   UNL     1     -10.062   7.176  72.005  1.00  0.00    -0.194 A  
HETATM   10  C   UNL     1     -10.666   7.092  73.262  1.00  0.00    -0.373 A  
HETATM   11  C   UNL     1     -10.887   6.839  70.576  1.00  0.00    -0.301 C  
HETATM   12  C   UNL     1     -11.534   6.556  69.307  1.00  0.00    -0.307 C  
HETATM   13  C   UNL     1      -9.933   6.613  74.390  1.00  0.00    -0.359 A  
HETATM   14  C   UNL     1      -8.590   6.155  74.345  1.00  0.00    -0.124 A  
HETATM   15  C   UNL     1     -10.675   6.166  67.868  1.00  0.00    -0.374 C  
HETATM   16  C   UNL     1      -9.626   5.103  68.276  1.00  0.00    -0.135 C  
HETATM   17  C   UNL     1      -9.488   4.450  70.721  1.00  0.00    -0.173 C  
HETATM   18  N   UNL     1      -9.322   5.395  69.628  1.00  0.00    -0.130 NA 
ENDROOT
BRANCH  15  19
HETATM   19  C   UNL     1     -10.110   7.500  67.287  1.00  0.00    -0.231 C  
HETATM   20  O   UNL     1     -10.756   8.547  67.313  1.00  0.00    -0.279 OA 
HETATM   21  H   UNL     1      -8.454   6.409  66.717  1.00  0.00     0.000 HD 
HETATM   22  N   UNL     1      -8.916   7.312  66.610  1.00  0.00    -0.144 N  
BRANCH  22  23
HETATM   23  CA  UNL     1      -8.264   8.301  65.756  1.00  0.00    -0.123 C  
BRANCH  23  24
HETATM   24  C   UNL     1      -7.393   7.623  64.655  1.00  0.00    -0.085 C  
HETATM   25  H   UNL     1      -7.514   7.181  62.714  1.00  0.00     0.000 HD 
HETATM   26  O   UNL     1      -8.045   7.594  63.385  1.00  0.00    -0.125 OA 
ENDBRANCH  23  24
BRANCH  23  27
HETATM   27  C   UNL     1      -7.437   9.187  66.681  1.00  0.00    -0.086 C  
HETATM   28  C   UNL     1      -7.982  10.599  66.707  1.00  0.00    -0.132 C  
ENDBRANCH  23  27
ENDBRANCH  22  23
ENDBRANCH  15  19
TORSDOF 4
ENDMDL
MODEL       89
REMARK 921   NORMALIZED FREE ENERGY PREDICTED BY IDOCK:   -3.88 KCAL/MOL
REMARK 922        TOTAL FREE ENERGY PREDICTED BY IDOCK:   -4.57 KCAL/MOL
REMARK 923 INTER-LIGAND FREE ENERGY PREDICTED BY IDOCK:   -4.49 KCAL/MOL
REMARK 924 INTRA-LIGAND FREE ENERGY PREDICTED BY IDOCK:   -0.08 KCAL/MOL
REMARK 927      BINDING AFFINITY PREDICTED BY RF-SCORE:    0.00 PKD
ROOT
HETATM    1  C   UNL     1      -8.896   7.043  68.653  1.00  0.00    -0.128 C  
HETATM    2  C   UNL     1      -8.792   8.342  69.470  1.00  0.00    -0.149 C  
HETATM    3  C   UNL     1      -9.123   9.286  68.467  1.00  0.00    -0.132 A  
HETATM    4  C   UNL     1     -10.086  10.241  68.455  1.00  0.00    -0.159 A  
HETATM    5  N   UNL     1     -10.176  10.625  67.149  1.00  0.00    -0.206 NA 
HETATM    6  C   UNL     1     -11.161  11.611  66.762  1.00  0.00    -0.309 C  
HETATM    7  C   UNL     1      -9.317   9.856  66.352  1.00  0.00    -0.167 A  
HETATM    8  C   UNL     1      -8.686   8.920  67.174  1.00  0.00    -0.126 A  
HETATM    9  C   UNL     1      -8.025   7.657  66.725  1.00  0.00    -0.111 A  
HETATM   10  C   UNL     1      -7.691   7.721  65.370  1.00  0.00    -0.106 A  
HETATM   11  C   UNL     1      -8.299   6.201  67.526  1.00  0.00    -0.109 C  
HETATM   12  C   UNL     1      -8.556   4.984  68.276  1.00  0.00    -0.103 C  
HETATM   13  C   UNL     1      -8.193   8.774  64.547  1.00  0.00    -0.168 A  
HETATM   14  C   UNL     1      -9.076   9.794  64.989  1.00  0.00    -0.280 A  
HETATM   15  C   UNL     1      -9.445   4.945  69.748  1.00  0.00    -0.223 C  
HETATM   16  C   UNL     1     -10.716   5.795  69.498  1.00  0.00    -0.338 C  
HETATM   17  C   UNL     1     -10.960   6.928  67.245  1.00  0.00    -0.336 C  
HETATM   18  N   UNL     1     -10.322   6.761  68.540  1.00  0.00    -0.179 NA 
ENDROOT
BRANCH  15  19
HETATM   19  C   UNL     1      -8.496   5.448  70.880  1.00  0.00    -0.119 C  
HETATM   20  O   UNL     1      -7.274   5.308  70.815  1.00  0.00    -0.061 OA 
HETATM   21  H   UNL     1     -10.201   6.011  71.895  1.00  0.00     0.000 HD 
HETATM   22  N   UNL     1      -9.194   5.887  71.993  1.00  0.00    -0.147 N  
BRANCH  22  23
HETATM   23  CA  UNL     1      -8.605   6.186  73.295  1.00  0.00    -0.123 C  
BRANCH  23  24
HETATM   24  C   UNL     1      -8.670   4.956  74.251  1.00  0.00    -0.113 C  
HETATM   25  H   UNL     1      -9.119   3.015  74.162  1.00  0.00     0.000 HD 
HETATM   26  O   UNL     1      -9.079   3.764  73.579  1.00  0.00    -0.095 OA 
ENDBRANCH  23  24
BRANCH  23  27
HETATM   27  C   UNL     1      -9.371   7.385  73.846  1.00  0.00    -0.318 C  
HETATM   28  C   UNL     1      -9.203   8.591  72.948  1.00  0.00    -0.189 C  
ENDBRANCH  23  27
ENDBRANCH  22  23
ENDBRANCH  15  19
TORSDOF 4
ENDMDL
MODEL       90
REMARK 921   NORMALIZED FREE ENERGY PREDICTED BY IDOCK:   -3.87 KCAL/MOL
REMARK 922        TOTAL FREE ENERGY PREDICTED BY IDOCK:   -4.55 KCAL/MOL
REMARK 923 INTER-LIGAND FREE ENERGY PREDICTED BY IDOCK:   -5.18 KCAL/MOL
REMARK 924 INTRA-LIGAND FREE ENERGY PREDICTED BY IDOCK:    0.63 KCAL/MOL
REMARK 927      BINDING AFFINITY PREDICTED BY RF-SCORE:    0.00 PKD
ROOT
HETATM    1  C   UNL     1      -8.765   9.298  67.845  1.00  0.00    -0.124 C  
HETATM    2  C   UNL     1      -8.815   8.108  66.872  1.00  0.00    -0.145 C  
HETATM    3  C   UNL     1      -9.177   8.784  65.681  1.00  0.00    -0.244 A  
HETATM    4  C   UNL     1      -8.569   8.800  64.468  1.00  0.00    -0.099 A  
HETATM    5  N   UNL     1      -9.139   9.848  63.808  1.00  0.00    -0.250 NA 
HETATM    6  C   UNL     1      -8.679  10.190  62.480  1.00  0.00    -0.216 C  
HETATM    7  C   UNL     1     -10.047  10.516  64.642  1.00  0.00    -0.338 A  
HETATM    8  C   UNL     1     -10.025   9.895  65.891  1.00  0.00    -0.347 A  
HETATM    9  C   UNL     1     -10.494  10.490  67.180  1.00  0.00    -0.302 A  
HETATM   10  C   UNL     1     -11.380  11.546  66.949  1.00  0.00    -0.324 A  
HETATM   11  C   UNL     1      -9.568  10.370  68.581  1.00  0.00    -0.166 C  
HETATM   12  C   UNL     1      -8.735  10.207  69.760  1.00  0.00    -0.148 C  
HETATM   13  C   UNL     1     -11.543  12.085  65.637  1.00  0.00    -0.356 A  
HETATM   14  C   UNL     1     -10.825  11.653  64.491  1.00  0.00    -0.383 A  
HETATM   15  C   UNL     1      -7.321   9.229  69.797  1.00  0.00    -0.072 C  
HETATM   16  C   UNL     1      -6.521   9.593  68.522  1.00  0.00    -0.051 C  
HETATM   17  C   UNL     1      -7.539  11.274  66.923  1.00  0.00    -0.148 C  
HETATM   18  N   UNL     1      -7.503   9.976  67.576  1.00  0.00    -0.090 NA 
ENDROOT
BRANCH  15  19
HETATM   19  C   UNL     1      -7.785   7.744  69.914  1.00  0.00    -0.095 C  
HETATM   20  O   UNL     1      -7.253   6.842  69.266  1.00  0.00    -0.084 OA 
HETATM   21  H   UNL     1      -9.241   8.427  71.206  1.00  0.00     0.000 HD 
HETATM   22  N   UNL     1      -8.937   7.613  70.672  1.00  0.00    -0.152 N  
BRANCH  22  23
HETATM   23  CA  UNL     1      -9.752   6.405  70.769  1.00  0.00    -0.180 C  
BRANCH  23  24
HETATM   24  C   UNL     1     -10.223   5.915  69.366  1.00  0.00    -0.221 C  
HETATM   25  H   UNL     1     -11.932   5.575  68.397  1.00  0.00     0.000 HD 
HETATM   26  O   UNL     1     -11.646   5.873  69.252  1.00  0.00    -0.075 OA 
ENDBRANCH  23  24
BRANCH  23  27
HETATM   27  C   UNL     1     -10.924   6.751  71.682  1.00  0.00    -0.267 C  
HETATM   28  C   UNL     1     -10.938   5.860  72.905  1.00  0.00    -0.303 C  
ENDBRANCH  23  27
ENDBRANCH  22  23
ENDBRANCH  15  19
TORSDOF 4
ENDMDL
MODEL       91
REMARK 921   NORMALIZED FREE ENERGY PREDICTED BY IDOCK:   -3.87 KCAL/MOL
REMARK 922        TOTAL FREE ENERGY PREDICTED BY IDOCK:   -4.55 KCAL/MOL
REMARK 923 INTER-LIGAND FREE ENERGY PREDICTED BY IDOCK:   -5.24 KCAL/MOL
REMARK 924 INTRA-LIGAND FREE ENERGY PREDICTED BY IDOCK:    0.70 KCAL/MOL
REMARK 927      BINDING AFFINITY PREDICTED BY RF-SCORE:    0.00 PKD
ROOT
HETATM    1  C   UNL     1      -9.674   8.320  69.599  1.00  0.00    -0.173 C  
HETATM    2  C   UNL     1      -8.929   9.387  70.418  1.00  0.00    -0.294 C  
HETATM    3  C   UNL     1      -8.727   8.671  71.623  1.00  0.00    -0.270 A  
HETATM    4  C   UNL     1      -7.581   8.410  72.301  1.00  0.00    -0.103 A  
HETATM    5  N   UNL     1      -7.916   7.426  73.184  1.00  0.00    -0.100 NA 
HETATM    6  C   UNL     1      -6.900   6.864  74.045  1.00  0.00    -0.078 C  
HETATM    7  C   UNL     1      -9.250   7.036  72.999  1.00  0.00    -0.137 A  
HETATM    8  C   UNL     1      -9.772   7.771  71.933  1.00  0.00    -0.216 A  
HETATM    9  C   UNL     1     -10.979   7.416  71.125  1.00  0.00    -0.265 A  
HETATM   10  C   UNL     1     -11.805   6.531  71.824  1.00  0.00    -0.384 A  
HETATM   11  C   UNL     1     -10.958   7.505  69.444  1.00  0.00    -0.099 C  
HETATM   12  C   UNL     1     -10.882   7.630  67.999  1.00  0.00    -0.068 C  
HETATM   13  C   UNL     1     -11.346   5.897  73.017  1.00  0.00    -0.211 A  
HETATM   14  C   UNL     1     -10.049   6.060  73.572  1.00  0.00    -0.207 A  
HETATM   15  C   UNL     1      -9.539   8.318  67.173  1.00  0.00    -0.234 C  
HETATM   16  C   UNL     1      -8.280   7.675  67.803  1.00  0.00    -0.119 C  
HETATM   17  C   UNL     1      -8.609   6.059  69.727  1.00  0.00    -0.130 C  
HETATM   18  N   UNL     1      -8.650   7.389  69.140  1.00  0.00    -0.136 NA 
ENDROOT
BRANCH  15  19
HETATM   19  C   UNL     1      -9.656   9.869  67.305  1.00  0.00    -0.160 C  
HETATM   20  O   UNL     1      -8.694  10.570  67.619  1.00  0.00    -0.122 OA 
HETATM   21  H   UNL     1     -11.661   9.633  66.879  1.00  0.00     0.000 HD 
HETATM   22  N   UNL     1     -10.966  10.306  67.203  1.00  0.00    -0.218 N  
BRANCH  22  23
HETATM   23  CA  UNL     1     -11.436  11.652  67.522  1.00  0.00    -0.289 C  
BRANCH  23  24
HETATM   24  C   UNL     1     -10.943  12.695  66.472  1.00  0.00    -0.269 C  
HETATM   25  H   UNL     1     -11.579  14.391  65.638  1.00  0.00     0.000 HD 
HETATM   26  O   UNL     1     -11.879  13.756  66.278  1.00  0.00    -0.357 OA 
ENDBRANCH  23  24
BRANCH  23  27
HETATM   27  C   UNL     1     -10.926  11.962  68.925  1.00  0.00    -0.285 C  
HETATM   28  C   UNL     1     -12.078  12.209  69.876  1.00  0.00    -0.324 C  
ENDBRANCH  23  27
ENDBRANCH  22  23
ENDBRANCH  15  19
TORSDOF 4
ENDMDL
MODEL       92
REMARK 921   NORMALIZED FREE ENERGY PREDICTED BY IDOCK:   -3.86 KCAL/MOL
REMARK 922        TOTAL FREE ENERGY PREDICTED BY IDOCK:   -4.54 KCAL/MOL
REMARK 923 INTER-LIGAND FREE ENERGY PREDICTED BY IDOCK:   -4.91 KCAL/MOL
REMARK 924 INTRA-LIGAND FREE ENERGY PREDICTED BY IDOCK:    0.37 KCAL/MOL
REMARK 927      BINDING AFFINITY PREDICTED BY RF-SCORE:    0.00 PKD
ROOT
HETATM    1  C   UNL     1      -8.988   6.165  71.133  1.00  0.00    -0.143 C  
HETATM    2  C   UNL     1      -9.249   5.549  72.518  1.00  0.00    -0.150 C  
HETATM    3  C   UNL     1      -8.730   4.248  72.306  1.00  0.00    -0.118 A  
HETATM    4  C   UNL     1      -7.784   3.565  72.997  1.00  0.00    -0.065 A  
HETATM    5  N   UNL     1      -7.443   2.525  72.183  1.00  0.00    -0.043 NA 
HETATM    6  C   UNL     1      -6.403   1.608  72.594  1.00  0.00    -0.009 C  
HETATM    7  C   UNL     1      -8.132   2.612  70.964  1.00  0.00    -0.050 A  
HETATM    8  C   UNL     1      -8.909   3.771  70.988  1.00  0.00    -0.134 A  
HETATM    9  C   UNL     1      -9.469   4.481  69.798  1.00  0.00    -0.247 A  
HETATM   10  C   UNL     1      -9.535   3.628  68.693  1.00  0.00    -0.208 A  
HETATM   11  C   UNL     1      -9.354   6.154  69.649  1.00  0.00    -0.156 C  
HETATM   12  C   UNL     1      -9.246   7.601  69.595  1.00  0.00    -0.146 C  
HETATM   13  C   UNL     1      -8.884   2.358  68.715  1.00  0.00    -0.149 A  
HETATM   14  C   UNL     1      -8.104   1.868  69.795  1.00  0.00    -0.057 A  
HETATM   15  C   UNL     1      -8.659   8.560  70.897  1.00  0.00    -0.184 C  
HETATM   16  C   UNL     1      -7.365   7.864  71.385  1.00  0.00    -0.066 C  
HETATM   17  C   UNL     1      -6.690   5.694  70.263  1.00  0.00    -0.048 C  
HETATM   18  N   UNL     1      -7.567   6.490  71.107  1.00  0.00    -0.089 NA 
ENDROOT
BRANCH  15  19
HETATM   19  C   UNL     1      -9.809   8.681  71.944  1.00  0.00    -0.314 C  
HETATM   20  O   UNL     1      -9.629   8.448  73.139  1.00  0.00    -0.221 OA 
HETATM   21  H   UNL     1     -11.044   9.136  70.355  1.00  0.00     0.000 HD 
HETATM   22  N   UNL     1     -11.040   8.898  71.347  1.00  0.00    -0.279 N  
BRANCH  22  23
HETATM   23  CA  UNL     1     -12.333   8.815  72.021  1.00  0.00    -0.377 C  
BRANCH  23  24
HETATM   24  C   UNL     1     -13.191   7.634  71.472  1.00  0.00    -0.334 C  
HETATM   25  H   UNL     1     -13.147   5.641  71.444  1.00  0.00     0.000 HD 
HETATM   26  O   UNL     1     -12.624   6.360  71.779  1.00  0.00    -0.286 OA 
ENDBRANCH  23  24
BRANCH  23  27
HETATM   27  C   UNL     1     -13.011  10.165  71.814  1.00  0.00    -0.567 C  
HETATM   28  C   UNL     1     -12.176  11.059  70.923  1.00  0.00    -0.471 C  
ENDBRANCH  23  27
ENDBRANCH  22  23
ENDBRANCH  15  19
TORSDOF 4
ENDMDL
MODEL       93
REMARK 921   NORMALIZED FREE ENERGY PREDICTED BY IDOCK:   -3.78 KCAL/MOL
REMARK 922        TOTAL FREE ENERGY PREDICTED BY IDOCK:   -4.45 KCAL/MOL
REMARK 923 INTER-LIGAND FREE ENERGY PREDICTED BY IDOCK:   -4.78 KCAL/MOL
REMARK 924 INTRA-LIGAND FREE ENERGY PREDICTED BY IDOCK:    0.33 KCAL/MOL
REMARK 927      BINDING AFFINITY PREDICTED BY RF-SCORE:    0.00 PKD
ROOT
HETATM    1  C   UNL     1      -9.017   6.034  68.873  1.00  0.00    -0.123 C  
HETATM    2  C   UNL     1     -10.323   6.702  68.413  1.00  0.00    -0.220 C  
HETATM    3  C   UNL     1     -10.995   6.802  69.657  1.00  0.00    -0.336 A  
HETATM    4  C   UNL     1     -11.523   7.887  70.276  1.00  0.00    -0.088 A  
HETATM    5  N   UNL     1     -11.741   7.481  71.560  1.00  0.00    -0.270 NA 
HETATM    6  C   UNL     1     -12.260   8.422  72.528  1.00  0.00    -0.316 C  
HETATM    7  C   UNL     1     -11.281   6.169  71.743  1.00  0.00    -0.284 A  
HETATM    8  C   UNL     1     -10.714   5.738  70.543  1.00  0.00    -0.361 A  
HETATM    9  C   UNL     1      -9.751   4.606  70.380  1.00  0.00    -0.292 A  
HETATM   10  C   UNL     1      -9.825   3.727  71.463  1.00  0.00    -0.235 A  
HETATM   11  C   UNL     1      -8.366   4.771  69.436  1.00  0.00    -0.079 C  
HETATM   12  C   UNL     1      -7.205   4.970  68.587  1.00  0.00    -0.062 C  
HETATM   13  C   UNL     1     -10.549   4.084  72.641  1.00  0.00    -0.186 A  
HETATM   14  C   UNL     1     -11.204   5.328  72.841  1.00  0.00    -0.375 A  
HETATM   15  C   UNL     1      -6.959   6.376  67.627  1.00  0.00    -0.078 C  
HETATM   16  C   UNL     1      -7.257   7.580  68.555  1.00  0.00    -0.090 C  
HETATM   17  C   UNL     1      -8.036   7.092  70.917  1.00  0.00    -0.096 C  
HETATM   18  N   UNL     1      -8.221   7.097  69.474  1.00  0.00    -0.130 NA 
ENDROOT
BRANCH  15  19
HETATM   19  C   UNL     1      -7.866   6.243  66.364  1.00  0.00    -0.104 C  
HETATM   20  O   UNL     1      -8.558   7.176  65.958  1.00  0.00    -0.142 OA 
HETATM   21  H   UNL     1      -7.251   4.275  66.279  1.00  0.00     0.000 HD 
HETATM   22  N   UNL     1      -7.920   4.942  65.893  1.00  0.00    -0.105 N  
BRANCH  22  23
HETATM   23  CA  UNL     1      -8.857   4.444  64.890  1.00  0.00    -0.143 C  
BRANCH  23  24
HETATM   24  C   UNL     1     -10.309   4.357  65.453  1.00  0.00    -0.216 C  
HETATM   25  H   UNL     1     -12.140   3.911  64.803  1.00  0.00     0.000 HD 
HETATM   26  O   UNL     1     -11.256   3.964  64.460  1.00  0.00    -0.305 OA 
ENDBRANCH  23  24
BRANCH  23  27
HETATM   27  C   UNL     1      -8.329   3.084  64.447  1.00  0.00    -0.086 C  
HETATM   28  C   UNL     1      -7.141   2.666  65.287  1.00  0.00    -0.057 C  
ENDBRANCH  23  27
ENDBRANCH  22  23
ENDBRANCH  15  19
TORSDOF 4
ENDMDL
MODEL       94
REMARK 921   NORMALIZED FREE ENERGY PREDICTED BY IDOCK:   -3.76 KCAL/MOL
REMARK 922        TOTAL FREE ENERGY PREDICTED BY IDOCK:   -4.41 KCAL/MOL
REMARK 923 INTER-LIGAND FREE ENERGY PREDICTED BY IDOCK:   -4.83 KCAL/MOL
REMARK 924 INTRA-LIGAND FREE ENERGY PREDICTED BY IDOCK:    0.42 KCAL/MOL
REMARK 927      BINDING AFFINITY PREDICTED BY RF-SCORE:    0.00 PKD
ROOT
HETATM    1  C   UNL     1      -9.016   8.387  68.163  1.00  0.00    -0.139 C  
HETATM    2  C   UNL     1     -10.140   9.037  67.340  1.00  0.00    -0.291 C  
HETATM    3  C   UNL     1     -10.886   9.641  68.382  1.00  0.00    -0.212 A  
HETATM    4  C   UNL     1     -11.265  10.933  68.546  1.00  0.00    -0.274 A  
HETATM    5  N   UNL     1     -11.659  11.015  69.849  1.00  0.00    -0.307 NA 
HETATM    6  C   UNL     1     -12.083  12.289  70.387  1.00  0.00    -0.300 C  
HETATM    7  C   UNL     1     -11.456   9.790  70.501  1.00  0.00    -0.300 A  
HETATM    8  C   UNL     1     -10.874   8.907  69.590  1.00  0.00    -0.186 A  
HETATM    9  C   UNL     1     -10.116   7.664  69.928  1.00  0.00    -0.198 A  
HETATM   10  C   UNL     1     -10.436   7.218  71.214  1.00  0.00    -0.215 A  
HETATM   11  C   UNL     1      -8.649   7.308  69.182  1.00  0.00    -0.133 C  
HETATM   12  C   UNL     1      -7.404   7.048  68.483  1.00  0.00    -0.100 C  
HETATM   13  C   UNL     1     -11.182   8.046  72.106  1.00  0.00    -0.380 A  
HETATM   14  C   UNL     1     -11.621   9.364  71.809  1.00  0.00    -0.433 A  
HETATM   15  C   UNL     1      -6.833   8.002  67.170  1.00  0.00    -0.073 C  
HETATM   16  C   UNL     1      -6.991   9.476  67.618  1.00  0.00    -0.080 C  
HETATM   17  C   UNL     1      -8.040   9.922  69.881  1.00  0.00    -0.188 C  
HETATM   18  N   UNL     1      -8.098   9.468  68.501  1.00  0.00    -0.100 NA 
ENDROOT
BRANCH  15  19
HETATM   19  C   UNL     1      -7.638   7.580  65.902  1.00  0.00    -0.088 C  
HETATM   20  O   UNL     1      -8.249   8.400  65.216  1.00  0.00    -0.134 OA 
HETATM   21  H   UNL     1      -7.115   5.638  66.363  1.00  0.00     0.000 HD 
HETATM   22  N   UNL     1      -7.717   6.204  65.765  1.00  0.00    -0.091 N  
BRANCH  22  23
HETATM   23  CA  UNL     1      -8.592   5.496  64.835  1.00  0.00    -0.111 C  
BRANCH  23  24
HETATM   24  C   UNL     1      -9.789   4.821  65.573  1.00  0.00    -0.145 C  
HETATM   25  H   UNL     1     -11.250   5.332  66.830  1.00  0.00     0.000 HD 
HETATM   26  O   UNL     1     -10.521   5.743  66.381  1.00  0.00    -0.210 OA 
ENDBRANCH  23  24
BRANCH  23  27
HETATM   27  C   UNL     1      -7.715   4.481  64.110  1.00  0.00    -0.077 C  
HETATM   28  C   UNL     1      -7.174   3.448  65.075  1.00  0.00    -0.067 C  
ENDBRANCH  23  27
ENDBRANCH  22  23
ENDBRANCH  15  19
TORSDOF 4
ENDMDL
MODEL       95
REMARK 921   NORMALIZED FREE ENERGY PREDICTED BY IDOCK:   -3.72 KCAL/MOL
REMARK 922        TOTAL FREE ENERGY PREDICTED BY IDOCK:   -4.37 KCAL/MOL
REMARK 923 INTER-LIGAND FREE ENERGY PREDICTED BY IDOCK:   -4.74 KCAL/MOL
REMARK 924 INTRA-LIGAND FREE ENERGY PREDICTED BY IDOCK:    0.38 KCAL/MOL
REMARK 927      BINDING AFFINITY PREDICTED BY RF-SCORE:    0.00 PKD
ROOT
HETATM    1  C   UNL     1      -9.324   6.900  70.773  1.00  0.00    -0.161 C  
HETATM    2  C   UNL     1     -10.799   6.842  71.203  1.00  0.00    -0.270 C  
HETATM    3  C   UNL     1     -10.851   5.521  71.712  1.00  0.00    -0.277 A  
HETATM    4  C   UNL     1     -11.245   5.072  72.930  1.00  0.00    -0.271 A  
HETATM    5  N   UNL     1     -10.786   3.790  72.991  1.00  0.00    -0.167 NA 
HETATM    6  C   UNL     1     -10.988   3.016  74.196  1.00  0.00    -0.071 C  
HETATM    7  C   UNL     1     -10.051   3.477  71.839  1.00  0.00    -0.098 A  
HETATM    8  C   UNL     1     -10.007   4.615  71.031  1.00  0.00    -0.270 A  
HETATM    9  C   UNL     1      -9.021   4.884  69.940  1.00  0.00    -0.138 A  
HETATM   10  C   UNL     1      -8.435   3.697  69.493  1.00  0.00    -0.097 A  
HETATM   11  C   UNL     1      -8.262   6.381  69.804  1.00  0.00    -0.126 C  
HETATM   12  C   UNL     1      -7.663   7.702  69.726  1.00  0.00    -0.098 C  
HETATM   13  C   UNL     1      -8.611   2.480  70.219  1.00  0.00    -0.103 A  
HETATM   14  C   UNL     1      -9.332   2.363  71.436  1.00  0.00    -0.197 A  
HETATM   15  C   UNL     1      -8.145   9.024  70.715  1.00  0.00    -0.194 C  
HETATM   16  C   UNL     1      -8.222   8.467  72.158  1.00  0.00    -0.147 C  
HETATM   17  C   UNL     1      -7.757   6.000  72.504  1.00  0.00    -0.100 C  
HETATM   18  N   UNL     1      -8.563   7.101  72.000  1.00  0.00    -0.112 NA 
ENDROOT
BRANCH  15  19
HETATM   19  C   UNL     1      -9.475   9.587  70.124  1.00  0.00    -0.246 C  
HETATM   20  O   UNL     1     -10.460   9.805  70.830  1.00  0.00    -0.302 OA 
HETATM   21  H   UNL     1      -8.557   9.488  68.279  1.00  0.00     0.000 HD 
HETATM   22  N   UNL     1      -9.455   9.635  68.740  1.00  0.00    -0.146 N  
BRANCH  22  23
HETATM   23  CA  UNL     1     -10.614   9.879  67.886  1.00  0.00    -0.254 C  
BRANCH  23  24
HETATM   24  C   UNL     1     -10.609   8.952  66.633  1.00  0.00    -0.080 C  
HETATM   25  H   UNL     1      -9.652   7.330  65.977  1.00  0.00     0.000 HD 
HETATM   26  O   UNL     1      -9.655   7.894  66.741  1.00  0.00    -0.184 OA 
ENDBRANCH  23  24
BRANCH  23  27
HETATM   27  C   UNL     1     -10.566  11.356  67.511  1.00  0.00    -0.252 C  
HETATM   28  C   UNL     1     -11.586  12.148  68.300  1.00  0.00    -0.382 C  
ENDBRANCH  23  27
ENDBRANCH  22  23
ENDBRANCH  15  19
TORSDOF 4
ENDMDL
MODEL       96
REMARK 921   NORMALIZED FREE ENERGY PREDICTED BY IDOCK:   -3.72 KCAL/MOL
REMARK 922        TOTAL FREE ENERGY PREDICTED BY IDOCK:   -4.36 KCAL/MOL
REMARK 923 INTER-LIGAND FREE ENERGY PREDICTED BY IDOCK:   -5.62 KCAL/MOL
REMARK 924 INTRA-LIGAND FREE ENERGY PREDICTED BY IDOCK:    1.26 KCAL/MOL
REMARK 927      BINDING AFFINITY PREDICTED BY RF-SCORE:    0.00 PKD
ROOT
HETATM    1  C   UNL     1      -9.464   6.730  70.317  1.00  0.00    -0.162 C  
HETATM    2  C   UNL     1     -10.570   6.149  71.212  1.00  0.00    -0.295 C  
HETATM    3  C   UNL     1     -10.344   4.765  71.010  1.00  0.00    -0.188 A  
HETATM    4  C   UNL     1     -10.117   3.779  71.913  1.00  0.00    -0.124 A  
HETATM    5  N   UNL     1      -9.646   2.734  71.174  1.00  0.00    -0.155 NA 
HETATM    6  C   UNL     1      -9.246   1.513  71.838  1.00  0.00    -0.081 C  
HETATM    7  C   UNL     1      -9.519   3.105  69.827  1.00  0.00    -0.128 A  
HETATM    8  C   UNL     1      -9.886   4.447  69.712  1.00  0.00    -0.284 A  
HETATM    9  C   UNL     1      -9.525   5.365  68.589  1.00  0.00    -0.159 A  
HETATM   10  C   UNL     1      -9.179   4.643  67.444  1.00  0.00    -0.146 A  
HETATM   11  C   UNL     1      -8.957   6.922  68.887  1.00  0.00    -0.131 C  
HETATM   12  C   UNL     1      -8.500   8.262  69.212  1.00  0.00    -0.126 C  
HETATM   13  C   UNL     1      -8.966   3.233  67.511  1.00  0.00    -0.178 A  
HETATM   14  C   UNL     1      -9.038   2.460  68.699  1.00  0.00    -0.200 A  
HETATM   15  C   UNL     1      -8.506   8.908  70.806  1.00  0.00    -0.216 C  
HETATM   16  C   UNL     1      -7.891   7.811  71.710  1.00  0.00    -0.090 C  
HETATM   17  C   UNL     1      -7.250   5.609  70.633  1.00  0.00    -0.078 C  
HETATM   18  N   UNL     1      -8.227   6.590  71.076  1.00  0.00    -0.120 NA 
ENDROOT
BRANCH  15  19
HETATM   19  C   UNL     1      -9.973   9.325  71.135  1.00  0.00    -0.286 C  
HETATM   20  O   UNL     1     -10.592   8.838  72.081  1.00  0.00    -0.340 OA 
HETATM   21  H   UNL     1      -9.880  10.524  69.458  1.00  0.00     0.000 HD 
HETATM   22  N   UNL     1     -10.517  10.142  70.157  1.00  0.00    -0.275 N  
BRANCH  22  23
HETATM   23  CA  UNL     1     -11.928  10.501  70.045  1.00  0.00    -0.288 C  
BRANCH  23  24
HETATM   24  C   UNL     1     -12.151  11.632  68.994  1.00  0.00    -0.225 C  
HETATM   25  H   UNL     1     -12.057  11.875  67.017  1.00  0.00     0.000 HD 
HETATM   26  O   UNL     1     -11.922  11.186  67.657  1.00  0.00    -0.613 OA 
ENDBRANCH  23  24
BRANCH  23  27
HETATM   27  C   UNL     1     -12.377  10.916  71.442  1.00  0.00    -0.403 C  
HETATM   28  C   UNL     1     -13.641  10.187  71.842  1.00  0.00    -0.333 C  
ENDBRANCH  23  27
ENDBRANCH  22  23
ENDBRANCH  15  19
TORSDOF 4
ENDMDL
MODEL       97
REMARK 921   NORMALIZED FREE ENERGY PREDICTED BY IDOCK:   -3.64 KCAL/MOL
REMARK 922        TOTAL FREE ENERGY PREDICTED BY IDOCK:   -4.27 KCAL/MOL
REMARK 923 INTER-LIGAND FREE ENERGY PREDICTED BY IDOCK:   -4.72 KCAL/MOL
REMARK 924 INTRA-LIGAND FREE ENERGY PREDICTED BY IDOCK:    0.45 KCAL/MOL
REMARK 927      BINDING AFFINITY PREDICTED BY RF-SCORE:    0.00 PKD
ROOT
HETATM    1  C   UNL     1      -8.619   9.224  68.793  1.00  0.00    -0.131 C  
HETATM    2  C   UNL     1      -9.816  10.126  68.449  1.00  0.00    -0.164 C  
HETATM    3  C   UNL     1     -10.786   9.589  69.331  1.00  0.00    -0.244 A  
HETATM    4  C   UNL     1     -11.539  10.205  70.276  1.00  0.00    -0.302 A  
HETATM    5  N   UNL     1     -12.042   9.188  71.034  1.00  0.00    -0.285 NA 
HETATM    6  C   UNL     1     -12.862   9.494  72.185  1.00  0.00    -0.389 C  
HETATM    7  C   UNL     1     -11.540   7.955  70.594  1.00  0.00    -0.204 A  
HETATM    8  C   UNL     1     -10.655   8.198  69.542  1.00  0.00    -0.215 A  
HETATM    9  C   UNL     1      -9.595   7.266  69.049  1.00  0.00    -0.147 A  
HETATM   10  C   UNL     1      -9.871   5.950  69.428  1.00  0.00    -0.207 A  
HETATM   11  C   UNL     1      -8.034   7.813  68.733  1.00  0.00    -0.125 C  
HETATM   12  C   UNL     1      -6.716   8.353  68.454  1.00  0.00    -0.064 C  
HETATM   13  C   UNL     1     -10.896   5.668  70.382  1.00  0.00    -0.326 A  
HETATM   14  C   UNL     1     -11.677   6.652  71.044  1.00  0.00    -0.415 A  
HETATM   15  C   UNL     1      -6.347  10.033  68.502  1.00  0.00    -0.049 C  
HETATM   16  C   UNL     1      -6.965  10.565  69.818  1.00  0.00    -0.144 C  
HETATM   17  C   UNL     1      -8.275   8.940  71.255  1.00  0.00    -0.157 C  
HETATM   18  N   UNL     1      -8.089   9.735  70.051  1.00  0.00    -0.178 NA 
ENDROOT
BRANCH  15  19
HETATM   19  C   UNL     1      -6.890  10.667  67.183  1.00  0.00    -0.083 C  
HETATM   20  O   UNL     1      -7.412  11.782  67.163  1.00  0.00    -0.135 OA 
HETATM   21  H   UNL     1      -6.355   8.903  66.257  1.00  0.00     0.000 HD 
HETATM   22  N   UNL     1      -6.870   9.773  66.125  1.00  0.00    -0.087 N  
BRANCH  22  23
HETATM   23  CA  UNL     1      -7.527   9.974  64.836  1.00  0.00    -0.140 C  
BRANCH  23  24
HETATM   24  C   UNL     1      -8.430   8.761  64.456  1.00  0.00    -0.140 C  
HETATM   25  H   UNL     1      -8.298   6.774  64.353  1.00  0.00     0.000 HD 
HETATM   26  O   UNL     1      -7.747   7.513  64.585  1.00  0.00    -0.107 OA 
ENDBRANCH  23  24
BRANCH  23  27
HETATM   27  C   UNL     1      -6.414  10.205  63.820  1.00  0.00    -0.125 C  
HETATM   28  C   UNL     1      -6.984  10.427  62.436  1.00  0.00    -0.155 C  
ENDBRANCH  23  27
ENDBRANCH  22  23
ENDBRANCH  15  19
TORSDOF 4
ENDMDL
MODEL       98
REMARK 921   NORMALIZED FREE ENERGY PREDICTED BY IDOCK:   -3.60 KCAL/MOL
REMARK 922        TOTAL FREE ENERGY PREDICTED BY IDOCK:   -4.22 KCAL/MOL
REMARK 923 INTER-LIGAND FREE ENERGY PREDICTED BY IDOCK:   -4.46 KCAL/MOL
REMARK 924 INTRA-LIGAND FREE ENERGY PREDICTED BY IDOCK:    0.25 KCAL/MOL
REMARK 927      BINDING AFFINITY PREDICTED BY RF-SCORE:    0.00 PKD
ROOT
HETATM    1  C   UNL     1      -9.456   7.575  68.840  1.00  0.00    -0.145 C  
HETATM    2  C   UNL     1      -8.160   7.818  69.632  1.00  0.00    -0.122 C  
HETATM    3  C   UNL     1      -7.730   9.026  69.030  1.00  0.00    -0.089 A  
HETATM    4  C   UNL     1      -7.426  10.221  69.595  1.00  0.00    -0.158 A  
HETATM    5  N   UNL     1      -7.399  11.100  68.553  1.00  0.00    -0.096 NA 
HETATM    6  C   UNL     1      -7.151  12.502  68.808  1.00  0.00    -0.092 C  
HETATM    7  C   UNL     1      -7.753  10.456  67.359  1.00  0.00    -0.095 A  
HETATM    8  C   UNL     1      -8.057   9.126  67.658  1.00  0.00    -0.104 A  
HETATM    9  C   UNL     1      -8.861   8.194  66.811  1.00  0.00    -0.156 A  
HETATM   10  C   UNL     1      -8.893   8.627  65.483  1.00  0.00    -0.220 A  
HETATM   11  C   UNL     1     -10.069   7.231  67.482  1.00  0.00    -0.250 C  
HETATM   12  C   UNL     1     -11.077   6.409  68.128  1.00  0.00    -0.358 C  
HETATM   13  C   UNL     1      -8.425   9.929  65.131  1.00  0.00    -0.158 A  
HETATM   14  C   UNL     1      -7.940  10.891  66.057  1.00  0.00    -0.132 A  
HETATM   15  C   UNL     1     -11.286   6.325  69.833  1.00  0.00    -0.504 C  
HETATM   16  C   UNL     1     -11.274   7.790  70.333  1.00  0.00    -0.237 C  
HETATM   17  C   UNL     1     -10.878   9.623  68.628  1.00  0.00    -0.167 C  
HETATM   18  N   UNL     1     -10.445   8.479  69.415  1.00  0.00    -0.220 NA 
ENDROOT
BRANCH  15  19
HETATM   19  C   UNL     1     -10.164   5.398  70.396  1.00  0.00    -0.262 C  
HETATM   20  O   UNL     1      -9.544   5.676  71.422  1.00  0.00    -0.150 OA 
HETATM   21  H   UNL     1     -10.483   4.209  68.741  1.00  0.00     0.000 HD 
HETATM   22  N   UNL     1      -9.853   4.365  69.527  1.00  0.00    -0.212 N  
BRANCH  22  23
HETATM   23  CA  UNL     1      -8.696   3.481  69.645  1.00  0.00    -0.074 C  
BRANCH  23  24
HETATM   24  C   UNL     1      -7.384   4.189  69.189  1.00  0.00    -0.054 C  
HETATM   25  H   UNL     1      -5.763   5.007  70.013  1.00  0.00     0.000 HD 
HETATM   26  O   UNL     1      -6.562   4.576  70.291  1.00  0.00    -0.033 OA 
ENDBRANCH  23  24
BRANCH  23  27
HETATM   27  C   UNL     1      -9.010   2.250  68.802  1.00  0.00    -0.173 C  
HETATM   28  C   UNL     1      -9.159   2.619  67.342  1.00  0.00    -0.205 C  
ENDBRANCH  23  27
ENDBRANCH  22  23
ENDBRANCH  15  19
TORSDOF 4
ENDMDL
MODEL       99
REMARK 921   NORMALIZED FREE ENERGY PREDICTED BY IDOCK:   -3.57 KCAL/MOL
REMARK 922        TOTAL FREE ENERGY PREDICTED BY IDOCK:   -4.19 KCAL/MOL
REMARK 923 INTER-LIGAND FREE ENERGY PREDICTED BY IDOCK:   -4.79 KCAL/MOL
REMARK 924 INTRA-LIGAND FREE ENERGY PREDICTED BY IDOCK:    0.60 KCAL/MOL
REMARK 927      BINDING AFFINITY PREDICTED BY RF-SCORE:    0.00 PKD
ROOT
HETATM    1  C   UNL     1      -9.497   6.846  70.019  1.00  0.00    -0.158 C  
HETATM    2  C   UNL     1      -8.039   7.330  69.961  1.00  0.00    -0.130 C  
HETATM    3  C   UNL     1      -7.569   6.834  71.201  1.00  0.00    -0.088 A  
HETATM    4  C   UNL     1      -6.515   6.025  71.473  1.00  0.00    -0.050 A  
HETATM    5  N   UNL     1      -6.720   5.607  72.755  1.00  0.00    -0.071 NA 
HETATM    6  C   UNL     1      -5.795   4.673  73.358  1.00  0.00    -0.017 C  
HETATM    7  C   UNL     1      -7.936   6.105  73.244  1.00  0.00    -0.103 A  
HETATM    8  C   UNL     1      -8.547   6.835  72.222  1.00  0.00    -0.121 A  
HETATM    9  C   UNL     1      -9.997   7.188  72.136  1.00  0.00    -0.183 A  
HETATM   10  C   UNL     1     -10.602   7.121  73.394  1.00  0.00    -0.424 A  
HETATM   11  C   UNL     1     -10.857   6.991  70.703  1.00  0.00    -0.274 C  
HETATM   12  C   UNL     1     -11.534   6.823  69.429  1.00  0.00    -0.208 C  
HETATM   13  C   UNL     1      -9.920   6.528  74.499  1.00  0.00    -0.358 A  
HETATM   14  C   UNL     1      -8.633   5.934  74.429  1.00  0.00    -0.115 A  
HETATM   15  C   UNL     1     -10.725   6.398  67.971  1.00  0.00    -0.362 C  
HETATM   16  C   UNL     1      -9.793   5.216  68.334  1.00  0.00    -0.152 C  
HETATM   17  C   UNL     1      -9.716   4.464  70.752  1.00  0.00    -0.201 C  
HETATM   18  N   UNL     1      -9.455   5.426  69.693  1.00  0.00    -0.137 NA 
ENDROOT
BRANCH  15  19
HETATM   19  C   UNL     1     -10.025   7.685  67.434  1.00  0.00    -0.192 C  
HETATM   20  O   UNL     1      -8.917   7.648  66.897  1.00  0.00    -0.128 OA 
HETATM   21  H   UNL     1     -11.641   8.729  68.178  1.00  0.00     0.000 HD 
HETATM   22  N   UNL     1     -10.705   8.838  67.789  1.00  0.00    -0.181 N  
BRANCH  22  23
HETATM   23  CA  UNL     1     -10.190  10.198  67.654  1.00  0.00    -0.203 C  
BRANCH  23  24
HETATM   24  C   UNL     1     -10.929  11.189  68.604  1.00  0.00    -0.220 C  
HETATM   25  H   UNL     1     -10.961  13.145  68.993  1.00  0.00     0.000 HD 
HETATM   26  O   UNL     1     -10.511  12.541  68.414  1.00  0.00    -0.229 OA 
ENDBRANCH  23  24
BRANCH  23  27
HETATM   27  C   UNL     1     -10.357  10.575  66.185  1.00  0.00    -0.276 C  
HETATM   28  C   UNL     1      -9.014  10.646  65.490  1.00  0.00    -0.209 C  
ENDBRANCH  23  27
ENDBRANCH  22  23
ENDBRANCH  15  19
TORSDOF 4
ENDMDL
MODEL      100
REMARK 921   NORMALIZED FREE ENERGY PREDICTED BY IDOCK:   -3.57 KCAL/MOL
REMARK 922        TOTAL FREE ENERGY PREDICTED BY IDOCK:   -4.18 KCAL/MOL
REMARK 923 INTER-LIGAND FREE ENERGY PREDICTED BY IDOCK:   -4.46 KCAL/MOL
REMARK 924 INTRA-LIGAND FREE ENERGY PREDICTED BY IDOCK:    0.28 KCAL/MOL
REMARK 927      BINDING AFFINITY PREDICTED BY RF-SCORE:    0.00 PKD
ROOT
HETATM    1  C   UNL     1     -10.025   9.763  68.621  1.00  0.00    -0.167 C  
HETATM    2  C   UNL     1      -8.501   9.712  68.823  1.00  0.00    -0.123 C  
HETATM    3  C   UNL     1      -8.338   8.331  69.093  1.00  0.00    -0.123 A  
HETATM    4  C   UNL     1      -7.546   7.412  68.485  1.00  0.00    -0.114 A  
HETATM    5  N   UNL     1      -8.021   6.208  68.914  1.00  0.00    -0.100 NA 
HETATM    6  C   UNL     1      -7.430   4.988  68.411  1.00  0.00    -0.074 C  
HETATM    7  C   UNL     1      -9.148   6.388  69.729  1.00  0.00    -0.141 A  
HETATM    8  C   UNL     1      -9.424   7.755  69.790  1.00  0.00    -0.160 A  
HETATM    9  C   UNL     1     -10.728   8.374  70.180  1.00  0.00    -0.238 A  
HETATM   10  C   UNL     1     -11.504   7.479  70.921  1.00  0.00    -0.303 A  
HETATM   11  C   UNL     1     -11.398   9.629  69.280  1.00  0.00    -0.003 C  
HETATM   12  C   UNL     1     -11.908  10.727  68.477  1.00  0.00    -0.168 C  
HETATM   13  C   UNL     1     -11.139   6.102  71.011  1.00  0.00    -0.359 A  
HETATM   14  C   UNL     1     -10.026   5.516  70.353  1.00  0.00    -0.279 A  
HETATM   15  C   UNL     1     -11.020  11.464  67.201  1.00  0.00    -0.340 C  
HETATM   16  C   UNL     1     -10.444  10.300  66.358  1.00  0.00    -0.163 C  
HETATM   17  C   UNL     1     -10.885   7.933  67.148  1.00  0.00    -0.116 C  
HETATM   18  N   UNL     1     -10.263   9.241  67.281  1.00  0.00    -0.233 NA 
ENDROOT
BRANCH  15  19
HETATM   19  C   UNL     1      -9.975  12.422  67.854  1.00  0.00    -0.204 C  
HETATM   20  O   UNL     1     -10.150  12.914  68.969  1.00  0.00    -0.005 OA 
HETATM   21  H   UNL     1      -8.897  12.241  66.104  1.00  0.00     0.000 HD 
HETATM   22  N   UNL     1      -8.961  12.767  66.976  1.00  0.00    -0.216 N  
BRANCH  22  23
HETATM   23  CA  UNL     1      -7.976  13.823  67.195  1.00  0.00    -0.044 C  
BRANCH  23  24
HETATM   24  C   UNL     1      -7.098  13.537  68.452  1.00  0.00    -0.107 C  
HETATM   25  H   UNL     1      -5.810  14.504  69.627  1.00  0.00     0.000 HD 
HETATM   26  O   UNL     1      -6.345  14.679  68.862  1.00  0.00    -0.084 OA 
ENDBRANCH  23  24
BRANCH  23  27
HETATM   27  C   UNL     1      -8.763  15.122  67.325  1.00  0.00    -0.221 C  
HETATM   28  C   UNL     1      -9.232  15.607  65.970  1.00  0.00    -0.374 C  
ENDBRANCH  23  27
ENDBRANCH  22  23
ENDBRANCH  15  19
TORSDOF 4
ENDMDL
MODEL      101
REMARK 921   NORMALIZED FREE ENERGY PREDICTED BY IDOCK:   -3.52 KCAL/MOL
REMARK 922        TOTAL FREE ENERGY PREDICTED BY IDOCK:   -4.12 KCAL/MOL
REMARK 923 INTER-LIGAND FREE ENERGY PREDICTED BY IDOCK:   -5.15 KCAL/MOL
REMARK 924 INTRA-LIGAND FREE ENERGY PREDICTED BY IDOCK:    1.03 KCAL/MOL
REMARK 927      BINDING AFFINITY PREDICTED BY RF-SCORE:    0.00 PKD
ROOT
HETATM    1  C   UNL     1      -8.961   9.718  67.878  1.00  0.00    -0.118 C  
HETATM    2  C   UNL     1      -8.850  10.609  69.126  1.00  0.00    -0.133 C  
HETATM    3  C   UNL     1      -8.086   9.759  69.963  1.00  0.00    -0.203 A  
HETATM    4  C   UNL     1      -6.910   9.990  70.599  1.00  0.00    -0.047 A  
HETATM    5  N   UNL     1      -6.474   8.755  70.980  1.00  0.00    -0.050 NA 
HETATM    6  C   UNL     1      -5.200   8.623  71.650  1.00  0.00    -0.036 C  
HETATM    7  C   UNL     1      -7.349   7.762  70.516  1.00  0.00    -0.072 A  
HETATM    8  C   UNL     1      -8.359   8.385  69.779  1.00  0.00    -0.125 A  
HETATM    9  C   UNL     1      -9.249   7.727  68.775  1.00  0.00    -0.139 A  
HETATM   10  C   UNL     1      -9.292   6.345  68.974  1.00  0.00    -0.127 A  
HETATM   11  C   UNL     1      -9.548   8.440  67.278  1.00  0.00    -0.215 C  
HETATM   12  C   UNL     1      -9.785   9.120  66.018  1.00  0.00    -0.358 C  
HETATM   13  C   UNL     1      -8.372   5.709  69.860  1.00  0.00    -0.117 A  
HETATM   14  C   UNL     1      -7.338   6.377  70.568  1.00  0.00    -0.085 A  
HETATM   15  C   UNL     1      -9.234  10.714  65.679  1.00  0.00    -0.227 C  
HETATM   16  C   UNL     1      -7.753  10.755  66.131  1.00  0.00    -0.149 C  
HETATM   17  C   UNL     1      -6.786   8.677  67.212  1.00  0.00    -0.063 C  
HETATM   18  N   UNL     1      -7.676   9.827  67.199  1.00  0.00    -0.095 NA 
ENDROOT
BRANCH  15  19
HETATM   19  C   UNL     1     -10.200  11.705  66.400  1.00  0.00    -0.221 C  
HETATM   20  O   UNL     1     -11.058  11.317  67.193  1.00  0.00    -0.279 OA 
HETATM   21  H   UNL     1      -9.291  13.199  65.305  1.00  0.00     0.000 HD 
HETATM   22  N   UNL     1     -10.084  12.997  65.915  1.00  0.00    -0.286 N  
BRANCH  22  23
HETATM   23  CA  UNL     1     -11.003  14.094  66.204  1.00  0.00    -0.309 C  
BRANCH  23  24
HETATM   24  C   UNL     1     -11.674  14.638  64.905  1.00  0.00    -0.403 C  
HETATM   25  H   UNL     1     -13.419  14.493  63.951  1.00  0.00     0.000 HD 
HETATM   26  O   UNL     1     -13.011  14.161  64.742  1.00  0.00    -0.674 OA 
ENDBRANCH  23  24
BRANCH  23  27
HETATM   27  C   UNL     1     -10.184  15.162  66.920  1.00  0.00    -0.259 C  
HETATM   28  C   UNL     1     -10.095  16.423  66.087  1.00  0.00    -0.364 C  
ENDBRANCH  23  27
ENDBRANCH  22  23
ENDBRANCH  15  19
TORSDOF 4
ENDMDL
MODEL      102
REMARK 921   NORMALIZED FREE ENERGY PREDICTED BY IDOCK:   -3.49 KCAL/MOL
REMARK 922        TOTAL FREE ENERGY PREDICTED BY IDOCK:   -4.08 KCAL/MOL
REMARK 923 INTER-LIGAND FREE ENERGY PREDICTED BY IDOCK:   -4.42 KCAL/MOL
REMARK 924 INTRA-LIGAND FREE ENERGY PREDICTED BY IDOCK:    0.34 KCAL/MOL
REMARK 927      BINDING AFFINITY PREDICTED BY RF-SCORE:    0.00 PKD
ROOT
HETATM    1  C   UNL     1      -9.236   7.591  67.677  1.00  0.00    -0.127 C  
HETATM    2  C   UNL     1      -7.704   7.661  67.790  1.00  0.00    -0.122 C  
HETATM    3  C   UNL     1      -7.521   9.065  67.741  1.00  0.00    -0.085 A  
HETATM    4  C   UNL     1      -6.885   9.891  68.608  1.00  0.00    -0.051 A  
HETATM    5  N   UNL     1      -7.292  11.144  68.255  1.00  0.00    -0.085 NA 
HETATM    6  C   UNL     1      -6.838  12.284  69.019  1.00  0.00    -0.094 C  
HETATM    7  C   UNL     1      -8.231  11.078  67.215  1.00  0.00    -0.125 A  
HETATM    8  C   UNL     1      -8.460   9.733  66.923  1.00  0.00    -0.120 A  
HETATM    9  C   UNL     1      -9.647   9.176  66.205  1.00  0.00    -0.333 A  
HETATM   10  C   UNL     1     -10.282  10.165  65.447  1.00  0.00    -0.281 A  
HETATM   11  C   UNL     1     -10.455   7.816  66.782  1.00  0.00    -0.318 C  
HETATM   12  C   UNL     1     -11.089   6.624  67.317  1.00  0.00    -0.418 C  
HETATM   13  C   UNL     1      -9.937  11.541  65.613  1.00  0.00    -0.275 A  
HETATM   14  C   UNL     1      -8.988  12.029  66.549  1.00  0.00    -0.193 A  
HETATM   15  C   UNL     1     -10.454   5.721  68.636  1.00  0.00    -0.298 C  
HETATM   16  C   UNL     1     -10.081   6.761  69.721  1.00  0.00    -0.183 C  
HETATM   17  C   UNL     1     -10.410   9.213  69.176  1.00  0.00    -0.212 C  
HETATM   18  N   UNL     1      -9.746   7.932  68.999  1.00  0.00    -0.159 NA 
ENDROOT
BRANCH  15  19
HETATM   19  C   UNL     1      -9.280   4.853  68.085  1.00  0.00    -0.123 C  
HETATM   20  O   UNL     1      -8.202   4.765  68.675  1.00  0.00    -0.083 OA 
HETATM   21  H   UNL     1     -10.493   4.457  66.464  1.00  0.00     0.000 HD 
HETATM   22  N   UNL     1      -9.539   4.367  66.815  1.00  0.00    -0.184 N  
BRANCH  22  23
HETATM   23  CA  UNL     1      -8.559   3.735  65.935  1.00  0.00    -0.113 C  
BRANCH  23  24
HETATM   24  C   UNL     1      -8.511   4.426  64.538  1.00  0.00    -0.119 C  
HETATM   25  H   UNL     1      -8.242   6.252  63.783  1.00  0.00     0.000 HD 
HETATM   26  O   UNL     1      -8.272   5.831  64.634  1.00  0.00    -0.129 OA 
ENDBRANCH  23  24
BRANCH  23  27
HETATM   27  C   UNL     1      -8.957   2.266  65.837  1.00  0.00    -0.110 C  
HETATM   28  C   UNL     1      -8.320   1.613  64.629  1.00  0.00    -0.079 C  
ENDBRANCH  23  27
ENDBRANCH  22  23
ENDBRANCH  15  19
TORSDOF 4
ENDMDL
MODEL      103
REMARK 921   NORMALIZED FREE ENERGY PREDICTED BY IDOCK:   -3.45 KCAL/MOL
REMARK 922        TOTAL FREE ENERGY PREDICTED BY IDOCK:   -4.04 KCAL/MOL
REMARK 923 INTER-LIGAND FREE ENERGY PREDICTED BY IDOCK:   -4.19 KCAL/MOL
REMARK 924 INTRA-LIGAND FREE ENERGY PREDICTED BY IDOCK:    0.16 KCAL/MOL
REMARK 927      BINDING AFFINITY PREDICTED BY RF-SCORE:    0.00 PKD
ROOT
HETATM    1  C   UNL     1      -8.461   6.977  69.780  1.00  0.00    -0.137 C  
HETATM    2  C   UNL     1      -9.715   7.573  70.440  1.00  0.00    -0.179 C  
HETATM    3  C   UNL     1     -10.084   6.494  71.280  1.00  0.00    -0.208 A  
HETATM    4  C   UNL     1     -10.294   6.465  72.620  1.00  0.00    -0.195 A  
HETATM    5  N   UNL     1     -10.295   5.140  72.943  1.00  0.00    -0.186 NA 
HETATM    6  C   UNL     1     -10.444   4.742  74.325  1.00  0.00    -0.287 C  
HETATM    7  C   UNL     1     -10.017   4.361  71.811  1.00  0.00    -0.186 A  
HETATM    8  C   UNL     1      -9.791   5.223  70.736  1.00  0.00    -0.261 A  
HETATM    9  C   UNL     1      -9.073   4.884  69.470  1.00  0.00    -0.149 A  
HETATM   10  C   UNL     1      -9.051   3.502  69.263  1.00  0.00    -0.200 A  
HETATM   11  C   UNL     1      -7.911   5.917  68.825  1.00  0.00    -0.095 C  
HETATM   12  C   UNL     1      -6.940   6.865  68.307  1.00  0.00    -0.080 C  
HETATM   13  C   UNL     1      -9.444   2.604  70.301  1.00  0.00    -0.171 A  
HETATM   14  C   UNL     1      -9.840   3.002  71.606  1.00  0.00    -0.214 A  
HETATM   15  C   UNL     1      -6.687   8.429  68.978  1.00  0.00    -0.052 C  
HETATM   16  C   UNL     1      -6.591   8.223  70.509  1.00  0.00    -0.036 C  
HETATM   17  C   UNL     1      -6.917   5.878  71.413  1.00  0.00    -0.072 C  
HETATM   18  N   UNL     1      -7.400   7.091  70.773  1.00  0.00    -0.072 NA 
ENDROOT
BRANCH  15  19
HETATM   19  C   UNL     1      -7.850   9.343  68.480  1.00  0.00    -0.089 C  
HETATM   20  O   UNL     1      -8.492  10.058  69.251  1.00  0.00    -0.137 OA 
HETATM   21  H   UNL     1      -7.516   8.544  66.608  1.00  0.00     0.000 HD 
HETATM   22  N   UNL     1      -8.164   9.115  67.151  1.00  0.00    -0.113 N  
BRANCH  22  23
HETATM   23  CA  UNL     1      -9.347   9.623  66.462  1.00  0.00    -0.165 C  
BRANCH  23  24
HETATM   24  C   UNL     1     -10.647   8.919  66.958  1.00  0.00    -0.209 C  
HETATM   25  H   UNL     1     -11.316   7.068  67.276  1.00  0.00     0.000 HD 
HETATM   26  O   UNL     1     -10.523   7.496  66.975  1.00  0.00    -0.293 OA 
ENDBRANCH  23  24
BRANCH  23  27
HETATM   27  C   UNL     1      -9.104   9.403  64.973  1.00  0.00    -0.271 C  
HETATM   28  C   UNL     1      -7.950   8.449  64.749  1.00  0.00    -0.138 C  
ENDBRANCH  23  27
ENDBRANCH  22  23
ENDBRANCH  15  19
TORSDOF 4
ENDMDL
MODEL      104
REMARK 921   NORMALIZED FREE ENERGY PREDICTED BY IDOCK:   -3.44 KCAL/MOL
REMARK 922        TOTAL FREE ENERGY PREDICTED BY IDOCK:   -4.02 KCAL/MOL
REMARK 923 INTER-LIGAND FREE ENERGY PREDICTED BY IDOCK:   -3.71 KCAL/MOL
REMARK 924 INTRA-LIGAND FREE ENERGY PREDICTED BY IDOCK:   -0.31 KCAL/MOL
REMARK 927      BINDING AFFINITY PREDICTED BY RF-SCORE:    0.00 PKD
ROOT
HETATM    1  C   UNL     1      -8.676   5.477  69.547  1.00  0.00    -0.104 C  
HETATM    2  C   UNL     1      -7.398   6.249  69.180  1.00  0.00    -0.089 C  
HETATM    3  C   UNL     1      -7.577   6.363  67.779  1.00  0.00    -0.102 A  
HETATM    4  C   UNL     1      -7.586   7.465  66.989  1.00  0.00    -0.106 A  
HETATM    5  N   UNL     1      -8.119   7.040  65.808  1.00  0.00    -0.116 NA 
HETATM    6  C   UNL     1      -8.326   7.989  64.736  1.00  0.00    -0.077 C  
HETATM    7  C   UNL     1      -8.501   5.694  65.899  1.00  0.00    -0.136 A  
HETATM    8  C   UNL     1      -8.237   5.257  67.198  1.00  0.00    -0.108 A  
HETATM    9  C   UNL     1      -8.841   4.063  67.866  1.00  0.00    -0.132 A  
HETATM   10  C   UNL     1      -9.341   3.162  66.922  1.00  0.00    -0.163 A  
HETATM   11  C   UNL     1      -9.436   4.154  69.439  1.00  0.00    -0.260 C  
HETATM   12  C   UNL     1      -9.905   4.293  70.806  1.00  0.00    -0.265 C  
HETATM   13  C   UNL     1      -9.458   3.537  65.549  1.00  0.00    -0.147 A  
HETATM   14  C   UNL     1      -9.135   4.819  65.032  1.00  0.00    -0.150 A  
HETATM   15  C   UNL     1      -9.656   5.704  71.758  1.00  0.00    -0.184 C  
HETATM   16  C   UNL     1     -10.039   6.899  70.851  1.00  0.00    -0.194 C  
HETATM   17  C   UNL     1     -10.733   6.404  68.465  1.00  0.00    -0.288 C  
HETATM   18  N   UNL     1      -9.750   6.462  69.536  1.00  0.00    -0.150 NA 
ENDROOT
BRANCH  15  19
HETATM   19  C   UNL     1      -8.180   5.671  72.263  1.00  0.00    -0.108 C  
HETATM   20  O   UNL     1      -7.622   4.619  72.575  1.00  0.00    -0.082 OA 
HETATM   21  H   UNL     1      -8.211   7.729  72.117  1.00  0.00     0.000 HD 
HETATM   22  N   UNL     1      -7.670   6.942  72.474  1.00  0.00    -0.094 N  
BRANCH  22  23
HETATM   23  CA  UNL     1      -6.421   7.247  73.166  1.00  0.00    -0.064 C  
BRANCH  23  24
HETATM   24  C   UNL     1      -6.614   8.372  74.229  1.00  0.00    -0.138 C  
HETATM   25  H   UNL     1      -8.106   9.377  75.089  1.00  0.00     0.000 HD 
HETATM   26  O   UNL     1      -7.990   8.691  74.441  1.00  0.00    -0.366 OA 
ENDBRANCH  23  24
BRANCH  23  27
HETATM   27  C   UNL     1      -5.418   7.639  72.087  1.00  0.00    -0.036 C  
HETATM   28  C   UNL     1      -5.928   8.811  71.276  1.00  0.00    -0.048 C  
ENDBRANCH  23  27
ENDBRANCH  22  23
ENDBRANCH  15  19
TORSDOF 4
ENDMDL
MODEL      105
REMARK 921   NORMALIZED FREE ENERGY PREDICTED BY IDOCK:   -3.43 KCAL/MOL
REMARK 922        TOTAL FREE ENERGY PREDICTED BY IDOCK:   -4.01 KCAL/MOL
REMARK 923 INTER-LIGAND FREE ENERGY PREDICTED BY IDOCK:   -4.60 KCAL/MOL
REMARK 924 INTRA-LIGAND FREE ENERGY PREDICTED BY IDOCK:    0.59 KCAL/MOL
REMARK 927      BINDING AFFINITY PREDICTED BY RF-SCORE:    0.00 PKD
ROOT
HETATM    1  C   UNL     1      -9.198   8.635  68.372  1.00  0.00    -0.138 C  
HETATM    2  C   UNL     1      -7.835   8.540  69.078  1.00  0.00    -0.104 C  
HETATM    3  C   UNL     1      -8.156   7.618  70.104  1.00  0.00    -0.118 A  
HETATM    4  C   UNL     1      -7.575   6.435  70.426  1.00  0.00    -0.096 A  
HETATM    5  N   UNL     1      -8.469   5.824  71.254  1.00  0.00    -0.127 NA 
HETATM    6  C   UNL     1      -8.187   4.497  71.754  1.00  0.00    -0.103 C  
HETATM    7  C   UNL     1      -9.628   6.603  71.385  1.00  0.00    -0.168 A  
HETATM    8  C   UNL     1      -9.483   7.733  70.578  1.00  0.00    -0.163 A  
HETATM    9  C   UNL     1     -10.588   8.609  70.081  1.00  0.00    -0.235 A  
HETATM   10  C   UNL     1     -11.732   8.467  70.872  1.00  0.00    -0.274 A  
HETATM   11  C   UNL     1     -10.650   9.103  68.473  1.00  0.00    -0.209 C  
HETATM   12  C   UNL     1     -10.631   9.515  67.080  1.00  0.00    -0.295 C  
HETATM   13  C   UNL     1     -11.828   7.412  71.828  1.00  0.00    -0.327 A  
HETATM   14  C   UNL     1     -10.836   6.418  72.038  1.00  0.00    -0.277 A  
HETATM   15  C   UNL     1      -9.323   9.190  66.011  1.00  0.00    -0.300 C  
HETATM   16  C   UNL     1      -8.970   7.697  66.216  1.00  0.00    -0.169 C  
HETATM   17  C   UNL     1     -10.258   6.404  67.974  1.00  0.00    -0.164 C  
HETATM   18  N   UNL     1      -9.309   7.427  67.564  1.00  0.00    -0.129 NA 
ENDROOT
BRANCH  15  19
HETATM   19  C   UNL     1      -8.190  10.214  66.334  1.00  0.00    -0.122 C  
HETATM   20  O   UNL     1      -7.003   9.888  66.349  1.00  0.00    -0.089 OA 
HETATM   21  H   UNL     1      -9.692  11.595  66.642  1.00  0.00     0.000 HD 
HETATM   22  N   UNL     1      -8.692  11.433  66.760  1.00  0.00    -0.168 N  
BRANCH  22  23
HETATM   23  CA  UNL     1      -7.906  12.506  67.363  1.00  0.00    -0.175 C  
BRANCH  23  24
HETATM   24  C   UNL     1      -7.229  12.045  68.691  1.00  0.00    -0.110 C  
HETATM   25  H   UNL     1      -5.796  12.664  69.931  1.00  0.00     0.000 HD 
HETATM   26  O   UNL     1      -6.208  12.945  69.123  1.00  0.00    -0.088 OA 
ENDBRANCH  23  24
BRANCH  23  27
HETATM   27  C   UNL     1      -8.866  13.670  67.579  1.00  0.00    -0.205 C  
HETATM   28  C   UNL     1      -8.309  14.947  66.986  1.00  0.00    -0.246 C  
ENDBRANCH  23  27
ENDBRANCH  22  23
ENDBRANCH  15  19
TORSDOF 4
ENDMDL
MODEL      106
REMARK 921   NORMALIZED FREE ENERGY PREDICTED BY IDOCK:   -3.42 KCAL/MOL
REMARK 922        TOTAL FREE ENERGY PREDICTED BY IDOCK:   -3.99 KCAL/MOL
REMARK 923 INTER-LIGAND FREE ENERGY PREDICTED BY IDOCK:   -4.37 KCAL/MOL
REMARK 924 INTRA-LIGAND FREE ENERGY PREDICTED BY IDOCK:    0.38 KCAL/MOL
REMARK 927      BINDING AFFINITY PREDICTED BY RF-SCORE:    0.00 PKD
ROOT
HETATM    1  C   UNL     1      -8.390   6.969  69.311  1.00  0.00    -0.129 C  
HETATM    2  C   UNL     1      -9.556   6.750  70.289  1.00  0.00    -0.170 C  
HETATM    3  C   UNL     1      -9.741   5.354  70.136  1.00  0.00    -0.252 A  
HETATM    4  C   UNL     1      -9.744   4.368  71.067  1.00  0.00    -0.190 A  
HETATM    5  N   UNL     1      -9.633   3.213  70.351  1.00  0.00    -0.159 NA 
HETATM    6  C   UNL     1      -9.552   1.947  71.045  1.00  0.00    -0.127 C  
HETATM    7  C   UNL     1      -9.493   3.496  68.984  1.00  0.00    -0.143 A  
HETATM    8  C   UNL     1      -9.474   4.884  68.830  1.00  0.00    -0.202 A  
HETATM    9  C   UNL     1      -8.941   5.632  67.651  1.00  0.00    -0.107 A  
HETATM   10  C   UNL     1      -8.885   4.810  66.521  1.00  0.00    -0.111 A  
HETATM   11  C   UNL     1      -7.940   6.971  67.850  1.00  0.00    -0.115 C  
HETATM   12  C   UNL     1      -7.105   8.135  68.091  1.00  0.00    -0.082 C  
HETATM   13  C   UNL     1      -9.073   3.400  66.638  1.00  0.00    -0.178 A  
HETATM   14  C   UNL     1      -9.285   2.712  67.862  1.00  0.00    -0.252 A  
HETATM   15  C   UNL     1      -6.829   8.799  69.654  1.00  0.00    -0.046 C  
HETATM   16  C   UNL     1      -6.492   7.598  70.571  1.00  0.00    -0.038 C  
HETATM   17  C   UNL     1      -6.565   5.276  69.559  1.00  0.00    -0.043 C  
HETATM   18  N   UNL     1      -7.197   6.505  70.010  1.00  0.00    -0.078 NA 
ENDROOT
BRANCH  15  19
HETATM   19  C   UNL     1      -8.096   9.623  70.041  1.00  0.00    -0.178 C  
HETATM   20  O   UNL     1      -8.685   9.450  71.108  1.00  0.00    -0.284 OA 
HETATM   21  H   UNL     1      -7.937  10.512  68.186  1.00  0.00     0.000 HD 
HETATM   22  N   UNL     1      -8.550  10.409  68.995  1.00  0.00    -0.148 N  
BRANCH  22  23
HETATM   23  CA  UNL     1      -9.834  11.102  68.954  1.00  0.00    -0.162 C  
BRANCH  23  24
HETATM   24  C   UNL     1     -10.978  10.163  68.461  1.00  0.00    -0.232 C  
HETATM   25  H   UNL     1     -12.731  10.308  67.523  1.00  0.00     0.000 HD 
HETATM   26  O   UNL     1     -12.035  10.880  67.822  1.00  0.00    -0.553 OA 
ENDBRANCH  23  24
BRANCH  23  27
HETATM   27  C   UNL     1      -9.643  12.306  68.038  1.00  0.00    -0.206 C  
HETATM   28  C   UNL     1      -8.586  12.025  66.991  1.00  0.00    -0.185 C  
ENDBRANCH  23  27
ENDBRANCH  22  23
ENDBRANCH  15  19
TORSDOF 4
ENDMDL
MODEL      107
REMARK 921   NORMALIZED FREE ENERGY PREDICTED BY IDOCK:   -3.37 KCAL/MOL
REMARK 922        TOTAL FREE ENERGY PREDICTED BY IDOCK:   -3.93 KCAL/MOL
REMARK 923 INTER-LIGAND FREE ENERGY PREDICTED BY IDOCK:   -4.36 KCAL/MOL
REMARK 924 INTRA-LIGAND FREE ENERGY PREDICTED BY IDOCK:    0.42 KCAL/MOL
REMARK 927      BINDING AFFINITY PREDICTED BY RF-SCORE:    0.00 PKD
ROOT
HETATM    1  C   UNL     1      -8.640   6.239  70.740  1.00  0.00    -0.135 C  
HETATM    2  C   UNL     1      -9.768   6.099  71.775  1.00  0.00    -0.171 C  
HETATM    3  C   UNL     1      -9.862   4.687  71.842  1.00  0.00    -0.241 A  
HETATM    4  C   UNL     1      -9.779   3.858  72.913  1.00  0.00    -0.130 A  
HETATM    5  N   UNL     1      -9.605   2.617  72.377  1.00  0.00    -0.108 NA 
HETATM    6  C   UNL     1      -9.424   1.480  73.253  1.00  0.00    -0.072 C  
HETATM    7  C   UNL     1      -9.512   2.695  70.980  1.00  0.00    -0.154 A  
HETATM    8  C   UNL     1      -9.590   4.040  70.616  1.00  0.00    -0.260 A  
HETATM    9  C   UNL     1      -9.133   4.630  69.320  1.00  0.00    -0.159 A  
HETATM   10  C   UNL     1      -9.046   3.650  68.328  1.00  0.00    -0.199 A  
HETATM   11  C   UNL     1      -8.222   6.045  69.283  1.00  0.00    -0.115 C  
HETATM   12  C   UNL     1      -7.462   7.283  69.318  1.00  0.00    -0.096 C  
HETATM   13  C   UNL     1      -9.136   2.265  68.664  1.00  0.00    -0.202 A  
HETATM   14  C   UNL     1      -9.275   1.761  69.984  1.00  0.00    -0.169 A  
HETATM   15  C   UNL     1      -7.199   8.196  70.752  1.00  0.00    -0.050 C  
HETATM   16  C   UNL     1      -6.763   7.174  71.831  1.00  0.00    -0.056 C  
HETATM   17  C   UNL     1      -6.700   4.724  71.186  1.00  0.00    -0.031 C  
HETATM   18  N   UNL     1      -7.404   5.965  71.464  1.00  0.00    -0.086 NA 
ENDROOT
BRANCH  15  19
HETATM   19  C   UNL     1      -8.511   8.987  71.048  1.00  0.00    -0.203 C  
HETATM   20  O   UNL     1      -9.019   9.010  72.170  1.00  0.00    -0.378 OA 
HETATM   21  H   UNL     1      -8.541   9.453  69.039  1.00  0.00     0.000 HD 
HETATM   22  N   UNL     1      -9.094   9.486  69.895  1.00  0.00    -0.200 N  
BRANCH  22  23
HETATM   23  CA  UNL     1     -10.436  10.054  69.804  1.00  0.00    -0.256 C  
BRANCH  23  24
HETATM   24  C   UNL     1     -11.528   9.013  70.200  1.00  0.00    -0.062 C  
HETATM   25  H   UNL     1     -12.997   8.822  71.535  1.00  0.00     0.000 HD 
HETATM   26  O   UNL     1     -12.332   9.457  71.294  1.00  0.00    -0.313 OA 
ENDBRANCH  23  24
BRANCH  23  27
HETATM   27  C   UNL     1     -10.598  10.541  68.368  1.00  0.00    -0.230 C  
HETATM   28  C   UNL     1     -10.721   9.375  67.412  1.00  0.00    -0.280 C  
ENDBRANCH  23  27
ENDBRANCH  22  23
ENDBRANCH  15  19
TORSDOF 4
ENDMDL
MODEL      108
REMARK 921   NORMALIZED FREE ENERGY PREDICTED BY IDOCK:   -3.35 KCAL/MOL
REMARK 922        TOTAL FREE ENERGY PREDICTED BY IDOCK:   -3.91 KCAL/MOL
REMARK 923 INTER-LIGAND FREE ENERGY PREDICTED BY IDOCK:   -4.20 KCAL/MOL
REMARK 924 INTRA-LIGAND FREE ENERGY PREDICTED BY IDOCK:    0.29 KCAL/MOL
REMARK 927      BINDING AFFINITY PREDICTED BY RF-SCORE:    0.00 PKD
ROOT
HETATM    1  C   UNL     1      -9.177  10.879  68.134  1.00  0.00    -0.158 C  
HETATM    2  C   UNL     1      -8.182  11.476  67.125  1.00  0.00    -0.161 C  
HETATM    3  C   UNL     1      -7.192  10.463  67.133  1.00  0.00    -0.091 A  
HETATM    4  C   UNL     1      -6.669   9.748  66.106  1.00  0.00    -0.085 A  
HETATM    5  N   UNL     1      -6.019   8.708  66.704  1.00  0.00    -0.052 NA 
HETATM    6  C   UNL     1      -5.379   7.702  65.886  1.00  0.00    -0.028 C  
HETATM    7  C   UNL     1      -6.203   8.749  68.093  1.00  0.00    -0.051 A  
HETATM    8  C   UNL     1      -7.033   9.832  68.388  1.00  0.00    -0.068 A  
HETATM    9  C   UNL     1      -7.822  10.021  69.644  1.00  0.00    -0.171 A  
HETATM   10  C   UNL     1      -7.297   9.250  70.684  1.00  0.00    -0.129 A  
HETATM   11  C   UNL     1      -9.434  10.504  69.594  1.00  0.00    -0.029 C  
HETATM   12  C   UNL     1     -10.813  10.948  69.482  1.00  0.00    -0.286 C  
HETATM   13  C   UNL     1      -6.315   8.248  70.423  1.00  0.00    -0.035 A  
HETATM   14  C   UNL     1      -5.823   7.916  69.133  1.00  0.00    -0.031 A  
HETATM   15  C   UNL     1     -11.540  11.427  67.999  1.00  0.00    -0.357 C  
HETATM   16  C   UNL     1     -11.160  10.335  66.969  1.00  0.00    -0.032 C  
HETATM   17  C   UNL     1      -9.646   8.454  67.739  1.00  0.00    -0.156 C  
HETATM   18  N   UNL     1      -9.905   9.846  67.408  1.00  0.00    -0.172 NA 
ENDROOT
BRANCH  15  19
HETATM   19  C   UNL     1     -11.045  12.872  67.681  1.00  0.00    -0.264 C  
HETATM   20  O   UNL     1     -10.697  13.207  66.549  1.00  0.00    -0.276 OA 
HETATM   21  H   UNL     1     -11.269  13.261  69.695  1.00  0.00     0.000 HD 
HETATM   22  N   UNL     1     -10.886  13.634  68.827  1.00  0.00    -0.253 N  
BRANCH  22  23
HETATM   23  CA  UNL     1     -10.214  14.929  68.893  1.00  0.00    -0.238 C  
BRANCH  23  24
HETATM   24  C   UNL     1      -8.663  14.775  68.838  1.00  0.00    -0.161 C  
HETATM   25  H   UNL     1      -7.166  15.162  67.580  1.00  0.00     0.000 HD 
HETATM   26  O   UNL     1      -8.110  15.256  67.612  1.00  0.00    -0.138 OA 
ENDBRANCH  23  24
BRANCH  23  27
HETATM   27  C   UNL     1     -10.682  15.589  70.186  1.00  0.00    -0.345 C  
HETATM   28  C   UNL     1     -12.174  15.411  70.373  1.00  0.00    -0.430 C  
ENDBRANCH  23  27
ENDBRANCH  22  23
ENDBRANCH  15  19
TORSDOF 4
ENDMDL
MODEL      109
REMARK 921   NORMALIZED FREE ENERGY PREDICTED BY IDOCK:   -3.31 KCAL/MOL
REMARK 922        TOTAL FREE ENERGY PREDICTED BY IDOCK:   -3.87 KCAL/MOL
REMARK 923 INTER-LIGAND FREE ENERGY PREDICTED BY IDOCK:   -4.14 KCAL/MOL
REMARK 924 INTRA-LIGAND FREE ENERGY PREDICTED BY IDOCK:    0.27 KCAL/MOL
REMARK 927      BINDING AFFINITY PREDICTED BY RF-SCORE:    0.00 PKD
ROOT
HETATM    1  C   UNL     1      -9.272   7.189  68.796  1.00  0.00    -0.136 C  
HETATM    2  C   UNL     1      -8.959   8.691  68.903  1.00  0.00    -0.142 C  
HETATM    3  C   UNL     1      -8.845   9.014  67.529  1.00  0.00    -0.128 A  
HETATM    4  C   UNL     1      -9.494   9.954  66.798  1.00  0.00    -0.169 A  
HETATM    5  N   UNL     1      -9.251   9.613  65.500  1.00  0.00    -0.215 NA 
HETATM    6  C   UNL     1      -9.848  10.387  64.435  1.00  0.00    -0.328 C  
HETATM    7  C   UNL     1      -8.511   8.424  65.437  1.00  0.00    -0.176 A  
HETATM    8  C   UNL     1      -8.309   7.970  66.741  1.00  0.00    -0.116 A  
HETATM    9  C   UNL     1      -7.951   6.576  67.144  1.00  0.00    -0.112 A  
HETATM   10  C   UNL     1      -7.385   5.877  66.074  1.00  0.00    -0.077 A  
HETATM   11  C   UNL     1      -8.743   5.806  68.415  1.00  0.00    -0.111 C  
HETATM   12  C   UNL     1      -9.446   5.210  69.537  1.00  0.00    -0.205 C  
HETATM   13  C   UNL     1      -7.432   6.410  64.751  1.00  0.00    -0.087 A  
HETATM   14  C   UNL     1      -8.066   7.628  64.393  1.00  0.00    -0.084 A  
HETATM   15  C   UNL     1     -10.551   6.074  70.534  1.00  0.00    -0.329 C  
HETATM   16  C   UNL     1     -11.480   6.847  69.565  1.00  0.00    -0.110 C  
HETATM   17  C   UNL     1     -11.017   6.667  67.081  1.00  0.00    -0.408 C  
HETATM   18  N   UNL     1     -10.679   7.105  68.425  1.00  0.00    -0.179 NA 
ENDROOT
BRANCH  15  19
HETATM   19  C   UNL     1      -9.709   6.944  71.518  1.00  0.00    -0.162 C  
HETATM   20  O   UNL     1     -10.068   8.070  71.862  1.00  0.00    -0.181 OA 
HETATM   21  H   UNL     1      -8.326   5.413  71.498  1.00  0.00     0.000 HD 
HETATM   22  N   UNL     1      -8.476   6.377  71.794  1.00  0.00    -0.124 N  
BRANCH  22  23
HETATM   23  CA  UNL     1      -7.371   7.048  72.475  1.00  0.00    -0.080 C  
BRANCH  23  24
HETATM   24  C   UNL     1      -6.654   8.068  71.539  1.00  0.00    -0.045 C  
HETATM   25  H   UNL     1      -6.471  10.043  71.342  1.00  0.00     0.000 HD 
HETATM   26  O   UNL     1      -6.908   9.423  71.913  1.00  0.00    -0.310 OA 
ENDBRANCH  23  24
BRANCH  23  27
HETATM   27  C   UNL     1      -6.432   5.946  72.954  1.00  0.00    -0.064 C  
HETATM   28  C   UNL     1      -6.971   4.580  72.590  1.00  0.00    -0.062 C  
ENDBRANCH  23  27
ENDBRANCH  22  23
ENDBRANCH  15  19
TORSDOF 4
ENDMDL
MODEL      110
REMARK 921   NORMALIZED FREE ENERGY PREDICTED BY IDOCK:   -3.31 KCAL/MOL
REMARK 922        TOTAL FREE ENERGY PREDICTED BY IDOCK:   -3.86 KCAL/MOL
REMARK 923 INTER-LIGAND FREE ENERGY PREDICTED BY IDOCK:   -4.57 KCAL/MOL
REMARK 924 INTRA-LIGAND FREE ENERGY PREDICTED BY IDOCK:    0.71 KCAL/MOL
REMARK 927      BINDING AFFINITY PREDICTED BY RF-SCORE:    0.00 PKD
ROOT
HETATM    1  C   UNL     1      -7.579  16.895  67.960  1.00  0.00    -0.179 C  
HETATM    2  C   UNL     1      -8.448  17.473  66.830  1.00  0.00    -0.275 C  
HETATM    3  C   UNL     1      -7.826  18.735  66.668  1.00  0.00    -0.275 A  
HETATM    4  C   UNL     1      -7.300  19.311  65.558  1.00  0.00    -0.049 A  
HETATM    5  N   UNL     1      -6.555  20.352  66.028  1.00  0.00    -0.215 NA 
HETATM    6  C   UNL     1      -5.799  21.165  65.101  1.00  0.00    -0.195 C  
HETATM    7  C   UNL     1      -6.569  20.371  67.430  1.00  0.00    -0.243 A  
HETATM    8  C   UNL     1      -7.318  19.278  67.870  1.00  0.00    -0.289 A  
HETATM    9  C   UNL     1      -7.266  18.665  69.232  1.00  0.00    -0.153 A  
HETATM   10  C   UNL     1      -6.744  19.565  70.165  1.00  0.00    -0.060 A  
HETATM   11  C   UNL     1      -7.179  16.995  69.432  1.00  0.00    -0.068 C  
HETATM   12  C   UNL     1      -7.132  15.548  69.535  1.00  0.00    -0.195 C  
HETATM   13  C   UNL     1      -6.122  20.776  69.738  1.00  0.00    -0.017 A  
HETATM   14  C   UNL     1      -5.940  21.157  68.382  1.00  0.00    -0.287 A  
HETATM   15  C   UNL     1      -7.299  14.492  68.187  1.00  0.00    -0.129 C  
HETATM   16  C   UNL     1      -6.371  15.062  67.086  1.00  0.00     0.465 C  
HETATM   17  C   UNL     1      -5.127  17.214  67.579  1.00  0.00    -0.118 C  
HETATM   18  N   UNL     1      -6.343  16.458  67.323  1.00  0.00    -0.168 NA 
ENDROOT
BRANCH  15  19
HETATM   19  C   UNL     1      -8.818  14.422  67.835  1.00  0.00    -0.179 C  
HETATM   20  O   UNL     1      -9.238  14.684  66.708  1.00  0.00    -0.238 OA 
HETATM   21  H   UNL     1      -9.132  13.948  69.818  1.00  0.00     0.000 HD 
HETATM   22  N   UNL     1      -9.606  14.212  68.954  1.00  0.00    -0.114 N  
BRANCH  22  23
HETATM   23  CA  UNL     1     -11.060  14.339  69.000  1.00  0.00    -0.259 C  
BRANCH  23  24
HETATM   24  C   UNL     1     -11.498  15.732  69.549  1.00  0.00    -0.353 C  
HETATM   25  H   UNL     1     -10.946  17.641  69.393  1.00  0.00     0.000 HD 
HETATM   26  O   UNL     1     -10.679  16.793  69.058  1.00  0.00    -0.322 OA 
ENDBRANCH  23  24
BRANCH  23  27
HETATM   27  C   UNL     1     -11.563  13.192  69.871  1.00  0.00    -0.255 C  
HETATM   28  C   UNL     1     -12.640  13.668  70.822  1.00  0.00    -0.397 C  
ENDBRANCH  23  27
ENDBRANCH  22  23
ENDBRANCH  15  19
TORSDOF 4
ENDMDL
MODEL      111
REMARK 921   NORMALIZED FREE ENERGY PREDICTED BY IDOCK:   -3.30 KCAL/MOL
REMARK 922        TOTAL FREE ENERGY PREDICTED BY IDOCK:   -3.85 KCAL/MOL
REMARK 923 INTER-LIGAND FREE ENERGY PREDICTED BY IDOCK:   -3.74 KCAL/MOL
REMARK 924 INTRA-LIGAND FREE ENERGY PREDICTED BY IDOCK:   -0.11 KCAL/MOL
REMARK 927      BINDING AFFINITY PREDICTED BY RF-SCORE:    0.00 PKD
ROOT
HETATM    1  C   UNL     1      -7.979   7.510  65.920  1.00  0.00    -0.117 C  
HETATM    2  C   UNL     1      -9.145   7.026  66.799  1.00  0.00    -0.162 C  
HETATM    3  C   UNL     1      -8.639   5.766  67.202  1.00  0.00    -0.109 A  
HETATM    4  C   UNL     1      -8.460   5.257  68.446  1.00  0.00    -0.096 A  
HETATM    5  N   UNL     1      -7.653   4.172  68.264  1.00  0.00    -0.067 NA 
HETATM    6  C   UNL     1      -7.212   3.410  69.411  1.00  0.00    -0.045 C  
HETATM    7  C   UNL     1      -7.282   4.059  66.916  1.00  0.00    -0.068 A  
HETATM    8  C   UNL     1      -7.841   5.133  66.222  1.00  0.00    -0.103 A  
HETATM    9  C   UNL     1      -7.394   5.652  64.893  1.00  0.00    -0.071 A  
HETATM   10  C   UNL     1      -6.669   4.681  64.196  1.00  0.00    -0.044 A  
HETATM   11  C   UNL     1      -7.194   7.302  64.625  1.00  0.00    -0.073 C  
HETATM   12  C   UNL     1      -7.067   8.738  64.452  1.00  0.00    -0.089 C  
HETATM   13  C   UNL     1      -6.234   3.490  64.850  1.00  0.00    -0.024 A  
HETATM   14  C   UNL     1      -6.445   3.199  66.224  1.00  0.00    -0.032 A  
HETATM   15  C   UNL     1      -7.559   9.886  65.636  1.00  0.00    -0.119 C  
HETATM   16  C   UNL     1      -6.990   9.374  66.983  1.00  0.00    -0.085 C  
HETATM   17  C   UNL     1      -5.739   7.171  66.982  1.00  0.00    -0.022 C  
HETATM   18  N   UNL     1      -6.950   7.965  66.847  1.00  0.00    -0.072 NA 
ENDROOT
BRANCH  15  19
HETATM   19  C   UNL     1      -9.112  10.008  65.550  1.00  0.00    -0.186 C  
HETATM   20  O   UNL     1      -9.711   9.952  64.475  1.00  0.00    -0.291 OA 
HETATM   21  H   UNL     1      -9.082  10.306  67.591  1.00  0.00     0.000 HD 
HETATM   22  N   UNL     1      -9.679  10.353  66.766  1.00  0.00    -0.175 N  
BRANCH  22  23
HETATM   23  CA  UNL     1     -11.062  10.777  66.963  1.00  0.00    -0.174 C  
BRANCH  23  24
HETATM   24  C   UNL     1     -11.257  12.283  66.607  1.00  0.00    -0.316 C  
HETATM   25  H   UNL     1     -12.498  13.416  65.534  1.00  0.00     0.000 HD 
HETATM   26  O   UNL     1     -12.380  12.499  65.751  1.00  0.00    -0.627 OA 
ENDBRANCH  23  24
BRANCH  23  27
HETATM   27  C   UNL     1     -11.397  10.482  68.421  1.00  0.00    -0.328 C  
HETATM   28  C   UNL     1     -10.977  11.629  69.315  1.00  0.00    -0.246 C  
ENDBRANCH  23  27
ENDBRANCH  22  23
ENDBRANCH  15  19
TORSDOF 4
ENDMDL
MODEL      112
REMARK 921   NORMALIZED FREE ENERGY PREDICTED BY IDOCK:   -3.28 KCAL/MOL
REMARK 922        TOTAL FREE ENERGY PREDICTED BY IDOCK:   -3.82 KCAL/MOL
REMARK 923 INTER-LIGAND FREE ENERGY PREDICTED BY IDOCK:   -4.19 KCAL/MOL
REMARK 924 INTRA-LIGAND FREE ENERGY PREDICTED BY IDOCK:    0.37 KCAL/MOL
REMARK 927      BINDING AFFINITY PREDICTED BY RF-SCORE:    0.00 PKD
ROOT
HETATM    1  C   UNL     1      -9.165   6.915  69.411  1.00  0.00    -0.147 C  
HETATM    2  C   UNL     1     -10.031   5.669  69.660  1.00  0.00    -0.267 C  
HETATM    3  C   UNL     1      -9.755   5.452  71.032  1.00  0.00    -0.235 A  
HETATM    4  C   UNL     1     -10.604   5.344  72.085  1.00  0.00    -0.227 A  
HETATM    5  N   UNL     1      -9.809   5.474  73.185  1.00  0.00    -0.161 NA 
HETATM    6  C   UNL     1     -10.406   5.460  74.502  1.00  0.00    -0.245 C  
HETATM    7  C   UNL     1      -8.484   5.730  72.805  1.00  0.00    -0.119 A  
HETATM    8  C   UNL     1      -8.440   5.805  71.411  1.00  0.00    -0.128 A  
HETATM    9  C   UNL     1      -7.367   6.453  70.597  1.00  0.00    -0.079 A  
HETATM   10  C   UNL     1      -6.184   6.570  71.332  1.00  0.00    -0.041 A  
HETATM   11  C   UNL     1      -7.746   7.477  69.315  1.00  0.00    -0.112 C  
HETATM   12  C   UNL     1      -8.141   8.328  68.206  1.00  0.00    -0.124 C  
HETATM   13  C   UNL     1      -6.175   6.329  72.739  1.00  0.00    -0.054 A  
HETATM   14  C   UNL     1      -7.322   6.000  73.509  1.00  0.00    -0.089 A  
HETATM   15  C   UNL     1      -9.767   8.503  67.673  1.00  0.00    -0.201 C  
HETATM   16  C   UNL     1     -10.610   8.728  68.953  1.00  0.00    -0.155 C  
HETATM   17  C   UNL     1      -9.416   8.660  71.187  1.00  0.00    -0.215 C  
HETATM   18  N   UNL     1      -9.913   8.034  69.972  1.00  0.00    -0.189 NA 
ENDROOT
BRANCH  15  19
HETATM   19  C   UNL     1     -10.121   7.236  66.833  1.00  0.00    -0.247 C  
HETATM   20  O   UNL     1     -11.222   6.691  66.909  1.00  0.00    -0.391 OA 
HETATM   21  H   UNL     1      -8.183   7.310  66.129  1.00  0.00     0.000 HD 
HETATM   22  N   UNL     1      -9.021   6.729  66.161  1.00  0.00    -0.153 N  
BRANCH  22  23
HETATM   23  CA  UNL     1      -8.963   5.432  65.493  1.00  0.00    -0.144 C  
BRANCH  23  24
HETATM   24  C   UNL     1      -8.700   4.276  66.507  1.00  0.00    -0.113 C  
HETATM   25  H   UNL     1      -9.738   2.896  67.503  1.00  0.00     0.000 HD 
HETATM   26  O   UNL     1      -9.899   3.600  66.886  1.00  0.00    -0.148 OA 
ENDBRANCH  23  24
BRANCH  23  27
HETATM   27  C   UNL     1      -7.862   5.539  64.444  1.00  0.00    -0.110 C  
HETATM   28  C   UNL     1      -8.416   5.311  63.054  1.00  0.00    -0.093 C  
ENDBRANCH  23  27
ENDBRANCH  22  23
ENDBRANCH  15  19
TORSDOF 4
ENDMDL
MODEL      113
REMARK 921   NORMALIZED FREE ENERGY PREDICTED BY IDOCK:   -3.27 KCAL/MOL
REMARK 922        TOTAL FREE ENERGY PREDICTED BY IDOCK:   -3.81 KCAL/MOL
REMARK 923 INTER-LIGAND FREE ENERGY PREDICTED BY IDOCK:   -4.16 KCAL/MOL
REMARK 924 INTRA-LIGAND FREE ENERGY PREDICTED BY IDOCK:    0.35 KCAL/MOL
REMARK 927      BINDING AFFINITY PREDICTED BY RF-SCORE:    0.00 PKD
ROOT
HETATM    1  C   UNL     1      -8.710   6.713  68.376  1.00  0.00    -0.122 C  
HETATM    2  C   UNL     1     -10.086   6.115  68.711  1.00  0.00    -0.205 C  
HETATM    3  C   UNL     1      -9.778   4.735  68.629  1.00  0.00    -0.223 A  
HETATM    4  C   UNL     1      -9.947   3.749  69.544  1.00  0.00     0.243 A  
HETATM    5  N   UNL     1      -9.191   2.713  69.081  1.00  0.00    -0.135 NA 
HETATM    6  C   UNL     1      -9.099   1.494  69.855  1.00  0.00    -0.081 C  
HETATM    7  C   UNL     1      -8.504   3.089  67.918  1.00  0.00    -0.084 A  
HETATM    8  C   UNL     1      -8.802   4.427  67.653  1.00  0.00    -0.121 A  
HETATM    9  C   UNL     1      -8.006   5.354  66.792  1.00  0.00    -0.101 A  
HETATM   10  C   UNL     1      -7.193   4.639  65.908  1.00  0.00    -0.076 A  
HETATM   11  C   UNL     1      -7.641   6.917  67.301  1.00  0.00    -0.108 C  
HETATM   12  C   UNL     1      -7.384   8.261  67.788  1.00  0.00    -0.093 C  
HETATM   13  C   UNL     1      -7.011   3.232  66.063  1.00  0.00    -0.057 A  
HETATM   14  C   UNL     1      -7.577   2.454  67.107  1.00  0.00    -0.065 A  
HETATM   15  C   UNL     1      -8.082   8.902  69.224  1.00  0.00    -0.109 C  
HETATM   16  C   UNL     1      -7.901   7.809  70.306  1.00  0.00    -0.091 C  
HETATM   17  C   UNL     1      -6.832   5.619  69.614  1.00  0.00    -0.061 C  
HETATM   18  N   UNL     1      -7.917   6.586  69.592  1.00  0.00    -0.118 NA 
ENDROOT
BRANCH  15  19
HETATM   19  C   UNL     1      -9.554   9.299  68.890  1.00  0.00    -0.155 C  
HETATM   20  O   UNL     1      -9.892   9.657  67.761  1.00  0.00    -0.149 OA 
HETATM   21  H   UNL     1      -9.965   8.983  70.886  1.00  0.00     0.000 HD 
HETATM   22  N   UNL     1     -10.349   9.365  70.022  1.00  0.00    -0.216 N  
BRANCH  22  23
HETATM   23  CA  UNL     1     -11.691   9.937  70.080  1.00  0.00    -0.174 C  
BRANCH  23  24
HETATM   24  C   UNL     1     -11.732  11.369  69.464  1.00  0.00    -0.348 C  
HETATM   25  H   UNL     1     -12.280  12.249  67.761  1.00  0.00     0.000 HD 
HETATM   26  O   UNL     1     -12.255  11.376  68.136  1.00  0.00    -0.602 OA 
ENDBRANCH  23  24
BRANCH  23  27
HETATM   27  C   UNL     1     -12.096   9.930  71.550  1.00  0.00    -0.496 C  
HETATM   28  C   UNL     1     -12.546   8.550  71.980  1.00  0.00    -0.414 C  
ENDBRANCH  23  27
ENDBRANCH  22  23
ENDBRANCH  15  19
TORSDOF 4
ENDMDL
MODEL      114
REMARK 921   NORMALIZED FREE ENERGY PREDICTED BY IDOCK:   -3.23 KCAL/MOL
REMARK 922        TOTAL FREE ENERGY PREDICTED BY IDOCK:   -3.76 KCAL/MOL
REMARK 923 INTER-LIGAND FREE ENERGY PREDICTED BY IDOCK:   -4.24 KCAL/MOL
REMARK 924 INTRA-LIGAND FREE ENERGY PREDICTED BY IDOCK:    0.47 KCAL/MOL
REMARK 927      BINDING AFFINITY PREDICTED BY RF-SCORE:    0.00 PKD
ROOT
HETATM    1  C   UNL     1      -9.962  11.176  68.756  1.00  0.00    -0.198 C  
HETATM    2  C   UNL     1      -8.867  10.307  69.397  1.00  0.00    -0.177 C  
HETATM    3  C   UNL     1      -9.670   9.452  70.191  1.00  0.00    -0.274 A  
HETATM    4  C   UNL     1      -9.732   8.097  70.224  1.00  0.00    -0.175 A  
HETATM    5  N   UNL     1     -10.878   7.819  70.907  1.00  0.00    -0.233 NA 
HETATM    6  C   UNL     1     -11.287   6.443  71.086  1.00  0.00    -0.319 C  
HETATM    7  C   UNL     1     -11.554   9.004  71.233  1.00  0.00    -0.317 A  
HETATM    8  C   UNL     1     -10.831  10.074  70.702  1.00  0.00    -0.367 A  
HETATM    9  C   UNL     1     -11.357  11.448  70.438  1.00  0.00     0.020 A  
HETATM   10  C   UNL     1     -12.505  11.698  71.196  1.00  0.00    -0.412 A  
HETATM   11  C   UNL     1     -11.037  12.238  68.986  1.00  0.00    -0.289 C  
HETATM   12  C   UNL     1     -10.702  12.874  67.724  1.00  0.00    -0.238 C  
HETATM   13  C   UNL     1     -13.164  10.638  71.888  1.00  0.00    -0.528 A  
HETATM   14  C   UNL     1     -12.766   9.276  71.848  1.00  0.00    -0.474 A  
HETATM   15  C   UNL     1      -9.599  12.206  66.586  1.00  0.00    -0.226 C  
HETATM   16  C   UNL     1      -9.995  10.716  66.439  1.00  0.00    -0.222 C  
HETATM   17  C   UNL     1     -11.889   9.843  67.878  1.00  0.00     1.602 C  
HETATM   18  N   UNL     1     -10.542  10.361  67.696  1.00  0.00    -0.236 NA 
ENDROOT
BRANCH  15  19
HETATM   19  C   UNL     1      -8.157  12.484  67.114  1.00  0.00    -0.156 C  
HETATM   20  O   UNL     1      -7.267  11.635  67.056  1.00  0.00    -0.135 OA 
HETATM   21  H   UNL     1      -8.862  14.329  67.711  1.00  0.00     0.000 HD 
HETATM   22  N   UNL     1      -8.070  13.691  67.788  1.00  0.00    -0.158 N  
BRANCH  22  23
HETATM   23  CA  UNL     1      -6.937  14.124  68.602  1.00  0.00    -0.107 C  
BRANCH  23  24
HETATM   24  C   UNL     1      -7.376  15.140  69.701  1.00  0.00    -0.191 C  
HETATM   25  H   UNL     1      -9.000  16.173  70.220  1.00  0.00     0.000 HD 
HETATM   26  O   UNL     1      -8.734  15.555  69.550  1.00  0.00    -0.261 OA 
ENDBRANCH  23  24
BRANCH  23  27
HETATM   27  C   UNL     1      -5.921  14.724  67.635  1.00  0.00    -0.060 C  
HETATM   28  C   UNL     1      -5.150  15.849  68.292  1.00  0.00    -0.106 C  
ENDBRANCH  23  27
ENDBRANCH  22  23
ENDBRANCH  15  19
TORSDOF 4
ENDMDL
MODEL      115
REMARK 921   NORMALIZED FREE ENERGY PREDICTED BY IDOCK:   -3.20 KCAL/MOL
REMARK 922        TOTAL FREE ENERGY PREDICTED BY IDOCK:   -3.73 KCAL/MOL
REMARK 923 INTER-LIGAND FREE ENERGY PREDICTED BY IDOCK:   -4.75 KCAL/MOL
REMARK 924 INTRA-LIGAND FREE ENERGY PREDICTED BY IDOCK:    1.03 KCAL/MOL
REMARK 927      BINDING AFFINITY PREDICTED BY RF-SCORE:    0.00 PKD
ROOT
HETATM    1  C   UNL     1     -10.531  12.482  67.870  1.00  0.00    -0.217 C  
HETATM    2  C   UNL     1     -11.002  11.938  69.228  1.00  0.00    -0.208 C  
HETATM    3  C   UNL     1     -11.493  13.132  69.811  1.00  0.00    -0.216 A  
HETATM    4  C   UNL     1     -12.716  13.409  70.330  1.00  0.00    -0.066 A  
HETATM    5  N   UNL     1     -12.746  14.768  70.440  1.00  0.00    -0.339 NA 
HETATM    6  C   UNL     1     -13.944  15.419  70.920  1.00  0.00    -0.084 C  
HETATM    7  C   UNL     1     -11.568  15.327  69.924  1.00  0.00    -0.311 A  
HETATM    8  C   UNL     1     -10.776  14.288  69.430  1.00  0.00    -0.155 A  
HETATM    9  C   UNL     1      -9.661  14.422  68.444  1.00  0.00    -0.226 A  
HETATM   10  C   UNL     1      -9.180  15.734  68.409  1.00  0.00    -0.192 A  
HETATM   11  C   UNL     1      -9.524  13.369  67.137  1.00  0.00    -0.244 C  
HETATM   12  C   UNL     1      -9.448  12.411  66.048  1.00  0.00    -0.168 C  
HETATM   13  C   UNL     1      -9.893  16.787  69.057  1.00  0.00    -0.260 A  
HETATM   14  C   UNL     1     -11.128  16.627  69.737  1.00  0.00    -0.137 A  
HETATM   15  C   UNL     1     -10.469  11.033  65.921  1.00  0.00    -0.300 C  
HETATM   16  C   UNL     1     -11.905  11.544  66.192  1.00  0.00     0.465 C  
HETATM   17  C   UNL     1     -12.202  13.991  66.780  1.00  0.00    -0.404 C  
HETATM   18  N   UNL     1     -11.738  12.643  67.069  1.00  0.00    -0.363 NA 
ENDROOT
BRANCH  15  19
HETATM   19  C   UNL     1      -9.925   9.956  66.911  1.00  0.00    -0.212 C  
HETATM   20  O   UNL     1      -8.801  10.036  67.406  1.00  0.00    -0.128 OA 
HETATM   21  H   UNL     1     -11.698   8.949  66.600  1.00  0.00     0.000 HD 
HETATM   22  N   UNL     1     -10.769   8.862  67.011  1.00  0.00    -0.198 N  
BRANCH  22  23
HETATM   23  CA  UNL     1     -10.436   7.595  67.656  1.00  0.00    -0.244 C  
BRANCH  23  24
HETATM   24  C   UNL     1      -9.018   7.634  68.303  1.00  0.00    -0.127 C  
HETATM   25  H   UNL     1      -8.182   7.353  70.091  1.00  0.00     0.000 HD 
HETATM   26  O   UNL     1      -9.047   7.328  69.698  1.00  0.00    -0.141 OA 
ENDBRANCH  23  24
BRANCH  23  27
HETATM   27  C   UNL     1     -10.548   6.523  66.577  1.00  0.00    -0.125 C  
HETATM   28  C   UNL     1      -9.178   6.032  66.159  1.00  0.00    -0.154 C  
ENDBRANCH  23  27
ENDBRANCH  22  23
ENDBRANCH  15  19
TORSDOF 4
ENDMDL
MODEL      116
REMARK 921   NORMALIZED FREE ENERGY PREDICTED BY IDOCK:   -3.20 KCAL/MOL
REMARK 922        TOTAL FREE ENERGY PREDICTED BY IDOCK:   -3.72 KCAL/MOL
REMARK 923 INTER-LIGAND FREE ENERGY PREDICTED BY IDOCK:   -4.52 KCAL/MOL
REMARK 924 INTRA-LIGAND FREE ENERGY PREDICTED BY IDOCK:    0.80 KCAL/MOL
REMARK 927      BINDING AFFINITY PREDICTED BY RF-SCORE:    0.00 PKD
ROOT
HETATM    1  C   UNL     1     -10.517  14.115  67.678  1.00  0.00    -0.245 C  
HETATM    2  C   UNL     1      -9.452  14.459  66.623  1.00  0.00    -0.300 C  
HETATM    3  C   UNL     1      -9.531  13.300  65.812  1.00  0.00     0.031 A  
HETATM    4  C   UNL     1      -9.752  13.183  64.479  1.00  0.00     0.224 A  
HETATM    5  N   UNL     1     -10.053  11.866  64.292  1.00  0.00    -0.290 NA 
HETATM    6  C   UNL     1     -10.401  11.394  62.970  1.00  0.00    -0.219 C  
HETATM    7  C   UNL     1     -10.084  11.191  65.521  1.00  0.00    -0.257 A  
HETATM    8  C   UNL     1      -9.832  12.121  66.532  1.00  0.00    -0.232 A  
HETATM    9  C   UNL     1     -10.167  11.962  67.980  1.00  0.00    -0.199 A  
HETATM   10  C   UNL     1     -10.334  10.614  68.308  1.00  0.00    -0.201 A  
HETATM   11  C   UNL     1     -10.900  13.206  68.845  1.00  0.00    -0.240 C  
HETATM   12  C   UNL     1     -11.507  14.327  69.541  1.00  0.00    -0.336 C  
HETATM   13  C   UNL     1     -10.423   9.622  67.285  1.00  0.00    -0.323 A  
HETATM   14  C   UNL     1     -10.394   9.893  65.892  1.00  0.00    -0.184 A  
HETATM   15  C   UNL     1     -11.712  15.884  68.838  1.00  0.00    -0.376 C  
HETATM   16  C   UNL     1     -12.307  15.637  67.429  1.00  0.00     1.211 C  
HETATM   17  C   UNL     1     -12.639  13.237  66.686  1.00  0.00     0.129 C  
HETATM   18  N   UNL     1     -11.802  14.372  67.040  1.00  0.00    -0.406 NA 
ENDROOT
BRANCH  15  19
HETATM   19  C   UNL     1     -10.327  16.601  68.881  1.00  0.00    -0.300 C  
HETATM   20  O   UNL     1      -9.491  16.351  69.749  1.00  0.00     0.011 OA 
HETATM   21  H   UNL     1     -10.979  17.698  67.260  1.00  0.00     0.000 HD 
HETATM   22  N   UNL     1     -10.243  17.635  67.963  1.00  0.00    -0.342 N  
BRANCH  22  23
HETATM   23  CA  UNL     1      -9.188  18.643  67.920  1.00  0.00    -0.294 C  
BRANCH  23  24
HETATM   24  C   UNL     1      -8.907  19.118  66.461  1.00  0.00    -0.334 C  
HETATM   25  H   UNL     1      -9.764  20.260  65.069  1.00  0.00     0.000 HD 
HETATM   26  O   UNL     1      -9.936  19.971  65.958  1.00  0.00    -0.457 OA 
ENDBRANCH  23  24
BRANCH  23  27
HETATM   27  C   UNL     1      -7.961  18.007  68.565  1.00  0.00    -0.310 C  
HETATM   28  C   UNL     1      -7.101  19.054  69.238  1.00  0.00    -0.278 C  
ENDBRANCH  23  27
ENDBRANCH  22  23
ENDBRANCH  15  19
TORSDOF 4
ENDMDL
MODEL      117
REMARK 921   NORMALIZED FREE ENERGY PREDICTED BY IDOCK:   -3.18 KCAL/MOL
REMARK 922        TOTAL FREE ENERGY PREDICTED BY IDOCK:   -3.70 KCAL/MOL
REMARK 923 INTER-LIGAND FREE ENERGY PREDICTED BY IDOCK:   -4.14 KCAL/MOL
REMARK 924 INTRA-LIGAND FREE ENERGY PREDICTED BY IDOCK:    0.45 KCAL/MOL
REMARK 927      BINDING AFFINITY PREDICTED BY RF-SCORE:    0.00 PKD
ROOT
HETATM    1  C   UNL     1      -9.180   6.035  68.904  1.00  0.00    -0.124 C  
HETATM    2  C   UNL     1      -7.710   6.437  68.697  1.00  0.00    -0.101 C  
HETATM    3  C   UNL     1      -7.377   5.587  67.614  1.00  0.00    -0.076 A  
HETATM    4  C   UNL     1      -6.862   5.889  66.396  1.00  0.00    -0.059 A  
HETATM    5  N   UNL     1      -7.051   4.763  65.651  1.00  0.00    -0.063 NA 
HETATM    6  C   UNL     1      -6.658   4.753  64.259  1.00  0.00    -0.043 C  
HETATM    7  C   UNL     1      -7.745   3.795  66.393  1.00  0.00    -0.089 A  
HETATM    8  C   UNL     1      -8.043   4.340  67.643  1.00  0.00    -0.095 A  
HETATM    9  C   UNL     1      -9.097   3.858  68.586  1.00  0.00    -0.193 A  
HETATM   10  C   UNL     1      -9.447   2.533  68.309  1.00  0.00    -0.222 A  
HETATM   11  C   UNL     1     -10.146   4.935  69.343  1.00  0.00    -0.270 C  
HETATM   12  C   UNL     1     -11.001   5.918  69.985  1.00  0.00    -0.430 C  
HETATM   13  C   UNL     1      -9.006   1.901  67.107  1.00  0.00    -0.150 A  
HETATM   14  C   UNL     1      -8.237   2.534  66.096  1.00  0.00    -0.088 A  
HETATM   15  C   UNL     1     -10.764   7.617  69.849  1.00  0.00    -0.253 C  
HETATM   16  C   UNL     1     -10.529   7.892  68.343  1.00  0.00    -0.166 C  
HETATM   17  C   UNL     1     -10.477   5.908  66.768  1.00  0.00    -0.281 C  
HETATM   18  N   UNL     1      -9.926   6.710  67.849  1.00  0.00    -0.127 NA 
ENDROOT
BRANCH  15  19
HETATM   19  C   UNL     1      -9.594   8.002  70.807  1.00  0.00    -0.162 C  
HETATM   20  O   UNL     1      -8.809   8.914  70.544  1.00  0.00    -0.156 OA 
HETATM   21  H   UNL     1     -10.209   6.431  71.994  1.00  0.00     0.000 HD 
HETATM   22  N   UNL     1      -9.457   7.105  71.854  1.00  0.00    -0.146 N  
BRANCH  22  23
HETATM   23  CA  UNL     1      -8.323   7.046  72.773  1.00  0.00    -0.107 C  
BRANCH  23  24
HETATM   24  C   UNL     1      -7.572   5.683  72.670  1.00  0.00    -0.098 C  
HETATM   25  H   UNL     1      -6.133   4.849  71.570  1.00  0.00     0.000 HD 
HETATM   26  O   UNL     1      -6.590   5.679  71.633  1.00  0.00    -0.049 OA 
ENDBRANCH  23  24
BRANCH  23  27
HETATM   27  C   UNL     1      -8.890   7.288  74.168  1.00  0.00    -0.262 C  
HETATM   28  C   UNL     1     -10.208   6.567  74.348  1.00  0.00    -0.334 C  
ENDBRANCH  23  27
ENDBRANCH  22  23
ENDBRANCH  15  19
TORSDOF 4
ENDMDL
MODEL      118
REMARK 921   NORMALIZED FREE ENERGY PREDICTED BY IDOCK:   -3.17 KCAL/MOL
REMARK 922        TOTAL FREE ENERGY PREDICTED BY IDOCK:   -3.69 KCAL/MOL
REMARK 923 INTER-LIGAND FREE ENERGY PREDICTED BY IDOCK:   -4.09 KCAL/MOL
REMARK 924 INTRA-LIGAND FREE ENERGY PREDICTED BY IDOCK:    0.40 KCAL/MOL
REMARK 927      BINDING AFFINITY PREDICTED BY RF-SCORE:    0.00 PKD
ROOT
HETATM    1  C   UNL     1      -8.871  11.516  67.526  1.00  0.00    -0.155 C  
HETATM    2  C   UNL     1     -10.364  11.391  67.872  1.00  0.00    -0.204 C  
HETATM    3  C   UNL     1     -10.499   9.981  67.860  1.00  0.00    -0.276 A  
HETATM    4  C   UNL     1     -10.964   9.142  68.820  1.00  0.00     0.030 A  
HETATM    5  N   UNL     1     -10.568   7.901  68.417  1.00  0.00    -0.155 NA 
HETATM    6  C   UNL     1     -10.856   6.755  69.249  1.00  0.00    -0.264 C  
HETATM    7  C   UNL     1      -9.801   7.988  67.246  1.00  0.00    -0.197 A  
HETATM    8  C   UNL     1      -9.671   9.338  66.913  1.00  0.00    -0.248 A  
HETATM    9  C   UNL     1      -8.629   9.928  66.019  1.00  0.00    -0.147 A  
HETATM   10  C   UNL     1      -8.080   8.954  65.180  1.00  0.00    -0.133 A  
HETATM   11  C   UNL     1      -7.795  11.324  66.456  1.00  0.00    -0.133 C  
HETATM   12  C   UNL     1      -7.133  12.545  66.881  1.00  0.00     0.159 C  
HETATM   13  C   UNL     1      -8.343   7.569  65.405  1.00  0.00    -0.129 A  
HETATM   14  C   UNL     1      -9.119   7.058  66.478  1.00  0.00    -0.183 A  
HETATM   15  C   UNL     1      -7.593  13.441  68.275  1.00  0.00    -0.135 C  
HETATM   16  C   UNL     1      -7.756  12.401  69.412  1.00  0.00     0.598 C  
HETATM   17  C   UNL     1      -7.422   9.956  68.839  1.00  0.00    -0.081 C  
HETATM   18  N   UNL     1      -8.153  11.210  68.757  1.00  0.00    -0.146 NA 
ENDROOT
BRANCH  15  19
HETATM   19  C   UNL     1      -8.870  14.258  67.904  1.00  0.00    -0.179 C  
HETATM   20  O   UNL     1      -9.903  14.188  68.569  1.00  0.00    -0.226 OA 
HETATM   21  H   UNL     1      -7.816  14.930  66.263  1.00  0.00     0.000 HD 
HETATM   22  N   UNL     1      -8.744  14.899  66.683  1.00  0.00    -0.255 N  
BRANCH  22  23
HETATM   23  CA  UNL     1      -9.834  15.536  65.947  1.00  0.00    -0.353 C  
BRANCH  23  24
HETATM   24  C   UNL     1     -10.394  16.775  66.709  1.00  0.00    -0.293 C  
HETATM   25  H   UNL     1      -9.710  18.450  67.548  1.00  0.00     0.000 HD 
HETATM   26  O   UNL     1      -9.368  17.695  67.083  1.00  0.00    -0.238 OA 
ENDBRANCH  23  24
BRANCH  23  27
HETATM   27  C   UNL     1     -10.894  14.460  65.737  1.00  0.00    -0.308 C  
HETATM   28  C   UNL     1     -10.467  13.482  64.664  1.00  0.00    -0.439 C  
ENDBRANCH  23  27
ENDBRANCH  22  23
ENDBRANCH  15  19
TORSDOF 4
ENDMDL
MODEL      119
REMARK 921   NORMALIZED FREE ENERGY PREDICTED BY IDOCK:   -3.06 KCAL/MOL
REMARK 922        TOTAL FREE ENERGY PREDICTED BY IDOCK:   -3.55 KCAL/MOL
REMARK 923 INTER-LIGAND FREE ENERGY PREDICTED BY IDOCK:   -3.85 KCAL/MOL
REMARK 924 INTRA-LIGAND FREE ENERGY PREDICTED BY IDOCK:    0.30 KCAL/MOL
REMARK 927      BINDING AFFINITY PREDICTED BY RF-SCORE:    0.00 PKD
ROOT
HETATM    1  C   UNL     1      -8.914   6.507  71.541  1.00  0.00    -0.140 C  
HETATM    2  C   UNL     1      -9.925   5.350  71.486  1.00  0.00    -0.237 C  
HETATM    3  C   UNL     1      -9.199   4.432  70.687  1.00  0.00    -0.198 A  
HETATM    4  C   UNL     1      -8.856   3.143  70.935  1.00  0.00    -0.082 A  
HETATM    5  N   UNL     1      -7.903   2.853  70.004  1.00  0.00    -0.043 NA 
HETATM    6  C   UNL     1      -7.269   1.553  70.013  1.00  0.00    -0.033 C  
HETATM    7  C   UNL     1      -7.613   3.986  69.231  1.00  0.00    -0.054 A  
HETATM    8  C   UNL     1      -8.381   5.047  69.713  1.00  0.00    -0.088 A  
HETATM    9  C   UNL     1      -8.115   6.501  69.489  1.00  0.00    -0.118 A  
HETATM   10  C   UNL     1      -7.296   6.693  68.373  1.00  0.00    -0.087 A  
HETATM   11  C   UNL     1      -8.197   7.606  70.757  1.00  0.00    -0.109 C  
HETATM   12  C   UNL     1      -8.311   8.510  71.887  1.00  0.00    -0.218 C  
HETATM   13  C   UNL     1      -6.633   5.587  67.759  1.00  0.00    -0.053 A  
HETATM   14  C   UNL     1      -6.701   4.246  68.221  1.00  0.00    -0.047 A  
HETATM   15  C   UNL     1      -8.895   8.031  73.433  1.00  0.00    -0.334 C  
HETATM   16  C   UNL     1      -8.160   6.710  73.772  1.00  0.00    -0.102 C  
HETATM   17  C   UNL     1      -6.580   5.753  72.038  1.00  0.00    -0.058 C  
HETATM   18  N   UNL     1      -7.907   6.105  72.517  1.00  0.00    -0.103 NA 
ENDROOT
BRANCH  15  19
HETATM   19  C   UNL     1     -10.450   7.947  73.338  1.00  0.00    -0.069 C  
HETATM   20  O   UNL     1     -11.085   7.025  73.852  1.00  0.00    -0.023 OA 
HETATM   21  H   UNL     1     -10.351   9.647  72.175  1.00  0.00     0.000 HD 
HETATM   22  N   UNL     1     -10.976   8.904  72.487  1.00  0.00    -0.046 N  
BRANCH  22  23
HETATM   23  CA  UNL     1     -12.352   8.937  71.998  1.00  0.00    -0.390 C  
BRANCH  23  24
HETATM   24  C   UNL     1     -12.668   7.709  71.091  1.00  0.00    -0.206 C  
HETATM   25  H   UNL     1     -13.848   6.101  71.108  1.00  0.00     0.000 HD 
HETATM   26  O   UNL     1     -13.656   6.849  71.661  1.00  0.00    -0.317 OA 
ENDBRANCH  23  24
BRANCH  23  27
HETATM   27  C   UNL     1     -12.511  10.259  71.256  1.00  0.00    -0.514 C  
HETATM   28  C   UNL     1     -11.200  10.694  70.639  1.00  0.00    -0.182 C  
ENDBRANCH  23  27
ENDBRANCH  22  23
ENDBRANCH  15  19
TORSDOF 4
ENDMDL
MODEL      120
REMARK 921   NORMALIZED FREE ENERGY PREDICTED BY IDOCK:   -3.06 KCAL/MOL
REMARK 922        TOTAL FREE ENERGY PREDICTED BY IDOCK:   -3.55 KCAL/MOL
REMARK 923 INTER-LIGAND FREE ENERGY PREDICTED BY IDOCK:   -3.55 KCAL/MOL
REMARK 924 INTRA-LIGAND FREE ENERGY PREDICTED BY IDOCK:   -0.00 KCAL/MOL
REMARK 927      BINDING AFFINITY PREDICTED BY RF-SCORE:    0.00 PKD
ROOT
HETATM    1  C   UNL     1      -8.017  10.228  67.621  1.00  0.00    -0.102 C  
HETATM    2  C   UNL     1      -9.499   9.821  67.675  1.00  0.00    -0.164 C  
HETATM    3  C   UNL     1     -10.061  10.844  66.872  1.00  0.00    -0.253 A  
HETATM    4  C   UNL     1     -10.839  10.753  65.765  1.00  0.00    -0.006 A  
HETATM    5  N   UNL     1     -10.814  12.003  65.220  1.00  0.00    -0.285 NA 
HETATM    6  C   UNL     1     -11.510  12.255  63.978  1.00  0.00    -0.409 C  
HETATM    7  C   UNL     1      -9.963  12.841  65.957  1.00  0.00    -0.271 A  
HETATM    8  C   UNL     1      -9.396  12.086  66.985  1.00  0.00    -0.191 A  
HETATM    9  C   UNL     1      -8.152  12.423  67.743  1.00  0.00    -0.162 A  
HETATM   10  C   UNL     1      -7.863  13.787  67.647  1.00  0.00    -0.185 A  
HETATM   11  C   UNL     1      -6.968  11.261  68.032  1.00  0.00    -0.068 C  
HETATM   12  C   UNL     1      -5.999  10.206  68.272  1.00  0.00    -0.041 C  
HETATM   13  C   UNL     1      -8.559  14.614  66.714  1.00  0.00    -0.195 A  
HETATM   14  C   UNL     1      -9.540  14.151  65.799  1.00  0.00    -0.165 A  
HETATM   15  C   UNL     1      -6.274   8.555  67.877  1.00  0.00    -0.056 C  
HETATM   16  C   UNL     1      -6.844   8.553  66.437  1.00  0.00    -0.074 C  
HETATM   17  C   UNL     1      -7.234  10.790  65.313  1.00  0.00     0.115 C  
HETATM   18  N   UNL     1      -7.533   9.784  66.319  1.00  0.00    -0.098 NA 
ENDROOT
BRANCH  15  19
HETATM   19  C   UNL     1      -7.202   7.959  68.982  1.00  0.00    -0.075 C  
HETATM   20  O   UNL     1      -7.189   8.381  70.139  1.00  0.00    -0.049 OA 
HETATM   21  H   UNL     1      -7.847   6.621  67.551  1.00  0.00     0.000 HD 
HETATM   22  N   UNL     1      -7.874   6.829  68.549  1.00  0.00    -0.116 N  
BRANCH  22  23
HETATM   23  CA  UNL     1      -8.620   5.909  69.404  1.00  0.00    -0.113 C  
BRANCH  23  24
HETATM   24  C   UNL     1      -7.811   4.607  69.689  1.00  0.00    -0.065 C  
HETATM   25  H   UNL     1      -7.850   2.680  69.175  1.00  0.00     0.000 HD 
HETATM   26  O   UNL     1      -8.343   3.474  69.002  1.00  0.00    -0.060 OA 
ENDBRANCH  23  24
BRANCH  23  27
HETATM   27  C   UNL     1      -9.934   5.626  68.685  1.00  0.00    -0.213 C  
HETATM   28  C   UNL     1     -10.724   6.901  68.482  1.00  0.00    -0.252 C  
ENDBRANCH  23  27
ENDBRANCH  22  23
ENDBRANCH  15  19
TORSDOF 4
ENDMDL
MODEL      121
REMARK 921   NORMALIZED FREE ENERGY PREDICTED BY IDOCK:   -3.05 KCAL/MOL
REMARK 922        TOTAL FREE ENERGY PREDICTED BY IDOCK:   -3.54 KCAL/MOL
REMARK 923 INTER-LIGAND FREE ENERGY PREDICTED BY IDOCK:   -4.44 KCAL/MOL
REMARK 924 INTRA-LIGAND FREE ENERGY PREDICTED BY IDOCK:    0.89 KCAL/MOL
REMARK 927      BINDING AFFINITY PREDICTED BY RF-SCORE:    0.00 PKD
ROOT
HETATM    1  C   UNL     1      -8.892  14.060  66.902  1.00  0.00    -0.194 C  
HETATM    2  C   UNL     1      -7.452  14.585  67.032  1.00  0.00     0.187 C  
HETATM    3  C   UNL     1      -7.710  15.972  67.160  1.00  0.00    -0.242 A  
HETATM    4  C   UNL     1      -7.330  16.843  68.128  1.00  0.00    -0.179 A  
HETATM    5  N   UNL     1      -8.113  17.942  67.933  1.00  0.00    -0.239 NA 
HETATM    6  C   UNL     1      -8.005  19.065  68.837  1.00  0.00    -0.287 C  
HETATM    7  C   UNL     1      -9.022  17.717  66.889  1.00  0.00    -0.246 A  
HETATM    8  C   UNL     1      -8.837  16.412  66.428  1.00  0.00    -0.346 A  
HETATM    9  C   UNL     1      -9.820  15.608  65.640  1.00  0.00    -0.369 A  
HETATM   10  C   UNL     1     -10.752  16.437  65.010  1.00  0.00    -0.279 A  
HETATM   11  C   UNL     1     -10.151  14.006  66.037  1.00  0.00    -0.327 C  
HETATM   12  C   UNL     1     -10.370  12.621  66.415  1.00  0.00    -0.264 C  
HETATM   13  C   UNL     1     -10.840  17.821  65.348  1.00  0.00     0.151 A  
HETATM   14  C   UNL     1     -10.056  18.461  66.344  1.00  0.00    -0.420 A  
HETATM   15  C   UNL     1      -9.444  11.804  67.613  1.00  0.00    -0.180 C  
HETATM   16  C   UNL     1      -9.372  12.768  68.822  1.00  0.00     0.147 C  
HETATM   17  C   UNL     1     -10.455  15.047  68.588  1.00  0.00    -0.238 C  
HETATM   18  N   UNL     1      -9.436  14.065  68.255  1.00  0.00    -0.212 NA 
ENDROOT
BRANCH  15  19
HETATM   19  C   UNL     1      -8.080  11.415  66.962  1.00  0.00    -0.157 C  
HETATM   20  O   UNL     1      -7.019  11.931  67.316  1.00  0.00    -0.122 OA 
HETATM   21  H   UNL     1      -9.164  10.179  65.716  1.00  0.00     0.000 HD 
HETATM   22  N   UNL     1      -8.240  10.585  65.865  1.00  0.00    -0.148 N  
BRANCH  22  23
HETATM   23  CA  UNL     1      -7.195  10.244  64.904  1.00  0.00    -0.100 C  
BRANCH  23  24
HETATM   24  C   UNL     1      -7.632  10.565  63.442  1.00  0.00     0.018 C  
HETATM   25  H   UNL     1      -9.287  10.514  62.331  1.00  0.00     0.000 HD 
HETATM   26  O   UNL     1      -9.022  10.318  63.222  1.00  0.00    -0.192 OA 
ENDBRANCH  23  24
BRANCH  23  27
HETATM   27  C   UNL     1      -6.897   8.761  65.103  1.00  0.00    -0.075 C  
HETATM   28  C   UNL     1      -8.044   8.070  65.808  1.00  0.00    -0.121 C  
ENDBRANCH  23  27
ENDBRANCH  22  23
ENDBRANCH  15  19
TORSDOF 4
ENDMDL
MODEL      122
REMARK 921   NORMALIZED FREE ENERGY PREDICTED BY IDOCK:   -2.96 KCAL/MOL
REMARK 922        TOTAL FREE ENERGY PREDICTED BY IDOCK:   -3.43 KCAL/MOL
REMARK 923 INTER-LIGAND FREE ENERGY PREDICTED BY IDOCK:   -3.15 KCAL/MOL
REMARK 924 INTRA-LIGAND FREE ENERGY PREDICTED BY IDOCK:   -0.28 KCAL/MOL
REMARK 927      BINDING AFFINITY PREDICTED BY RF-SCORE:    0.00 PKD
ROOT
HETATM    1  C   UNL     1      -9.133   8.875  68.796  1.00  0.00    -0.134 C  
HETATM    2  C   UNL     1      -9.249   7.572  67.988  1.00  0.00    -0.137 C  
HETATM    3  C   UNL     1      -9.465   8.108  66.694  1.00  0.00    -0.274 A  
HETATM    4  C   UNL     1      -8.786   7.897  65.539  1.00  0.00    -0.031 A  
HETATM    5  N   UNL     1      -9.201   8.894  64.706  1.00  0.00     0.039 NA 
HETATM    6  C   UNL     1      -8.628   9.003  63.383  1.00  0.00    -0.135 C  
HETATM    7  C   UNL     1     -10.082   9.756  65.375  1.00  0.00    -0.126 A  
HETATM    8  C   UNL     1     -10.201   9.315  66.694  1.00  0.00    -0.323 A  
HETATM    9  C   UNL     1     -10.681  10.126  67.854  1.00  0.00    -0.317 A  
HETATM   10  C   UNL     1     -11.434  11.221  67.421  1.00  0.00    -0.300 A  
HETATM   11  C   UNL     1      -9.860  10.112  69.324  1.00  0.00    -0.235 C  
HETATM   12  C   UNL     1      -9.122  10.033  70.572  1.00  0.00     0.299 C  
HETATM   13  C   UNL     1     -11.459  11.586  66.042  1.00  0.00    -0.093 A  
HETATM   14  C   UNL     1     -10.723  10.932  65.019  1.00  0.00    -0.216 A  
HETATM   15  C   UNL     1      -7.825   8.936  70.843  1.00  0.00    -0.154 C  
HETATM   16  C   UNL     1      -6.914   9.041  69.594  1.00  0.00    -0.054 C  
HETATM   17  C   UNL     1      -7.649  10.575  67.716  1.00  0.00    -0.088 C  
HETATM   18  N   UNL     1      -7.791   9.382  68.535  1.00  0.00    -0.089 NA 
ENDROOT
BRANCH  15  19
HETATM   19  C   UNL     1      -8.450   7.534  71.120  1.00  0.00    -0.117 C  
HETATM   20  O   UNL     1      -9.485   7.400  71.774  1.00  0.00    -0.149 OA 
HETATM   21  H   UNL     1      -6.827   6.746  70.120  1.00  0.00     0.000 HD 
HETATM   22  N   UNL     1      -7.626   6.501  70.705  1.00  0.00    -0.100 N  
BRANCH  22  23
HETATM   23  CA  UNL     1      -7.807   5.090  71.036  1.00  0.00    -0.092 C  
BRANCH  23  24
HETATM   24  C   UNL     1      -6.443   4.386  71.314  1.00  0.00    -0.019 C  
HETATM   25  H   UNL     1      -4.547   4.511  70.712  1.00  0.00     0.000 HD 
HETATM   26  O   UNL     1      -5.377   4.940  70.542  1.00  0.00    -0.003 OA 
ENDBRANCH  23  24
BRANCH  23  27
HETATM   27  C   UNL     1      -8.548   4.466  69.859  1.00  0.00    -0.098 C  
HETATM   28  C   UNL     1     -10.006   4.240  70.197  1.00  0.00    -0.206 C  
ENDBRANCH  23  27
ENDBRANCH  22  23
ENDBRANCH  15  19
TORSDOF 4
ENDMDL
MODEL      123
REMARK 921   NORMALIZED FREE ENERGY PREDICTED BY IDOCK:   -2.95 KCAL/MOL
REMARK 922        TOTAL FREE ENERGY PREDICTED BY IDOCK:   -3.42 KCAL/MOL
REMARK 923 INTER-LIGAND FREE ENERGY PREDICTED BY IDOCK:   -3.80 KCAL/MOL
REMARK 924 INTRA-LIGAND FREE ENERGY PREDICTED BY IDOCK:    0.37 KCAL/MOL
REMARK 927      BINDING AFFINITY PREDICTED BY RF-SCORE:    0.00 PKD
ROOT
HETATM    1  C   UNL     1      -8.901   6.457  68.526  1.00  0.00    -0.119 C  
HETATM    2  C   UNL     1      -8.427   7.919  68.461  1.00  0.00    -0.128 C  
HETATM    3  C   UNL     1      -7.470   7.818  67.421  1.00  0.00    -0.093 A  
HETATM    4  C   UNL     1      -7.372   8.508  66.258  1.00  0.00    -0.079 A  
HETATM    5  N   UNL     1      -6.488   7.794  65.505  1.00  0.00    -0.042 NA 
HETATM    6  C   UNL     1      -6.185   8.226  64.158  1.00  0.00    -0.066 C  
HETATM    7  C   UNL     1      -6.098   6.629  66.181  1.00  0.00    -0.033 A  
HETATM    8  C   UNL     1      -6.789   6.580  67.392  1.00  0.00    -0.076 A  
HETATM    9  C   UNL     1      -7.012   5.363  68.231  1.00  0.00    -0.061 A  
HETATM   10  C   UNL     1      -6.076   4.370  67.929  1.00  0.00    -0.031 A  
HETATM   11  C   UNL     1      -8.529   5.016  68.875  1.00  0.00    -0.088 C  
HETATM   12  C   UNL     1      -9.854   4.790  69.424  1.00  0.00    -0.282 C  
HETATM   13  C   UNL     1      -5.237   4.487  66.781  1.00  0.00    -0.008 A  
HETATM   14  C   UNL     1      -5.291   5.554  65.846  1.00  0.00    -0.013 A  
HETATM   15  C   UNL     1     -11.141   5.925  69.301  1.00  0.00    -0.352 C  
HETATM   16  C   UNL     1     -11.156   6.390  67.824  1.00  0.00    -0.276 C  
HETATM   17  C   UNL     1      -9.373   5.474  66.274  1.00  0.00    -0.156 C  
HETATM   18  N   UNL     1      -9.809   6.286  67.399  1.00  0.00    -0.124 NA 
ENDROOT
BRANCH  15  19
HETATM   19  C   UNL     1     -10.885   7.036  70.367  1.00  0.00    -0.254 C  
HETATM   20  O   UNL     1     -11.085   8.227  70.128  1.00  0.00    -0.252 OA 
HETATM   21  H   UNL     1     -10.208   5.528  71.601  1.00  0.00     0.000 HD 
HETATM   22  N   UNL     1     -10.261   6.541  71.500  1.00  0.00    -0.191 N  
BRANCH  22  23
HETATM   23  CA  UNL     1      -9.672   7.352  72.563  1.00  0.00    -0.160 C  
BRANCH  23  24
HETATM   24  C   UNL     1      -8.124   7.177  72.628  1.00  0.00    -0.106 C  
HETATM   25  H   UNL     1      -6.700   6.115  71.722  1.00  0.00     0.000 HD 
HETATM   26  O   UNL     1      -7.643   6.221  71.682  1.00  0.00    -0.093 OA 
ENDBRANCH  23  24
BRANCH  23  27
HETATM   27  C   UNL     1     -10.356   6.922  73.857  1.00  0.00    -0.398 C  
HETATM   28  C   UNL     1     -10.530   5.419  73.903  1.00  0.00    -0.313 C  
ENDBRANCH  23  27
ENDBRANCH  22  23
ENDBRANCH  15  19
TORSDOF 4
ENDMDL
MODEL      124
REMARK 921   NORMALIZED FREE ENERGY PREDICTED BY IDOCK:   -2.90 KCAL/MOL
REMARK 922        TOTAL FREE ENERGY PREDICTED BY IDOCK:   -3.35 KCAL/MOL
REMARK 923 INTER-LIGAND FREE ENERGY PREDICTED BY IDOCK:   -4.23 KCAL/MOL
REMARK 924 INTRA-LIGAND FREE ENERGY PREDICTED BY IDOCK:    0.87 KCAL/MOL
REMARK 927      BINDING AFFINITY PREDICTED BY RF-SCORE:    0.00 PKD
ROOT
HETATM    1  C   UNL     1      -9.290   6.668  69.119  1.00  0.00    -0.134 C  
HETATM    2  C   UNL     1      -8.011   7.352  69.631  1.00  0.00    -0.126 C  
HETATM    3  C   UNL     1      -8.401   7.627  70.965  1.00  0.00    -0.112 A  
HETATM    4  C   UNL     1      -7.803   7.288  72.134  1.00  0.00    -0.090 A  
HETATM    5  N   UNL     1      -8.754   7.510  73.086  1.00  0.00    -0.141 NA 
HETATM    6  C   UNL     1      -8.467   7.198  74.469  1.00  0.00    -0.192 C  
HETATM    7  C   UNL     1      -9.956   7.919  72.492  1.00  0.00    -0.249 A  
HETATM    8  C   UNL     1      -9.776   7.920  71.107  1.00  0.00    -0.182 A  
HETATM    9  C   UNL     1     -10.859   7.880  70.078  1.00  0.00    -0.238 A  
HETATM   10  C   UNL     1     -12.076   8.307  70.616  1.00  0.00     0.039 A  
HETATM   11  C   UNL     1     -10.765   6.841  68.756  1.00  0.00    -0.280 C  
HETATM   12  C   UNL     1     -10.609   5.943  67.625  1.00  0.00    -0.335 C  
HETATM   13  C   UNL     1     -12.228   8.477  72.025  1.00  0.00    -0.429 A  
HETATM   14  C   UNL     1     -11.219   8.203  72.986  1.00  0.00    -0.166 A  
HETATM   15  C   UNL     1      -9.175   5.043  67.316  1.00  0.00    -0.127 C  
HETATM   16  C   UNL     1      -8.776   4.405  68.670  1.00  0.00    -0.095 C  
HETATM   17  C   UNL     1     -10.189   4.951  70.701  1.00  0.00    -0.211 C  
HETATM   18  N   UNL     1      -9.251   5.311  69.650  1.00  0.00    -0.114 NA 
ENDROOT
BRANCH  15  19
HETATM   19  C   UNL     1      -8.137   6.022  66.687  1.00  0.00    -0.106 C  
HETATM   20  O   UNL     1      -6.959   6.040  67.044  1.00  0.00    -0.065 OA 
HETATM   21  H   UNL     1      -9.704   6.783  65.582  1.00  0.00     0.000 HD 
HETATM   22  N   UNL     1      -8.732   6.945  65.843  1.00  0.00    -0.152 N  
BRANCH  22  23
HETATM   23  CA  UNL     1      -8.081   8.133  65.296  1.00  0.00    -0.136 C  
BRANCH  23  24
HETATM   24  C   UNL     1      -6.720   8.418  66.001  1.00  0.00    -0.061 C  
HETATM   25  H   UNL     1      -4.846   8.881  65.502  1.00  0.00     0.000 HD 
HETATM   26  O   UNL     1      -5.675   8.708  65.072  1.00  0.00    -0.047 OA 
ENDBRANCH  23  24
BRANCH  23  27
HETATM   27  C   UNL     1      -9.070   9.281  65.468  1.00  0.00    -0.275 C  
HETATM   28  C   UNL     1      -9.432   9.469  66.925  1.00  0.00    -0.204 C  
ENDBRANCH  23  27
ENDBRANCH  22  23
ENDBRANCH  15  19
TORSDOF 4
ENDMDL
MODEL      125
REMARK 921   NORMALIZED FREE ENERGY PREDICTED BY IDOCK:   -2.79 KCAL/MOL
REMARK 922        TOTAL FREE ENERGY PREDICTED BY IDOCK:   -3.22 KCAL/MOL
REMARK 923 INTER-LIGAND FREE ENERGY PREDICTED BY IDOCK:   -4.00 KCAL/MOL
REMARK 924 INTRA-LIGAND FREE ENERGY PREDICTED BY IDOCK:    0.78 KCAL/MOL
REMARK 927      BINDING AFFINITY PREDICTED BY RF-SCORE:    0.00 PKD
ROOT
HETATM    1  C   UNL     1      -8.963  18.715  67.206  1.00  0.00    -0.274 C  
HETATM    2  C   UNL     1      -8.148  17.886  68.212  1.00  0.00    -0.294 C  
HETATM    3  C   UNL     1      -7.065  18.772  68.435  1.00  0.00    -0.288 A  
HETATM    4  C   UNL     1      -6.585  19.287  69.594  1.00  0.00    -0.247 A  
HETATM    5  N   UNL     1      -5.773  20.313  69.208  1.00  0.00    -0.282 NA 
HETATM    6  C   UNL     1      -5.127  21.128  70.212  1.00  0.00    -0.228 C  
HETATM    7  C   UNL     1      -5.810  20.468  67.815  1.00  0.00    -0.236 A  
HETATM    8  C   UNL     1      -6.710  19.534  67.299  1.00  0.00    -0.216 A  
HETATM    9  C   UNL     1      -7.374  19.595  65.961  1.00  0.00    -0.308 A  
HETATM   10  C   UNL     1      -6.665  20.426  65.089  1.00  0.00    -0.316 A  
HETATM   11  C   UNL     1      -9.023  19.298  65.794  1.00  0.00     0.250 C  
HETATM   12  C   UNL     1     -10.443  19.004  65.715  1.00  0.00    -0.375 C  
HETATM   13  C   UNL     1      -5.621  21.269  65.576  1.00  0.00    -0.205 A  
HETATM   14  C   UNL     1      -5.238  21.377  66.939  1.00  0.00    -0.329 A  
HETATM   15  C   UNL     1     -11.370  18.429  67.045  1.00  0.00     0.733 C  
HETATM   16  C   UNL     1     -10.994  19.332  68.246  1.00  0.00     0.366 C  
HETATM   17  C   UNL     1      -9.224  21.109  67.884  1.00  0.00     0.368 C  
HETATM   18  N   UNL     1      -9.656  19.725  67.997  1.00  0.00    -0.368 NA 
ENDROOT
BRANCH  15  19
HETATM   19  C   UNL     1     -11.060  16.908  67.206  1.00  0.00     0.091 C  
HETATM   20  O   UNL     1     -10.386  16.290  66.382  1.00  0.00    -0.296 OA 
HETATM   21  H   UNL     1     -12.238  16.971  68.899  1.00  0.00     0.000 HD 
HETATM   22  N   UNL     1     -11.763  16.338  68.255  1.00  0.00    -0.135 N  
BRANCH  22  23
HETATM   23  CA  UNL     1     -11.882  14.906  68.514  1.00  0.00    -0.294 C  
BRANCH  23  24
HETATM   24  C   UNL     1     -10.571  14.322  69.124  1.00  0.00    -0.186 C  
HETATM   25  H   UNL     1      -9.128  14.884  70.381  1.00  0.00     0.000 HD 
HETATM   26  O   UNL     1      -9.926  15.240  70.009  1.00  0.00    -0.234 OA 
ENDBRANCH  23  24
BRANCH  23  27
HETATM   27  C   UNL     1     -12.234  14.257  67.179  1.00  0.00    -0.312 C  
HETATM   28  C   UNL     1     -11.497  12.947  67.004  1.00  0.00    -0.390 C  
ENDBRANCH  23  27
ENDBRANCH  22  23
ENDBRANCH  15  19
TORSDOF 4
ENDMDL
MODEL      126
REMARK 921   NORMALIZED FREE ENERGY PREDICTED BY IDOCK:   -2.63 KCAL/MOL
REMARK 922        TOTAL FREE ENERGY PREDICTED BY IDOCK:   -3.02 KCAL/MOL
REMARK 923 INTER-LIGAND FREE ENERGY PREDICTED BY IDOCK:   -3.47 KCAL/MOL
REMARK 924 INTRA-LIGAND FREE ENERGY PREDICTED BY IDOCK:    0.45 KCAL/MOL
REMARK 927      BINDING AFFINITY PREDICTED BY RF-SCORE:    0.00 PKD
ROOT
HETATM    1  C   UNL     1      -8.866   6.913  68.259  1.00  0.00    -0.122 C  
HETATM    2  C   UNL     1      -8.035   5.810  68.936  1.00  0.00    -0.098 C  
HETATM    3  C   UNL     1      -7.431   6.563  69.973  1.00  0.00    -0.094 A  
HETATM    4  C   UNL     1      -7.435   6.358  71.314  1.00  0.00    -0.089 A  
HETATM    5  N   UNL     1      -6.998   7.536  71.845  1.00  0.00    -0.061 NA 
HETATM    6  C   UNL     1      -6.929   7.689  73.282  1.00  0.00    -0.073 C  
HETATM    7  C   UNL     1      -6.793   8.484  70.832  1.00  0.00    -0.052 A  
HETATM    8  C   UNL     1      -7.150   7.901  69.615  1.00  0.00    -0.061 A  
HETATM    9  C   UNL     1      -7.489   8.630  68.355  1.00  0.00    -0.095 A  
HETATM   10  C   UNL     1      -6.971   9.927  68.373  1.00  0.00    -0.068 A  
HETATM   11  C   UNL     1      -8.835   8.202  67.438  1.00  0.00    -0.131 C  
HETATM   12  C   UNL     1      -9.993   7.765  66.678  1.00  0.00    -0.299 C  
HETATM   13  C   UNL     1      -6.441  10.482  69.577  1.00  0.00    -0.072 A  
HETATM   14  C   UNL     1      -6.426   9.820  70.833  1.00  0.00    -0.063 A  
HETATM   15  C   UNL     1     -10.902   6.354  67.058  1.00  0.00    -0.464 C  
HETATM   16  C   UNL     1     -11.151   6.410  68.585  1.00  0.00    -0.311 C  
HETATM   17  C   UNL     1     -10.132   8.331  69.885  1.00  0.00    -0.195 C  
HETATM   18  N   UNL     1     -10.034   7.105  69.109  1.00  0.00    -0.164 NA 
ENDROOT
BRANCH  15  19
HETATM   19  C   UNL     1     -10.093   5.125  66.538  1.00  0.00    -0.239 C  
HETATM   20  O   UNL     1      -9.982   4.092  67.199  1.00  0.00    -0.184 OA 
HETATM   21  H   UNL     1      -9.629   6.279  64.892  1.00  0.00     0.000 HD 
HETATM   22  N   UNL     1      -9.402   5.408  65.372  1.00  0.00    -0.054 N  
BRANCH  22  23
HETATM   23  CA  UNL     1      -8.374   4.561  64.773  1.00  0.00    -0.116 C  
BRANCH  23  24
HETATM   24  C   UNL     1      -7.000   5.295  64.694  1.00  0.00    -0.049 C  
HETATM   25  H   UNL     1      -5.836   6.146  63.317  1.00  0.00     0.000 HD 
HETATM   26  O   UNL     1      -6.673   5.699  63.364  1.00  0.00    -0.034 OA 
ENDBRANCH  23  24
BRANCH  23  27
HETATM   27  C   UNL     1      -8.895   4.165  63.396  1.00  0.00    -0.116 C  
HETATM   28  C   UNL     1     -10.050   3.194  63.514  1.00  0.00    -0.169 C  
ENDBRANCH  23  27
ENDBRANCH  22  23
ENDBRANCH  15  19
TORSDOF 4
ENDMDL
MODEL      127
REMARK 921   NORMALIZED FREE ENERGY PREDICTED BY IDOCK:   -2.61 KCAL/MOL
REMARK 922        TOTAL FREE ENERGY PREDICTED BY IDOCK:   -3.00 KCAL/MOL
REMARK 923 INTER-LIGAND FREE ENERGY PREDICTED BY IDOCK:   -3.40 KCAL/MOL
REMARK 924 INTRA-LIGAND FREE ENERGY PREDICTED BY IDOCK:    0.40 KCAL/MOL
REMARK 927      BINDING AFFINITY PREDICTED BY RF-SCORE:    0.00 PKD
ROOT
HETATM    1  C   UNL     1      -8.192   7.893  68.933  1.00  0.00    -0.126 C  
HETATM    2  C   UNL     1      -8.060   8.362  67.475  1.00  0.00    -0.110 C  
HETATM    3  C   UNL     1      -8.632   9.654  67.583  1.00  0.00    -0.126 A  
HETATM    4  C   UNL     1      -8.122  10.864  67.244  1.00  0.00    -0.123 A  
HETATM    5  N   UNL     1      -8.938  11.768  67.857  1.00  0.00    -0.172 NA 
HETATM    6  C   UNL     1      -8.648  13.181  67.747  1.00  0.00    -0.188 C  
HETATM    7  C   UNL     1      -9.907  11.110  68.628  1.00  0.00    -0.202 A  
HETATM    8  C   UNL     1      -9.674   9.737  68.534  1.00  0.00    -0.164 A  
HETATM    9  C   UNL     1     -10.169   8.693  69.483  1.00  0.00    -0.209 A  
HETATM   10  C   UNL     1     -11.266   9.159  70.212  1.00  0.00    -0.249 A  
HETATM   11  C   UNL     1      -9.147   7.482  70.053  1.00  0.00    -0.148 C  
HETATM   12  C   UNL     1      -8.222   6.449  70.486  1.00  0.00    -0.118 C  
HETATM   13  C   UNL     1     -11.623  10.541  70.184  1.00  0.00    -0.408 A  
HETATM   14  C   UNL     1     -10.910  11.546  69.479  1.00  0.00    -0.121 A  
HETATM   15  C   UNL     1      -6.638   6.262  69.842  1.00  0.00    -0.048 C  
HETATM   16  C   UNL     1      -6.016   7.680  69.829  1.00  0.00    -0.023 C  
HETATM   17  C   UNL     1      -7.462   9.616  70.593  1.00  0.00    -0.085 C  
HETATM   18  N   UNL     1      -7.116   8.556  69.660  1.00  0.00    -0.051 NA 
ENDROOT
BRANCH  15  19
HETATM   19  C   UNL     1      -6.778   5.561  68.455  1.00  0.00    -0.054 C  
HETATM   20  O   UNL     1      -6.155   5.947  67.465  1.00  0.00    -0.020 OA 
HETATM   21  H   UNL     1      -8.181   4.341  69.348  1.00  0.00     0.000 HD 
HETATM   22  N   UNL     1      -7.784   4.610  68.447  1.00  0.00    -0.079 N  
BRANCH  22  23
HETATM   23  CA  UNL     1      -8.324   3.960  67.256  1.00  0.00    -0.099 C  
BRANCH  23  24
HETATM   24  C   UNL     1      -9.823   4.328  67.030  1.00  0.00    -0.179 C  
HETATM   25  H   UNL     1     -10.946   5.963  66.829  1.00  0.00     0.000 HD 
HETATM   26  O   UNL     1     -10.033   5.739  66.966  1.00  0.00    -0.136 OA 
ENDBRANCH  23  24
BRANCH  23  27
HETATM   27  C   UNL     1      -8.123   2.462  67.457  1.00  0.00    -0.068 C  
HETATM   28  C   UNL     1      -8.398   1.703  66.178  1.00  0.00    -0.091 C  
ENDBRANCH  23  27
ENDBRANCH  22  23
ENDBRANCH  15  19
TORSDOF 4
ENDMDL
MODEL      128
REMARK 921   NORMALIZED FREE ENERGY PREDICTED BY IDOCK:   -2.59 KCAL/MOL
REMARK 922        TOTAL FREE ENERGY PREDICTED BY IDOCK:   -2.97 KCAL/MOL
REMARK 923 INTER-LIGAND FREE ENERGY PREDICTED BY IDOCK:   -4.22 KCAL/MOL
REMARK 924 INTRA-LIGAND FREE ENERGY PREDICTED BY IDOCK:    1.25 KCAL/MOL
REMARK 927      BINDING AFFINITY PREDICTED BY RF-SCORE:    0.00 PKD
ROOT
HETATM    1  C   UNL     1      -9.752  11.054  66.124  1.00  0.00    -0.217 C  
HETATM    2  C   UNL     1      -8.497  11.463  66.912  1.00  0.00    -0.157 C  
HETATM    3  C   UNL     1      -7.732  10.277  66.782  1.00  0.00    -0.111 A  
HETATM    4  C   UNL     1      -6.474  10.100  66.306  1.00  0.00    -0.085 A  
HETATM    5  N   UNL     1      -6.368   8.756  66.102  1.00  0.00    -0.063 NA 
HETATM    6  C   UNL     1      -5.151   8.214  65.539  1.00  0.00    -0.028 C  
HETATM    7  C   UNL     1      -7.584   8.119  66.388  1.00  0.00    -0.091 A  
HETATM    8  C   UNL     1      -8.511   9.098  66.750  1.00  0.00    -0.125 A  
HETATM    9  C   UNL     1      -9.998   8.952  66.734  1.00  0.00    -0.338 A  
HETATM   10  C   UNL     1     -10.368   7.605  66.769  1.00  0.00    -0.343 A  
HETATM   11  C   UNL     1     -10.983  10.149  66.076  1.00  0.00     0.317 C  
HETATM   12  C   UNL     1     -11.777  11.230  65.519  1.00  0.00     0.501 C  
HETATM   13  C   UNL     1      -9.397   6.579  66.569  1.00  0.00    -0.188 A  
HETATM   14  C   UNL     1      -8.025   6.809  66.287  1.00  0.00    -0.108 A  
HETATM   15  C   UNL     1     -11.114  12.739  65.025  1.00  0.00    -0.317 C  
HETATM   16  C   UNL     1      -9.862  12.395  64.182  1.00  0.00    -0.118 C  
HETATM   17  C   UNL     1      -9.228   9.954  63.939  1.00  0.00    -0.248 C  
HETATM   18  N   UNL     1      -9.390  11.172  64.717  1.00  0.00    -0.209 NA 
ENDROOT
BRANCH  15  19
HETATM   19  C   UNL     1     -10.863  13.582  66.314  1.00  0.00    -0.289 C  
HETATM   20  O   UNL     1     -11.762  13.822  67.120  1.00  0.00    -0.342 OA 
HETATM   21  H   UNL     1      -8.929  13.819  65.637  1.00  0.00     0.000 HD 
HETATM   22  N   UNL     1      -9.599  14.147  66.333  1.00  0.00    -0.293 N  
BRANCH  22  23
HETATM   23  CA  UNL     1      -9.146  15.174  67.266  1.00  0.00    -0.198 C  
BRANCH  23  24
HETATM   24  C   UNL     1     -10.304  15.660  68.192  1.00  0.00    -0.246 C  
HETATM   25  H   UNL     1     -11.375  17.312  68.504  1.00  0.00     0.000 HD 
HETATM   26  O   UNL     1     -10.670  17.017  67.940  1.00  0.00    -0.356 OA 
ENDBRANCH  23  24
BRANCH  23  27
HETATM   27  C   UNL     1      -8.575  16.304  66.416  1.00  0.00    -0.361 C  
HETATM   28  C   UNL     1      -7.425  16.986  67.125  1.00  0.00    -0.205 C  
ENDBRANCH  23  27
ENDBRANCH  22  23
ENDBRANCH  15  19
TORSDOF 4
ENDMDL
MODEL      129
REMARK 921   NORMALIZED FREE ENERGY PREDICTED BY IDOCK:   -2.58 KCAL/MOL
REMARK 922        TOTAL FREE ENERGY PREDICTED BY IDOCK:   -2.96 KCAL/MOL
REMARK 923 INTER-LIGAND FREE ENERGY PREDICTED BY IDOCK:   -3.37 KCAL/MOL
REMARK 924 INTRA-LIGAND FREE ENERGY PREDICTED BY IDOCK:    0.40 KCAL/MOL
REMARK 927      BINDING AFFINITY PREDICTED BY RF-SCORE:    0.00 PKD
ROOT
HETATM    1  C   UNL     1      -8.912   5.657  69.745  1.00  0.00    -0.127 C  
HETATM    2  C   UNL     1      -7.704   6.575  69.493  1.00  0.00    -0.100 C  
HETATM    3  C   UNL     1      -7.828   6.762  68.094  1.00  0.00    -0.113 A  
HETATM    4  C   UNL     1      -7.913   7.907  67.372  1.00  0.00    -0.122 A  
HETATM    5  N   UNL     1      -8.345   7.510  66.141  1.00  0.00    -0.131 NA 
HETATM    6  C   UNL     1      -8.598   8.501  65.120  1.00  0.00    -0.152 C  
HETATM    7  C   UNL     1      -8.591   6.129  66.131  1.00  0.00    -0.141 A  
HETATM    8  C   UNL     1      -8.345   5.636  67.413  1.00  0.00    -0.100 A  
HETATM    9  C   UNL     1      -8.854   4.348  67.975  1.00  0.00    -0.125 A  
HETATM   10  C   UNL     1      -9.215   3.465  66.953  1.00  0.00    -0.202 A  
HETATM   11  C   UNL     1      -9.527   4.276  69.517  1.00  0.00    -0.257 C  
HETATM   12  C   UNL     1     -10.070   4.278  70.863  1.00  0.00    -0.161 C  
HETATM   13  C   UNL     1      -9.307   3.916  65.601  1.00  0.00    -0.161 A  
HETATM   14  C   UNL     1      -9.092   5.255  65.180  1.00  0.00    -0.065 A  
HETATM   15  C   UNL     1     -10.011   5.641  71.911  1.00  0.00    -0.223 C  
HETATM   16  C   UNL     1     -10.471   6.850  71.059  1.00  0.00    -0.214 C  
HETATM   17  C   UNL     1     -11.000   6.445  68.614  1.00  0.00    -0.330 C  
HETATM   18  N   UNL     1     -10.079   6.530  69.737  1.00  0.00    -0.175 NA 
ENDROOT
BRANCH  15  19
HETATM   19  C   UNL     1      -8.564   5.721  72.490  1.00  0.00    -0.120 C  
HETATM   20  O   UNL     1      -8.045   6.794  72.799  1.00  0.00    -0.106 OA 
HETATM   21  H   UNL     1      -8.473   3.678  72.222  1.00  0.00     0.000 HD 
HETATM   22  N   UNL     1      -7.911   4.501  72.441  1.00  0.00    -0.092 N  
BRANCH  22  23
HETATM   23  CA  UNL     1      -6.485   4.295  72.675  1.00  0.00    -0.029 C  
BRANCH  23  24
HETATM   24  C   UNL     1      -5.900   3.199  71.732  1.00  0.00    -0.013 C  
HETATM   25  H   UNL     1      -6.062   2.622  69.831  1.00  0.00     0.000 HD 
HETATM   26  O   UNL     1      -6.418   3.290  70.405  1.00  0.00    -0.030 OA 
ENDBRANCH  23  24
BRANCH  23  27
HETATM   27  C   UNL     1      -6.342   3.924  74.148  1.00  0.00    -0.037 C  
HETATM   28  C   UNL     1      -7.137   2.678  74.471  1.00  0.00    -0.040 C  
ENDBRANCH  23  27
ENDBRANCH  22  23
ENDBRANCH  15  19
TORSDOF 4
ENDMDL
MODEL      130
REMARK 921   NORMALIZED FREE ENERGY PREDICTED BY IDOCK:   -2.44 KCAL/MOL
REMARK 922        TOTAL FREE ENERGY PREDICTED BY IDOCK:   -2.79 KCAL/MOL
REMARK 923 INTER-LIGAND FREE ENERGY PREDICTED BY IDOCK:   -3.98 KCAL/MOL
REMARK 924 INTRA-LIGAND FREE ENERGY PREDICTED BY IDOCK:    1.19 KCAL/MOL
REMARK 927      BINDING AFFINITY PREDICTED BY RF-SCORE:    0.00 PKD
ROOT
HETATM    1  C   UNL     1      -8.922  12.266  67.829  1.00  0.00    -0.177 C  
HETATM    2  C   UNL     1      -9.170  11.597  69.191  1.00  0.00     0.303 C  
HETATM    3  C   UNL     1      -8.660  10.303  68.922  1.00  0.00    -0.150 A  
HETATM    4  C   UNL     1      -7.709   9.589  69.574  1.00  0.00    -0.100 A  
HETATM    5  N   UNL     1      -7.383   8.581  68.715  1.00  0.00    -0.088 NA 
HETATM    6  C   UNL     1      -6.343   7.644  69.077  1.00  0.00    -0.036 C  
HETATM    7  C   UNL     1      -8.085   8.719  67.509  1.00  0.00    -0.106 A  
HETATM    8  C   UNL     1      -8.856   9.879  67.588  1.00  0.00    -0.126 A  
HETATM    9  C   UNL     1      -9.427  10.638  66.433  1.00  0.00    -0.204 A  
HETATM   10  C   UNL     1      -9.509   9.830  65.296  1.00  0.00    -0.343 A  
HETATM   11  C   UNL     1      -9.306  12.316  66.350  1.00  0.00    -0.219 C  
HETATM   12  C   UNL     1      -9.192  13.763  66.352  1.00  0.00    -0.158 C  
HETATM   13  C   UNL     1      -8.864   8.557  65.260  1.00  0.00    -0.144 A  
HETATM   14  C   UNL     1      -8.074   8.022  66.312  1.00  0.00    -0.112 A  
HETATM   15  C   UNL     1      -8.585  14.667  67.684  1.00  0.00    -0.182 C  
HETATM   16  C   UNL     1      -7.288  13.946  68.129  1.00  0.00    -0.123 C  
HETATM   17  C   UNL     1      -6.637  11.820  66.914  1.00  0.00    -0.114 C  
HETATM   18  N   UNL     1      -7.500  12.585  67.799  1.00  0.00    -0.117 NA 
ENDROOT
BRANCH  15  19
HETATM   19  C   UNL     1      -9.723  14.751  68.748  1.00  0.00    -0.222 C  
HETATM   20  O   UNL     1      -9.484  14.895  69.947  1.00  0.00     0.048 OA 
HETATM   21  H   UNL     1     -11.038  14.434  67.190  1.00  0.00     0.000 HD 
HETATM   22  N   UNL     1     -10.967  14.474  68.207  1.00  0.00    -0.241 N  
BRANCH  22  23
HETATM   23  CA  UNL     1     -12.187  14.234  68.973  1.00  0.00    -0.220 C  
BRANCH  23  24
HETATM   24  C   UNL     1     -12.216  15.074  70.286  1.00  0.00    -0.340 C  
HETATM   25  H   UNL     1     -13.490  16.231  71.293  1.00  0.00     0.000 HD 
HETATM   26  O   UNL     1     -13.474  15.719  70.493  1.00  0.00    -0.366 OA 
ENDBRANCH  23  24
BRANCH  23  27
HETATM   27  C   UNL     1     -12.232  12.734  69.247  1.00  0.00    -0.104 C  
HETATM   28  C   UNL     1     -12.247  12.457  70.735  1.00  0.00    -0.336 C  
ENDBRANCH  23  27
ENDBRANCH  22  23
ENDBRANCH  15  19
TORSDOF 4
ENDMDL
MODEL      131
REMARK 921   NORMALIZED FREE ENERGY PREDICTED BY IDOCK:   -2.33 KCAL/MOL
REMARK 922        TOTAL FREE ENERGY PREDICTED BY IDOCK:   -2.66 KCAL/MOL
REMARK 923 INTER-LIGAND FREE ENERGY PREDICTED BY IDOCK:   -2.96 KCAL/MOL
REMARK 924 INTRA-LIGAND FREE ENERGY PREDICTED BY IDOCK:    0.30 KCAL/MOL
REMARK 927      BINDING AFFINITY PREDICTED BY RF-SCORE:    0.00 PKD
ROOT
HETATM    1  C   UNL     1      -8.483   8.911  67.876  1.00  0.00    -0.125 C  
HETATM    2  C   UNL     1      -7.581   9.033  66.637  1.00  0.00    -0.089 C  
HETATM    3  C   UNL     1      -6.886   7.802  66.720  1.00  0.00    -0.071 A  
HETATM    4  C   UNL     1      -6.757   6.810  65.804  1.00  0.00    -0.052 A  
HETATM    5  N   UNL     1      -6.281   5.745  66.511  1.00  0.00    -0.032 NA 
HETATM    6  C   UNL     1      -6.073   4.480  65.842  1.00  0.00    -0.027 C  
HETATM    7  C   UNL     1      -6.184   6.065  67.872  1.00  0.00    -0.028 A  
HETATM    8  C   UNL     1      -6.653   7.369  68.045  1.00  0.00    -0.054 A  
HETATM    9  C   UNL     1      -7.120   7.974  69.330  1.00  0.00    -0.068 A  
HETATM   10  C   UNL     1      -6.613   7.272  70.426  1.00  0.00    -0.047 A  
HETATM   11  C   UNL     1      -8.544   8.869  69.403  1.00  0.00    -0.133 C  
HETATM   12  C   UNL     1      -9.767   9.652  69.392  1.00  0.00    -0.203 C  
HETATM   13  C   UNL     1      -5.974   6.008  70.248  1.00  0.00    -0.025 A  
HETATM   14  C   UNL     1      -5.830   5.344  69.001  1.00  0.00    -0.023 A  
HETATM   15  C   UNL     1     -10.622  10.061  67.956  1.00  0.00    -0.280 C  
HETATM   16  C   UNL     1     -10.721   8.751  67.136  1.00  0.00    -0.134 C  
HETATM   17  C   UNL     1      -9.598   6.680  68.067  1.00  0.00    -0.123 C  
HETATM   18  N   UNL     1      -9.565   8.014  67.490  1.00  0.00    -0.148 NA 
ENDROOT
BRANCH  15  19
HETATM   19  C   UNL     1      -9.856  11.239  67.277  1.00  0.00    -0.182 C  
HETATM   20  O   UNL     1      -9.619  11.251  66.069  1.00  0.00    -0.203 OA 
HETATM   21  H   UNL     1      -9.670  12.047  69.166  1.00  0.00     0.000 HD 
HETATM   22  N   UNL     1      -9.348  12.136  68.202  1.00  0.00    -0.200 N  
BRANCH  22  23
HETATM   23  CA  UNL     1      -8.390  13.198  67.911  1.00  0.00    -0.170 C  
BRANCH  23  24
HETATM   24  C   UNL     1      -6.940  12.792  68.318  1.00  0.00    -0.097 C  
HETATM   25  H   UNL     1      -6.037  11.587  69.625  1.00  0.00     0.000 HD 
HETATM   26  O   UNL     1      -6.920  11.834  69.378  1.00  0.00    -0.099 OA 
ENDBRANCH  23  24
BRANCH  23  27
HETATM   27  C   UNL     1      -8.876  14.432  68.665  1.00  0.00    -0.167 C  
HETATM   28  C   UNL     1      -7.713  15.318  69.058  1.00  0.00    -0.183 C  
ENDBRANCH  23  27
ENDBRANCH  22  23
ENDBRANCH  15  19
TORSDOF 4
ENDMDL
MODEL      132
REMARK 921   NORMALIZED FREE ENERGY PREDICTED BY IDOCK:   -2.31 KCAL/MOL
REMARK 922        TOTAL FREE ENERGY PREDICTED BY IDOCK:   -2.62 KCAL/MOL
REMARK 923 INTER-LIGAND FREE ENERGY PREDICTED BY IDOCK:   -3.91 KCAL/MOL
REMARK 924 INTRA-LIGAND FREE ENERGY PREDICTED BY IDOCK:    1.29 KCAL/MOL
REMARK 927      BINDING AFFINITY PREDICTED BY RF-SCORE:    0.00 PKD
ROOT
HETATM    1  C   UNL     1     -10.474  14.100  67.668  1.00  0.00    -0.245 C  
HETATM    2  C   UNL     1      -9.458  14.357  66.542  1.00  0.00    -0.309 C  
HETATM    3  C   UNL     1      -9.601  13.153  65.809  1.00  0.00    -0.075 A  
HETATM    4  C   UNL     1      -9.892  12.962  64.498  1.00  0.00    -0.007 A  
HETATM    5  N   UNL     1     -10.228  11.643  64.407  1.00  0.00    -0.280 NA 
HETATM    6  C   UNL     1     -10.653  11.101  63.135  1.00  0.00    -0.103 C  
HETATM    7  C   UNL     1     -10.209  11.044  65.674  1.00  0.00    -0.260 A  
HETATM    8  C   UNL     1      -9.888  12.027  66.612  1.00  0.00    -0.220 A  
HETATM    9  C   UNL     1     -10.151  11.962  68.082  1.00  0.00    -0.200 A  
HETATM   10  C   UNL     1     -10.328  10.640  68.500  1.00  0.00    -0.202 A  
HETATM   11  C   UNL     1     -10.815  13.271  68.906  1.00  0.00    -0.245 C  
HETATM   12  C   UNL     1     -11.363  14.446  69.562  1.00  0.00    -0.318 C  
HETATM   13  C   UNL     1     -10.489   9.591  67.545  1.00  0.00    -0.336 A  
HETATM   14  C   UNL     1     -10.526   9.777  66.138  1.00  0.00    -0.128 A  
HETATM   15  C   UNL     1     -11.574  15.962  68.776  1.00  0.00    -0.389 C  
HETATM   16  C   UNL     1     -12.245  15.645  67.417  1.00  0.00     0.934 C  
HETATM   17  C   UNL     1     -12.661  13.213  66.838  1.00  0.00     0.396 C  
HETATM   18  N   UNL     1     -11.785  14.348  67.081  1.00  0.00    -0.386 NA 
ENDROOT
BRANCH  15  19
HETATM   19  C   UNL     1     -10.174  16.649  68.707  1.00  0.00    -0.288 C  
HETATM   20  O   UNL     1      -9.954  17.603  67.961  1.00  0.00    -0.294 OA 
HETATM   21  H   UNL     1      -9.540  15.220  70.053  1.00  0.00     0.000 HD 
HETATM   22  N   UNL     1      -9.215  15.958  69.428  1.00  0.00    -0.255 N  
BRANCH  22  23
HETATM   23  CA  UNL     1      -7.776  16.199  69.367  1.00  0.00    -0.145 C  
BRANCH  23  24
HETATM   24  C   UNL     1      -7.327  16.641  67.941  1.00  0.00    -0.151 C  
HETATM   25  H   UNL     1      -6.000  17.873  67.106  1.00  0.00     0.000 HD 
HETATM   26  O   UNL     1      -6.272  17.603  67.975  1.00  0.00    -0.154 OA 
ENDBRANCH  23  24
BRANCH  23  27
HETATM   27  C   UNL     1      -7.106  14.901  69.805  1.00  0.00    -0.156 C  
HETATM   28  C   UNL     1      -6.780  14.031  68.611  1.00  0.00    -0.096 C  
ENDBRANCH  23  27
ENDBRANCH  22  23
ENDBRANCH  15  19
TORSDOF 4
ENDMDL
MODEL      133
REMARK 921   NORMALIZED FREE ENERGY PREDICTED BY IDOCK:   -2.20 KCAL/MOL
REMARK 922        TOTAL FREE ENERGY PREDICTED BY IDOCK:   -2.49 KCAL/MOL
REMARK 923 INTER-LIGAND FREE ENERGY PREDICTED BY IDOCK:   -2.48 KCAL/MOL
REMARK 924 INTRA-LIGAND FREE ENERGY PREDICTED BY IDOCK:   -0.01 KCAL/MOL
REMARK 927      BINDING AFFINITY PREDICTED BY RF-SCORE:    0.00 PKD
ROOT
HETATM    1  C   UNL     1      -9.050   8.843  67.430  1.00  0.00    -0.132 C  
HETATM    2  C   UNL     1      -7.556   9.065  67.719  1.00  0.00    -0.093 C  
HETATM    3  C   UNL     1      -7.047   7.794  67.354  1.00  0.00    -0.086 A  
HETATM    4  C   UNL     1      -6.070   7.468  66.470  1.00  0.00    -0.044 A  
HETATM    5  N   UNL     1      -6.219   6.128  66.269  1.00  0.00    -0.036 NA 
HETATM    6  C   UNL     1      -5.358   5.448  65.326  1.00  0.00    -0.013 C  
HETATM    7  C   UNL     1      -7.329   5.646  66.977  1.00  0.00    -0.080 A  
HETATM    8  C   UNL     1      -7.935   6.727  67.620  1.00  0.00    -0.113 A  
HETATM    9  C   UNL     1      -9.339   6.776  68.130  1.00  0.00    -0.122 A  
HETATM   10  C   UNL     1      -9.846   5.487  68.320  1.00  0.00    -0.185 A  
HETATM   11  C   UNL     1     -10.326   8.107  67.835  1.00  0.00    -0.280 C  
HETATM   12  C   UNL     1     -11.117   9.296  67.569  1.00  0.00     0.138 C  
HETATM   13  C   UNL     1      -9.149   4.349  67.813  1.00  0.00    -0.149 A  
HETATM   14  C   UNL     1      -7.945   4.408  67.063  1.00  0.00    -0.101 A  
HETATM   15  C   UNL     1     -10.478  10.719  66.844  1.00  0.00    -0.304 C  
HETATM   16  C   UNL     1      -9.656  10.239  65.622  1.00  0.00    -0.232 C  
HETATM   17  C   UNL     1      -9.472   7.744  65.222  1.00  0.00     0.879 C  
HETATM   18  N   UNL     1      -9.191   8.951  65.983  1.00  0.00    -0.212 NA 
ENDROOT
BRANCH  15  19
HETATM   19  C   UNL     1      -9.684  11.488  67.946  1.00  0.00    -0.183 C  
HETATM   20  O   UNL     1      -9.969  11.394  69.140  1.00  0.00    -0.121 OA 
HETATM   21  H   UNL     1      -8.592  12.322  66.407  1.00  0.00     0.000 HD 
HETATM   22  N   UNL     1      -8.777  12.386  67.407  1.00  0.00    -0.174 N  
BRANCH  22  23
HETATM   23  CA  UNL     1      -8.064  13.418  68.155  1.00  0.00    -0.155 C  
BRANCH  23  24
HETATM   24  C   UNL     1      -8.288  14.833  67.538  1.00  0.00    -0.183 C  
HETATM   25  H   UNL     1      -9.247  15.656  65.996  1.00  0.00     0.000 HD 
HETATM   26  O   UNL     1      -9.111  14.794  66.372  1.00  0.00    -0.271 OA 
ENDBRANCH  23  24
BRANCH  23  27
HETATM   27  C   UNL     1      -6.594  13.013  68.150  1.00  0.00    -0.103 C  
HETATM   28  C   UNL     1      -6.320  11.988  67.070  1.00  0.00    -0.124 C  
ENDBRANCH  23  27
ENDBRANCH  22  23
ENDBRANCH  15  19
TORSDOF 4
ENDMDL
MODEL      134
REMARK 921   NORMALIZED FREE ENERGY PREDICTED BY IDOCK:   -2.13 KCAL/MOL
REMARK 922        TOTAL FREE ENERGY PREDICTED BY IDOCK:   -2.41 KCAL/MOL
REMARK 923 INTER-LIGAND FREE ENERGY PREDICTED BY IDOCK:   -2.96 KCAL/MOL
REMARK 924 INTRA-LIGAND FREE ENERGY PREDICTED BY IDOCK:    0.55 KCAL/MOL
REMARK 927      BINDING AFFINITY PREDICTED BY RF-SCORE:    0.00 PKD
ROOT
HETATM    1  C   UNL     1      -7.574  14.535  67.908  1.00  0.00    -0.145 C  
HETATM    2  C   UNL     1      -6.620  15.144  66.867  1.00  0.00     0.776 C  
HETATM    3  C   UNL     1      -6.911  16.518  67.046  1.00  0.00    -0.248 A  
HETATM    4  C   UNL     1      -6.082  17.555  67.326  1.00  0.00    -0.138 A  
HETATM    5  N   UNL     1      -6.911  18.567  67.712  1.00  0.00    -0.212 NA 
HETATM    6  C   UNL     1      -6.347  19.828  68.139  1.00  0.00    -0.242 C  
HETATM    7  C   UNL     1      -8.243  18.128  67.734  1.00  0.00    -0.242 A  
HETATM    8  C   UNL     1      -8.258  16.775  67.388  1.00  0.00    -0.195 A  
HETATM    9  C   UNL     1      -9.358  15.805  67.674  1.00  0.00    -0.216 A  
HETATM   10  C   UNL     1     -10.564  16.471  67.908  1.00  0.00    -0.329 A  
HETATM   11  C   UNL     1      -9.029  14.276  68.298  1.00  0.00    -0.187 C  
HETATM   12  C   UNL     1      -8.676  12.963  68.810  1.00  0.00     0.173 C  
HETATM   13  C   UNL     1     -10.588  17.886  68.096  1.00  0.00    -0.351 A  
HETATM   14  C   UNL     1      -9.439  18.720  68.106  1.00  0.00    -0.365 A  
HETATM   15  C   UNL     1      -7.055  12.402  68.950  1.00  0.00    -0.078 C  
HETATM   16  C   UNL     1      -6.264  13.556  69.614  1.00  0.00    -0.121 C  
HETATM   17  C   UNL     1      -7.503  15.709  70.116  1.00  0.00     0.434 C  
HETATM   18  N   UNL     1      -6.929  14.736  69.200  1.00  0.00    -0.128 NA 
ENDROOT
BRANCH  15  19
HETATM   19  C   UNL     1      -6.584  11.978  67.524  1.00  0.00    -0.123 C  
HETATM   20  O   UNL     1      -5.572  12.451  67.006  1.00  0.00    -0.295 OA 
HETATM   21  H   UNL     1      -8.278  10.804  67.444  1.00  0.00     0.000 HD 
HETATM   22  N   UNL     1      -7.512  11.175  66.883  1.00  0.00    -0.131 N  
BRANCH  22  23
HETATM   23  CA  UNL     1      -7.484  10.816  65.467  1.00  0.00     0.007 C  
BRANCH  23  24
HETATM   24  C   UNL     1      -8.922  10.705  64.874  1.00  0.00    -0.199 C  
HETATM   25  H   UNL     1     -10.804  11.028  65.447  1.00  0.00     0.000 HD 
HETATM   26  O   UNL     1      -9.928  11.095  65.809  1.00  0.00    -0.224 OA 
ENDBRANCH  23  24
BRANCH  23  27
HETATM   27  C   UNL     1      -6.720   9.499  65.375  1.00  0.00    -0.081 C  
HETATM   28  C   UNL     1      -7.671   8.323  65.351  1.00  0.00    -0.103 C  
ENDBRANCH  23  27
ENDBRANCH  22  23
ENDBRANCH  15  19
TORSDOF 4
ENDMDL
MODEL      135
REMARK 921   NORMALIZED FREE ENERGY PREDICTED BY IDOCK:   -1.85 KCAL/MOL
REMARK 922        TOTAL FREE ENERGY PREDICTED BY IDOCK:   -2.06 KCAL/MOL
REMARK 923 INTER-LIGAND FREE ENERGY PREDICTED BY IDOCK:   -2.66 KCAL/MOL
REMARK 924 INTRA-LIGAND FREE ENERGY PREDICTED BY IDOCK:    0.60 KCAL/MOL
REMARK 927      BINDING AFFINITY PREDICTED BY RF-SCORE:    0.00 PKD
ROOT
HETATM    1  C   UNL     1      -8.086   6.598  69.905  1.00  0.00    -0.125 C  
HETATM    2  C   UNL     1      -9.313   5.914  69.278  1.00  0.00    -0.147 C  
HETATM    3  C   UNL     1      -9.093   4.582  69.707  1.00  0.00    -0.166 A  
HETATM    4  C   UNL     1      -9.904   3.746  70.403  1.00  0.00    -0.065 A  
HETATM    5  N   UNL     1      -9.085   2.739  70.822  1.00  0.00    -0.107 NA 
HETATM    6  C   UNL     1      -9.621   1.682  71.650  1.00  0.00    -0.123 C  
HETATM    7  C   UNL     1      -7.760   2.994  70.441  1.00  0.00    -0.043 A  
HETATM    8  C   UNL     1      -7.727   4.229  69.790  1.00  0.00    -0.053 A  
HETATM    9  C   UNL     1      -6.519   5.085  69.585  1.00  0.00    -0.035 A  
HETATM   10  C   UNL     1      -5.348   4.330  69.695  1.00  0.00    -0.008 A  
HETATM   11  C   UNL     1      -6.564   6.741  69.887  1.00  0.00    -0.048 C  
HETATM   12  C   UNL     1      -6.678   8.166  70.139  1.00  0.00    -0.036 C  
HETATM   13  C   UNL     1      -5.387   2.996  70.202  1.00  0.00    -0.008 A  
HETATM   14  C   UNL     1      -6.558   2.342  70.665  1.00  0.00    -0.032 A  
HETATM   15  C   UNL     1      -8.165   8.952  70.501  1.00  0.00    -0.160 C  
HETATM   16  C   UNL     1      -8.854   8.079  71.579  1.00  0.00    -0.143 C  
HETATM   17  C   UNL     1      -7.699   5.937  72.286  1.00  0.00    -0.102 C  
HETATM   18  N   UNL     1      -8.404   6.761  71.318  1.00  0.00    -0.119 NA 
ENDROOT
BRANCH  15  19
HETATM   19  C   UNL     1      -8.941   9.123  69.158  1.00  0.00    -0.144 C  
HETATM   20  O   UNL     1     -10.085   8.693  69.007  1.00  0.00    -0.188 OA 
HETATM   21  H   UNL     1      -7.231  10.014  68.423  1.00  0.00     0.000 HD 
HETATM   22  N   UNL     1      -8.140   9.639  68.153  1.00  0.00    -0.105 N  
BRANCH  22  23
HETATM   23  CA  UNL     1      -8.491   9.690  66.736  1.00  0.00    -0.127 C  
BRANCH  23  24
HETATM   24  C   UNL     1      -7.226   9.609  65.828  1.00  0.00    -0.100 C  
HETATM   25  H   UNL     1      -6.784   9.420  63.893  1.00  0.00     0.000 HD 
HETATM   26  O   UNL     1      -7.555   9.470  64.445  1.00  0.00    -0.112 OA 
ENDBRANCH  23  24
BRANCH  23  27
HETATM   27  C   UNL     1      -9.263  10.989  66.533  1.00  0.00    -0.187 C  
HETATM   28  C   UNL     1      -8.435  12.183  66.957  1.00  0.00    -0.183 C  
ENDBRANCH  23  27
ENDBRANCH  22  23
ENDBRANCH  15  19
TORSDOF 4
ENDMDL
MODEL      136
REMARK 921   NORMALIZED FREE ENERGY PREDICTED BY IDOCK:   -1.57 KCAL/MOL
REMARK 922        TOTAL FREE ENERGY PREDICTED BY IDOCK:   -1.72 KCAL/MOL
REMARK 923 INTER-LIGAND FREE ENERGY PREDICTED BY IDOCK:   -2.69 KCAL/MOL
REMARK 924 INTRA-LIGAND FREE ENERGY PREDICTED BY IDOCK:    0.97 KCAL/MOL
REMARK 927      BINDING AFFINITY PREDICTED BY RF-SCORE:    0.00 PKD
ROOT
HETATM    1  C   UNL     1      -8.276  13.710  68.004  1.00  0.00    -0.162 C  
HETATM    2  C   UNL     1      -8.569  13.703  66.495  1.00  0.00     0.187 C  
HETATM    3  C   UNL     1      -8.547  12.308  66.250  1.00  0.00     0.125 A  
HETATM    4  C   UNL     1      -9.486  11.507  65.687  1.00  0.00    -0.222 A  
HETATM    5  N   UNL     1      -9.092  10.239  65.998  1.00  0.00    -0.156 NA 
HETATM    6  C   UNL     1      -9.909   9.118  65.590  1.00  0.00    -0.094 C  
HETATM    7  C   UNL     1      -7.949  10.267  66.810  1.00  0.00    -0.114 A  
HETATM    8  C   UNL     1      -7.627  11.603  67.058  1.00  0.00    -0.154 A  
HETATM    9  C   UNL     1      -6.772  12.110  68.174  1.00  0.00    -0.070 A  
HETATM   10  C   UNL     1      -5.949  11.097  68.674  1.00  0.00    -0.042 A  
HETATM   11  C   UNL     1      -7.245  13.436  69.099  1.00  0.00     0.041 C  
HETATM   12  C   UNL     1      -7.698  14.600  69.840  1.00  0.00     0.243 C  
HETATM   13  C   UNL     1      -6.159   9.737  68.294  1.00  0.00    -0.050 A  
HETATM   14  C   UNL     1      -7.202   9.287  67.443  1.00  0.00    -0.080 A  
HETATM   15  C   UNL     1      -9.079  15.527  69.402  1.00  0.00    -0.280 C  
HETATM   16  C   UNL     1     -10.204  14.502  69.118  1.00  0.00    -0.164 C  
HETATM   17  C   UNL     1      -9.633  12.039  69.279  1.00  0.00     0.620 C  
HETATM   18  N   UNL     1      -9.531  13.347  68.651  1.00  0.00    -0.103 NA 
ENDROOT
BRANCH  15  19
HETATM   19  C   UNL     1      -8.666  16.443  68.208  1.00  0.00    -0.201 C  
HETATM   20  O   UNL     1      -7.580  16.323  67.640  1.00  0.00    -0.130 OA 
HETATM   21  H   UNL     1     -10.457  17.425  68.499  1.00  0.00     0.000 HD 
HETATM   22  N   UNL     1      -9.567  17.475  68.003  1.00  0.00    -0.274 N  
BRANCH  22  23
HETATM   23  CA  UNL     1      -9.348  18.629  67.136  1.00  0.00    -0.290 C  
BRANCH  23  24
HETATM   24  C   UNL     1      -8.459  19.707  67.828  1.00  0.00    -0.318 C  
HETATM   25  H   UNL     1      -6.599  20.415  67.705  1.00  0.00     0.000 HD 
HETATM   26  O   UNL     1      -7.140  19.758  67.283  1.00  0.00    -0.212 OA 
ENDBRANCH  23  24
BRANCH  23  27
HETATM   27  C   UNL     1     -10.730  19.164  66.777  1.00  0.00    -0.488 C  
HETATM   28  C   UNL     1     -10.651  20.130  65.615  1.00  0.00    -0.300 C  
ENDBRANCH  23  27
ENDBRANCH  22  23
ENDBRANCH  15  19
TORSDOF 4
ENDMDL
MODEL      137
REMARK 921   NORMALIZED FREE ENERGY PREDICTED BY IDOCK:   -1.35 KCAL/MOL
REMARK 922        TOTAL FREE ENERGY PREDICTED BY IDOCK:   -1.44 KCAL/MOL
REMARK 923 INTER-LIGAND FREE ENERGY PREDICTED BY IDOCK:   -1.70 KCAL/MOL
REMARK 924 INTRA-LIGAND FREE ENERGY PREDICTED BY IDOCK:    0.26 KCAL/MOL
REMARK 927      BINDING AFFINITY PREDICTED BY RF-SCORE:    0.00 PKD
ROOT
HETATM    1  C   UNL     1      -7.877  10.166  67.611  1.00  0.00    -0.098 C  
HETATM    2  C   UNL     1      -6.793   9.255  68.211  1.00  0.00    -0.064 C  
HETATM    3  C   UNL     1      -6.216  10.148  69.147  1.00  0.00    -0.040 A  
HETATM    4  C   UNL     1      -6.029  10.009  70.483  1.00  0.00    -0.092 A  
HETATM    5  N   UNL     1      -5.748  11.268  70.926  1.00  0.00    -0.323 NA 
HETATM    6  C   UNL     1      -5.542  11.497  72.339  1.00  0.00     1.124 C  
HETATM    7  C   UNL     1      -5.831  12.188  69.872  1.00  0.00    -0.140 A  
HETATM    8  C   UNL     1      -6.218  11.496  68.723  1.00  0.00    -0.051 A  
HETATM    9  C   UNL     1      -6.823  12.096  67.494  1.00  0.00    -0.127 A  
HETATM   10  C   UNL     1      -6.542  13.463  67.416  1.00  0.00    -0.038 A  
HETATM   11  C   UNL     1      -8.168  11.401  66.759  1.00  0.00    -0.160 C  
HETATM   12  C   UNL     1      -9.312  10.737  66.158  1.00  0.00    -0.209 C  
HETATM   13  C   UNL     1      -5.984  14.156  68.532  1.00  0.00    -0.092 A  
HETATM   14  C   UNL     1      -5.707  13.566  69.793  1.00  0.00    -0.110 A  
HETATM   15  C   UNL     1      -9.908   9.210  66.681  1.00  0.00    -0.307 C  
HETATM   16  C   UNL     1      -9.985   9.293  68.226  1.00  0.00    -0.173 C  
HETATM   17  C   UNL     1      -9.177  11.420  69.341  1.00  0.00     0.527 C  
HETATM   18  N   UNL     1      -8.955  10.194  68.592  1.00  0.00    -0.130 NA 
ENDROOT
BRANCH  15  19
HETATM   19  C   UNL     1      -8.960   8.115  66.100  1.00  0.00    -0.178 C  
HETATM   20  O   UNL     1      -8.109   8.376  65.249  1.00  0.00    -0.123 OA 
HETATM   21  H   UNL     1      -9.996   6.769  67.270  1.00  0.00     0.000 HD 
HETATM   22  N   UNL     1      -9.313   6.843  66.517  1.00  0.00    -0.163 N  
BRANCH  22  23
HETATM   23  CA  UNL     1      -8.786   5.597  65.966  1.00  0.00    -0.144 C  
BRANCH  23  24
HETATM   24  C   UNL     1      -9.814   4.431  66.097  1.00  0.00    -0.231 C  
HETATM   25  H   UNL     1     -11.219   3.547  64.994  1.00  0.00     0.000 HD 
HETATM   26  O   UNL     1     -10.593   4.257  64.913  1.00  0.00    -0.240 OA 
ENDBRANCH  23  24
BRANCH  23  27
HETATM   27  C   UNL     1      -7.491   5.310  66.718  1.00  0.00    -0.087 C  
HETATM   28  C   UNL     1      -6.341   5.105  65.755  1.00  0.00    -0.035 C  
ENDBRANCH  23  27
ENDBRANCH  22  23
ENDBRANCH  15  19
TORSDOF 4
ENDMDL
MODEL      138
REMARK 921   NORMALIZED FREE ENERGY PREDICTED BY IDOCK:   -1.00 KCAL/MOL
REMARK 922        TOTAL FREE ENERGY PREDICTED BY IDOCK:   -1.01 KCAL/MOL
REMARK 923 INTER-LIGAND FREE ENERGY PREDICTED BY IDOCK:   -2.32 KCAL/MOL
REMARK 924 INTRA-LIGAND FREE ENERGY PREDICTED BY IDOCK:    1.31 KCAL/MOL
REMARK 927      BINDING AFFINITY PREDICTED BY RF-SCORE:    0.00 PKD
ROOT
HETATM    1  C   UNL     1      -9.773  14.433  68.195  1.00  0.00    -0.223 C  
HETATM    2  C   UNL     1     -10.328  14.111  66.797  1.00  0.00    -0.274 C  
HETATM    3  C   UNL     1      -9.873  12.777  66.657  1.00  0.00    -0.250 A  
HETATM    4  C   UNL     1     -10.567  11.644  66.384  1.00  0.00    -0.258 A  
HETATM    5  N   UNL     1      -9.708  10.630  66.689  1.00  0.00    -0.179 NA 
HETATM    6  C   UNL     1     -10.150   9.258  66.563  1.00  0.00    -0.273 C  
HETATM    7  C   UNL     1      -8.513  11.141  67.213  1.00  0.00    -0.137 A  
HETATM    8  C   UNL     1      -8.630  12.531  67.282  1.00  0.00    -0.191 A  
HETATM    9  C   UNL     1      -7.806  13.443  68.133  1.00  0.00    -0.145 A  
HETATM   10  C   UNL     1      -6.605  12.832  68.503  1.00  0.00    -0.086 A  
HETATM   11  C   UNL     1      -8.522  14.667  69.041  1.00  0.00    -0.095 C  
HETATM   12  C   UNL     1      -9.198  15.720  69.779  1.00  0.00    -0.025 C  
HETATM   13  C   UNL     1      -6.401  11.437  68.283  1.00  0.00    -0.046 A  
HETATM   14  C   UNL     1      -7.367  10.556  67.729  1.00  0.00    -0.086 A  
HETATM   15  C   UNL     1     -10.871  16.081  69.603  1.00  0.00    -0.329 C  
HETATM   16  C   UNL     1     -11.606  14.719  69.659  1.00  0.00    -0.304 C  
HETATM   17  C   UNL     1     -10.201  12.620  69.865  1.00  0.00     1.741 C  
HETATM   18  N   UNL     1     -10.677  13.785  69.137  1.00  0.00    -0.177 NA 
ENDROOT
BRANCH  15  19
HETATM   19  C   UNL     1     -11.035  16.895  68.282  1.00  0.00    -0.298 C  
HETATM   20  O   UNL     1     -11.696  16.471  67.333  1.00  0.00     0.373 OA 
HETATM   21  H   UNL     1      -9.778  18.294  69.129  1.00  0.00     0.000 HD 
HETATM   22  N   UNL     1     -10.228  18.020  68.256  1.00  0.00    -0.378 N  
BRANCH  22  23
HETATM   23  CA  UNL     1      -9.969  18.848  67.081  1.00  0.00    -0.332 C  
BRANCH  23  24
HETATM   24  C   UNL     1     -10.212  18.059  65.758  1.00  0.00    -0.109 C  
HETATM   25  H   UNL     1      -9.185  16.913  64.491  1.00  0.00     0.000 HD 
HETATM   26  O   UNL     1      -9.036  17.393  65.296  1.00  0.00     0.346 OA 
ENDBRANCH  23  24
BRANCH  23  27
HETATM   27  C   UNL     1      -8.529  19.332  67.207  1.00  0.00    -0.314 C  
HETATM   28  C   UNL     1      -7.712  18.382  68.056  1.00  0.00    -0.273 C  
ENDBRANCH  23  27
ENDBRANCH  22  23
ENDBRANCH  15  19
TORSDOF 4
ENDMDL
MODEL      139
REMARK 921   NORMALIZED FREE ENERGY PREDICTED BY IDOCK:   -0.87 KCAL/MOL
REMARK 922        TOTAL FREE ENERGY PREDICTED BY IDOCK:   -0.85 KCAL/MOL
REMARK 923 INTER-LIGAND FREE ENERGY PREDICTED BY IDOCK:   -0.90 KCAL/MOL
REMARK 924 INTRA-LIGAND FREE ENERGY PREDICTED BY IDOCK:    0.05 KCAL/MOL
REMARK 927      BINDING AFFINITY PREDICTED BY RF-SCORE:    0.00 PKD
ROOT
HETATM    1  C   UNL     1      -9.328   9.019  69.984  1.00  0.00    -0.183 C  
HETATM    2  C   UNL     1      -9.671   9.413  71.430  1.00  0.00    -0.126 C  
HETATM    3  C   UNL     1      -8.961   8.407  72.131  1.00  0.00    -0.293 A  
HETATM    4  C   UNL     1      -8.023   8.521  73.104  1.00  0.00    -0.002 A  
HETATM    5  N   UNL     1      -7.449   7.286  73.179  1.00  0.00    -0.072 NA 
HETATM    6  C   UNL     1      -6.354   7.061  74.096  1.00  0.00    -0.074 C  
HETATM    7  C   UNL     1      -7.989   6.436  72.203  1.00  0.00    -0.107 A  
HETATM    8  C   UNL     1      -8.912   7.168  71.454  1.00  0.00    -0.135 A  
HETATM    9  C   UNL     1      -9.413   6.820  70.089  1.00  0.00    -0.159 A  
HETATM   10  C   UNL     1      -9.228   5.461  69.820  1.00  0.00    -0.169 A  
HETATM   11  C   UNL     1      -9.505   7.983  68.874  1.00  0.00    -0.151 C  
HETATM   12  C   UNL     1      -9.586   9.038  67.880  1.00  0.00    -0.170 C  
HETATM   13  C   UNL     1      -8.420   4.654  70.676  1.00  0.00    -0.108 A  
HETATM   14  C   UNL     1      -7.720   5.133  71.814  1.00  0.00    -0.108 A  
HETATM   15  C   UNL     1      -9.296  10.697  68.228  1.00  0.00    -0.156 C  
HETATM   16  C   UNL     1      -7.989  10.732  69.059  1.00  0.00    -0.137 C  
HETATM   17  C   UNL     1      -6.899   8.523  69.649  1.00  0.00    -0.043 C  
HETATM   18  N   UNL     1      -7.970   9.499  69.756  1.00  0.00    -0.115 NA 
ENDROOT
BRANCH  15  19
HETATM   19  C   UNL     1     -10.572  11.256  68.932  1.00  0.00    -0.207 C  
HETATM   20  O   UNL     1     -11.665  10.697  68.839  1.00  0.00    -0.272 OA 
HETATM   21  H   UNL     1      -9.390  12.827  69.560  1.00  0.00     0.000 HD 
HETATM   22  N   UNL     1     -10.355  12.503  69.496  1.00  0.00     0.494 N  
BRANCH  22  23
HETATM   23  CA  UNL     1     -11.395  13.391  70.007  1.00  0.00     0.061 C  
BRANCH  23  24
HETATM   24  C   UNL     1     -10.934  14.881  69.997  1.00  0.00    -0.206 C  
HETATM   25  H   UNL     1      -9.662  16.059  70.981  1.00  0.00     0.000 HD 
HETATM   26  O   UNL     1      -9.942  15.151  70.988  1.00  0.00     0.533 OA 
ENDBRANCH  23  24
BRANCH  23  27
HETATM   27  C   UNL     1     -11.726  12.900  71.413  1.00  0.00     1.440 C  
HETATM   28  C   UNL     1     -12.997  13.541  71.925  1.00  0.00    -0.431 C  
ENDBRANCH  23  27
ENDBRANCH  22  23
ENDBRANCH  15  19
TORSDOF 4
ENDMDL
MODEL      140
REMARK 921   NORMALIZED FREE ENERGY PREDICTED BY IDOCK:   -0.19 KCAL/MOL
REMARK 922        TOTAL FREE ENERGY PREDICTED BY IDOCK:   -0.01 KCAL/MOL
REMARK 923 INTER-LIGAND FREE ENERGY PREDICTED BY IDOCK:   -1.26 KCAL/MOL
REMARK 924 INTRA-LIGAND FREE ENERGY PREDICTED BY IDOCK:    1.25 KCAL/MOL
REMARK 927      BINDING AFFINITY PREDICTED BY RF-SCORE:    0.00 PKD
ROOT
HETATM    1  C   UNL     1     -11.367  11.932  68.928  1.00  0.00    -0.278 C  
HETATM    2  C   UNL     1     -11.836  13.093  68.035  1.00  0.00    -0.398 C  
HETATM    3  C   UNL     1     -11.109  12.801  66.855  1.00  0.00    -0.308 A  
HETATM    4  C   UNL     1     -11.547  12.620  65.584  1.00  0.00    -0.377 A  
HETATM    5  N   UNL     1     -10.494  12.048  64.933  1.00  0.00    -0.273 NA 
HETATM    6  C   UNL     1     -10.635  11.667  63.545  1.00  0.00    -0.435 C  
HETATM    7  C   UNL     1      -9.436  11.816  65.823  1.00  0.00    -0.216 A  
HETATM    8  C   UNL     1      -9.844  12.218  67.096  1.00  0.00    -0.207 A  
HETATM    9  C   UNL     1      -9.236  11.790  68.393  1.00  0.00    -0.175 A  
HETATM   10  C   UNL     1      -7.934  11.319  68.202  1.00  0.00    -0.131 A  
HETATM   11  C   UNL     1     -10.197  11.307  69.688  1.00  0.00     0.262 C  
HETATM   12  C   UNL     1     -11.083  10.928  70.774  1.00  0.00     0.422 C  
HETATM   13  C   UNL     1      -7.439  11.062  66.888  1.00  0.00    -0.133 A  
HETATM   14  C   UNL     1      -8.194  11.213  65.696  1.00  0.00     0.047 A  
HETATM   15  C   UNL     1     -12.794  11.099  70.709  1.00  0.00    -0.322 C  
HETATM   16  C   UNL     1     -13.224  10.529  69.335  1.00  0.00     1.651 C  
HETATM   17  C   UNL     1     -11.408   9.717  67.766  1.00  0.00     0.273 C  
HETATM   18  N   UNL     1     -12.118  10.764  68.483  1.00  0.00    -0.446 NA 
ENDROOT
BRANCH  15  19
HETATM   19  C   UNL     1     -13.122  12.604  70.961  1.00  0.00     0.041 C  
HETATM   20  O   UNL     1     -13.670  13.303  70.108  1.00  0.00     1.389 OA 
HETATM   21  H   UNL     1     -12.199  12.374  72.792  1.00  0.00     0.000 HD 
HETATM   22  N   UNL     1     -12.575  13.068  72.146  1.00  0.00     0.044 N  
BRANCH  22  23
HETATM   23  CA  UNL     1     -12.493  14.470  72.547  1.00  0.00    -0.253 C  
BRANCH  23  24
HETATM   24  C   UNL     1     -13.837  15.219  72.295  1.00  0.00    -0.530 C  
HETATM   25  H   UNL     1     -14.913  16.680  73.123  1.00  0.00     0.000 HD 
HETATM   26  O   UNL     1     -14.094  16.224  73.277  1.00  0.00    -0.434 OA 
ENDBRANCH  23  24
BRANCH  23  27
HETATM   27  C   UNL     1     -11.339  15.075  71.755  1.00  0.00    -0.302 C  
HETATM   28  C   UNL     1     -11.578  16.545  71.489  1.00  0.00    -0.167 C  
ENDBRANCH  23  27
ENDBRANCH  22  23
ENDBRANCH  15  19
TORSDOF 4
ENDMDL
MODEL      141
REMARK 921   NORMALIZED FREE ENERGY PREDICTED BY IDOCK:    1.00 KCAL/MOL
REMARK 922        TOTAL FREE ENERGY PREDICTED BY IDOCK:    1.46 KCAL/MOL
REMARK 923 INTER-LIGAND FREE ENERGY PREDICTED BY IDOCK:    1.08 KCAL/MOL
REMARK 924 INTRA-LIGAND FREE ENERGY PREDICTED BY IDOCK:    0.38 KCAL/MOL
REMARK 927      BINDING AFFINITY PREDICTED BY RF-SCORE:    0.00 PKD
ROOT
HETATM    1  C   UNL     1      -7.263  15.895  68.348  1.00  0.00    -0.121 C  
HETATM    2  C   UNL     1      -8.721  16.231  67.992  1.00  0.00    -0.178 C  
HETATM    3  C   UNL     1      -8.555  17.556  67.518  1.00  0.00    -0.222 A  
HETATM    4  C   UNL     1      -8.913  18.109  66.332  1.00  0.00    -0.239 A  
HETATM    5  N   UNL     1      -8.233  19.289  66.281  1.00  0.00    -0.317 NA 
HETATM    6  C   UNL     1      -8.344  20.126  65.107  1.00  0.00     1.010 C  
HETATM    7  C   UNL     1      -7.405  19.427  67.404  1.00  0.00    -0.226 A  
HETATM    8  C   UNL     1      -7.533  18.273  68.180  1.00  0.00    -0.270 A  
HETATM    9  C   UNL     1      -6.566  17.796  69.215  1.00  0.00    -0.239 A  
HETATM   10  C   UNL     1      -5.756  18.843  69.663  1.00  0.00    -0.249 A  
HETATM   11  C   UNL     1      -6.084  16.184  69.278  1.00  0.00    -0.146 C  
HETATM   12  C   UNL     1      -5.731  14.775  69.294  1.00  0.00    -0.097 C  
HETATM   13  C   UNL     1      -5.741  20.095  68.978  1.00  0.00    -0.305 A  
HETATM   14  C   UNL     1      -6.481  20.380  67.800  1.00  0.00    -0.302 A  
HETATM   15  C   UNL     1      -6.486  13.594  68.297  1.00  0.00    -0.109 C  
HETATM   16  C   UNL     1      -6.523  14.203  66.874  1.00  0.00     1.462 C  
HETATM   17  C   UNL     1      -5.636  16.557  66.567  1.00  0.00     0.416 C  
HETATM   18  N   UNL     1      -6.604  15.602  67.081  1.00  0.00    -0.290 NA 
ENDROOT
BRANCH  15  19
HETATM   19  C   UNL     1      -7.869  13.259  68.936  1.00  0.00     0.104 C  
HETATM   20  O   UNL     1      -8.039  13.253  70.156  1.00  0.00     2.110 OA 
HETATM   21  H   UNL     1      -8.541  12.926  67.014  1.00  0.00     0.000 HD 
HETATM   22  N   UNL     1      -8.786  12.814  67.998  1.00  0.00    -0.189 N  
BRANCH  22  23
HETATM   23  CA  UNL     1     -10.075  12.198  68.302  1.00  0.00    -0.210 C  
BRANCH  23  24
HETATM   24  C   UNL     1     -10.723  12.821  69.576  1.00  0.00     0.323 C  
HETATM   25  H   UNL     1     -12.111  14.177  70.036  1.00  0.00     0.000 HD 
HETATM   26  O   UNL     1     -11.716  13.798  69.260  1.00  0.00    -0.282 OA 
ENDBRANCH  23  24
BRANCH  23  27
HETATM   27  C   UNL     1      -9.808  10.705  68.462  1.00  0.00    -0.175 C  
HETATM   28  C   UNL     1      -9.519  10.061  67.124  1.00  0.00    -0.184 C  
ENDBRANCH  23  27
ENDBRANCH  22  23
ENDBRANCH  15  19
TORSDOF 4
ENDMDL
MODEL      142
REMARK 921   NORMALIZED FREE ENERGY PREDICTED BY IDOCK:    3.25 KCAL/MOL
REMARK 922        TOTAL FREE ENERGY PREDICTED BY IDOCK:    4.24 KCAL/MOL
REMARK 923 INTER-LIGAND FREE ENERGY PREDICTED BY IDOCK:    2.06 KCAL/MOL
REMARK 924 INTRA-LIGAND FREE ENERGY PREDICTED BY IDOCK:    2.18 KCAL/MOL
REMARK 927      BINDING AFFINITY PREDICTED BY RF-SCORE:    0.00 PKD
ROOT
HETATM    1  C   UNL     1      -7.889   9.893  69.107  1.00  0.00    -0.105 C  
HETATM    2  C   UNL     1      -7.380   9.310  67.779  1.00  0.00    -0.084 C  
HETATM    3  C   UNL     1      -7.340   7.935  68.116  1.00  0.00    -0.099 A  
HETATM    4  C   UNL     1      -7.923   6.871  67.509  1.00  0.00    -0.112 A  
HETATM    5  N   UNL     1      -7.835   5.860  68.420  1.00  0.00    -0.104 NA 
HETATM    6  C   UNL     1      -8.415   4.571  68.114  1.00  0.00    -0.094 C  
HETATM    7  C   UNL     1      -7.260   6.324  69.612  1.00  0.00    -0.078 A  
HETATM    8  C   UNL     1      -7.009   7.690  69.468  1.00  0.00    -0.056 A  
HETATM    9  C   UNL     1      -6.799   8.669  70.579  1.00  0.00    -0.042 A  
HETATM   10  C   UNL     1      -6.419   8.016  71.754  1.00  0.00    -0.044 A  
HETATM   11  C   UNL     1      -7.575  10.163  70.579  1.00  0.00     0.229 C  
HETATM   12  C   UNL     1      -8.252  11.446  70.505  1.00  0.00     3.783 C  
HETATM   13  C   UNL     1      -6.508   6.595  71.859  1.00  0.00    -0.050 A  
HETATM   14  C   UNL     1      -7.009   5.740  70.843  1.00  0.00    -0.066 A  
HETATM   15  C   UNL     1      -9.150  11.969  69.134  1.00  0.00     0.514 C  
HETATM   16  C   UNL     1     -10.050  10.773  68.736  1.00  0.00    -0.191 C  
HETATM   17  C   UNL     1      -9.823   8.625  70.062  1.00  0.00    -0.179 C  
HETATM   18  N   UNL     1      -9.322   9.625  69.132  1.00  0.00    -0.163 NA 
ENDROOT
BRANCH  15  19
HETATM   19  C   UNL     1      -8.125  12.443  68.058  1.00  0.00    -0.162 C  
HETATM   20  O   UNL     1      -7.269  11.688  67.596  1.00  0.00    -0.093 OA 
HETATM   21  H   UNL     1      -8.985  14.310  68.235  1.00  0.00     0.000 HD 
HETATM   22  N   UNL     1      -8.190  13.809  67.837  1.00  0.00    -0.151 N  
BRANCH  22  23
HETATM   23  CA  UNL     1      -7.215  14.591  67.083  1.00  0.00     0.160 C  
BRANCH  23  24
HETATM   24  C   UNL     1      -6.046  15.082  67.991  1.00  0.00    -0.150 C  
HETATM   25  H   UNL     1      -5.748  15.604  69.892  1.00  0.00     0.000 HD 
HETATM   26  O   UNL     1      -6.460  15.305  69.340  1.00  0.00    -0.122 OA 
ENDBRANCH  23  24
BRANCH  23  27
HETATM   27  C   UNL     1      -7.986  15.750  66.459  1.00  0.00    -0.172 C  
HETATM   28  C   UNL     1      -7.191  17.035  66.542  1.00  0.00    -0.311 C  
ENDBRANCH  23  27
ENDBRANCH  22  23
ENDBRANCH  15  19
TORSDOF 4
ENDMDL
MODEL      143
REMARK 921   NORMALIZED FREE ENERGY PREDICTED BY IDOCK:    3.48 KCAL/MOL
REMARK 922        TOTAL FREE ENERGY PREDICTED BY IDOCK:    4.52 KCAL/MOL
REMARK 923 INTER-LIGAND FREE ENERGY PREDICTED BY IDOCK:    3.51 KCAL/MOL
REMARK 924 INTRA-LIGAND FREE ENERGY PREDICTED BY IDOCK:    1.02 KCAL/MOL
REMARK 927      BINDING AFFINITY PREDICTED BY RF-SCORE:    0.00 PKD
ROOT
HETATM    1  C   UNL     1     -11.174  13.104  68.475  1.00  0.00    -0.272 C  
HETATM    2  C   UNL     1     -12.486  12.348  68.207  1.00  0.00     0.770 C  
HETATM    3  C   UNL     1     -12.325  11.259  69.099  1.00  0.00    -0.115 A  
HETATM    4  C   UNL     1     -13.137  10.820  70.093  1.00  0.00     0.138 A  
HETATM    5  N   UNL     1     -12.360   9.974  70.827  1.00  0.00    -0.306 NA 
HETATM    6  C   UNL     1     -12.904   9.356  72.016  1.00  0.00    -0.414 C  
HETATM    7  C   UNL     1     -11.052   9.948  70.323  1.00  0.00    -0.308 A  
HETATM    8  C   UNL     1     -10.984  10.842  69.252  1.00  0.00    -0.292 A  
HETATM    9  C   UNL     1      -9.739  11.447  68.688  1.00  0.00    -0.182 A  
HETATM   10  C   UNL     1      -8.616  10.687  69.025  1.00  0.00    -0.150 A  
HETATM   11  C   UNL     1      -9.651  13.092  68.341  1.00  0.00    -0.186 C  
HETATM   12  C   UNL     1      -9.651  14.513  68.039  1.00  0.00    -0.217 C  
HETATM   13  C   UNL     1      -8.707   9.648  70.001  1.00  0.00    -0.256 A  
HETATM   14  C   UNL     1      -9.883   9.323  70.726  1.00  0.00    -0.350 A  
HETATM   15  C   UNL     1     -11.051  15.507  68.139  1.00  0.00    -0.325 C  
HETATM   16  C   UNL     1     -11.717  15.165  69.495  1.00  0.00    -0.327 C  
HETATM   17  C   UNL     1     -10.660  13.350  70.911  1.00  0.00     3.655 C  
HETATM   18  N   UNL     1     -11.377  13.811  69.734  1.00  0.00    -0.185 NA 
ENDROOT
BRANCH  15  19
HETATM   19  C   UNL     1     -11.910  15.232  66.865  1.00  0.00     0.110 C  
HETATM   20  O   UNL     1     -13.137  15.327  66.874  1.00  0.00     1.944 OA 
HETATM   21  H   UNL     1     -10.139  14.746  65.924  1.00  0.00     0.000 HD 
HETATM   22  N   UNL     1     -11.154  14.716  65.825  1.00  0.00    -0.324 N  
BRANCH  22  23
HETATM   23  CA  UNL     1     -11.691  14.133  64.598  1.00  0.00    -0.417 C  
BRANCH  23  24
HETATM   24  C   UNL     1     -10.755  13.020  64.035  1.00  0.00    -0.357 C  
HETATM   25  H   UNL     1     -10.532  11.960  62.361  1.00  0.00     0.000 HD 
HETATM   26  O   UNL     1     -11.102  12.638  62.703  1.00  0.00     0.654 OA 
ENDBRANCH  23  24
BRANCH  23  27
HETATM   27  C   UNL     1     -11.869  15.287  63.618  1.00  0.00     0.762 C  
HETATM   28  C   UNL     1     -11.334  16.578  64.199  1.00  0.00     0.458 C  
ENDBRANCH  23  27
ENDBRANCH  22  23
ENDBRANCH  15  19
TORSDOF 4
ENDMDL
MODEL      144
REMARK 921   NORMALIZED FREE ENERGY PREDICTED BY IDOCK:    5.31 KCAL/MOL
REMARK 922        TOTAL FREE ENERGY PREDICTED BY IDOCK:    6.78 KCAL/MOL
REMARK 923 INTER-LIGAND FREE ENERGY PREDICTED BY IDOCK:    5.71 KCAL/MOL
REMARK 924 INTRA-LIGAND FREE ENERGY PREDICTED BY IDOCK:    1.07 KCAL/MOL
REMARK 927      BINDING AFFINITY PREDICTED BY RF-SCORE:    0.00 PKD
ROOT
HETATM    1  C   UNL     1      -6.786  14.991  67.810  1.00  0.00    -0.170 C  
HETATM    2  C   UNL     1      -8.216  15.218  67.290  1.00  0.00    -0.230 C  
HETATM    3  C   UNL     1      -8.314  16.621  67.453  1.00  0.00    -0.190 A  
HETATM    4  C   UNL     1      -8.623  17.584  66.549  1.00  0.00    -0.263 A  
HETATM    5  N   UNL     1      -8.252  18.752  67.147  1.00  0.00    -0.261 NA 
HETATM    6  C   UNL     1      -8.396  19.999  66.428  1.00  0.00    -0.299 C  
HETATM    7  C   UNL     1      -7.652  18.499  68.388  1.00  0.00    -0.292 A  
HETATM    8  C   UNL     1      -7.603  17.115  68.571  1.00  0.00    -0.245 A  
HETATM    9  C   UNL     1      -6.706  16.382  69.516  1.00  0.00    -0.202 A  
HETATM   10  C   UNL     1      -6.249  17.229  70.529  1.00  0.00     0.620 A  
HETATM   11  C   UNL     1      -5.859  15.013  69.025  1.00  0.00    -0.096 C  
HETATM   12  C   UNL     1      -5.178  13.822  68.547  1.00  0.00    -0.091 C  
HETATM   13  C   UNL     1      -6.443  18.640  70.440  1.00  0.00     0.385 A  
HETATM   14  C   UNL     1      -7.055  19.304  69.344  1.00  0.00    -0.280 A  
HETATM   15  C   UNL     1      -5.470  13.113  67.007  1.00  0.00     0.651 C  
HETATM   16  C   UNL     1      -5.453  14.283  65.992  1.00  0.00     6.701 C  
HETATM   17  C   UNL     1      -5.133  16.630  66.893  1.00  0.00    -0.024 C  
HETATM   18  N   UNL     1      -5.902  15.407  66.728  1.00  0.00     0.427 NA 
ENDROOT
BRANCH  15  19
HETATM   19  C   UNL     1      -6.806  12.313  67.108  1.00  0.00    -0.101 C  
HETATM   20  O   UNL     1      -7.417  12.197  68.171  1.00  0.00    -0.097 OA 
HETATM   21  H   UNL     1      -6.549  11.865  65.111  1.00  0.00     0.000 HD 
HETATM   22  N   UNL     1      -7.101  11.635  65.937  1.00  0.00     0.488 N  
BRANCH  22  23
HETATM   23  CA  UNL     1      -8.136  10.616  65.789  1.00  0.00    -0.158 C  
BRANCH  23  24
HETATM   24  C   UNL     1      -9.357  10.898  66.717  1.00  0.00    -0.165 C  
HETATM   25  H   UNL     1     -11.180  11.696  66.589  1.00  0.00     0.000 HD 
HETATM   26  O   UNL     1     -10.437  11.524  66.023  1.00  0.00    -0.237 OA 
ENDBRANCH  23  24
BRANCH  23  27
HETATM   27  C   UNL     1      -7.471   9.280  66.101  1.00  0.00    -0.096 C  
HETATM   28  C   UNL     1      -6.518   8.879  64.996  1.00  0.00    -0.065 C  
ENDBRANCH  23  27
ENDBRANCH  22  23
ENDBRANCH  15  19
TORSDOF 4
ENDMDL
MODEL      145
REMARK 921   NORMALIZED FREE ENERGY PREDICTED BY IDOCK:    5.50 KCAL/MOL
REMARK 922        TOTAL FREE ENERGY PREDICTED BY IDOCK:    7.01 KCAL/MOL
REMARK 923 INTER-LIGAND FREE ENERGY PREDICTED BY IDOCK:    4.17 KCAL/MOL
REMARK 924 INTRA-LIGAND FREE ENERGY PREDICTED BY IDOCK:    2.83 KCAL/MOL
REMARK 927      BINDING AFFINITY PREDICTED BY RF-SCORE:    0.00 PKD
ROOT
HETATM    1  C   UNL     1      -7.454   8.277  69.466  1.00  0.00    -0.086 C  
HETATM    2  C   UNL     1      -8.980   8.173  69.629  1.00  0.00    -0.154 C  
HETATM    3  C   UNL     1      -9.126   6.764  69.651  1.00  0.00    -0.143 A  
HETATM    4  C   UNL     1      -9.714   5.963  70.574  1.00  0.00    -0.175 A  
HETATM    5  N   UNL     1      -9.283   4.706  70.268  1.00  0.00    -0.121 NA 
HETATM    6  C   UNL     1      -9.683   3.592  71.099  1.00  0.00    -0.175 C  
HETATM    7  C   UNL     1      -8.376   4.746  69.199  1.00  0.00    -0.081 A  
HETATM    8  C   UNL     1      -8.193   6.082  68.837  1.00  0.00    -0.104 A  
HETATM    9  C   UNL     1      -7.042   6.634  68.058  1.00  0.00    -0.089 A  
HETATM   10  C   UNL     1      -6.404   5.627  67.329  1.00  0.00    -0.042 A  
HETATM   11  C   UNL     1      -6.256   8.040  68.546  1.00  0.00    -0.045 C  
HETATM   12  C   UNL     1      -5.639   9.272  69.006  1.00  0.00    -0.036 C  
HETATM   13  C   UNL     1      -6.706   4.252  67.569  1.00  0.00    -0.047 A  
HETATM   14  C   UNL     1      -7.614   3.785  68.555  1.00  0.00    -0.054 A  
HETATM   15  C   UNL     1      -6.260  10.221  70.300  1.00  0.00    -0.113 C  
HETATM   16  C   UNL     1      -6.573   9.225  71.443  1.00  0.00    -0.022 C  
HETATM   17  C   UNL     1      -6.194   6.758  71.004  1.00  0.00    -0.040 C  
HETATM   18  N   UNL     1      -6.897   8.012  70.787  1.00  0.00    -0.037 NA 
ENDROOT
BRANCH  15  19
HETATM   19  C   UNL     1      -7.473  11.031  69.744  1.00  0.00     0.135 C  
HETATM   20  O   UNL     1      -7.323  12.078  69.114  1.00  0.00    -0.062 OA 
HETATM   21  H   UNL     1      -8.675   9.622  70.653  1.00  0.00     0.000 HD 
HETATM   22  N   UNL     1      -8.685  10.531  70.190  1.00  0.00     0.462 N  
BRANCH  22  23
HETATM   23  CA  UNL     1      -9.977  11.198  70.052  1.00  0.00     1.014 C  
BRANCH  23  24
HETATM   24  C   UNL     1      -9.809  12.702  69.678  1.00  0.00     1.548 C  
HETATM   25  H   UNL     1     -10.819  14.125  68.712  1.00  0.00     0.000 HD 
HETATM   26  O   UNL     1     -10.922  13.208  68.940  1.00  0.00    -0.242 OA 
ENDBRANCH  23  24
BRANCH  23  27
HETATM   27  C   UNL     1     -10.699  11.011  71.382  1.00  0.00     3.297 C  
HETATM   28  C   UNL     1     -12.200  11.063  71.193  1.00  0.00    -0.415 C  
ENDBRANCH  23  27
ENDBRANCH  22  23
ENDBRANCH  15  19
TORSDOF 4
ENDMDL
MODEL      146
REMARK 921   NORMALIZED FREE ENERGY PREDICTED BY IDOCK:    7.95 KCAL/MOL
REMARK 922        TOTAL FREE ENERGY PREDICTED BY IDOCK:   10.03 KCAL/MOL
REMARK 923 INTER-LIGAND FREE ENERGY PREDICTED BY IDOCK:    8.82 KCAL/MOL
REMARK 924 INTRA-LIGAND FREE ENERGY PREDICTED BY IDOCK:    1.21 KCAL/MOL
REMARK 927      BINDING AFFINITY PREDICTED BY RF-SCORE:    0.00 PKD
ROOT
HETATM    1  C   UNL     1      -7.542   7.309  69.365  1.00  0.00    -0.097 C  
HETATM    2  C   UNL     1      -6.670   8.180  68.445  1.00  0.00    -0.064 C  
HETATM    3  C   UNL     1      -6.816   9.433  69.089  1.00  0.00    -0.050 A  
HETATM    4  C   UNL     1      -5.872  10.285  69.561  1.00  0.00    -0.038 A  
HETATM    5  N   UNL     1      -6.556  11.153  70.360  1.00  0.00    -0.239 NA 
HETATM    6  C   UNL     1      -5.837  12.181  71.079  1.00  0.00     0.222 C  
HETATM    7  C   UNL     1      -7.909  10.789  70.431  1.00  0.00     1.334 A  
HETATM    8  C   UNL     1      -8.084   9.625  69.682  1.00  0.00    -0.143 A  
HETATM    9  C   UNL     1      -9.223   8.663  69.800  1.00  0.00    -0.154 A  
HETATM   10  C   UNL     1     -10.329   9.271  70.401  1.00  0.00    -0.291 A  
HETATM   11  C   UNL     1      -8.957   7.002  69.856  1.00  0.00    -0.142 C  
HETATM   12  C   UNL     1      -8.660   5.580  69.871  1.00  0.00    -0.120 C  
HETATM   13  C   UNL     1     -10.206  10.548  71.028  1.00  0.00     1.616 A  
HETATM   14  C   UNL     1      -8.995  11.281  71.137  1.00  0.00     7.665 A  
HETATM   15  C   UNL     1      -7.091   4.933  69.596  1.00  0.00    -0.055 C  
HETATM   16  C   UNL     1      -6.127   5.772  70.470  1.00  0.00    -0.030 C  
HETATM   17  C   UNL     1      -7.103   7.698  71.797  1.00  0.00    -0.063 C  
HETATM   18  N   UNL     1      -6.731   7.051  70.549  1.00  0.00    -0.052 NA 
ENDROOT
BRANCH  15  19
HETATM   19  C   UNL     1      -6.833   4.974  68.057  1.00  0.00    -0.060 C  
HETATM   20  O   UNL     1      -5.741   5.296  67.588  1.00  0.00    -0.012 OA 
HETATM   21  H   UNL     1      -8.819   4.465  67.832  1.00  0.00     0.000 HD 
HETATM   22  N   UNL     1      -7.994   4.785  67.326  1.00  0.00    -0.101 N  
BRANCH  22  23
HETATM   23  CA  UNL     1      -8.133   5.006  65.889  1.00  0.00    -0.108 C  
BRANCH  23  24
HETATM   24  C   UNL     1      -9.621   4.903  65.435  1.00  0.00    -0.101 C  
HETATM   25  H   UNL     1     -11.124   3.596  65.523  1.00  0.00     0.000 HD 
HETATM   26  O   UNL     1     -10.218   3.658  65.801  1.00  0.00     0.041 OA 
ENDBRANCH  23  24
BRANCH  23  27
HETATM   27  C   UNL     1      -7.249   3.968  65.208  1.00  0.00    -0.068 C  
HETATM   28  C   UNL     1      -7.498   2.588  65.778  1.00  0.00    -0.068 C  
ENDBRANCH  23  27
ENDBRANCH  22  23
ENDBRANCH  15  19
TORSDOF 4
ENDMDL
MODEL      147
REMARK 921   NORMALIZED FREE ENERGY PREDICTED BY IDOCK:    8.93 KCAL/MOL
REMARK 922        TOTAL FREE ENERGY PREDICTED BY IDOCK:   11.25 KCAL/MOL
REMARK 923 INTER-LIGAND FREE ENERGY PREDICTED BY IDOCK:    9.60 KCAL/MOL
REMARK 924 INTRA-LIGAND FREE ENERGY PREDICTED BY IDOCK:    1.64 KCAL/MOL
REMARK 927      BINDING AFFINITY PREDICTED BY RF-SCORE:    0.00 PKD
ROOT
HETATM    1  C   UNL     1     -10.564  12.548  68.616  1.00  0.00    -0.216 C  
HETATM    2  C   UNL     1     -10.006  12.502  70.048  1.00  0.00     2.540 C  
HETATM    3  C   UNL     1     -11.046  13.175  70.735  1.00  0.00     1.852 A  
HETATM    4  C   UNL     1     -11.786  12.778  71.800  1.00  0.00     1.885 A  
HETATM    5  N   UNL     1     -12.837  13.646  71.834  1.00  0.00    -0.311 NA 
HETATM    6  C   UNL     1     -13.870  13.477  72.833  1.00  0.00     0.220 C  
HETATM    7  C   UNL     1     -12.777  14.532  70.749  1.00  0.00    -0.360 A  
HETATM    8  C   UNL     1     -11.668  14.190  69.973  1.00  0.00    -0.358 A  
HETATM    9  C   UNL     1     -11.443  14.566  68.543  1.00  0.00    -0.327 A  
HETATM   10  C   UNL     1     -12.218  15.674  68.191  1.00  0.00     0.421 A  
HETATM   11  C   UNL     1     -10.916  13.430  67.418  1.00  0.00    -0.287 C  
HETATM   12  C   UNL     1     -10.435  12.409  66.504  1.00  0.00    -0.254 C  
HETATM   13  C   UNL     1     -13.250  16.145  69.057  1.00  0.00     2.876 A  
HETATM   14  C   UNL     1     -13.609  15.540  70.290  1.00  0.00     0.509 A  
HETATM   15  C   UNL     1      -9.952  10.836  67.004  1.00  0.00    -0.236 C  
HETATM   16  C   UNL     1     -11.065  10.335  67.957  1.00  0.00    -0.274 C  
HETATM   17  C   UNL     1     -12.979  11.911  68.478  1.00  0.00     2.816 C  
HETATM   18  N   UNL     1     -11.584  11.508  68.556  1.00  0.00    -0.290 NA 
ENDROOT
BRANCH  15  19
HETATM   19  C   UNL     1      -8.524  10.961  67.622  1.00  0.00    -0.123 C  
HETATM   20  O   UNL     1      -8.022  10.057  68.290  1.00  0.00    -0.095 OA 
HETATM   21  H   UNL     1      -8.489  12.874  66.850  1.00  0.00     0.000 HD 
HETATM   22  N   UNL     1      -8.001  12.235  67.477  1.00  0.00    -0.155 N  
BRANCH  22  23
HETATM   23  CA  UNL     1      -6.806  12.740  68.149  1.00  0.00    -0.094 C  
BRANCH  23  24
HETATM   24  C   UNL     1      -6.687  12.184  69.602  1.00  0.00     0.035 C  
HETATM   25  H   UNL     1      -5.851  12.702  71.336  1.00  0.00     0.000 HD 
HETATM   26  O   UNL     1      -5.924  13.041  70.452  1.00  0.00    -0.163 OA 
ENDBRANCH  23  24
BRANCH  23  27
HETATM   27  C   UNL     1      -6.909  14.261  68.121  1.00  0.00    -0.126 C  
HETATM   28  C   UNL     1      -5.654  14.877  67.542  1.00  0.00     0.118 C  
ENDBRANCH  23  27
ENDBRANCH  22  23
ENDBRANCH  15  19
TORSDOF 4
ENDMDL
MODEL      148
REMARK 921   NORMALIZED FREE ENERGY PREDICTED BY IDOCK:   13.72 KCAL/MOL
REMARK 922        TOTAL FREE ENERGY PREDICTED BY IDOCK:   17.15 KCAL/MOL
REMARK 923 INTER-LIGAND FREE ENERGY PREDICTED BY IDOCK:   12.06 KCAL/MOL
REMARK 924 INTRA-LIGAND FREE ENERGY PREDICTED BY IDOCK:    5.09 KCAL/MOL
REMARK 927      BINDING AFFINITY PREDICTED BY RF-SCORE:    0.00 PKD
ROOT
HETATM    1  C   UNL     1     -10.041   9.942  66.191  1.00  0.00    -0.245 C  
HETATM    2  C   UNL     1      -8.520   9.924  66.414  1.00  0.00    -0.128 C  
HETATM    3  C   UNL     1      -8.243   8.574  66.086  1.00  0.00    -0.115 A  
HETATM    4  C   UNL     1      -7.373   8.058  65.181  1.00  0.00    -0.074 A  
HETATM    5  N   UNL     1      -7.748   6.754  65.045  1.00  0.00    -0.101 NA 
HETATM    6  C   UNL     1      -7.053   5.907  64.101  1.00  0.00    -0.053 C  
HETATM    7  C   UNL     1      -8.890   6.490  65.815  1.00  0.00    -0.084 A  
HETATM    8  C   UNL     1      -9.280   7.680  66.433  1.00  0.00    -0.223 A  
HETATM    9  C   UNL     1     -10.633   7.979  66.993  1.00  0.00    -0.364 A  
HETATM   10  C   UNL     1     -11.336   6.800  67.259  1.00  0.00    -0.070 A  
HETATM   11  C   UNL     1     -11.402   9.443  66.677  1.00  0.00     1.406 C  
HETATM   12  C   UNL     1     -11.997  10.736  66.390  1.00  0.00     2.021 C  
HETATM   13  C   UNL     1     -10.858   5.544  66.776  1.00  0.00    -0.252 A  
HETATM   14  C   UNL     1      -9.695   5.374  65.979  1.00  0.00    -0.134 A  
HETATM   15  C   UNL     1     -11.167  12.006  65.578  1.00  0.00    -0.372 C  
HETATM   16  C   UNL     1     -10.491  11.351  64.349  1.00  0.00    -0.330 C  
HETATM   17  C   UNL     1     -10.737   8.847  64.053  1.00  0.00     7.479 C  
HETATM   18  N   UNL     1     -10.227  10.018  64.748  1.00  0.00    -0.101 NA 
ENDROOT
BRANCH  15  19
HETATM   19  C   UNL     1     -10.209  12.673  66.614  1.00  0.00    -0.236 C  
HETATM   20  O   UNL     1     -10.512  13.708  67.209  1.00  0.00    -0.257 OA 
HETATM   21  H   UNL     1      -8.860  11.186  66.143  1.00  0.00     0.000 HD 
HETATM   22  N   UNL     1      -8.962  12.072  66.636  1.00  0.00    -0.204 N  
BRANCH  22  23
HETATM   23  CA  UNL     1      -7.779  12.605  67.308  1.00  0.00    -0.140 C  
BRANCH  23  24
HETATM   24  C   UNL     1      -8.155  13.352  68.625  1.00  0.00    -0.040 C  
HETATM   25  H   UNL     1      -8.837  15.139  69.187  1.00  0.00     0.000 HD 
HETATM   26  O   UNL     1      -8.609  14.684  68.385  1.00  0.00    -0.156 OA 
ENDBRANCH  23  24
BRANCH  23  27
HETATM   27  C   UNL     1      -7.091  13.521  66.302  1.00  0.00     3.156 C  
HETATM   28  C   UNL     1      -5.774  14.030  66.848  1.00  0.00     1.676 C  
ENDBRANCH  23  27
ENDBRANCH  22  23
ENDBRANCH  15  19
TORSDOF 4
ENDMDL
MODEL      149
REMARK 921   NORMALIZED FREE ENERGY PREDICTED BY IDOCK:   16.74 KCAL/MOL
REMARK 922        TOTAL FREE ENERGY PREDICTED BY IDOCK:   20.87 KCAL/MOL
REMARK 923 INTER-LIGAND FREE ENERGY PREDICTED BY IDOCK:   19.65 KCAL/MOL
REMARK 924 INTRA-LIGAND FREE ENERGY PREDICTED BY IDOCK:    1.22 KCAL/MOL
REMARK 927      BINDING AFFINITY PREDICTED BY RF-SCORE:    0.00 PKD
ROOT
HETATM    1  C   UNL     1      -7.287  12.162  69.481  1.00  0.00     0.388 C  
HETATM    2  C   UNL     1      -7.118  12.609  68.019  1.00  0.00    -0.103 C  
HETATM    3  C   UNL     1      -7.565  11.440  67.355  1.00  0.00    -0.124 A  
HETATM    4  C   UNL     1      -8.538  11.287  66.422  1.00  0.00    -0.174 A  
HETATM    5  N   UNL     1      -8.768   9.943  66.379  1.00  0.00    -0.131 NA 
HETATM    6  C   UNL     1      -9.801   9.423  65.511  1.00  0.00    -0.161 C  
HETATM    7  C   UNL     1      -7.984   9.281  67.336  1.00  0.00    -0.106 A  
HETATM    8  C   UNL     1      -7.258  10.243  68.041  1.00  0.00    -0.085 A  
HETATM    9  C   UNL     1      -6.629  10.062  69.385  1.00  0.00    -0.053 A  
HETATM   10  C   UNL     1      -6.438   8.707  69.669  1.00  0.00    -0.039 A  
HETATM   11  C   UNL     1      -6.798  11.228  70.588  1.00  0.00     1.137 C  
HETATM   12  C   UNL     1      -6.958  12.284  71.572  1.00  0.00     5.394 C  
HETATM   13  C   UNL     1      -7.038   7.702  68.852  1.00  0.00    -0.079 A  
HETATM   14  C   UNL     1      -7.885   7.961  67.743  1.00  0.00    -0.123 A  
HETATM   15  C   UNL     1      -7.690  13.802  71.227  1.00  0.00     5.067 C  
HETATM   16  C   UNL     1      -8.992  13.478  70.453  1.00  0.00     4.437 C  
HETATM   17  C   UNL     1      -9.484  11.050  69.923  1.00  0.00     0.935 C  
HETATM   18  N   UNL     1      -8.713  12.272  69.765  1.00  0.00     1.983 NA 
ENDROOT
BRANCH  15  19
HETATM   19  C   UNL     1      -6.636  14.665  70.467  1.00  0.00     0.023 C  
HETATM   20  O   UNL     1      -5.614  14.173  69.988  1.00  0.00    -0.101 OA 
HETATM   21  H   UNL     1      -7.817  16.294  70.926  1.00  0.00     0.000 HD 
HETATM   22  N   UNL     1      -6.906  16.021  70.557  1.00  0.00     0.712 N  
BRANCH  22  23
HETATM   23  CA  UNL     1      -5.993  17.092  70.168  1.00  0.00    -0.114 C  
BRANCH  23  24
HETATM   24  C   UNL     1      -6.179  18.357  71.061  1.00  0.00     0.997 C  
HETATM   25  H   UNL     1      -5.856  18.916  72.947  1.00  0.00     0.000 HD 
HETATM   26  O   UNL     1      -5.743  18.145  72.404  1.00  0.00     0.288 OA 
ENDBRANCH  23  24
BRANCH  23  27
HETATM   27  C   UNL     1      -6.272  17.379  68.697  1.00  0.00    -0.175 C  
HETATM   28  C   UNL     1      -5.284  16.655  67.808  1.00  0.00    -0.139 C  
ENDBRANCH  23  27
ENDBRANCH  22  23
ENDBRANCH  15  19
TORSDOF 4
ENDMDL
MODEL      150
REMARK 921   NORMALIZED FREE ENERGY PREDICTED BY IDOCK:   20.70 KCAL/MOL
REMARK 922        TOTAL FREE ENERGY PREDICTED BY IDOCK:   25.76 KCAL/MOL
REMARK 923 INTER-LIGAND FREE ENERGY PREDICTED BY IDOCK:   25.95 KCAL/MOL
REMARK 924 INTRA-LIGAND FREE ENERGY PREDICTED BY IDOCK:   -0.19 KCAL/MOL
REMARK 927      BINDING AFFINITY PREDICTED BY RF-SCORE:    0.00 PKD
ROOT
HETATM    1  C   UNL     1      -7.080  10.390  69.743  1.00  0.00    -0.148 C  
HETATM    2  C   UNL     1      -6.432   9.816  68.473  1.00  0.00    -0.051 C  
HETATM    3  C   UNL     1      -6.425   8.439  68.806  1.00  0.00    -0.053 A  
HETATM    4  C   UNL     1      -6.938   7.377  68.135  1.00  0.00    -0.075 A  
HETATM    5  N   UNL     1      -6.944   6.362  69.045  1.00  0.00    -0.069 NA 
HETATM    6  C   UNL     1      -7.486   5.074  68.673  1.00  0.00    -0.070 C  
HETATM    7  C   UNL     1      -6.499   6.820  70.293  1.00  0.00    -0.043 A  
HETATM    8  C   UNL     1      -6.238   8.187  70.184  1.00  0.00    -0.032 A  
HETATM    9  C   UNL     1      -6.148   9.161  71.315  1.00  0.00    -0.070 A  
HETATM   10  C   UNL     1      -5.892   8.503  72.521  1.00  0.00    -0.067 A  
HETATM   11  C   UNL     1      -6.923  10.654  71.241  1.00  0.00     1.836 C  
HETATM   12  C   UNL     1      -7.592  11.935  71.103  1.00  0.00     6.561 C  
HETATM   13  C   UNL     1      -5.989   7.081  72.609  1.00  0.00    -0.041 A  
HETATM   14  C   UNL     1      -6.378   6.230  71.541  1.00  0.00    -0.045 A  
HETATM   15  C   UNL     1      -8.342  12.464  69.648  1.00  0.00     1.713 C  
HETATM   16  C   UNL     1      -9.192  11.269  69.152  1.00  0.00     0.114 C  
HETATM   17  C   UNL     1      -9.101   9.115  70.483  1.00  0.00    -0.241 C  
HETATM   18  N   UNL     1      -8.507  10.120  69.616  1.00  0.00    -0.175 NA 
ENDROOT
BRANCH  15  19
HETATM   19  C   UNL     1      -7.210  12.946  68.688  1.00  0.00    -0.098 C  
HETATM   20  O   UNL     1      -6.245  13.595  69.093  1.00  0.00    -0.087 OA 
HETATM   21  H   UNL     1      -8.315  12.110  67.160  1.00  0.00     0.000 HD 
HETATM   22  N   UNL     1      -7.516  12.712  67.358  1.00  0.00    -0.152 N  
BRANCH  22  23
HETATM   23  CA  UNL     1      -6.788  13.256  66.214  1.00  0.00     3.231 C  
BRANCH  23  24
HETATM   24  C   UNL     1      -7.416  14.594  65.718  1.00  0.00     5.246 C  
HETATM   25  H   UNL     1      -8.850  15.201  64.473  1.00  0.00     0.000 HD 
HETATM   26  O   UNL     1      -8.468  14.385  64.775  1.00  0.00     4.135 OA 
ENDBRANCH  23  24
BRANCH  23  27
HETATM   27  C   UNL     1      -6.810  12.175  65.139  1.00  0.00     4.152 C  
HETATM   28  C   UNL     1      -5.566  11.316  65.211  1.00  0.00     0.481 C  
ENDBRANCH  23  27
ENDBRANCH  22  23
ENDBRANCH  15  19
TORSDOF 4
ENDMDL
MODEL      151
REMARK 921   NORMALIZED FREE ENERGY PREDICTED BY IDOCK:   32.09 KCAL/MOL
REMARK 922        TOTAL FREE ENERGY PREDICTED BY IDOCK:   39.82 KCAL/MOL
REMARK 923 INTER-LIGAND FREE ENERGY PREDICTED BY IDOCK:   38.82 KCAL/MOL
REMARK 924 INTRA-LIGAND FREE ENERGY PREDICTED BY IDOCK:    1.00 KCAL/MOL
REMARK 927      BINDING AFFINITY PREDICTED BY RF-SCORE:    0.00 PKD
ROOT
HETATM    1  C   UNL     1      -8.229  13.110  69.487  1.00  0.00     1.239 C  
HETATM    2  C   UNL     1      -8.502  12.539  68.085  1.00  0.00    -0.180 C  
HETATM    3  C   UNL     1      -9.128  11.318  68.438  1.00  0.00    -0.170 A  
HETATM    4  C   UNL     1     -10.335  10.820  68.070  1.00  0.00    -0.182 A  
HETATM    5  N   UNL     1     -10.568   9.798  68.942  1.00  0.00    -0.213 NA 
HETATM    6  C   UNL     1     -11.814   9.067  68.868  1.00  0.00     1.490 C  
HETATM    7  C   UNL     1      -9.536   9.716  69.888  1.00  0.00    -0.230 A  
HETATM    8  C   UNL     1      -8.632  10.749  69.633  1.00  0.00     0.242 A  
HETATM    9  C   UNL     1      -7.632  11.303  70.595  1.00  0.00     2.819 A  
HETATM   10  C   UNL     1      -7.366  10.390  71.620  1.00  0.00     2.905 A  
HETATM   11  C   UNL     1      -7.433  12.964  70.784  1.00  0.00     4.273 C  
HETATM   12  C   UNL     1      -7.292  14.407  70.878  1.00  0.00     1.561 C  
HETATM   13  C   UNL     1      -8.183   9.232  71.792  1.00  0.00     0.465 A  
HETATM   14  C   UNL     1      -9.322   8.922  71.003  1.00  0.00    -0.313 A  
HETATM   15  C   UNL     1      -8.092  15.511  69.830  1.00  0.00     0.003 C  
HETATM   16  C   UNL     1      -9.566  15.039  69.762  1.00  0.00     0.038 C  
HETATM   17  C   UNL     1     -10.196  12.933  71.023  1.00  0.00     6.772 C  
HETATM   18  N   UNL     1      -9.505  13.637  69.954  1.00  0.00     1.690 NA 
ENDROOT
BRANCH  15  19
HETATM   19  C   UNL     1      -7.312  15.519  68.478  1.00  0.00    -0.120 C  
HETATM   20  O   UNL     1      -6.433  14.694  68.229  1.00  0.00    -0.100 OA 
HETATM   21  H   UNL     1      -8.395  17.209  68.002  1.00  0.00     0.000 HD 
HETATM   22  N   UNL     1      -7.603  16.635  67.712  1.00  0.00    -0.156 N  
BRANCH  22  23
HETATM   23  CA  UNL     1      -6.869  17.059  66.523  1.00  0.00    -0.246 C  
BRANCH  23  24
HETATM   24  C   UNL     1      -6.803  18.613  66.412  1.00  0.00    -0.213 C  
HETATM   25  H   UNL     1      -7.937  20.193  66.851  1.00  0.00     0.000 HD 
HETATM   26  O   UNL     1      -7.978  19.246  66.919  1.00  0.00    -0.248 OA 
ENDBRANCH  23  24
BRANCH  23  27
HETATM   27  C   UNL     1      -7.581  16.426  65.332  1.00  0.00     2.970 C  
HETATM   28  C   UNL     1      -6.821  15.218  64.828  1.00  0.00    14.721 C  
ENDBRANCH  23  27
ENDBRANCH  22  23
ENDBRANCH  15  19
TORSDOF 4
ENDMDL
