MODEL        1
REMARK 921   NORMALIZED FREE ENERGY PREDICTED BY IDOCK:   -4.97 KCAL/MOL
REMARK 922        TOTAL FREE ENERGY PREDICTED BY IDOCK:  -10.86 KCAL/MOL
REMARK 923 INTER-LIGAND FREE ENERGY PREDICTED BY IDOCK:   -8.75 KCAL/MOL
REMARK 924 INTRA-LIGAND FREE ENERGY PREDICTED BY IDOCK:   -2.11 KCAL/MOL
REMARK 927      BINDING AFFINITY PREDICTED BY RF-SCORE:    0.00 PKD
ROOT
HETATM    1  C   UNL     1     -10.580  18.238  65.925  1.00  0.00    -0.254 C  
HETATM    2  O   UNL     1     -10.154  16.962  65.451  1.00  0.00    -0.586 OA 
ENDROOT
BRANCH   2   3
HETATM    3  C   UNL     1     -11.118  16.209  64.851  1.00  0.00    -0.325 C  
HETATM    4  O   UNL     1     -11.748  16.526  63.849  1.00  0.00    -1.148 OA 
BRANCH   3   5
HETATM    5  C   UNL     1     -11.284  14.885  65.603  1.00  0.00    -0.347 C  
BRANCH   5   6
HETATM    6  C   UNL     1     -10.275  14.749  66.751  1.00  0.00    -0.266 C  
HETATM    7  C   UNL     1     -12.012  14.198  68.541  1.00  0.00    -0.367 C  
HETATM    8  C   UNL     1      -9.712  14.926  69.195  1.00  0.00    -0.184 C  
HETATM    9  C   UNL     1     -10.824  15.079  68.153  1.00  0.00    -0.263 C  
ENDBRANCH   5   6
BRANCH   5  10
HETATM   10  N   UNL     1     -11.113  13.779  64.660  1.00  0.00    -0.373 N  
HETATM   11  C   UNL     1     -12.157  12.934  64.364  1.00  0.00    -0.410 C  
HETATM   12  H   UNL     1     -10.206  13.632  64.216  1.00  0.00     0.000 HD 
HETATM   13  O   UNL     1     -13.279  13.043  64.845  1.00  0.00    -0.735 OA 
BRANCH  11  14
HETATM   14  C   UNL     1     -11.797  11.816  63.417  1.00  0.00    -0.435 C  
BRANCH  14  15
HETATM   15  C   UNL     1     -10.283  11.749  63.229  1.00  0.00    -0.452 C  
BRANCH  15  16
HETATM   16  C   UNL     1      -9.664  10.484  63.828  1.00  0.00    -0.385 C  
BRANCH  16  17
HETATM   17  C   UNL     1      -9.211  10.690  65.272  1.00  0.00    -0.230 C  
BRANCH  17  18
HETATM   18  C   UNL     1     -10.165  10.042  66.270  1.00  0.00    -0.285 C  
BRANCH  18  19
HETATM   19  C   UNL     1     -10.680  11.089  67.256  1.00  0.00    -0.312 C  
BRANCH  19  20
HETATM   20  C   UNL     1      -9.794  11.165  68.498  1.00  0.00    -0.199 C  
BRANCH  20  21
HETATM   21  C   UNL     1     -10.451  10.449  69.679  1.00  0.00    -0.279 C  
BRANCH  21  22
HETATM   22  C   UNL     1     -11.895  10.832  69.801  1.00  0.00    -0.409 C  
HETATM   23  C   UNL     1     -12.526  11.004  70.970  1.00  0.00    -0.512 C  
ENDBRANCH  21  22
ENDBRANCH  20  21
ENDBRANCH  19  20
ENDBRANCH  18  19
ENDBRANCH  17  18
ENDBRANCH  16  17
ENDBRANCH  15  16
ENDBRANCH  14  15
ENDBRANCH  11  14
ENDBRANCH   5  10
ENDBRANCH   3   5
ENDBRANCH   2   3
TORSDOF 13
ENDMDL
MODEL        2
REMARK 921   NORMALIZED FREE ENERGY PREDICTED BY IDOCK:   -4.95 KCAL/MOL
REMARK 922        TOTAL FREE ENERGY PREDICTED BY IDOCK:  -10.83 KCAL/MOL
REMARK 923 INTER-LIGAND FREE ENERGY PREDICTED BY IDOCK:   -9.40 KCAL/MOL
REMARK 924 INTRA-LIGAND FREE ENERGY PREDICTED BY IDOCK:   -1.43 KCAL/MOL
REMARK 927      BINDING AFFINITY PREDICTED BY RF-SCORE:    0.00 PKD
ROOT
HETATM    1  C   UNL     1     -12.225  12.192  63.460  1.00  0.00    -0.567 C  
HETATM    2  O   UNL     1     -12.631  12.100  64.824  1.00  0.00    -0.473 OA 
ENDROOT
BRANCH   2   3
HETATM    3  C   UNL     1     -12.623  13.273  65.518  1.00  0.00    -0.446 C  
HETATM    4  O   UNL     1     -13.261  14.277  65.224  1.00  0.00    -0.704 OA 
BRANCH   3   5
HETATM    5  C   UNL     1     -11.712  13.145  66.743  1.00  0.00    -0.385 C  
BRANCH   5   6
HETATM    6  C   UNL     1     -11.669  11.707  67.275  1.00  0.00    -0.255 C  
HETATM    7  C   UNL     1      -9.124  11.583  67.446  1.00  0.00    -0.166 C  
HETATM    8  C   UNL     1     -10.496   9.494  67.497  1.00  0.00    -0.336 C  
HETATM    9  C   UNL     1     -10.396  10.912  66.927  1.00  0.00    -0.285 C  
ENDBRANCH   5   6
BRANCH   5  10
HETATM   10  N   UNL     1     -12.194  14.047  67.789  1.00  0.00    -0.528 N  
HETATM   11  C   UNL     1     -11.328  14.872  68.467  1.00  0.00    -0.298 C  
HETATM   12  H   UNL     1     -13.188  14.065  68.019  1.00  0.00     0.000 HD 
HETATM   13  O   UNL     1     -10.122  14.920  68.249  1.00  0.00    -0.215 OA 
BRANCH  11  14
HETATM   14  C   UNL     1     -11.979  15.696  69.550  1.00  0.00    -0.363 C  
BRANCH  14  15
HETATM   15  C   UNL     1     -11.363  15.366  70.908  1.00  0.00    -0.395 C  
BRANCH  15  16
HETATM   16  C   UNL     1     -12.091  16.042  72.071  1.00  0.00    -0.606 C  
BRANCH  16  17
HETATM   17  C   UNL     1     -12.905  15.050  72.899  1.00  0.00    -0.542 C  
BRANCH  17  18
HETATM   18  C   UNL     1     -13.840  14.212  72.033  1.00  0.00    -0.577 C  
BRANCH  18  19
HETATM   19  C   UNL     1     -13.720  12.736  72.411  1.00  0.00    -0.457 C  
BRANCH  19  20
HETATM   20  C   UNL     1     -12.804  11.989  71.446  1.00  0.00    -0.391 C  
BRANCH  20  21
HETATM   21  C   UNL     1     -12.979  10.477  71.589  1.00  0.00    -0.581 C  
BRANCH  21  22
HETATM   22  C   UNL     1     -11.891   9.741  70.866  1.00  0.00    -0.420 C  
HETATM   23  C   UNL     1     -10.699   9.450  71.403  1.00  0.00    -0.407 C  
ENDBRANCH  21  22
ENDBRANCH  20  21
ENDBRANCH  19  20
ENDBRANCH  18  19
ENDBRANCH  17  18
ENDBRANCH  16  17
ENDBRANCH  15  16
ENDBRANCH  14  15
ENDBRANCH  11  14
ENDBRANCH   5  10
ENDBRANCH   3   5
ENDBRANCH   2   3
TORSDOF 13
ENDMDL
MODEL        3
REMARK 921   NORMALIZED FREE ENERGY PREDICTED BY IDOCK:   -4.80 KCAL/MOL
REMARK 922        TOTAL FREE ENERGY PREDICTED BY IDOCK:  -10.55 KCAL/MOL
REMARK 923 INTER-LIGAND FREE ENERGY PREDICTED BY IDOCK:   -8.98 KCAL/MOL
REMARK 924 INTRA-LIGAND FREE ENERGY PREDICTED BY IDOCK:   -1.57 KCAL/MOL
REMARK 927      BINDING AFFINITY PREDICTED BY RF-SCORE:    0.00 PKD
ROOT
HETATM    1  C   UNL     1     -12.654  11.987  63.496  1.00  0.00    -0.507 C  
HETATM    2  O   UNL     1     -12.934  12.522  64.789  1.00  0.00    -0.827 OA 
ENDROOT
BRANCH   2   3
HETATM    3  C   UNL     1     -12.548  13.815  64.983  1.00  0.00    -0.389 C  
HETATM    4  O   UNL     1     -12.743  14.740  64.203  1.00  0.00    -0.758 OA 
BRANCH   3   5
HETATM    5  C   UNL     1     -11.852  13.950  66.341  1.00  0.00    -0.411 C  
BRANCH   5   6
HETATM    6  C   UNL     1     -10.460  14.583  66.209  1.00  0.00    -0.303 C  
HETATM    7  C   UNL     1     -10.861  16.420  67.937  1.00  0.00    -0.328 C  
HETATM    8  C   UNL     1      -8.955  16.593  66.328  1.00  0.00    -0.340 C  
HETATM    9  C   UNL     1     -10.389  16.090  66.521  1.00  0.00    -0.303 C  
ENDBRANCH   5   6
BRANCH   5  10
HETATM   10  N   UNL     1     -11.738  12.624  66.950  1.00  0.00    -0.375 N  
HETATM   11  C   UNL     1     -11.848  12.459  68.310  1.00  0.00    -0.309 C  
HETATM   12  H   UNL     1     -11.575  11.811  66.356  1.00  0.00     0.000 HD 
HETATM   13  O   UNL     1     -12.051  13.380  69.094  1.00  0.00    -0.317 OA 
BRANCH  11  14
HETATM   14  C   UNL     1     -11.651  11.038  68.778  1.00  0.00    -0.386 C  
BRANCH  14  15
HETATM   15  C   UNL     1     -11.670  10.977  70.304  1.00  0.00    -0.445 C  
BRANCH  15  16
HETATM   16  C   UNL     1     -12.909  10.269  70.855  1.00  0.00    -0.463 C  
BRANCH  16  17
HETATM   17  C   UNL     1     -12.552   9.015  71.651  1.00  0.00    -0.414 C  
BRANCH  17  18
HETATM   18  C   UNL     1     -11.059   8.930  71.946  1.00  0.00    -0.442 C  
BRANCH  18  19
HETATM   19  C   UNL     1     -10.482   7.643  71.358  1.00  0.00    -0.230 C  
BRANCH  19  20
HETATM   20  C   UNL     1     -11.586   6.727  70.839  1.00  0.00    -0.403 C  
BRANCH  20  21
HETATM   21  C   UNL     1     -11.298   6.285  69.404  1.00  0.00    -0.448 C  
BRANCH  21  22
HETATM   22  C   UNL     1     -10.483   7.314  68.680  1.00  0.00    -0.214 C  
HETATM   23  C   UNL     1     -10.439   7.431  67.347  1.00  0.00    -0.366 C  
ENDBRANCH  21  22
ENDBRANCH  20  21
ENDBRANCH  19  20
ENDBRANCH  18  19
ENDBRANCH  17  18
ENDBRANCH  16  17
ENDBRANCH  15  16
ENDBRANCH  14  15
ENDBRANCH  11  14
ENDBRANCH   5  10
ENDBRANCH   3   5
ENDBRANCH   2   3
TORSDOF 13
ENDMDL
MODEL        4
REMARK 921   NORMALIZED FREE ENERGY PREDICTED BY IDOCK:   -4.75 KCAL/MOL
REMARK 922        TOTAL FREE ENERGY PREDICTED BY IDOCK:  -10.48 KCAL/MOL
REMARK 923 INTER-LIGAND FREE ENERGY PREDICTED BY IDOCK:   -9.47 KCAL/MOL
REMARK 924 INTRA-LIGAND FREE ENERGY PREDICTED BY IDOCK:   -1.01 KCAL/MOL
REMARK 927      BINDING AFFINITY PREDICTED BY RF-SCORE:    0.00 PKD
ROOT
HETATM    1  C   UNL     1     -10.276  18.646  66.144  1.00  0.00    -0.416 C  
HETATM    2  O   UNL     1      -9.848  17.322  65.831  1.00  0.00    -0.494 OA 
ENDROOT
BRANCH   2   3
HETATM    3  C   UNL     1     -10.799  16.513  65.285  1.00  0.00    -0.221 C  
HETATM    4  O   UNL     1     -11.491  16.786  64.311  1.00  0.00    -1.125 OA 
BRANCH   3   5
HETATM    5  C   UNL     1     -10.860  15.191  66.056  1.00  0.00    -0.335 C  
BRANCH   5   6
HETATM    6  C   UNL     1     -11.966  14.270  65.524  1.00  0.00    -0.386 C  
HETATM    7  C   UNL     1     -10.457  12.234  65.201  1.00  0.00    -0.320 C  
HETATM    8  C   UNL     1     -12.698  12.334  64.095  1.00  0.00    -0.431 C  
HETATM    9  C   UNL     1     -11.495  13.159  64.565  1.00  0.00    -0.390 C  
ENDBRANCH   5   6
BRANCH   5  10
HETATM   10  N   UNL     1     -11.091  15.477  67.472  1.00  0.00    -0.322 N  
HETATM   11  C   UNL     1     -10.340  14.868  68.448  1.00  0.00    -0.233 C  
HETATM   12  H   UNL     1     -11.821  16.138  67.738  1.00  0.00     0.000 HD 
HETATM   13  O   UNL     1      -9.440  14.069  68.216  1.00  0.00    -0.206 OA 
BRANCH  11  14
HETATM   14  C   UNL     1     -10.744  15.232  69.856  1.00  0.00    -0.300 C  
BRANCH  14  15
HETATM   15  C   UNL     1     -12.252  15.458  69.931  1.00  0.00    -0.363 C  
BRANCH  15  16
HETATM   16  C   UNL     1     -12.784  15.451  71.366  1.00  0.00    -0.488 C  
BRANCH  16  17
HETATM   17  C   UNL     1     -13.849  14.378  71.582  1.00  0.00    -0.492 C  
BRANCH  17  18
HETATM   18  C   UNL     1     -13.298  13.164  72.323  1.00  0.00    -0.621 C  
BRANCH  18  19
HETATM   19  C   UNL     1     -12.902  12.077  71.325  1.00  0.00    -0.364 C  
BRANCH  19  20
HETATM   20  C   UNL     1     -13.140  10.683  71.900  1.00  0.00    -0.563 C  
BRANCH  20  21
HETATM   21  C   UNL     1     -11.984   9.746  71.549  1.00  0.00    -0.488 C  
BRANCH  21  22
HETATM   22  C   UNL     1     -12.113   8.441  72.276  1.00  0.00    -0.456 C  
HETATM   23  C   UNL     1     -11.098   7.830  72.901  1.00  0.00    -0.457 C  
ENDBRANCH  21  22
ENDBRANCH  20  21
ENDBRANCH  19  20
ENDBRANCH  18  19
ENDBRANCH  17  18
ENDBRANCH  16  17
ENDBRANCH  15  16
ENDBRANCH  14  15
ENDBRANCH  11  14
ENDBRANCH   5  10
ENDBRANCH   3   5
ENDBRANCH   2   3
TORSDOF 13
ENDMDL
MODEL        5
REMARK 921   NORMALIZED FREE ENERGY PREDICTED BY IDOCK:   -4.71 KCAL/MOL
REMARK 922        TOTAL FREE ENERGY PREDICTED BY IDOCK:  -10.40 KCAL/MOL
REMARK 923 INTER-LIGAND FREE ENERGY PREDICTED BY IDOCK:   -9.11 KCAL/MOL
REMARK 924 INTRA-LIGAND FREE ENERGY PREDICTED BY IDOCK:   -1.29 KCAL/MOL
REMARK 927      BINDING AFFINITY PREDICTED BY RF-SCORE:    0.00 PKD
ROOT
HETATM    1  C   UNL     1     -10.234  15.318  65.403  1.00  0.00    -0.383 C  
HETATM    2  O   UNL     1     -11.264  14.476  64.890  1.00  0.00    -0.354 OA 
ENDROOT
BRANCH   2   3
HETATM    3  C   UNL     1     -12.211  14.093  65.793  1.00  0.00    -0.442 C  
HETATM    4  O   UNL     1     -13.412  13.999  65.568  1.00  0.00    -0.677 OA 
BRANCH   3   5
HETATM    5  C   UNL     1     -11.547  13.770  67.135  1.00  0.00    -0.364 C  
BRANCH   5   6
HETATM    6  C   UNL     1     -11.519  12.260  67.410  1.00  0.00    -0.422 C  
HETATM    7  C   UNL     1      -9.118  11.908  66.612  1.00  0.00    -0.203 C  
HETATM    8  C   UNL     1     -10.661   9.958  66.876  1.00  0.00    -0.248 C  
HETATM    9  C   UNL     1     -10.571  11.443  66.511  1.00  0.00    -0.309 C  
ENDBRANCH   5   6
BRANCH   5  10
HETATM   10  N   UNL     1     -12.275  14.455  68.203  1.00  0.00    -0.590 N  
HETATM   11  C   UNL     1     -11.606  15.067  69.236  1.00  0.00    -0.315 C  
HETATM   12  H   UNL     1     -13.295  14.479  68.181  1.00  0.00     0.000 HD 
HETATM   13  O   UNL     1     -10.385  15.094  69.335  1.00  0.00    -0.236 OA 
BRANCH  11  14
HETATM   14  C   UNL     1     -12.508  15.679  70.280  1.00  0.00    -0.369 C  
BRANCH  14  15
HETATM   15  C   UNL     1     -12.150  15.145  71.666  1.00  0.00    -0.424 C  
BRANCH  15  16
HETATM   16  C   UNL     1     -13.380  14.800  72.506  1.00  0.00    -0.529 C  
BRANCH  16  17
HETATM   17  C   UNL     1     -13.879  13.381  72.246  1.00  0.00    -0.671 C  
BRANCH  17  18
HETATM   18  C   UNL     1     -12.825  12.519  71.560  1.00  0.00    -0.367 C  
BRANCH  18  19
HETATM   19  C   UNL     1     -13.134  11.040  71.780  1.00  0.00    -0.554 C  
BRANCH  19  20
HETATM   20  C   UNL     1     -12.143  10.149  71.036  1.00  0.00    -0.476 C  
BRANCH  20  21
HETATM   21  C   UNL     1     -12.313   8.685  71.444  1.00  0.00    -0.344 C  
BRANCH  21  22
HETATM   22  C   UNL     1     -11.248   8.273  72.417  1.00  0.00    -0.451 C  
HETATM   23  C   UNL     1      -9.953   8.583  72.282  1.00  0.00    -0.385 C  
ENDBRANCH  21  22
ENDBRANCH  20  21
ENDBRANCH  19  20
ENDBRANCH  18  19
ENDBRANCH  17  18
ENDBRANCH  16  17
ENDBRANCH  15  16
ENDBRANCH  14  15
ENDBRANCH  11  14
ENDBRANCH   5  10
ENDBRANCH   3   5
ENDBRANCH   2   3
TORSDOF 13
ENDMDL
MODEL        6
REMARK 921   NORMALIZED FREE ENERGY PREDICTED BY IDOCK:   -4.70 KCAL/MOL
REMARK 922        TOTAL FREE ENERGY PREDICTED BY IDOCK:  -10.38 KCAL/MOL
REMARK 923 INTER-LIGAND FREE ENERGY PREDICTED BY IDOCK:   -9.43 KCAL/MOL
REMARK 924 INTRA-LIGAND FREE ENERGY PREDICTED BY IDOCK:   -0.95 KCAL/MOL
REMARK 927      BINDING AFFINITY PREDICTED BY RF-SCORE:    0.00 PKD
ROOT
HETATM    1  C   UNL     1      -7.062  15.221  67.409  1.00  0.00    -0.191 C  
HETATM    2  O   UNL     1      -7.996  15.500  66.368  1.00  0.00    -0.109 OA 
ENDROOT
BRANCH   2   3
HETATM    3  C   UNL     1      -8.194  16.821  66.097  1.00  0.00    -0.264 C  
HETATM    4  O   UNL     1      -7.314  17.633  65.835  1.00  0.00    -0.435 OA 
BRANCH   3   5
HETATM    5  C   UNL     1      -9.691  17.141  66.143  1.00  0.00    -0.242 C  
BRANCH   5   6
HETATM    6  C   UNL     1     -10.088  17.831  67.455  1.00  0.00    -0.338 C  
HETATM    7  C   UNL     1     -10.046  20.203  66.509  1.00  0.00    -0.577 C  
HETATM    8  C   UNL     1     -10.018  19.829  68.981  1.00  0.00    -0.443 C  
HETATM    9  C   UNL     1      -9.571  19.273  67.625  1.00  0.00    -0.392 C  
ENDBRANCH   5   6
BRANCH   5  10
HETATM   10  N   UNL     1     -10.447  15.899  65.988  1.00  0.00    -0.331 N  
HETATM   11  C   UNL     1     -11.284  15.709  64.914  1.00  0.00    -0.369 C  
HETATM   12  H   UNL     1     -10.352  15.162  66.687  1.00  0.00     0.000 HD 
HETATM   13  O   UNL     1     -11.451  16.537  64.026  1.00  0.00    -1.137 OA 
BRANCH  11  14
HETATM   14  C   UNL     1     -12.029  14.397  64.935  1.00  0.00    -0.430 C  
BRANCH  14  15
HETATM   15  C   UNL     1     -11.216  13.339  65.678  1.00  0.00    -0.304 C  
BRANCH  15  16
HETATM   16  C   UNL     1     -11.905  12.847  66.953  1.00  0.00    -0.444 C  
BRANCH  16  17
HETATM   17  C   UNL     1     -11.084  13.145  68.205  1.00  0.00    -0.295 C  
BRANCH  17  18
HETATM   18  C   UNL     1     -11.795  12.695  69.477  1.00  0.00    -0.376 C  
BRANCH  18  19
HETATM   19  C   UNL     1     -12.201  13.911  70.308  1.00  0.00    -0.428 C  
BRANCH  19  20
HETATM   20  C   UNL     1     -12.999  13.499  71.542  1.00  0.00    -0.440 C  
BRANCH  20  21
HETATM   21  C   UNL     1     -13.794  14.682  72.095  1.00  0.00    -0.569 C  
BRANCH  21  22
HETATM   22  C   UNL     1     -12.905  15.615  72.861  1.00  0.00    -0.576 C  
HETATM   23  C   UNL     1     -12.647  15.497  74.169  1.00  0.00    -0.743 C  
ENDBRANCH  21  22
ENDBRANCH  20  21
ENDBRANCH  19  20
ENDBRANCH  18  19
ENDBRANCH  17  18
ENDBRANCH  16  17
ENDBRANCH  15  16
ENDBRANCH  14  15
ENDBRANCH  11  14
ENDBRANCH   5  10
ENDBRANCH   3   5
ENDBRANCH   2   3
TORSDOF 13
ENDMDL
MODEL        7
REMARK 921   NORMALIZED FREE ENERGY PREDICTED BY IDOCK:   -4.61 KCAL/MOL
REMARK 922        TOTAL FREE ENERGY PREDICTED BY IDOCK:  -10.22 KCAL/MOL
REMARK 923 INTER-LIGAND FREE ENERGY PREDICTED BY IDOCK:   -8.88 KCAL/MOL
REMARK 924 INTRA-LIGAND FREE ENERGY PREDICTED BY IDOCK:   -1.35 KCAL/MOL
REMARK 927      BINDING AFFINITY PREDICTED BY RF-SCORE:    0.00 PKD
ROOT
HETATM    1  C   UNL     1     -12.520  12.935  63.405  1.00  0.00    -0.303 C  
HETATM    2  O   UNL     1     -12.880  13.198  64.760  1.00  0.00    -0.701 OA 
ENDROOT
BRANCH   2   3
HETATM    3  C   UNL     1     -12.040  12.681  65.700  1.00  0.00    -0.443 C  
HETATM    4  O   UNL     1     -12.383  12.030  66.680  1.00  0.00    -0.354 OA 
BRANCH   3   5
HETATM    5  C   UNL     1     -10.589  13.013  65.338  1.00  0.00    -0.292 C  
BRANCH   5   6
HETATM    6  C   UNL     1      -9.669  11.794  65.488  1.00  0.00    -0.248 C  
HETATM    7  C   UNL     1      -9.516  11.290  62.989  1.00  0.00    -0.385 C  
HETATM    8  C   UNL     1      -8.847   9.563  64.669  1.00  0.00    -0.250 C  
HETATM    9  C   UNL     1      -9.800  10.729  64.383  1.00  0.00    -0.374 C  
ENDBRANCH   5   6
BRANCH   5  10
HETATM   10  N   UNL     1     -10.120  14.097  66.201  1.00  0.00    -0.302 N  
HETATM   11  C   UNL     1     -10.186  15.407  65.790  1.00  0.00    -0.354 C  
HETATM   12  H   UNL     1      -9.738  13.878  67.121  1.00  0.00     0.000 HD 
HETATM   13  O   UNL     1     -10.637  15.759  64.706  1.00  0.00    -0.504 OA 
BRANCH  11  14
HETATM   14  C   UNL     1      -9.611  16.394  66.776  1.00  0.00    -0.263 C  
BRANCH  14  15
HETATM   15  C   UNL     1     -10.683  16.830  67.774  1.00  0.00    -0.321 C  
BRANCH  15  16
HETATM   16  C   UNL     1     -10.191  16.809  69.222  1.00  0.00    -0.278 C  
BRANCH  16  17
HETATM   17  C   UNL     1     -10.350  15.433  69.866  1.00  0.00    -0.298 C  
BRANCH  17  18
HETATM   18  C   UNL     1     -11.581  14.697  69.348  1.00  0.00    -0.342 C  
BRANCH  18  19
HETATM   19  C   UNL     1     -12.452  14.246  70.519  1.00  0.00    -0.428 C  
BRANCH  19  20
HETATM   20  C   UNL     1     -13.524  15.283  70.845  1.00  0.00    -0.441 C  
BRANCH  20  21
HETATM   21  C   UNL     1     -13.801  15.326  72.348  1.00  0.00    -0.641 C  
BRANCH  21  22
HETATM   22  C   UNL     1     -12.556  15.665  73.112  1.00  0.00    -0.588 C  
HETATM   23  C   UNL     1     -12.386  15.408  74.415  1.00  0.00    -0.766 C  
ENDBRANCH  21  22
ENDBRANCH  20  21
ENDBRANCH  19  20
ENDBRANCH  18  19
ENDBRANCH  17  18
ENDBRANCH  16  17
ENDBRANCH  15  16
ENDBRANCH  14  15
ENDBRANCH  11  14
ENDBRANCH   5  10
ENDBRANCH   3   5
ENDBRANCH   2   3
TORSDOF 13
ENDMDL
MODEL        8
REMARK 921   NORMALIZED FREE ENERGY PREDICTED BY IDOCK:   -4.59 KCAL/MOL
REMARK 922        TOTAL FREE ENERGY PREDICTED BY IDOCK:  -10.19 KCAL/MOL
REMARK 923 INTER-LIGAND FREE ENERGY PREDICTED BY IDOCK:   -8.40 KCAL/MOL
REMARK 924 INTRA-LIGAND FREE ENERGY PREDICTED BY IDOCK:   -1.79 KCAL/MOL
REMARK 927      BINDING AFFINITY PREDICTED BY RF-SCORE:    0.00 PKD
ROOT
HETATM    1  C   UNL     1     -14.371   8.628  71.784  1.00  0.00    -0.391 C  
HETATM    2  O   UNL     1     -13.290   9.359  72.360  1.00  0.00    -0.452 OA 
ENDROOT
BRANCH   2   3
HETATM    3  C   UNL     1     -12.954  10.512  71.716  1.00  0.00    -0.476 C  
HETATM    4  O   UNL     1     -13.386  11.627  71.983  1.00  0.00    -0.481 OA 
BRANCH   3   5
HETATM    5  C   UNL     1     -11.929  10.214  70.618  1.00  0.00    -0.332 C  
BRANCH   5   6
HETATM    6  C   UNL     1     -10.770   9.352  71.136  1.00  0.00    -0.417 C  
HETATM    7  C   UNL     1     -10.303   8.198  68.906  1.00  0.00    -0.225 C  
HETATM    8  C   UNL     1      -9.395   7.249  71.034  1.00  0.00    -0.158 C  
HETATM    9  C   UNL     1     -10.563   8.014  70.402  1.00  0.00    -0.224 C  
ENDBRANCH   5   6
BRANCH   5  10
HETATM   10  N   UNL     1     -11.411  11.478  70.095  1.00  0.00    -0.496 N  
HETATM   11  C   UNL     1     -11.558  11.809  68.769  1.00  0.00    -0.307 C  
HETATM   12  H   UNL     1     -10.934  12.125  70.724  1.00  0.00     0.000 HD 
HETATM   13  O   UNL     1     -12.124  11.096  67.948  1.00  0.00    -0.627 OA 
BRANCH  11  14
HETATM   14  C   UNL     1     -10.920  13.121  68.384  1.00  0.00    -0.287 C  
BRANCH  14  15
HETATM   15  C   UNL     1     -11.910  14.268  68.579  1.00  0.00    -0.382 C  
BRANCH  15  16
HETATM   16  C   UNL     1     -11.373  15.609  68.077  1.00  0.00    -0.324 C  
BRANCH  16  17
HETATM   17  C   UNL     1     -10.120  15.445  67.220  1.00  0.00    -0.238 C  
BRANCH  17  18
HETATM   18  C   UNL     1     -10.367  15.828  65.764  1.00  0.00    -0.390 C  
BRANCH  18  19
HETATM   19  C   UNL     1     -10.538  14.569  64.915  1.00  0.00    -0.450 C  
BRANCH  19  20
HETATM   20  C   UNL     1     -12.010  14.190  64.773  1.00  0.00    -0.441 C  
BRANCH  20  21
HETATM   21  C   UNL     1     -12.187  12.672  64.806  1.00  0.00    -0.528 C  
BRANCH  21  22
HETATM   22  C   UNL     1     -10.960  11.978  64.296  1.00  0.00    -0.401 C  
HETATM   23  C   UNL     1     -10.466  10.850  64.821  1.00  0.00    -0.373 C  
ENDBRANCH  21  22
ENDBRANCH  20  21
ENDBRANCH  19  20
ENDBRANCH  18  19
ENDBRANCH  17  18
ENDBRANCH  16  17
ENDBRANCH  15  16
ENDBRANCH  14  15
ENDBRANCH  11  14
ENDBRANCH   5  10
ENDBRANCH   3   5
ENDBRANCH   2   3
TORSDOF 13
ENDMDL
MODEL        9
REMARK 921   NORMALIZED FREE ENERGY PREDICTED BY IDOCK:   -4.55 KCAL/MOL
REMARK 922        TOTAL FREE ENERGY PREDICTED BY IDOCK:  -10.11 KCAL/MOL
REMARK 923 INTER-LIGAND FREE ENERGY PREDICTED BY IDOCK:   -8.68 KCAL/MOL
REMARK 924 INTRA-LIGAND FREE ENERGY PREDICTED BY IDOCK:   -1.44 KCAL/MOL
REMARK 927      BINDING AFFINITY PREDICTED BY RF-SCORE:    0.00 PKD
ROOT
HETATM    1  C   UNL     1     -12.713  12.428  63.584  1.00  0.00    -0.354 C  
HETATM    2  O   UNL     1     -12.916  12.752  64.958  1.00  0.00    -0.811 OA 
ENDROOT
BRANCH   2   3
HETATM    3  C   UNL     1     -11.918  12.368  65.803  1.00  0.00    -0.372 C  
HETATM    4  O   UNL     1     -12.076  11.845  66.900  1.00  0.00    -0.599 OA 
BRANCH   3   5
HETATM    5  C   UNL     1     -10.557  12.665  65.166  1.00  0.00    -0.298 C  
BRANCH   5   6
HETATM    6  C   UNL     1      -9.597  11.474  65.287  1.00  0.00    -0.244 C  
HETATM    7  C   UNL     1      -9.287  11.151  62.772  1.00  0.00    -0.377 C  
HETATM    8  C   UNL     1      -8.640   9.338  64.368  1.00  0.00    -0.216 C  
HETATM    9  C   UNL     1      -9.623  10.484  64.107  1.00  0.00    -0.369 C  
ENDBRANCH   5   6
BRANCH   5  10
HETATM   10  N   UNL     1      -9.974  13.839  65.817  1.00  0.00    -0.391 N  
HETATM   11  C   UNL     1     -10.277  15.109  65.388  1.00  0.00    -0.372 C  
HETATM   12  H   UNL     1      -9.333  13.713  66.601  1.00  0.00     0.000 HD 
HETATM   13  O   UNL     1     -11.041  15.350  64.460  1.00  0.00    -0.357 OA 
BRANCH  11  14
HETATM   14  C   UNL     1      -9.549  16.203  66.131  1.00  0.00    -0.359 C  
BRANCH  14  15
HETATM   15  C   UNL     1     -10.365  16.653  67.341  1.00  0.00    -0.292 C  
BRANCH  15  16
HETATM   16  C   UNL     1      -9.510  17.319  68.420  1.00  0.00    -0.283 C  
BRANCH  16  17
HETATM   17  C   UNL     1      -9.976  18.739  68.734  1.00  0.00    -0.442 C  
BRANCH  17  18
HETATM   18  C   UNL     1     -10.572  19.429  67.511  1.00  0.00    -0.591 C  
BRANCH  18  19
HETATM   19  C   UNL     1      -9.670  20.580  67.069  1.00  0.00    -0.548 C  
BRANCH  19  20
HETATM   20  C   UNL     1      -8.347  20.064  66.508  1.00  0.00    -0.353 C  
BRANCH  20  21
HETATM   21  C   UNL     1      -7.163  20.758  67.181  1.00  0.00    -0.394 C  
BRANCH  21  22
HETATM   22  C   UNL     1      -6.467  19.829  68.131  1.00  0.00    -0.285 C  
HETATM   23  C   UNL     1      -6.595  19.888  69.463  1.00  0.00    -0.372 C  
ENDBRANCH  21  22
ENDBRANCH  20  21
ENDBRANCH  19  20
ENDBRANCH  18  19
ENDBRANCH  17  18
ENDBRANCH  16  17
ENDBRANCH  15  16
ENDBRANCH  14  15
ENDBRANCH  11  14
ENDBRANCH   5  10
ENDBRANCH   3   5
ENDBRANCH   2   3
TORSDOF 13
ENDMDL
MODEL       10
REMARK 921   NORMALIZED FREE ENERGY PREDICTED BY IDOCK:   -4.53 KCAL/MOL
REMARK 922        TOTAL FREE ENERGY PREDICTED BY IDOCK:  -10.08 KCAL/MOL
REMARK 923 INTER-LIGAND FREE ENERGY PREDICTED BY IDOCK:   -8.75 KCAL/MOL
REMARK 924 INTRA-LIGAND FREE ENERGY PREDICTED BY IDOCK:   -1.33 KCAL/MOL
REMARK 927      BINDING AFFINITY PREDICTED BY RF-SCORE:    0.00 PKD
ROOT
HETATM    1  C   UNL     1     -12.611  11.893  63.457  1.00  0.00    -0.459 C  
HETATM    2  O   UNL     1     -13.088  12.386  64.707  1.00  0.00    -0.806 OA 
ENDROOT
BRANCH   2   3
HETATM    3  C   UNL     1     -12.544  13.567  65.117  1.00  0.00    -0.436 C  
HETATM    4  O   UNL     1     -12.564  14.616  64.485  1.00  0.00    -0.626 OA 
BRANCH   3   5
HETATM    5  C   UNL     1     -11.921  13.396  66.506  1.00  0.00    -0.400 C  
BRANCH   5   6
HETATM    6  C   UNL     1     -11.220  14.677  66.979  1.00  0.00    -0.348 C  
HETATM    7  C   UNL     1     -11.669  14.300  69.465  1.00  0.00    -0.366 C  
HETATM    8  C   UNL     1     -10.989  16.557  68.632  1.00  0.00    -0.344 C  
HETATM    9  C   UNL     1     -11.758  15.277  68.292  1.00  0.00    -0.320 C  
ENDBRANCH   5   6
BRANCH   5  10
HETATM   10  N   UNL     1     -10.961  12.293  66.463  1.00  0.00    -0.266 N  
HETATM   11  C   UNL     1     -11.101  11.201  67.287  1.00  0.00    -0.302 C  
HETATM   12  H   UNL     1     -10.176  12.334  65.813  1.00  0.00     0.000 HD 
HETATM   13  O   UNL     1     -12.017  11.067  68.090  1.00  0.00    -0.610 OA 
BRANCH  11  14
HETATM   14  C   UNL     1      -9.997  10.181  67.155  1.00  0.00    -0.243 C  
BRANCH  14  15
HETATM   15  C   UNL     1     -10.363   8.905  67.909  1.00  0.00    -0.286 C  
BRANCH  15  16
HETATM   16  C   UNL     1     -10.501   7.690  66.990  1.00  0.00    -0.419 C  
BRANCH  16  17
HETATM   17  C   UNL     1     -11.073   6.476  67.719  1.00  0.00    -0.366 C  
BRANCH  17  18
HETATM   18  C   UNL     1     -10.027   5.785  68.589  1.00  0.00    -0.201 C  
BRANCH  18  19
HETATM   19  C   UNL     1     -10.575   5.580  70.000  1.00  0.00    -0.384 C  
BRANCH  19  20
HETATM   20  C   UNL     1     -11.760   6.501  70.275  1.00  0.00    -0.430 C  
BRANCH  20  21
HETATM   21  C   UNL     1     -11.781   6.941  71.739  1.00  0.00    -0.338 C  
BRANCH  21  22
HETATM   22  C   UNL     1     -11.483   8.405  71.863  1.00  0.00    -0.384 C  
HETATM   23  C   UNL     1     -10.262   8.935  71.711  1.00  0.00    -0.414 C  
ENDBRANCH  21  22
ENDBRANCH  20  21
ENDBRANCH  19  20
ENDBRANCH  18  19
ENDBRANCH  17  18
ENDBRANCH  16  17
ENDBRANCH  15  16
ENDBRANCH  14  15
ENDBRANCH  11  14
ENDBRANCH   5  10
ENDBRANCH   3   5
ENDBRANCH   2   3
TORSDOF 13
ENDMDL
MODEL       11
REMARK 921   NORMALIZED FREE ENERGY PREDICTED BY IDOCK:   -4.51 KCAL/MOL
REMARK 922        TOTAL FREE ENERGY PREDICTED BY IDOCK:  -10.05 KCAL/MOL
REMARK 923 INTER-LIGAND FREE ENERGY PREDICTED BY IDOCK:   -8.14 KCAL/MOL
REMARK 924 INTRA-LIGAND FREE ENERGY PREDICTED BY IDOCK:   -1.91 KCAL/MOL
REMARK 927      BINDING AFFINITY PREDICTED BY RF-SCORE:    0.00 PKD
ROOT
HETATM    1  C   UNL     1     -12.287  11.799  70.816  1.00  0.00    -0.337 C  
HETATM    2  O   UNL     1     -11.938  12.608  69.695  1.00  0.00    -0.315 OA 
ENDROOT
BRANCH   2   3
HETATM    3  C   UNL     1     -11.881  11.957  68.498  1.00  0.00    -0.297 C  
HETATM    4  O   UNL     1     -11.993  10.747  68.341  1.00  0.00    -0.508 OA 
BRANCH   3   5
HETATM    5  C   UNL     1     -11.683  12.970  67.366  1.00  0.00    -0.374 C  
BRANCH   5   6
HETATM    6  C   UNL     1     -11.597  12.285  65.996  1.00  0.00    -0.451 C  
HETATM    7  C   UNL     1     -12.141  14.380  64.640  1.00  0.00    -0.485 C  
HETATM    8  C   UNL     1     -12.309  12.117  63.590  1.00  0.00    -0.673 C  
HETATM    9  C   UNL     1     -12.472  12.909  64.891  1.00  0.00    -0.540 C  
ENDBRANCH   5   6
BRANCH   5  10
HETATM   10  N   UNL     1     -10.458  13.729  67.618  1.00  0.00    -0.240 N  
HETATM   11  C   UNL     1     -10.505  15.070  67.917  1.00  0.00    -0.247 C  
HETATM   12  H   UNL     1      -9.555  13.256  67.572  1.00  0.00     0.000 HD 
HETATM   13  O   UNL     1     -11.546  15.712  68.001  1.00  0.00    -0.332 OA 
BRANCH  11  14
HETATM   14  C   UNL     1      -9.151  15.712  68.094  1.00  0.00    -0.181 C  
BRANCH  14  15
HETATM   15  C   UNL     1      -8.306  15.519  66.836  1.00  0.00    -0.290 C  
BRANCH  15  16
HETATM   16  C   UNL     1      -7.003  16.319  66.867  1.00  0.00    -0.226 C  
BRANCH  16  17
HETATM   17  C   UNL     1      -7.135  17.666  66.160  1.00  0.00    -0.347 C  
BRANCH  17  18
HETATM   18  C   UNL     1      -6.449  18.788  66.932  1.00  0.00    -0.197 C  
BRANCH  18  19
HETATM   19  C   UNL     1      -7.299  19.190  68.136  1.00  0.00    -0.304 C  
BRANCH  19  20
HETATM   20  C   UNL     1      -8.521  19.998  67.708  1.00  0.00    -0.338 C  
BRANCH  20  21
HETATM   21  C   UNL     1      -9.801  19.403  68.296  1.00  0.00    -0.500 C  
BRANCH  21  22
HETATM   22  C   UNL     1     -10.808  19.130  67.220  1.00  0.00    -0.529 C  
HETATM   23  C   UNL     1     -10.518  18.532  66.058  1.00  0.00    -0.433 C  
ENDBRANCH  21  22
ENDBRANCH  20  21
ENDBRANCH  19  20
ENDBRANCH  18  19
ENDBRANCH  17  18
ENDBRANCH  16  17
ENDBRANCH  15  16
ENDBRANCH  14  15
ENDBRANCH  11  14
ENDBRANCH   5  10
ENDBRANCH   3   5
ENDBRANCH   2   3
TORSDOF 13
ENDMDL
MODEL       12
REMARK 921   NORMALIZED FREE ENERGY PREDICTED BY IDOCK:   -4.49 KCAL/MOL
REMARK 922        TOTAL FREE ENERGY PREDICTED BY IDOCK:  -10.00 KCAL/MOL
REMARK 923 INTER-LIGAND FREE ENERGY PREDICTED BY IDOCK:   -9.07 KCAL/MOL
REMARK 924 INTRA-LIGAND FREE ENERGY PREDICTED BY IDOCK:   -0.93 KCAL/MOL
REMARK 927      BINDING AFFINITY PREDICTED BY RF-SCORE:    0.00 PKD
ROOT
HETATM    1  C   UNL     1     -10.529  18.385  65.864  1.00  0.00    -0.321 C  
HETATM    2  O   UNL     1     -10.101  17.059  65.560  1.00  0.00    -0.577 OA 
ENDROOT
BRANCH   2   3
HETATM    3  C   UNL     1     -10.989  16.305  64.851  1.00  0.00    -0.307 C  
HETATM    4  O   UNL     1     -11.596  16.674  63.853  1.00  0.00    -1.204 OA 
BRANCH   3   5
HETATM    5  C   UNL     1     -11.097  14.909  65.472  1.00  0.00    -0.352 C  
BRANCH   5   6
HETATM    6  C   UNL     1     -12.015  13.989  64.656  1.00  0.00    -0.449 C  
HETATM    7  C   UNL     1     -10.880  11.815  65.369  1.00  0.00    -0.347 C  
HETATM    8  C   UNL     1     -12.392  11.857  63.378  1.00  0.00    -0.577 C  
HETATM    9  C   UNL     1     -11.379  12.662  64.198  1.00  0.00    -0.439 C  
ENDBRANCH   5   6
BRANCH   5  10
HETATM   10  N   UNL     1     -11.610  15.036  66.837  1.00  0.00    -0.282 N  
HETATM   11  C   UNL     1     -10.758  15.028  67.916  1.00  0.00    -0.268 C  
HETATM   12  H   UNL     1     -12.614  15.133  66.990  1.00  0.00     0.000 HD 
HETATM   13  O   UNL     1      -9.540  14.924  67.822  1.00  0.00    -0.205 OA 
BRANCH  11  14
HETATM   14  C   UNL     1     -11.454  15.113  69.253  1.00  0.00    -0.327 C  
BRANCH  14  15
HETATM   15  C   UNL     1     -12.124  13.781  69.585  1.00  0.00    -0.392 C  
BRANCH  15  16
HETATM   16  C   UNL     1     -11.226  12.576  69.299  1.00  0.00    -0.256 C  
BRANCH  16  17
HETATM   17  C   UNL     1     -12.022  11.278  69.177  1.00  0.00    -0.405 C  
BRANCH  17  18
HETATM   18  C   UNL     1     -11.143  10.047  69.370  1.00  0.00    -0.265 C  
BRANCH  18  19
HETATM   19  C   UNL     1     -11.001   9.734  70.859  1.00  0.00    -0.411 C  
BRANCH  19  20
HETATM   20  C   UNL     1     -12.363   9.525  71.515  1.00  0.00    -0.465 C  
BRANCH  20  21
HETATM   21  C   UNL     1     -12.293   8.427  72.576  1.00  0.00    -0.358 C  
BRANCH  21  22
HETATM   22  C   UNL     1     -10.892   7.915  72.726  1.00  0.00    -0.451 C  
HETATM   23  C   UNL     1     -10.524   6.995  73.628  1.00  0.00    -0.414 C  
ENDBRANCH  21  22
ENDBRANCH  20  21
ENDBRANCH  19  20
ENDBRANCH  18  19
ENDBRANCH  17  18
ENDBRANCH  16  17
ENDBRANCH  15  16
ENDBRANCH  14  15
ENDBRANCH  11  14
ENDBRANCH   5  10
ENDBRANCH   3   5
ENDBRANCH   2   3
TORSDOF 13
ENDMDL
MODEL       13
REMARK 921   NORMALIZED FREE ENERGY PREDICTED BY IDOCK:   -4.46 KCAL/MOL
REMARK 922        TOTAL FREE ENERGY PREDICTED BY IDOCK:   -9.95 KCAL/MOL
REMARK 923 INTER-LIGAND FREE ENERGY PREDICTED BY IDOCK:   -7.88 KCAL/MOL
REMARK 924 INTRA-LIGAND FREE ENERGY PREDICTED BY IDOCK:   -2.07 KCAL/MOL
REMARK 927      BINDING AFFINITY PREDICTED BY RF-SCORE:    0.00 PKD
ROOT
HETATM    1  C   UNL     1     -11.849  15.112  64.364  1.00  0.00    -0.305 C  
HETATM    2  O   UNL     1     -12.893  14.334  64.945  1.00  0.00    -0.680 OA 
ENDROOT
BRANCH   2   3
HETATM    3  C   UNL     1     -12.637  13.000  65.057  1.00  0.00    -0.454 C  
HETATM    4  O   UNL     1     -13.220  12.110  64.448  1.00  0.00    -0.758 OA 
BRANCH   3   5
HETATM    5  C   UNL     1     -11.487  12.774  66.043  1.00  0.00    -0.350 C  
BRANCH   5   6
HETATM    6  C   UNL     1     -11.045  11.304  66.078  1.00  0.00    -0.181 C  
HETATM    7  C   UNL     1      -8.555  11.803  66.354  1.00  0.00    -0.113 C  
HETATM    8  C   UNL     1      -9.317   9.533  65.636  1.00  0.00    -0.302 C  
HETATM    9  C   UNL     1      -9.617  11.033  65.568  1.00  0.00    -0.263 C  
ENDBRANCH   5   6
BRANCH   5  10
HETATM   10  N   UNL     1     -11.916  13.194  67.377  1.00  0.00    -0.356 N  
HETATM   11  C   UNL     1     -11.280  14.220  68.034  1.00  0.00    -0.280 C  
HETATM   12  H   UNL     1     -12.699  12.718  67.827  1.00  0.00     0.000 HD 
HETATM   13  O   UNL     1     -10.339  14.849  67.565  1.00  0.00    -0.237 OA 
BRANCH  11  14
HETATM   14  C   UNL     1     -11.812  14.490  69.421  1.00  0.00    -0.367 C  
BRANCH  14  15
HETATM   15  C   UNL     1     -11.949  13.182  70.197  1.00  0.00    -0.381 C  
BRANCH  15  16
HETATM   16  C   UNL     1     -12.879  13.304  71.406  1.00  0.00    -0.411 C  
BRANCH  16  17
HETATM   17  C   UNL     1     -13.283  11.941  71.964  1.00  0.00    -0.461 C  
BRANCH  17  18
HETATM   18  C   UNL     1     -12.952  10.806  71.000  1.00  0.00    -0.425 C  
BRANCH  18  19
HETATM   19  C   UNL     1     -12.290   9.655  71.756  1.00  0.00    -0.474 C  
BRANCH  19  20
HETATM   20  C   UNL     1     -11.139   9.054  70.953  1.00  0.00    -0.343 C  
BRANCH  20  21
HETATM   21  C   UNL     1     -10.948   9.800  69.632  1.00  0.00    -0.269 C  
BRANCH  21  22
HETATM   22  C   UNL     1      -9.502  10.123  69.404  1.00  0.00    -0.240 C  
HETATM   23  C   UNL     1      -8.499   9.623  70.137  1.00  0.00    -0.231 C  
ENDBRANCH  21  22
ENDBRANCH  20  21
ENDBRANCH  19  20
ENDBRANCH  18  19
ENDBRANCH  17  18
ENDBRANCH  16  17
ENDBRANCH  15  16
ENDBRANCH  14  15
ENDBRANCH  11  14
ENDBRANCH   5  10
ENDBRANCH   3   5
ENDBRANCH   2   3
TORSDOF 13
ENDMDL
MODEL       14
REMARK 921   NORMALIZED FREE ENERGY PREDICTED BY IDOCK:   -4.45 KCAL/MOL
REMARK 922        TOTAL FREE ENERGY PREDICTED BY IDOCK:   -9.95 KCAL/MOL
REMARK 923 INTER-LIGAND FREE ENERGY PREDICTED BY IDOCK:   -8.51 KCAL/MOL
REMARK 924 INTRA-LIGAND FREE ENERGY PREDICTED BY IDOCK:   -1.44 KCAL/MOL
REMARK 927      BINDING AFFINITY PREDICTED BY RF-SCORE:    0.00 PKD
ROOT
HETATM    1  C   UNL     1     -12.667  11.918  63.495  1.00  0.00    -0.405 C  
HETATM    2  O   UNL     1     -12.953  12.462  64.782  1.00  0.00    -0.786 OA 
ENDROOT
BRANCH   2   3
HETATM    3  C   UNL     1     -12.551  13.751  64.975  1.00  0.00    -0.389 C  
HETATM    4  O   UNL     1     -12.731  14.676  64.193  1.00  0.00    -0.738 OA 
BRANCH   3   5
HETATM    5  C   UNL     1     -11.859  13.880  66.335  1.00  0.00    -0.411 C  
BRANCH   5   6
HETATM    6  C   UNL     1     -10.426  14.412  66.199  1.00  0.00    -0.295 C  
HETATM    7  C   UNL     1     -10.761  16.419  67.743  1.00  0.00    -0.328 C  
HETATM    8  C   UNL     1      -8.799  16.329  66.195  1.00  0.00    -0.362 C  
HETATM    9  C   UNL     1     -10.268  15.934  66.379  1.00  0.00    -0.311 C  
ENDBRANCH   5   6
BRANCH   5  10
HETATM   10  N   UNL     1     -11.841  12.569  66.985  1.00  0.00    -0.369 N  
HETATM   11  C   UNL     1     -11.904  12.457  68.353  1.00  0.00    -0.309 C  
HETATM   12  H   UNL     1     -11.781  11.725  66.414  1.00  0.00     0.000 HD 
HETATM   13  O   UNL     1     -11.985  13.416  69.112  1.00  0.00    -0.317 OA 
BRANCH  11  14
HETATM   14  C   UNL     1     -11.819  11.038  68.862  1.00  0.00    -0.378 C  
BRANCH  14  15
HETATM   15  C   UNL     1     -10.524  10.383  68.387  1.00  0.00    -0.216 C  
BRANCH  15  16
HETATM   16  C   UNL     1     -10.766   9.213  67.431  1.00  0.00    -0.247 C  
BRANCH  16  17
HETATM   17  C   UNL     1     -10.075   7.934  67.896  1.00  0.00    -0.240 C  
BRANCH  17  18
HETATM   18  C   UNL     1     -10.259   7.693  69.390  1.00  0.00    -0.206 C  
BRANCH  18  19
HETATM   19  C   UNL     1     -11.281   6.581  69.619  1.00  0.00    -0.446 C  
BRANCH  19  20
HETATM   20  C   UNL     1     -12.157   6.873  70.834  1.00  0.00    -0.424 C  
BRANCH  20  21
HETATM   21  C   UNL     1     -11.759   8.198  71.486  1.00  0.00    -0.325 C  
BRANCH  21  22
HETATM   22  C   UNL     1     -12.952   8.881  72.083  1.00  0.00    -0.473 C  
HETATM   23  C   UNL     1     -13.188  10.196  71.985  1.00  0.00    -0.534 C  
ENDBRANCH  21  22
ENDBRANCH  20  21
ENDBRANCH  19  20
ENDBRANCH  18  19
ENDBRANCH  17  18
ENDBRANCH  16  17
ENDBRANCH  15  16
ENDBRANCH  14  15
ENDBRANCH  11  14
ENDBRANCH   5  10
ENDBRANCH   3   5
ENDBRANCH   2   3
TORSDOF 13
ENDMDL
MODEL       15
REMARK 921   NORMALIZED FREE ENERGY PREDICTED BY IDOCK:   -4.45 KCAL/MOL
REMARK 922        TOTAL FREE ENERGY PREDICTED BY IDOCK:   -9.94 KCAL/MOL
REMARK 923 INTER-LIGAND FREE ENERGY PREDICTED BY IDOCK:   -8.27 KCAL/MOL
REMARK 924 INTRA-LIGAND FREE ENERGY PREDICTED BY IDOCK:   -1.67 KCAL/MOL
REMARK 927      BINDING AFFINITY PREDICTED BY RF-SCORE:    0.00 PKD
ROOT
HETATM    1  C   UNL     1     -10.894   7.794  72.762  1.00  0.00    -0.379 C  
HETATM    2  O   UNL     1     -11.028   8.876  71.843  1.00  0.00    -0.336 OA 
ENDROOT
BRANCH   2   3
HETATM    3  C   UNL     1     -12.283   9.395  71.729  1.00  0.00    -0.390 C  
HETATM    4  O   UNL     1     -13.312   8.863  72.129  1.00  0.00    -0.378 OA 
BRANCH   3   5
HETATM    5  C   UNL     1     -12.218  10.765  71.046  1.00  0.00    -0.380 C  
BRANCH   5   6
HETATM    6  C   UNL     1     -13.390  11.666  71.458  1.00  0.00    -0.148 C  
HETATM    7  C   UNL     1     -12.381  13.821  70.531  1.00  0.00    -0.429 C  
HETATM    8  C   UNL     1     -14.277  13.912  72.159  1.00  0.00    -0.595 C  
HETATM    9  C   UNL     1     -13.025  13.136  71.737  1.00  0.00    -0.435 C  
ENDBRANCH   5   6
BRANCH   5  10
HETATM   10  N   UNL     1     -12.226  10.573  69.596  1.00  0.00    -0.530 N  
HETATM   11  C   UNL     1     -11.091  10.777  68.848  1.00  0.00    -0.253 C  
HETATM   12  H   UNL     1     -13.088  10.283  69.132  1.00  0.00     0.000 HD 
HETATM   13  O   UNL     1     -10.014  11.118  69.325  1.00  0.00    -0.139 OA 
BRANCH  11  14
HETATM   14  C   UNL     1     -11.286  10.589  67.364  1.00  0.00    -0.249 C  
BRANCH  14  15
HETATM   15  C   UNL     1      -9.959  10.770  66.629  1.00  0.00    -0.251 C  
BRANCH  15  16
HETATM   16  C   UNL     1     -10.057  10.451  65.137  1.00  0.00    -0.379 C  
BRANCH  16  17
HETATM   17  C   UNL     1     -10.107  11.712  64.278  1.00  0.00    -0.328 C  
BRANCH  17  18
HETATM   18  C   UNL     1     -11.308  11.718  63.337  1.00  0.00    -0.437 C  
BRANCH  18  19
HETATM   19  C   UNL     1     -12.525  12.309  64.047  1.00  0.00    -0.556 C  
BRANCH  19  20
HETATM   20  C   UNL     1     -12.261  13.743  64.500  1.00  0.00    -0.441 C  
BRANCH  20  21
HETATM   21  C   UNL     1     -12.288  13.845  66.026  1.00  0.00    -0.511 C  
BRANCH  21  22
HETATM   22  C   UNL     1     -11.184  14.729  66.524  1.00  0.00    -0.342 C  
HETATM   23  C   UNL     1     -10.312  15.358  65.725  1.00  0.00    -0.381 C  
ENDBRANCH  21  22
ENDBRANCH  20  21
ENDBRANCH  19  20
ENDBRANCH  18  19
ENDBRANCH  17  18
ENDBRANCH  16  17
ENDBRANCH  15  16
ENDBRANCH  14  15
ENDBRANCH  11  14
ENDBRANCH   5  10
ENDBRANCH   3   5
ENDBRANCH   2   3
TORSDOF 13
ENDMDL
MODEL       16
REMARK 921   NORMALIZED FREE ENERGY PREDICTED BY IDOCK:   -4.43 KCAL/MOL
REMARK 922        TOTAL FREE ENERGY PREDICTED BY IDOCK:   -9.90 KCAL/MOL
REMARK 923 INTER-LIGAND FREE ENERGY PREDICTED BY IDOCK:   -8.47 KCAL/MOL
REMARK 924 INTRA-LIGAND FREE ENERGY PREDICTED BY IDOCK:   -1.43 KCAL/MOL
REMARK 927      BINDING AFFINITY PREDICTED BY RF-SCORE:    0.00 PKD
ROOT
HETATM    1  C   UNL     1      -6.406  17.085  67.202  1.00  0.00    -0.180 C  
HETATM    2  O   UNL     1      -7.385  16.993  66.170  1.00  0.00    -0.281 OA 
ENDROOT
BRANCH   2   3
HETATM    3  C   UNL     1      -8.393  16.103  66.396  1.00  0.00    -0.322 C  
HETATM    4  O   UNL     1      -8.252  14.967  66.833  1.00  0.00    -0.213 OA 
BRANCH   3   5
HETATM    5  C   UNL     1      -9.739  16.744  66.048  1.00  0.00    -0.259 C  
BRANCH   5   6
HETATM    6  C   UNL     1     -10.268  17.622  67.190  1.00  0.00    -0.342 C  
HETATM    7  C   UNL     1     -10.533  19.732  65.776  1.00  0.00    -0.545 C  
HETATM    8  C   UNL     1     -10.524  19.877  68.272  1.00  0.00    -0.436 C  
HETATM    9  C   UNL     1      -9.964  19.127  67.059  1.00  0.00    -0.423 C  
ENDBRANCH   5   6
BRANCH   5  10
HETATM   10  N   UNL     1     -10.705  15.686  65.749  1.00  0.00    -0.336 N  
HETATM   11  C   UNL     1     -11.515  15.760  64.640  1.00  0.00    -0.282 C  
HETATM   12  H   UNL     1     -10.779  14.882  66.372  1.00  0.00     0.000 HD 
HETATM   13  O   UNL     1     -11.486  16.685  63.836  1.00  0.00    -1.186 OA 
BRANCH  11  14
HETATM   14  C   UNL     1     -12.490  14.616  64.509  1.00  0.00    -0.312 C  
BRANCH  14  15
HETATM   15  C   UNL     1     -12.427  13.724  65.748  1.00  0.00    -0.527 C  
BRANCH  15  16
HETATM   16  C   UNL     1     -12.016  12.287  65.424  1.00  0.00    -0.395 C  
BRANCH  16  17
HETATM   17  C   UNL     1     -11.937  12.032  63.921  1.00  0.00    -0.542 C  
BRANCH  17  18
HETATM   18  C   UNL     1     -10.589  11.449  63.508  1.00  0.00    -0.468 C  
BRANCH  18  19
HETATM   19  C   UNL     1      -9.767  11.103  64.749  1.00  0.00    -0.303 C  
BRANCH  19  20
HETATM   20  C   UNL     1      -9.054   9.763  64.585  1.00  0.00    -0.294 C  
BRANCH  20  21
HETATM   21  C   UNL     1      -9.073   8.973  65.895  1.00  0.00    -0.264 C  
BRANCH  21  22
HETATM   22  C   UNL     1     -10.330   9.243  66.665  1.00  0.00    -0.292 C  
HETATM   23  C   UNL     1     -10.446   9.074  67.989  1.00  0.00    -0.270 C  
ENDBRANCH  21  22
ENDBRANCH  20  21
ENDBRANCH  19  20
ENDBRANCH  18  19
ENDBRANCH  17  18
ENDBRANCH  16  17
ENDBRANCH  15  16
ENDBRANCH  14  15
ENDBRANCH  11  14
ENDBRANCH   5  10
ENDBRANCH   3   5
ENDBRANCH   2   3
TORSDOF 13
ENDMDL
MODEL       17
REMARK 921   NORMALIZED FREE ENERGY PREDICTED BY IDOCK:   -4.42 KCAL/MOL
REMARK 922        TOTAL FREE ENERGY PREDICTED BY IDOCK:   -9.88 KCAL/MOL
REMARK 923 INTER-LIGAND FREE ENERGY PREDICTED BY IDOCK:   -8.72 KCAL/MOL
REMARK 924 INTRA-LIGAND FREE ENERGY PREDICTED BY IDOCK:   -1.16 KCAL/MOL
REMARK 927      BINDING AFFINITY PREDICTED BY RF-SCORE:    0.00 PKD
ROOT
HETATM    1  C   UNL     1     -12.430  12.044  63.604  1.00  0.00    -0.525 C  
HETATM    2  O   UNL     1     -12.819  12.673  64.824  1.00  0.00    -0.730 OA 
ENDROOT
BRANCH   2   3
HETATM    3  C   UNL     1     -12.431  13.973  64.961  1.00  0.00    -0.425 C  
HETATM    4  O   UNL     1     -12.626  14.864  64.144  1.00  0.00    -0.785 OA 
BRANCH   3   5
HETATM    5  C   UNL     1     -11.730  14.164  66.310  1.00  0.00    -0.390 C  
BRANCH   5   6
HETATM    6  C   UNL     1     -10.293  14.674  66.141  1.00  0.00    -0.309 C  
HETATM    7  C   UNL     1     -10.554  16.672  67.710  1.00  0.00    -0.342 C  
HETATM    8  C   UNL     1      -8.636  16.565  66.110  1.00  0.00    -0.334 C  
HETATM    9  C   UNL     1     -10.105  16.192  66.329  1.00  0.00    -0.337 C  
ENDBRANCH   5   6
BRANCH   5  10
HETATM   10  N   UNL     1     -11.722  12.888  67.026  1.00  0.00    -0.371 N  
HETATM   11  C   UNL     1     -11.938  12.837  68.383  1.00  0.00    -0.231 C  
HETATM   12  H   UNL     1     -11.554  12.024  66.511  1.00  0.00     0.000 HD 
HETATM   13  O   UNL     1     -12.155  13.825  69.076  1.00  0.00    -0.346 OA 
BRANCH  11  14
HETATM   14  C   UNL     1     -11.842  11.451  68.972  1.00  0.00    -0.415 C  
BRANCH  14  15
HETATM   15  C   UNL     1     -11.919  11.519  70.496  1.00  0.00    -0.439 C  
BRANCH  15  16
HETATM   16  C   UNL     1     -13.258  11.025  71.046  1.00  0.00    -0.103 C  
BRANCH  16  17
HETATM   17  C   UNL     1     -13.081   9.993  72.158  1.00  0.00    -0.482 C  
BRANCH  17  18
HETATM   18  C   UNL     1     -13.490   8.594  71.712  1.00  0.00    -0.418 C  
BRANCH  18  19
HETATM   19  C   UNL     1     -12.253   7.709  71.565  1.00  0.00    -0.351 C  
BRANCH  19  20
HETATM   20  C   UNL     1     -11.151   8.132  72.532  1.00  0.00    -0.446 C  
BRANCH  20  21
HETATM   21  C   UNL     1     -10.698   6.951  73.392  1.00  0.00    -0.352 C  
BRANCH  21  22
HETATM   22  C   UNL     1     -11.475   5.714  73.055  1.00  0.00    -0.247 C  
HETATM   23  C   UNL     1     -11.278   4.525  73.638  1.00  0.00    -0.346 C  
ENDBRANCH  21  22
ENDBRANCH  20  21
ENDBRANCH  19  20
ENDBRANCH  18  19
ENDBRANCH  17  18
ENDBRANCH  16  17
ENDBRANCH  15  16
ENDBRANCH  14  15
ENDBRANCH  11  14
ENDBRANCH   5  10
ENDBRANCH   3   5
ENDBRANCH   2   3
TORSDOF 13
ENDMDL
MODEL       18
REMARK 921   NORMALIZED FREE ENERGY PREDICTED BY IDOCK:   -4.39 KCAL/MOL
REMARK 922        TOTAL FREE ENERGY PREDICTED BY IDOCK:   -9.84 KCAL/MOL
REMARK 923 INTER-LIGAND FREE ENERGY PREDICTED BY IDOCK:   -8.20 KCAL/MOL
REMARK 924 INTRA-LIGAND FREE ENERGY PREDICTED BY IDOCK:   -1.63 KCAL/MOL
REMARK 927      BINDING AFFINITY PREDICTED BY RF-SCORE:    0.00 PKD
ROOT
HETATM    1  C   UNL     1     -14.403   8.527  71.858  1.00  0.00    -0.448 C  
HETATM    2  O   UNL     1     -13.032   8.752  71.535  1.00  0.00    -0.325 OA 
ENDROOT
BRANCH   2   3
HETATM    3  C   UNL     1     -12.667  10.060  71.414  1.00  0.00    -0.415 C  
HETATM    4  O   UNL     1     -13.095  10.984  72.095  1.00  0.00    -0.460 OA 
BRANCH   3   5
HETATM    5  C   UNL     1     -11.614  10.204  70.311  1.00  0.00    -0.302 C  
BRANCH   5   6
HETATM    6  C   UNL     1     -10.303   9.494  70.675  1.00  0.00    -0.369 C  
HETATM    7  C   UNL     1      -9.911   8.496  68.356  1.00  0.00    -0.208 C  
HETATM    8  C   UNL     1      -8.675   7.608  70.340  1.00  0.00    -0.143 C  
HETATM    9  C   UNL     1      -9.992   8.225  69.859  1.00  0.00    -0.190 C  
ENDBRANCH   5   6
BRANCH   5  10
HETATM   10  N   UNL     1     -11.360  11.626  70.080  1.00  0.00    -0.499 N  
HETATM   11  C   UNL     1     -11.617  12.202  68.858  1.00  0.00    -0.324 C  
HETATM   12  H   UNL     1     -10.987  12.200  70.837  1.00  0.00     0.000 HD 
HETATM   13  O   UNL     1     -12.073  11.589  67.899  1.00  0.00    -0.630 OA 
BRANCH  11  14
HETATM   14  C   UNL     1     -11.248  13.663  68.773  1.00  0.00    -0.314 C  
BRANCH  14  15
HETATM   15  C   UNL     1     -11.702  14.245  67.436  1.00  0.00    -0.422 C  
BRANCH  15  16
HETATM   16  C   UNL     1     -10.542  14.486  66.468  1.00  0.00    -0.297 C  
BRANCH  16  17
HETATM   17  C   UNL     1     -11.017  15.013  65.116  1.00  0.00    -0.417 C  
BRANCH  17  18
HETATM   18  C   UNL     1     -12.349  14.399  64.698  1.00  0.00    -0.435 C  
BRANCH  18  19
HETATM   19  C   UNL     1     -12.153  13.506  63.474  1.00  0.00    -0.425 C  
BRANCH  19  20
HETATM   20  C   UNL     1     -12.255  12.029  63.842  1.00  0.00    -0.555 C  
BRANCH  20  21
HETATM   21  C   UNL     1     -10.885  11.353  63.771  1.00  0.00    -0.468 C  
BRANCH  21  22
HETATM   22  C   UNL     1     -10.379  11.023  65.143  1.00  0.00    -0.346 C  
HETATM   23  C   UNL     1      -9.106  10.708  65.414  1.00  0.00    -0.214 C  
ENDBRANCH  21  22
ENDBRANCH  20  21
ENDBRANCH  19  20
ENDBRANCH  18  19
ENDBRANCH  17  18
ENDBRANCH  16  17
ENDBRANCH  15  16
ENDBRANCH  14  15
ENDBRANCH  11  14
ENDBRANCH   5  10
ENDBRANCH   3   5
ENDBRANCH   2   3
TORSDOF 13
ENDMDL
MODEL       19
REMARK 921   NORMALIZED FREE ENERGY PREDICTED BY IDOCK:   -4.36 KCAL/MOL
REMARK 922        TOTAL FREE ENERGY PREDICTED BY IDOCK:   -9.77 KCAL/MOL
REMARK 923 INTER-LIGAND FREE ENERGY PREDICTED BY IDOCK:   -7.59 KCAL/MOL
REMARK 924 INTRA-LIGAND FREE ENERGY PREDICTED BY IDOCK:   -2.18 KCAL/MOL
REMARK 927      BINDING AFFINITY PREDICTED BY RF-SCORE:    0.00 PKD
ROOT
HETATM    1  C   UNL     1     -11.811  14.953  64.554  1.00  0.00    -0.396 C  
HETATM    2  O   UNL     1     -12.847  14.106  65.048  1.00  0.00    -0.687 OA 
ENDROOT
BRANCH   2   3
HETATM    3  C   UNL     1     -12.652  12.771  64.857  1.00  0.00    -0.470 C  
HETATM    4  O   UNL     1     -13.350  12.043  64.160  1.00  0.00    -0.725 OA 
BRANCH   3   5
HETATM    5  C   UNL     1     -11.408  12.312  65.625  1.00  0.00    -0.350 C  
BRANCH   5   6
HETATM    6  C   UNL     1     -10.837  11.005  65.060  1.00  0.00    -0.194 C  
HETATM    7  C   UNL     1      -8.503  11.307  66.050  1.00  0.00    -0.102 C  
HETATM    8  C   UNL     1      -8.891   9.658  64.212  1.00  0.00    -0.260 C  
HETATM    9  C   UNL     1      -9.320  11.009  64.793  1.00  0.00    -0.239 C  
ENDBRANCH   5   6
BRANCH   5  10
HETATM   10  N   UNL     1     -11.760  12.132  67.033  1.00  0.00    -0.337 N  
HETATM   11  C   UNL     1     -11.273  12.981  67.998  1.00  0.00    -0.278 C  
HETATM   12  H   UNL     1     -12.375  11.364  67.304  1.00  0.00     0.000 HD 
HETATM   13  O   UNL     1     -10.536  13.932  67.760  1.00  0.00    -0.242 OA 
BRANCH  11  14
HETATM   14  C   UNL     1     -11.688  12.622  69.404  1.00  0.00    -0.387 C  
BRANCH  14  15
HETATM   15  C   UNL     1     -12.059  11.143  69.484  1.00  0.00    -0.396 C  
BRANCH  15  16
HETATM   16  C   UNL     1     -11.536  10.467  70.753  1.00  0.00    -0.422 C  
BRANCH  16  17
HETATM   17  C   UNL     1     -10.619   9.286  70.443  1.00  0.00    -0.298 C  
BRANCH  17  18
HETATM   18  C   UNL     1      -9.385   9.710  69.654  1.00  0.00    -0.226 C  
BRANCH  18  19
HETATM   19  C   UNL     1      -9.140   8.735  68.503  1.00  0.00    -0.138 C  
BRANCH  19  20
HETATM   20  C   UNL     1     -10.397   8.547  67.658  1.00  0.00    -0.317 C  
BRANCH  20  21
HETATM   21  C   UNL     1     -10.599   7.074  67.303  1.00  0.00    -0.395 C  
BRANCH  21  22
HETATM   22  C   UNL     1     -11.111   6.304  68.484  1.00  0.00    -0.397 C  
HETATM   23  C   UNL     1     -10.351   5.499  69.238  1.00  0.00    -0.335 C  
ENDBRANCH  21  22
ENDBRANCH  20  21
ENDBRANCH  19  20
ENDBRANCH  18  19
ENDBRANCH  17  18
ENDBRANCH  16  17
ENDBRANCH  15  16
ENDBRANCH  14  15
ENDBRANCH  11  14
ENDBRANCH   5  10
ENDBRANCH   3   5
ENDBRANCH   2   3
TORSDOF 13
ENDMDL
MODEL       20
REMARK 921   NORMALIZED FREE ENERGY PREDICTED BY IDOCK:   -4.36 KCAL/MOL
REMARK 922        TOTAL FREE ENERGY PREDICTED BY IDOCK:   -9.77 KCAL/MOL
REMARK 923 INTER-LIGAND FREE ENERGY PREDICTED BY IDOCK:   -8.17 KCAL/MOL
REMARK 924 INTRA-LIGAND FREE ENERGY PREDICTED BY IDOCK:   -1.60 KCAL/MOL
REMARK 927      BINDING AFFINITY PREDICTED BY RF-SCORE:    0.00 PKD
ROOT
HETATM    1  C   UNL     1     -12.507  11.998  63.647  1.00  0.00    -0.525 C  
HETATM    2  O   UNL     1     -12.738  12.473  64.972  1.00  0.00    -0.649 OA 
ENDROOT
BRANCH   2   3
HETATM    3  C   UNL     1     -12.482  13.797  65.172  1.00  0.00    -0.450 C  
HETATM    4  O   UNL     1     -12.821  14.707  64.425  1.00  0.00    -0.578 OA 
BRANCH   3   5
HETATM    5  C   UNL     1     -11.726  13.986  66.490  1.00  0.00    -0.394 C  
BRANCH   5   6
HETATM    6  C   UNL     1     -10.281  14.449  66.259  1.00  0.00    -0.307 C  
HETATM    7  C   UNL     1     -10.438  16.507  67.763  1.00  0.00    -0.308 C  
HETATM    8  C   UNL     1      -8.574  16.289  66.111  1.00  0.00    -0.342 C  
HETATM    9  C   UNL     1     -10.046  15.966  66.388  1.00  0.00    -0.306 C  
ENDBRANCH   5   6
BRANCH   5  10
HETATM   10  N   UNL     1     -11.730  12.721  67.225  1.00  0.00    -0.369 N  
HETATM   11  C   UNL     1     -11.943  12.692  68.582  1.00  0.00    -0.223 C  
HETATM   12  H   UNL     1     -11.572  11.847  66.722  1.00  0.00     0.000 HD 
HETATM   13  O   UNL     1     -12.148  13.692  69.261  1.00  0.00    -0.334 OA 
BRANCH  11  14
HETATM   14  C   UNL     1     -11.860  11.314  69.192  1.00  0.00    -0.423 C  
BRANCH  14  15
HETATM   15  C   UNL     1     -12.179  11.376  70.684  1.00  0.00    -0.484 C  
BRANCH  15  16
HETATM   16  C   UNL     1     -13.174  10.301  71.125  1.00  0.00    -0.429 C  
BRANCH  16  17
HETATM   17  C   UNL     1     -12.589   9.370  72.184  1.00  0.00    -0.423 C  
BRANCH  17  18
HETATM   18  C   UNL     1     -12.533   7.922  71.707  1.00  0.00    -0.352 C  
BRANCH  18  19
HETATM   19  C   UNL     1     -11.085   7.518  71.432  1.00  0.00    -0.262 C  
BRANCH  19  20
HETATM   20  C   UNL     1     -10.105   8.529  72.021  1.00  0.00    -0.386 C  
BRANCH  20  21
HETATM   21  C   UNL     1      -8.767   8.484  71.283  1.00  0.00    -0.228 C  
BRANCH  21  22
HETATM   22  C   UNL     1      -8.731   9.495  70.177  1.00  0.00    -0.258 C  
HETATM   23  C   UNL     1      -8.869   9.190  68.880  1.00  0.00    -0.139 C  
ENDBRANCH  21  22
ENDBRANCH  20  21
ENDBRANCH  19  20
ENDBRANCH  18  19
ENDBRANCH  17  18
ENDBRANCH  16  17
ENDBRANCH  15  16
ENDBRANCH  14  15
ENDBRANCH  11  14
ENDBRANCH   5  10
ENDBRANCH   3   5
ENDBRANCH   2   3
TORSDOF 13
ENDMDL
MODEL       21
REMARK 921   NORMALIZED FREE ENERGY PREDICTED BY IDOCK:   -4.31 KCAL/MOL
REMARK 922        TOTAL FREE ENERGY PREDICTED BY IDOCK:   -9.70 KCAL/MOL
REMARK 923 INTER-LIGAND FREE ENERGY PREDICTED BY IDOCK:   -8.29 KCAL/MOL
REMARK 924 INTRA-LIGAND FREE ENERGY PREDICTED BY IDOCK:   -1.41 KCAL/MOL
REMARK 927      BINDING AFFINITY PREDICTED BY RF-SCORE:    0.00 PKD
ROOT
HETATM    1  C   UNL     1     -10.390  17.080  67.656  1.00  0.00    -0.332 C  
HETATM    2  O   UNL     1     -11.247  16.529  68.654  1.00  0.00    -0.353 OA 
ENDROOT
BRANCH   2   3
HETATM    3  C   UNL     1     -10.679  15.586  69.458  1.00  0.00    -0.272 C  
HETATM    4  O   UNL     1      -9.477  15.448  69.652  1.00  0.00    -0.264 OA 
BRANCH   3   5
HETATM    5  C   UNL     1     -11.772  14.733  70.109  1.00  0.00    -0.301 C  
BRANCH   5   6
HETATM    6  C   UNL     1     -11.840  14.951  71.626  1.00  0.00    -0.429 C  
HETATM    7  C   UNL     1     -14.384  14.783  71.785  1.00  0.00    -0.656 C  
HETATM    8  C   UNL     1     -13.063  15.778  73.661  1.00  0.00    -0.610 C  
HETATM    9  C   UNL     1     -13.140  15.598  72.142  1.00  0.00    -0.540 C  
ENDBRANCH   5   6
BRANCH   5  10
HETATM   10  N   UNL     1     -11.508  13.322  69.822  1.00  0.00    -0.484 N  
HETATM   11  C   UNL     1     -11.863  12.767  68.616  1.00  0.00    -0.304 C  
HETATM   12  H   UNL     1     -11.053  12.743  70.528  1.00  0.00     0.000 HD 
HETATM   13  O   UNL     1     -12.404  13.392  67.711  1.00  0.00    -0.219 OA 
BRANCH  11  14
HETATM   14  C   UNL     1     -11.568  11.291  68.504  1.00  0.00    -0.384 C  
BRANCH  14  15
HETATM   15  C   UNL     1     -10.124  11.008  68.911  1.00  0.00    -0.212 C  
BRANCH  15  16
HETATM   16  C   UNL     1      -9.965   9.683  69.659  1.00  0.00    -0.239 C  
BRANCH  16  17
HETATM   17  C   UNL     1     -10.401   8.487  68.815  1.00  0.00    -0.233 C  
BRANCH  17  18
HETATM   18  C   UNL     1     -10.092   7.160  69.500  1.00  0.00    -0.182 C  
BRANCH  18  19
HETATM   19  C   UNL     1     -11.391   6.415  69.807  1.00  0.00    -0.494 C  
BRANCH  19  20
HETATM   20  C   UNL     1     -11.710   6.450  71.299  1.00  0.00    -0.359 C  
BRANCH  20  21
HETATM   21  C   UNL     1     -12.923   7.338  71.576  1.00  0.00    -0.434 C  
BRANCH  21  22
HETATM   22  C   UNL     1     -12.509   8.623  72.228  1.00  0.00    -0.460 C  
HETATM   23  C   UNL     1     -12.820   9.836  71.754  1.00  0.00    -0.530 C  
ENDBRANCH  21  22
ENDBRANCH  20  21
ENDBRANCH  19  20
ENDBRANCH  18  19
ENDBRANCH  17  18
ENDBRANCH  16  17
ENDBRANCH  15  16
ENDBRANCH  14  15
ENDBRANCH  11  14
ENDBRANCH   5  10
ENDBRANCH   3   5
ENDBRANCH   2   3
TORSDOF 13
ENDMDL
MODEL       22
REMARK 921   NORMALIZED FREE ENERGY PREDICTED BY IDOCK:   -4.29 KCAL/MOL
REMARK 922        TOTAL FREE ENERGY PREDICTED BY IDOCK:   -9.66 KCAL/MOL
REMARK 923 INTER-LIGAND FREE ENERGY PREDICTED BY IDOCK:   -7.84 KCAL/MOL
REMARK 924 INTRA-LIGAND FREE ENERGY PREDICTED BY IDOCK:   -1.82 KCAL/MOL
REMARK 927      BINDING AFFINITY PREDICTED BY RF-SCORE:    0.00 PKD
ROOT
HETATM    1  C   UNL     1     -10.399   8.702  68.139  1.00  0.00    -0.216 C  
HETATM    2  O   UNL     1     -10.128  10.046  67.747  1.00  0.00    -0.166 OA 
ENDROOT
BRANCH   2   3
HETATM    3  C   UNL     1     -11.210  10.874  67.708  1.00  0.00    -0.317 C  
HETATM    4  O   UNL     1     -12.108  10.910  68.541  1.00  0.00    -0.545 OA 
BRANCH   3   5
HETATM    5  C   UNL     1     -11.127  11.779  66.475  1.00  0.00    -0.310 C  
BRANCH   5   6
HETATM    6  C   UNL     1     -10.093  11.270  65.461  1.00  0.00    -0.306 C  
HETATM    7  C   UNL     1     -11.236  12.284  63.414  1.00  0.00    -0.497 C  
HETATM    8  C   UNL     1      -9.505  10.500  63.141  1.00  0.00    -0.367 C  
HETATM    9  C   UNL     1     -10.630  11.026  64.038  1.00  0.00    -0.395 C  
ENDBRANCH   5   6
BRANCH   5  10
HETATM   10  N   UNL     1     -10.777  13.133  66.903  1.00  0.00    -0.262 N  
HETATM   11  C   UNL     1     -11.603  14.197  66.629  1.00  0.00    -0.384 C  
HETATM   12  H   UNL     1      -9.906  13.291  67.412  1.00  0.00     0.000 HD 
HETATM   13  O   UNL     1     -12.668  14.096  66.031  1.00  0.00    -0.469 OA 
BRANCH  11  14
HETATM   14  C   UNL     1     -11.067  15.531  67.091  1.00  0.00    -0.256 C  
BRANCH  14  15
HETATM   15  C   UNL     1     -10.375  16.251  65.936  1.00  0.00    -0.381 C  
BRANCH  15  16
HETATM   16  C   UNL     1      -8.852  16.110  65.976  1.00  0.00    -0.313 C  
BRANCH  16  17
HETATM   17  C   UNL     1      -8.266  16.543  67.318  1.00  0.00    -0.196 C  
BRANCH  17  18
HETATM   18  C   UNL     1      -7.244  17.665  67.163  1.00  0.00    -0.206 C  
BRANCH  18  19
HETATM   19  C   UNL     1      -7.639  18.574  66.000  1.00  0.00    -0.232 C  
BRANCH  19  20
HETATM   20  C   UNL     1      -8.326  19.843  66.496  1.00  0.00    -0.372 C  
BRANCH  20  21
HETATM   21  C   UNL     1      -9.815  19.828  66.149  1.00  0.00    -0.544 C  
BRANCH  21  22
HETATM   22  C   UNL     1     -10.647  19.581  67.371  1.00  0.00    -0.607 C  
HETATM   23  C   UNL     1     -10.172  19.628  68.622  1.00  0.00    -0.498 C  
ENDBRANCH  21  22
ENDBRANCH  20  21
ENDBRANCH  19  20
ENDBRANCH  18  19
ENDBRANCH  17  18
ENDBRANCH  16  17
ENDBRANCH  15  16
ENDBRANCH  14  15
ENDBRANCH  11  14
ENDBRANCH   5  10
ENDBRANCH   3   5
ENDBRANCH   2   3
TORSDOF 13
ENDMDL
MODEL       23
REMARK 921   NORMALIZED FREE ENERGY PREDICTED BY IDOCK:   -4.29 KCAL/MOL
REMARK 922        TOTAL FREE ENERGY PREDICTED BY IDOCK:   -9.65 KCAL/MOL
REMARK 923 INTER-LIGAND FREE ENERGY PREDICTED BY IDOCK:   -8.49 KCAL/MOL
REMARK 924 INTRA-LIGAND FREE ENERGY PREDICTED BY IDOCK:   -1.16 KCAL/MOL
REMARK 927      BINDING AFFINITY PREDICTED BY RF-SCORE:    0.00 PKD
ROOT
HETATM    1  C   UNL     1     -11.522  10.516  69.446  1.00  0.00    -0.262 C  
HETATM    2  O   UNL     1     -11.666  10.843  68.065  1.00  0.00    -0.540 OA 
ENDROOT
BRANCH   2   3
HETATM    3  C   UNL     1     -11.696  12.175  67.779  1.00  0.00    -0.320 C  
HETATM    4  O   UNL     1     -12.058  13.059  68.546  1.00  0.00    -0.297 OA 
BRANCH   3   5
HETATM    5  C   UNL     1     -11.181  12.411  66.356  1.00  0.00    -0.319 C  
BRANCH   5   6
HETATM    6  C   UNL     1     -10.075  11.417  65.976  1.00  0.00    -0.275 C  
HETATM    7  C   UNL     1     -10.232  11.825  63.459  1.00  0.00    -0.483 C  
HETATM    8  C   UNL     1      -9.061   9.799  64.340  1.00  0.00    -0.296 C  
HETATM    9  C   UNL     1     -10.211  10.783  64.578  1.00  0.00    -0.428 C  
ENDBRANCH   5   6
BRANCH   5  10
HETATM   10  N   UNL     1     -10.672  13.780  66.256  1.00  0.00    -0.284 N  
HETATM   11  C   UNL     1     -11.270  14.697  65.425  1.00  0.00    -0.347 C  
HETATM   12  H   UNL     1      -9.863  14.057  66.811  1.00  0.00     0.000 HD 
HETATM   13  O   UNL     1     -12.250  14.451  64.731  1.00  0.00    -0.423 OA 
BRANCH  11  14
HETATM   14  C   UNL     1     -10.589  16.044  65.399  1.00  0.00    -0.428 C  
BRANCH  14  15
HETATM   15  C   UNL     1      -9.751  16.236  66.662  1.00  0.00    -0.266 C  
BRANCH  15  16
HETATM   16  C   UNL     1      -9.832  17.660  67.217  1.00  0.00    -0.303 C  
BRANCH  16  17
HETATM   17  C   UNL     1     -10.165  17.681  68.707  1.00  0.00    -0.373 C  
BRANCH  17  18
HETATM   18  C   UNL     1     -10.235  16.278  69.299  1.00  0.00    -0.269 C  
BRANCH  18  19
HETATM   19  C   UNL     1     -11.609  16.042  69.926  1.00  0.00    -0.301 C  
BRANCH  19  20
HETATM   20  C   UNL     1     -11.495  15.269  71.237  1.00  0.00    -0.431 C  
BRANCH  20  21
HETATM   21  C   UNL     1     -12.212  16.007  72.368  1.00  0.00    -0.603 C  
BRANCH  21  22
HETATM   22  C   UNL     1     -13.229  15.122  73.025  1.00  0.00    -0.604 C  
HETATM   23  C   UNL     1     -13.841  14.102  72.410  1.00  0.00    -0.638 C  
ENDBRANCH  21  22
ENDBRANCH  20  21
ENDBRANCH  19  20
ENDBRANCH  18  19
ENDBRANCH  17  18
ENDBRANCH  16  17
ENDBRANCH  15  16
ENDBRANCH  14  15
ENDBRANCH  11  14
ENDBRANCH   5  10
ENDBRANCH   3   5
ENDBRANCH   2   3
TORSDOF 13
ENDMDL
MODEL       24
REMARK 921   NORMALIZED FREE ENERGY PREDICTED BY IDOCK:   -4.28 KCAL/MOL
REMARK 922        TOTAL FREE ENERGY PREDICTED BY IDOCK:   -9.65 KCAL/MOL
REMARK 923 INTER-LIGAND FREE ENERGY PREDICTED BY IDOCK:   -7.73 KCAL/MOL
REMARK 924 INTRA-LIGAND FREE ENERGY PREDICTED BY IDOCK:   -1.91 KCAL/MOL
REMARK 927      BINDING AFFINITY PREDICTED BY RF-SCORE:    0.00 PKD
ROOT
HETATM    1  C   UNL     1     -10.516  18.409  66.127  1.00  0.00    -0.395 C  
HETATM    2  O   UNL     1      -9.992  17.291  65.413  1.00  0.00    -0.521 OA 
ENDROOT
BRANCH   2   3
HETATM    3  C   UNL     1     -10.922  16.435  64.902  1.00  0.00    -0.263 C  
HETATM    4  O   UNL     1     -11.728  16.705  64.020  1.00  0.00    -1.143 OA 
BRANCH   3   5
HETATM    5  C   UNL     1     -10.795  15.067  65.579  1.00  0.00    -0.351 C  
BRANCH   5   6
HETATM    6  C   UNL     1      -9.488  14.942  66.374  1.00  0.00    -0.327 C  
HETATM    7  C   UNL     1     -10.417  13.327  68.121  1.00  0.00    -0.251 C  
HETATM    8  C   UNL     1      -8.282  14.556  68.546  1.00  0.00    -0.154 C  
HETATM    9  C   UNL     1      -9.656  14.630  67.874  1.00  0.00    -0.212 C  
ENDBRANCH   5   6
BRANCH   5  10
HETATM   10  N   UNL     1     -10.854  14.023  64.555  1.00  0.00    -0.563 N  
HETATM   11  C   UNL     1     -11.961  13.219  64.428  1.00  0.00    -0.406 C  
HETATM   12  H   UNL     1     -10.061  13.891  63.926  1.00  0.00     0.000 HD 
HETATM   13  O   UNL     1     -12.957  13.315  65.135  1.00  0.00    -0.705 OA 
BRANCH  11  14
HETATM   14  C   UNL     1     -11.836  12.160  63.360  1.00  0.00    -0.553 C  
BRANCH  14  15
HETATM   15  C   UNL     1     -10.620  11.276  63.632  1.00  0.00    -0.453 C  
BRANCH  15  16
HETATM   16  C   UNL     1     -10.531  10.820  65.089  1.00  0.00    -0.299 C  
BRANCH  16  17
HETATM   17  C   UNL     1      -9.771   9.504  65.238  1.00  0.00    -0.268 C  
BRANCH  17  18
HETATM   18  C   UNL     1     -10.161   8.757  66.509  1.00  0.00    -0.314 C  
BRANCH  18  19
HETATM   19  C   UNL     1      -8.988   7.911  66.999  1.00  0.00    -0.145 C  
BRANCH  19  20
HETATM   20  C   UNL     1      -7.728   8.755  67.170  1.00  0.00    -0.096 C  
BRANCH  20  21
HETATM   21  C   UNL     1      -7.822   9.626  68.423  1.00  0.00    -0.085 C  
BRANCH  21  22
HETATM   22  C   UNL     1      -7.538  11.062  68.099  1.00  0.00    -0.095 C  
HETATM   23  C   UNL     1      -6.999  11.476  66.946  1.00  0.00    -0.134 C  
ENDBRANCH  21  22
ENDBRANCH  20  21
ENDBRANCH  19  20
ENDBRANCH  18  19
ENDBRANCH  17  18
ENDBRANCH  16  17
ENDBRANCH  15  16
ENDBRANCH  14  15
ENDBRANCH  11  14
ENDBRANCH   5  10
ENDBRANCH   3   5
ENDBRANCH   2   3
TORSDOF 13
ENDMDL
MODEL       25
REMARK 921   NORMALIZED FREE ENERGY PREDICTED BY IDOCK:   -4.27 KCAL/MOL
REMARK 922        TOTAL FREE ENERGY PREDICTED BY IDOCK:   -9.62 KCAL/MOL
REMARK 923 INTER-LIGAND FREE ENERGY PREDICTED BY IDOCK:   -8.21 KCAL/MOL
REMARK 924 INTRA-LIGAND FREE ENERGY PREDICTED BY IDOCK:   -1.40 KCAL/MOL
REMARK 927      BINDING AFFINITY PREDICTED BY RF-SCORE:    0.00 PKD
ROOT
HETATM    1  C   UNL     1     -10.555  16.711  68.273  1.00  0.00    -0.338 C  
HETATM    2  O   UNL     1     -11.465  15.764  67.717  1.00  0.00    -0.290 OA 
ENDROOT
BRANCH   2   3
HETATM    3  C   UNL     1     -11.032  15.126  66.593  1.00  0.00    -0.318 C  
HETATM    4  O   UNL     1     -10.530  15.670  65.616  1.00  0.00    -0.332 OA 
BRANCH   3   5
HETATM    5  C   UNL     1     -11.242  13.616  66.740  1.00  0.00    -0.314 C  
BRANCH   5   6
HETATM    6  C   UNL     1     -12.170  13.059  65.653  1.00  0.00    -0.521 C  
HETATM    7  C   UNL     1     -10.552  11.253  64.849  1.00  0.00    -0.364 C  
HETATM    8  C   UNL     1     -12.500  11.926  63.432  1.00  0.00    -0.582 C  
HETATM    9  C   UNL     1     -11.460  12.416  64.446  1.00  0.00    -0.408 C  
ENDBRANCH   5   6
BRANCH   5  10
HETATM   10  N   UNL     1     -11.807  13.342  68.062  1.00  0.00    -0.355 N  
HETATM   11  C   UNL     1     -11.333  12.307  68.833  1.00  0.00    -0.287 C  
HETATM   12  H   UNL     1     -12.563  13.928  68.417  1.00  0.00     0.000 HD 
HETATM   13  O   UNL     1     -10.423  11.562  68.487  1.00  0.00    -0.194 OA 
BRANCH  11  14
HETATM   14  C   UNL     1     -12.061  12.129  70.143  1.00  0.00    -0.368 C  
BRANCH  14  15
HETATM   15  C   UNL     1     -11.994  10.669  70.589  1.00  0.00    -0.466 C  
BRANCH  15  16
HETATM   16  C   UNL     1     -12.948  10.357  71.744  1.00  0.00    -0.580 C  
BRANCH  16  17
HETATM   17  C   UNL     1     -13.142   8.856  71.944  1.00  0.00    -0.436 C  
BRANCH  17  18
HETATM   18  C   UNL     1     -11.843   8.155  72.327  1.00  0.00    -0.441 C  
BRANCH  18  19
HETATM   19  C   UNL     1     -11.859   6.712  71.825  1.00  0.00    -0.380 C  
BRANCH  19  20
HETATM   20  C   UNL     1     -11.655   6.648  70.314  1.00  0.00    -0.454 C  
BRANCH  20  21
HETATM   21  C   UNL     1     -10.333   7.306  69.915  1.00  0.00    -0.226 C  
BRANCH  21  22
HETATM   22  C   UNL     1     -10.452   7.978  68.580  1.00  0.00    -0.200 C  
HETATM   23  C   UNL     1     -10.428   7.327  67.410  1.00  0.00    -0.359 C  
ENDBRANCH  21  22
ENDBRANCH  20  21
ENDBRANCH  19  20
ENDBRANCH  18  19
ENDBRANCH  17  18
ENDBRANCH  16  17
ENDBRANCH  15  16
ENDBRANCH  14  15
ENDBRANCH  11  14
ENDBRANCH   5  10
ENDBRANCH   3   5
ENDBRANCH   2   3
TORSDOF 13
ENDMDL
MODEL       26
REMARK 921   NORMALIZED FREE ENERGY PREDICTED BY IDOCK:   -4.26 KCAL/MOL
REMARK 922        TOTAL FREE ENERGY PREDICTED BY IDOCK:   -9.61 KCAL/MOL
REMARK 923 INTER-LIGAND FREE ENERGY PREDICTED BY IDOCK:   -7.95 KCAL/MOL
REMARK 924 INTRA-LIGAND FREE ENERGY PREDICTED BY IDOCK:   -1.66 KCAL/MOL
REMARK 927      BINDING AFFINITY PREDICTED BY RF-SCORE:    0.00 PKD
ROOT
HETATM    1  C   UNL     1     -10.612   9.286  69.433  1.00  0.00    -0.223 C  
HETATM    2  O   UNL     1     -10.424   9.815  68.122  1.00  0.00    -0.192 OA 
ENDROOT
BRANCH   2   3
HETATM    3  C   UNL     1     -11.299  10.794  67.754  1.00  0.00    -0.279 C  
HETATM    4  O   UNL     1     -12.168  11.276  68.470  1.00  0.00    -0.588 OA 
BRANCH   3   5
HETATM    5  C   UNL     1     -11.019  11.224  66.311  1.00  0.00    -0.205 C  
BRANCH   5   6
HETATM    6  C   UNL     1      -9.583  10.889  65.883  1.00  0.00    -0.257 C  
HETATM    7  C   UNL     1     -10.018  11.103  63.375  1.00  0.00    -0.430 C  
HETATM    8  C   UNL     1      -7.970   9.934  64.207  1.00  0.00    -0.146 C  
HETATM    9  C   UNL     1      -9.445  10.234  64.495  1.00  0.00    -0.356 C  
ENDBRANCH   5   6
BRANCH   5  10
HETATM   10  N   UNL     1     -11.248  12.664  66.191  1.00  0.00    -0.295 N  
HETATM   11  C   UNL     1     -12.277  13.155  65.423  1.00  0.00    -0.461 C  
HETATM   12  H   UNL     1     -10.636  13.313  66.685  1.00  0.00     0.000 HD 
HETATM   13  O   UNL     1     -13.063  12.446  64.805  1.00  0.00    -0.806 OA 
BRANCH  11  14
HETATM   14  C   UNL     1     -12.340  14.661  65.364  1.00  0.00    -0.195 C  
BRANCH  14  15
HETATM   15  C   UNL     1     -10.996  15.229  64.912  1.00  0.00    -0.445 C  
BRANCH  15  16
HETATM   16  C   UNL     1     -10.509  16.380  65.794  1.00  0.00    -0.369 C  
BRANCH  16  17
HETATM   17  C   UNL     1      -9.693  15.888  66.988  1.00  0.00    -0.235 C  
BRANCH  17  18
HETATM   18  C   UNL     1     -10.082  16.599  68.280  1.00  0.00    -0.268 C  
BRANCH  18  19
HETATM   19  C   UNL     1     -11.474  16.153  68.725  1.00  0.00    -0.340 C  
BRANCH  19  20
HETATM   20  C   UNL     1     -11.469  14.698  69.185  1.00  0.00    -0.320 C  
BRANCH  20  21
HETATM   21  C   UNL     1     -12.247  14.537  70.491  1.00  0.00    -0.399 C  
BRANCH  21  22
HETATM   22  C   UNL     1     -12.313  15.835  71.238  1.00  0.00    -0.493 C  
HETATM   23  C   UNL     1     -11.912  15.989  72.506  1.00  0.00    -0.649 C  
ENDBRANCH  21  22
ENDBRANCH  20  21
ENDBRANCH  19  20
ENDBRANCH  18  19
ENDBRANCH  17  18
ENDBRANCH  16  17
ENDBRANCH  15  16
ENDBRANCH  14  15
ENDBRANCH  11  14
ENDBRANCH   5  10
ENDBRANCH   3   5
ENDBRANCH   2   3
TORSDOF 13
ENDMDL
MODEL       27
REMARK 921   NORMALIZED FREE ENERGY PREDICTED BY IDOCK:   -4.26 KCAL/MOL
REMARK 922        TOTAL FREE ENERGY PREDICTED BY IDOCK:   -9.61 KCAL/MOL
REMARK 923 INTER-LIGAND FREE ENERGY PREDICTED BY IDOCK:   -7.94 KCAL/MOL
REMARK 924 INTRA-LIGAND FREE ENERGY PREDICTED BY IDOCK:   -1.67 KCAL/MOL
REMARK 927      BINDING AFFINITY PREDICTED BY RF-SCORE:    0.00 PKD
ROOT
HETATM    1  C   UNL     1     -11.711  12.223  66.163  1.00  0.00    -0.376 C  
HETATM    2  O   UNL     1     -12.194  12.147  67.503  1.00  0.00    -0.474 OA 
ENDROOT
BRANCH   2   3
HETATM    3  C   UNL     1     -11.570  12.965  68.397  1.00  0.00    -0.333 C  
HETATM    4  O   UNL     1     -10.688  13.772  68.128  1.00  0.00    -0.237 OA 
BRANCH   3   5
HETATM    5  C   UNL     1     -12.155  12.746  69.796  1.00  0.00    -0.237 C  
BRANCH   5   6
HETATM    6  C   UNL     1     -11.950  13.969  70.699  1.00  0.00    -0.376 C  
HETATM    7  C   UNL     1     -13.933  13.478  72.232  1.00  0.00    -0.638 C  
HETATM    8  C   UNL     1     -12.883  15.747  72.213  1.00  0.00    -0.525 C  
HETATM    9  C   UNL     1     -13.227  14.520  71.364  1.00  0.00    -0.424 C  
ENDBRANCH   5   6
BRANCH   5  10
HETATM   10  N   UNL     1     -11.519  11.574  70.398  1.00  0.00    -0.482 N  
HETATM   11  C   UNL     1     -12.269  10.502  70.822  1.00  0.00    -0.369 C  
HETATM   12  H   UNL     1     -10.505  11.551  70.504  1.00  0.00     0.000 HD 
HETATM   13  O   UNL     1     -13.489  10.444  70.725  1.00  0.00    -0.238 OA 
BRANCH  11  14
HETATM   14  C   UNL     1     -11.464   9.402  71.469  1.00  0.00    -0.467 C  
BRANCH  14  15
HETATM   15  C   UNL     1     -10.027   9.423  70.949  1.00  0.00    -0.353 C  
BRANCH  15  16
HETATM   16  C   UNL     1      -9.039   8.753  71.906  1.00  0.00    -0.291 C  
BRANCH  16  17
HETATM   17  C   UNL     1      -9.705   7.685  72.771  1.00  0.00    -0.261 C  
BRANCH  17  18
HETATM   18  C   UNL     1      -9.283   6.276  72.368  1.00  0.00    -0.138 C  
BRANCH  18  19
HETATM   19  C   UNL     1     -10.485   5.505  71.827  1.00  0.00    -0.287 C  
BRANCH  19  20
HETATM   20  C   UNL     1     -10.402   5.337  70.313  1.00  0.00    -0.350 C  
BRANCH  20  21
HETATM   21  C   UNL     1     -11.383   6.272  69.606  1.00  0.00    -0.492 C  
BRANCH  21  22
HETATM   22  C   UNL     1     -11.001   6.463  68.169  1.00  0.00    -0.393 C  
HETATM   23  C   UNL     1      -9.976   7.222  67.762  1.00  0.00    -0.205 C  
ENDBRANCH  21  22
ENDBRANCH  20  21
ENDBRANCH  19  20
ENDBRANCH  18  19
ENDBRANCH  17  18
ENDBRANCH  16  17
ENDBRANCH  15  16
ENDBRANCH  14  15
ENDBRANCH  11  14
ENDBRANCH   5  10
ENDBRANCH   3   5
ENDBRANCH   2   3
TORSDOF 13
ENDMDL
MODEL       28
REMARK 921   NORMALIZED FREE ENERGY PREDICTED BY IDOCK:   -4.26 KCAL/MOL
REMARK 922        TOTAL FREE ENERGY PREDICTED BY IDOCK:   -9.60 KCAL/MOL
REMARK 923 INTER-LIGAND FREE ENERGY PREDICTED BY IDOCK:   -8.14 KCAL/MOL
REMARK 924 INTRA-LIGAND FREE ENERGY PREDICTED BY IDOCK:   -1.46 KCAL/MOL
REMARK 927      BINDING AFFINITY PREDICTED BY RF-SCORE:    0.00 PKD
ROOT
HETATM    1  C   UNL     1     -12.518  12.046  63.460  1.00  0.00    -0.540 C  
HETATM    2  O   UNL     1     -11.793  12.400  64.636  1.00  0.00    -0.351 OA 
ENDROOT
BRANCH   2   3
HETATM    3  C   UNL     1     -12.391  13.328  65.436  1.00  0.00    -0.479 C  
HETATM    4  O   UNL     1     -13.260  14.116  65.083  1.00  0.00    -0.743 OA 
BRANCH   3   5
HETATM    5  C   UNL     1     -11.831  13.224  66.858  1.00  0.00    -0.392 C  
BRANCH   5   6
HETATM    6  C   UNL     1     -11.040  14.478  67.254  1.00  0.00    -0.317 C  
HETATM    7  C   UNL     1     -11.980  14.624  69.625  1.00  0.00    -0.368 C  
HETATM    8  C   UNL     1     -10.826  16.591  68.600  1.00  0.00    -0.345 C  
HETATM    9  C   UNL     1     -11.707  15.370  68.318  1.00  0.00    -0.313 C  
ENDBRANCH   5   6
BRANCH   5  10
HETATM   10  N   UNL     1     -10.968  12.046  66.944  1.00  0.00    -0.266 N  
HETATM   11  C   UNL     1     -11.262  11.015  67.804  1.00  0.00    -0.308 C  
HETATM   12  H   UNL     1     -10.135  11.989  66.357  1.00  0.00     0.000 HD 
HETATM   13  O   UNL     1     -12.244  10.999  68.537  1.00  0.00    -0.582 OA 
BRANCH  11  14
HETATM   14  C   UNL     1     -10.241   9.903  67.808  1.00  0.00    -0.241 C  
BRANCH  14  15
HETATM   15  C   UNL     1     -10.393   9.051  69.067  1.00  0.00    -0.233 C  
BRANCH  15  16
HETATM   16  C   UNL     1      -9.349   9.378  70.136  1.00  0.00    -0.276 C  
BRANCH  16  17
HETATM   17  C   UNL     1      -9.835   9.037  71.542  1.00  0.00    -0.381 C  
BRANCH  17  18
HETATM   18  C   UNL     1     -11.341   9.233  71.692  1.00  0.00    -0.467 C  
BRANCH  18  19
HETATM   19  C   UNL     1     -12.026   7.882  71.890  1.00  0.00    -0.347 C  
BRANCH  19  20
HETATM   20  C   UNL     1     -11.193   6.962  72.778  1.00  0.00    -0.277 C  
BRANCH  20  21
HETATM   21  C   UNL     1     -11.175   5.537  72.221  1.00  0.00    -0.281 C  
BRANCH  21  22
HETATM   22  C   UNL     1     -10.065   5.365  71.229  1.00  0.00    -0.270 C  
HETATM   23  C   UNL     1     -10.258   5.118  69.927  1.00  0.00    -0.361 C  
ENDBRANCH  21  22
ENDBRANCH  20  21
ENDBRANCH  19  20
ENDBRANCH  18  19
ENDBRANCH  17  18
ENDBRANCH  16  17
ENDBRANCH  15  16
ENDBRANCH  14  15
ENDBRANCH  11  14
ENDBRANCH   5  10
ENDBRANCH   3   5
ENDBRANCH   2   3
TORSDOF 13
ENDMDL
MODEL       29
REMARK 921   NORMALIZED FREE ENERGY PREDICTED BY IDOCK:   -4.25 KCAL/MOL
REMARK 922        TOTAL FREE ENERGY PREDICTED BY IDOCK:   -9.59 KCAL/MOL
REMARK 923 INTER-LIGAND FREE ENERGY PREDICTED BY IDOCK:   -8.79 KCAL/MOL
REMARK 924 INTRA-LIGAND FREE ENERGY PREDICTED BY IDOCK:   -0.80 KCAL/MOL
REMARK 927      BINDING AFFINITY PREDICTED BY RF-SCORE:    0.00 PKD
ROOT
HETATM    1  C   UNL     1     -12.148  13.845  64.181  1.00  0.00    -0.425 C  
HETATM    2  O   UNL     1     -10.925  14.442  64.607  1.00  0.00    -0.390 OA 
ENDROOT
BRANCH   2   3
HETATM    3  C   UNL     1     -11.000  15.766  64.926  1.00  0.00    -0.427 C  
HETATM    4  O   UNL     1     -11.444  16.648  64.200  1.00  0.00    -1.131 OA 
BRANCH   3   5
HETATM    5  C   UNL     1     -10.467  15.988  66.344  1.00  0.00    -0.309 C  
BRANCH   5   6
HETATM    6  C   UNL     1      -8.934  15.934  66.394  1.00  0.00    -0.361 C  
HETATM    7  C   UNL     1      -8.656  18.077  67.756  1.00  0.00    -0.244 C  
HETATM    8  C   UNL     1      -6.710  17.100  66.526  1.00  0.00    -0.290 C  
HETATM    9  C   UNL     1      -8.229  17.299  66.510  1.00  0.00    -0.311 C  
ENDBRANCH   5   6
BRANCH   5  10
HETATM   10  N   UNL     1     -11.028  14.966  67.228  1.00  0.00    -0.314 N  
HETATM   11  C   UNL     1     -11.417  15.275  68.510  1.00  0.00    -0.342 C  
HETATM   12  H   UNL     1     -11.132  14.010  66.888  1.00  0.00     0.000 HD 
HETATM   13  O   UNL     1     -11.334  16.398  68.994  1.00  0.00    -0.317 OA 
BRANCH  11  14
HETATM   14  C   UNL     1     -11.923  14.096  69.304  1.00  0.00    -0.382 C  
BRANCH  14  15
HETATM   15  C   UNL     1     -11.089  12.854  68.994  1.00  0.00    -0.284 C  
BRANCH  15  16
HETATM   16  C   UNL     1     -11.668  11.580  69.612  1.00  0.00    -0.419 C  
BRANCH  16  17
HETATM   17  C   UNL     1     -12.486  11.868  70.869  1.00  0.00    -0.397 C  
BRANCH  17  18
HETATM   18  C   UNL     1     -13.003  10.590  71.521  1.00  0.00    -0.565 C  
BRANCH  18  19
HETATM   19  C   UNL     1     -12.106   9.411  71.146  1.00  0.00    -0.406 C  
BRANCH  19  20
HETATM   20  C   UNL     1     -12.229   8.276  72.158  1.00  0.00    -0.418 C  
BRANCH  20  21
HETATM   21  C   UNL     1     -10.856   7.887  72.709  1.00  0.00    -0.451 C  
BRANCH  21  22
HETATM   22  C   UNL     1     -10.572   6.435  72.464  1.00  0.00    -0.240 C  
HETATM   23  C   UNL     1     -11.229   5.434  73.062  1.00  0.00    -0.370 C  
ENDBRANCH  21  22
ENDBRANCH  20  21
ENDBRANCH  19  20
ENDBRANCH  18  19
ENDBRANCH  17  18
ENDBRANCH  16  17
ENDBRANCH  15  16
ENDBRANCH  14  15
ENDBRANCH  11  14
ENDBRANCH   5  10
ENDBRANCH   3   5
ENDBRANCH   2   3
TORSDOF 13
ENDMDL
MODEL       30
REMARK 921   NORMALIZED FREE ENERGY PREDICTED BY IDOCK:   -4.24 KCAL/MOL
REMARK 922        TOTAL FREE ENERGY PREDICTED BY IDOCK:   -9.57 KCAL/MOL
REMARK 923 INTER-LIGAND FREE ENERGY PREDICTED BY IDOCK:   -7.76 KCAL/MOL
REMARK 924 INTRA-LIGAND FREE ENERGY PREDICTED BY IDOCK:   -1.81 KCAL/MOL
REMARK 927      BINDING AFFINITY PREDICTED BY RF-SCORE:    0.00 PKD
ROOT
HETATM    1  C   UNL     1     -10.268  18.326  65.928  1.00  0.00    -0.226 C  
HETATM    2  O   UNL     1      -9.975  17.009  65.465  1.00  0.00    -0.567 OA 
ENDROOT
BRANCH   2   3
HETATM    3  C   UNL     1     -11.011  16.355  64.866  1.00  0.00    -0.263 C  
HETATM    4  O   UNL     1     -11.664  16.777  63.919  1.00  0.00    -1.076 OA 
BRANCH   3   5
HETATM    5  C   UNL     1     -11.224  14.995  65.536  1.00  0.00    -0.344 C  
BRANCH   5   6
HETATM    6  C   UNL     1     -10.271  14.786  66.721  1.00  0.00    -0.266 C  
HETATM    7  C   UNL     1     -12.017  13.730  68.258  1.00  0.00    -0.392 C  
HETATM    8  C   UNL     1      -9.872  14.607  69.197  1.00  0.00    -0.130 C  
HETATM    9  C   UNL     1     -10.935  14.801  68.112  1.00  0.00    -0.274 C  
ENDBRANCH   5   6
BRANCH   5  10
HETATM   10  N   UNL     1     -11.019  13.939  64.544  1.00  0.00    -0.506 N  
HETATM   11  C   UNL     1     -11.962  12.958  64.350  1.00  0.00    -0.395 C  
HETATM   12  H   UNL     1     -10.164  13.931  63.988  1.00  0.00     0.000 HD 
HETATM   13  O   UNL     1     -13.019  12.898  64.968  1.00  0.00    -0.777 OA 
BRANCH  11  14
HETATM   14  C   UNL     1     -11.571  11.917  63.330  1.00  0.00    -0.477 C  
BRANCH  14  15
HETATM   15  C   UNL     1     -10.106  11.525  63.511  1.00  0.00    -0.446 C  
BRANCH  15  16
HETATM   16  C   UNL     1      -9.909  10.427  64.559  1.00  0.00    -0.405 C  
BRANCH  16  17
HETATM   17  C   UNL     1      -9.417  10.983  65.893  1.00  0.00    -0.244 C  
BRANCH  17  18
HETATM   18  C   UNL     1     -10.441  10.793  67.006  1.00  0.00    -0.297 C  
BRANCH  18  19
HETATM   19  C   UNL     1      -9.736  10.719  68.360  1.00  0.00    -0.179 C  
BRANCH  19  20
HETATM   20  C   UNL     1      -8.538   9.774  68.310  1.00  0.00    -0.119 C  
BRANCH  20  21
HETATM   21  C   UNL     1      -8.774   8.549  69.194  1.00  0.00    -0.134 C  
BRANCH  21  22
HETATM   22  C   UNL     1      -8.978   7.319  68.361  1.00  0.00    -0.126 C  
HETATM   23  C   UNL     1      -8.365   6.151  68.590  1.00  0.00    -0.114 C  
ENDBRANCH  21  22
ENDBRANCH  20  21
ENDBRANCH  19  20
ENDBRANCH  18  19
ENDBRANCH  17  18
ENDBRANCH  16  17
ENDBRANCH  15  16
ENDBRANCH  14  15
ENDBRANCH  11  14
ENDBRANCH   5  10
ENDBRANCH   3   5
ENDBRANCH   2   3
TORSDOF 13
ENDMDL
MODEL       31
REMARK 921   NORMALIZED FREE ENERGY PREDICTED BY IDOCK:   -4.23 KCAL/MOL
REMARK 922        TOTAL FREE ENERGY PREDICTED BY IDOCK:   -9.56 KCAL/MOL
REMARK 923 INTER-LIGAND FREE ENERGY PREDICTED BY IDOCK:   -8.18 KCAL/MOL
REMARK 924 INTRA-LIGAND FREE ENERGY PREDICTED BY IDOCK:   -1.38 KCAL/MOL
REMARK 927      BINDING AFFINITY PREDICTED BY RF-SCORE:    0.00 PKD
ROOT
HETATM    1  C   UNL     1     -12.005  12.942  68.088  1.00  0.00    -0.261 C  
HETATM    2  O   UNL     1     -12.187  14.007  67.158  1.00  0.00    -0.419 OA 
ENDROOT
BRANCH   2   3
HETATM    3  C   UNL     1     -12.252  13.635  65.848  1.00  0.00    -0.461 C  
HETATM    4  O   UNL     1     -13.247  13.196  65.282  1.00  0.00    -0.643 OA 
BRANCH   3   5
HETATM    5  C   UNL     1     -10.898  13.872  65.173  1.00  0.00    -0.358 C  
BRANCH   5   6
HETATM    6  C   UNL     1      -9.973  12.654  65.304  1.00  0.00    -0.215 C  
HETATM    7  C   UNL     1     -10.670  11.579  63.094  1.00  0.00    -0.281 C  
HETATM    8  C   UNL     1      -9.462  10.239  64.826  1.00  0.00    -0.341 C  
HETATM    9  C   UNL     1     -10.463  11.376  64.596  1.00  0.00    -0.373 C  
ENDBRANCH   5   6
BRANCH   5  10
HETATM   10  N   UNL     1     -10.263  15.043  65.780  1.00  0.00    -0.314 N  
HETATM   11  C   UNL     1     -10.460  16.301  65.264  1.00  0.00    -0.300 C  
HETATM   12  H   UNL     1      -9.667  14.923  66.599  1.00  0.00     0.000 HD 
HETATM   13  O   UNL     1     -11.166  16.535  64.289  1.00  0.00    -0.992 OA 
BRANCH  11  14
HETATM   14  C   UNL     1      -9.691  17.388  65.974  1.00  0.00    -0.172 C  
BRANCH  14  15
HETATM   15  C   UNL     1     -10.557  18.637  66.123  1.00  0.00    -0.409 C  
BRANCH  15  16
HETATM   16  C   UNL     1     -10.623  19.146  67.564  1.00  0.00    -0.567 C  
BRANCH  16  17
HETATM   17  C   UNL     1      -9.256  19.585  68.085  1.00  0.00    -0.411 C  
BRANCH  17  18
HETATM   18  C   UNL     1      -8.733  20.817  67.354  1.00  0.00    -0.230 C  
BRANCH  18  19
HETATM   19  C   UNL     1      -7.229  20.685  67.118  1.00  0.00    -0.389 C  
BRANCH  19  20
HETATM   20  C   UNL     1      -6.697  19.358  67.654  1.00  0.00    -0.239 C  
BRANCH  20  21
HETATM   21  C   UNL     1      -5.760  18.699  66.642  1.00  0.00    -0.171 C  
BRANCH  21  22
HETATM   22  C   UNL     1      -6.309  18.810  65.251  1.00  0.00    -0.309 C  
HETATM   23  C   UNL     1      -5.584  19.187  64.190  1.00  0.00    -0.329 C  
ENDBRANCH  21  22
ENDBRANCH  20  21
ENDBRANCH  19  20
ENDBRANCH  18  19
ENDBRANCH  17  18
ENDBRANCH  16  17
ENDBRANCH  15  16
ENDBRANCH  14  15
ENDBRANCH  11  14
ENDBRANCH   5  10
ENDBRANCH   3   5
ENDBRANCH   2   3
TORSDOF 13
ENDMDL
MODEL       32
REMARK 921   NORMALIZED FREE ENERGY PREDICTED BY IDOCK:   -4.23 KCAL/MOL
REMARK 922        TOTAL FREE ENERGY PREDICTED BY IDOCK:   -9.55 KCAL/MOL
REMARK 923 INTER-LIGAND FREE ENERGY PREDICTED BY IDOCK:   -7.91 KCAL/MOL
REMARK 924 INTRA-LIGAND FREE ENERGY PREDICTED BY IDOCK:   -1.64 KCAL/MOL
REMARK 927      BINDING AFFINITY PREDICTED BY RF-SCORE:    0.00 PKD
ROOT
HETATM    1  C   UNL     1     -14.274  15.017  71.761  1.00  0.00    -0.555 C  
HETATM    2  O   UNL     1     -13.527  15.690  70.749  1.00  0.00    -0.536 OA 
ENDROOT
BRANCH   2   3
HETATM    3  C   UNL     1     -12.187  15.794  70.982  1.00  0.00    -0.418 C  
HETATM    4  O   UNL     1     -11.675  16.211  72.014  1.00  0.00    -0.477 OA 
BRANCH   3   5
HETATM    5  C   UNL     1     -11.409  15.284  69.766  1.00  0.00    -0.289 C  
BRANCH   5   6
HETATM    6  C   UNL     1     -11.499  16.256  68.581  1.00  0.00    -0.288 C  
HETATM    7  C   UNL     1      -9.047  16.969  68.660  1.00  0.00    -0.271 C  
HETATM    8  C   UNL     1     -10.719  18.330  67.393  1.00  0.00    -0.377 C  
HETATM    9  C   UNL     1     -10.504  17.432  68.616  1.00  0.00    -0.355 C  
ENDBRANCH   5   6
BRANCH   5  10
HETATM   10  N   UNL     1     -11.938  13.977  69.376  1.00  0.00    -0.325 N  
HETATM   11  C   UNL     1     -11.141  13.049  68.750  1.00  0.00    -0.270 C  
HETATM   12  H   UNL     1     -12.914  13.751  69.572  1.00  0.00     0.000 HD 
HETATM   13  O   UNL     1      -9.959  13.234  68.484  1.00  0.00    -0.234 OA 
BRANCH  11  14
HETATM   14  C   UNL     1     -11.858  11.776  68.368  1.00  0.00    -0.347 C  
BRANCH  14  15
HETATM   15  C   UNL     1     -10.860  10.627  68.239  1.00  0.00    -0.287 C  
BRANCH  15  16
HETATM   16  C   UNL     1     -10.817  10.032  66.831  1.00  0.00    -0.152 C  
BRANCH  16  17
HETATM   17  C   UNL     1      -9.388   9.808  66.340  1.00  0.00    -0.218 C  
BRANCH  17  18
HETATM   18  C   UNL     1      -9.225  10.171  64.868  1.00  0.00    -0.281 C  
BRANCH  18  19
HETATM   19  C   UNL     1      -9.876  11.524  64.587  1.00  0.00    -0.283 C  
BRANCH  19  20
HETATM   20  C   UNL     1     -10.980  11.401  63.540  1.00  0.00    -0.406 C  
BRANCH  20  21
HETATM   21  C   UNL     1     -11.933  12.595  63.610  1.00  0.00    -0.615 C  
BRANCH  21  22
HETATM   22  C   UNL     1     -11.693  13.399  64.853  1.00  0.00    -0.379 C  
HETATM   23  C   UNL     1     -12.653  14.060  65.512  1.00  0.00    -0.543 C  
ENDBRANCH  21  22
ENDBRANCH  20  21
ENDBRANCH  19  20
ENDBRANCH  18  19
ENDBRANCH  17  18
ENDBRANCH  16  17
ENDBRANCH  15  16
ENDBRANCH  14  15
ENDBRANCH  11  14
ENDBRANCH   5  10
ENDBRANCH   3   5
ENDBRANCH   2   3
TORSDOF 13
ENDMDL
MODEL       33
REMARK 921   NORMALIZED FREE ENERGY PREDICTED BY IDOCK:   -4.22 KCAL/MOL
REMARK 922        TOTAL FREE ENERGY PREDICTED BY IDOCK:   -9.54 KCAL/MOL
REMARK 923 INTER-LIGAND FREE ENERGY PREDICTED BY IDOCK:   -8.67 KCAL/MOL
REMARK 924 INTRA-LIGAND FREE ENERGY PREDICTED BY IDOCK:   -0.87 KCAL/MOL
REMARK 927      BINDING AFFINITY PREDICTED BY RF-SCORE:    0.00 PKD
ROOT
HETATM    1  C   UNL     1      -9.958  18.081  66.556  1.00  0.00    -0.371 C  
HETATM    2  O   UNL     1     -10.398  16.843  66.003  1.00  0.00    -0.338 OA 
ENDROOT
BRANCH   2   3
HETATM    3  C   UNL     1     -10.597  15.838  66.902  1.00  0.00    -0.317 C  
HETATM    4  O   UNL     1     -11.190  15.945  67.969  1.00  0.00    -0.343 OA 
BRANCH   3   5
HETATM    5  C   UNL     1      -9.988  14.537  66.369  1.00  0.00    -0.292 C  
BRANCH   5   6
HETATM    6  C   UNL     1     -10.483  14.212  64.954  1.00  0.00    -0.461 C  
HETATM    7  C   UNL     1     -12.948  14.014  65.595  1.00  0.00    -0.337 C  
HETATM    8  C   UNL     1     -12.130  13.090  63.420  1.00  0.00    -0.591 C  
HETATM    9  C   UNL     1     -11.764  13.358  64.883  1.00  0.00    -0.379 C  
ENDBRANCH   5   6
BRANCH   5  10
HETATM   10  N   UNL     1     -10.333  13.444  67.278  1.00  0.00    -0.244 N  
HETATM   11  C   UNL     1      -9.413  12.474  67.598  1.00  0.00    -0.188 C  
HETATM   12  H   UNL     1     -11.269  13.401  67.681  1.00  0.00     0.000 HD 
HETATM   13  O   UNL     1      -8.266  12.453  67.167  1.00  0.00    -0.178 OA 
BRANCH  11  14
HETATM   14  C   UNL     1      -9.947  11.391  68.504  1.00  0.00    -0.203 C  
BRANCH  14  15
HETATM   15  C   UNL     1     -11.288  11.814  69.100  1.00  0.00    -0.340 C  
BRANCH  15  16
HETATM   16  C   UNL     1     -11.994  10.678  69.843  1.00  0.00    -0.385 C  
BRANCH  16  17
HETATM   17  C   UNL     1     -12.733  11.171  71.085  1.00  0.00    -0.510 C  
BRANCH  17  18
HETATM   18  C   UNL     1     -12.840  12.692  71.123  1.00  0.00    -0.311 C  
BRANCH  18  19
HETATM   19  C   UNL     1     -13.881  13.118  72.156  1.00  0.00    -0.506 C  
BRANCH  19  20
HETATM   20  C   UNL     1     -13.931  14.637  72.300  1.00  0.00    -0.589 C  
BRANCH  20  21
HETATM   21  C   UNL     1     -12.879  15.124  73.297  1.00  0.00    -0.640 C  
BRANCH  21  22
HETATM   22  C   UNL     1     -11.997  16.167  72.679  1.00  0.00    -0.653 C  
HETATM   23  C   UNL     1     -11.615  16.158  71.395  1.00  0.00    -0.495 C  
ENDBRANCH  21  22
ENDBRANCH  20  21
ENDBRANCH  19  20
ENDBRANCH  18  19
ENDBRANCH  17  18
ENDBRANCH  16  17
ENDBRANCH  15  16
ENDBRANCH  14  15
ENDBRANCH  11  14
ENDBRANCH   5  10
ENDBRANCH   3   5
ENDBRANCH   2   3
TORSDOF 13
ENDMDL
MODEL       34
REMARK 921   NORMALIZED FREE ENERGY PREDICTED BY IDOCK:   -4.22 KCAL/MOL
REMARK 922        TOTAL FREE ENERGY PREDICTED BY IDOCK:   -9.54 KCAL/MOL
REMARK 923 INTER-LIGAND FREE ENERGY PREDICTED BY IDOCK:   -7.52 KCAL/MOL
REMARK 924 INTRA-LIGAND FREE ENERGY PREDICTED BY IDOCK:   -2.02 KCAL/MOL
REMARK 927      BINDING AFFINITY PREDICTED BY RF-SCORE:    0.00 PKD
ROOT
HETATM    1  C   UNL     1     -11.116  11.702  67.006  1.00  0.00    -0.302 C  
HETATM    2  O   UNL     1     -12.225  12.219  66.273  1.00  0.00    -0.628 OA 
ENDROOT
BRANCH   2   3
HETATM    3  C   UNL     1     -12.280  13.577  66.175  1.00  0.00    -0.433 C  
HETATM    4  O   UNL     1     -12.903  14.204  65.326  1.00  0.00    -0.670 OA 
BRANCH   3   5
HETATM    5  C   UNL     1     -11.466  14.212  67.306  1.00  0.00    -0.350 C  
BRANCH   5   6
HETATM    6  C   UNL     1     -12.368  14.821  68.388  1.00  0.00     0.047 C  
HETATM    7  C   UNL     1     -10.470  15.384  70.003  1.00  0.00    -0.301 C  
HETATM    8  C   UNL     1     -12.838  15.336  70.804  1.00  0.00    -0.494 C  
HETATM    9  C   UNL     1     -11.833  14.713  69.829  1.00  0.00    -0.366 C  
ENDBRANCH   5   6
BRANCH   5  10
HETATM   10  N   UNL     1     -10.599  15.248  66.744  1.00  0.00    -0.299 N  
HETATM   11  C   UNL     1      -9.238  15.067  66.668  1.00  0.00    -0.276 C  
HETATM   12  H   UNL     1     -11.010  16.117  66.402  1.00  0.00     0.000 HD 
HETATM   13  O   UNL     1      -8.664  14.052  67.047  1.00  0.00    -0.219 OA 
BRANCH  11  14
HETATM   14  C   UNL     1      -8.487  16.252  66.113  1.00  0.00    -0.313 C  
BRANCH  14  15
HETATM   15  C   UNL     1      -7.230  16.516  66.940  1.00  0.00    -0.263 C  
BRANCH  15  16
HETATM   16  C   UNL     1      -7.542  16.933  68.378  1.00  0.00    -0.209 C  
BRANCH  16  17
HETATM   17  C   UNL     1      -6.679  18.104  68.840  1.00  0.00    -0.256 C  
BRANCH  17  18
HETATM   18  C   UNL     1      -7.467  19.409  68.898  1.00  0.00    -0.399 C  
BRANCH  18  19
HETATM   19  C   UNL     1      -7.351  20.148  67.566  1.00  0.00    -0.325 C  
BRANCH  19  20
HETATM   20  C   UNL     1      -8.683  20.776  67.162  1.00  0.00    -0.223 C  
BRANCH  20  21
HETATM   21  C   UNL     1      -9.490  19.821  66.282  1.00  0.00    -0.493 C  
BRANCH  21  22
HETATM   22  C   UNL     1     -10.757  19.403  66.966  1.00  0.00    -0.582 C  
HETATM   23  C   UNL     1     -10.804  18.551  67.999  1.00  0.00    -0.161 C  
ENDBRANCH  21  22
ENDBRANCH  20  21
ENDBRANCH  19  20
ENDBRANCH  18  19
ENDBRANCH  17  18
ENDBRANCH  16  17
ENDBRANCH  15  16
ENDBRANCH  14  15
ENDBRANCH  11  14
ENDBRANCH   5  10
ENDBRANCH   3   5
ENDBRANCH   2   3
TORSDOF 13
ENDMDL
MODEL       35
REMARK 921   NORMALIZED FREE ENERGY PREDICTED BY IDOCK:   -4.20 KCAL/MOL
REMARK 922        TOTAL FREE ENERGY PREDICTED BY IDOCK:   -9.51 KCAL/MOL
REMARK 923 INTER-LIGAND FREE ENERGY PREDICTED BY IDOCK:   -8.18 KCAL/MOL
REMARK 924 INTRA-LIGAND FREE ENERGY PREDICTED BY IDOCK:   -1.33 KCAL/MOL
REMARK 927      BINDING AFFINITY PREDICTED BY RF-SCORE:    0.00 PKD
ROOT
HETATM    1  C   UNL     1     -12.428  11.058  70.717  1.00  0.00    -0.396 C  
HETATM    2  O   UNL     1     -11.875  12.051  69.856  1.00  0.00    -0.320 OA 
ENDROOT
BRANCH   2   3
HETATM    3  C   UNL     1     -11.497  11.612  68.622  1.00  0.00    -0.290 C  
HETATM    4  O   UNL     1     -11.189  10.460  68.341  1.00  0.00    -0.271 OA 
BRANCH   3   5
HETATM    5  C   UNL     1     -11.539  12.773  67.623  1.00  0.00    -0.358 C  
BRANCH   5   6
HETATM    6  C   UNL     1     -11.308  12.297  66.183  1.00  0.00    -0.402 C  
HETATM    7  C   UNL     1     -12.543  14.242  65.080  1.00  0.00    -0.360 C  
HETATM    8  C   UNL     1     -12.044  12.163  63.782  1.00  0.00    -0.620 C  
HETATM    9  C   UNL     1     -12.385  12.723  65.167  1.00  0.00    -0.555 C  
ENDBRANCH   5   6
BRANCH   5  10
HETATM   10  N   UNL     1     -10.516  13.753  67.991  1.00  0.00    -0.239 N  
HETATM   11  C   UNL     1     -10.859  14.947  68.578  1.00  0.00    -0.247 C  
HETATM   12  H   UNL     1      -9.533  13.546  67.809  1.00  0.00     0.000 HD 
HETATM   13  O   UNL     1     -12.012  15.272  68.839  1.00  0.00    -0.322 OA 
BRANCH  11  14
HETATM   14  C   UNL     1      -9.690  15.865  68.843  1.00  0.00    -0.230 C  
BRANCH  14  15
HETATM   15  C   UNL     1     -10.168  17.311  68.955  1.00  0.00    -0.349 C  
BRANCH  15  16
HETATM   16  C   UNL     1     -10.316  17.995  67.595  1.00  0.00    -0.397 C  
BRANCH  16  17
HETATM   17  C   UNL     1     -10.610  19.487  67.727  1.00  0.00    -0.542 C  
BRANCH  17  18
HETATM   18  C   UNL     1      -9.618  20.339  66.942  1.00  0.00    -0.564 C  
BRANCH  18  19
HETATM   19  C   UNL     1      -8.589  19.443  66.255  1.00  0.00    -0.360 C  
BRANCH  19  20
HETATM   20  C   UNL     1      -7.226  20.126  66.172  1.00  0.00    -0.313 C  
BRANCH  20  21
HETATM   21  C   UNL     1      -6.933  20.913  67.450  1.00  0.00    -0.426 C  
BRANCH  21  22
HETATM   22  C   UNL     1      -6.273  20.042  68.476  1.00  0.00    -0.317 C  
HETATM   23  C   UNL     1      -6.942  19.318  69.383  1.00  0.00    -0.300 C  
ENDBRANCH  21  22
ENDBRANCH  20  21
ENDBRANCH  19  20
ENDBRANCH  18  19
ENDBRANCH  17  18
ENDBRANCH  16  17
ENDBRANCH  15  16
ENDBRANCH  14  15
ENDBRANCH  11  14
ENDBRANCH   5  10
ENDBRANCH   3   5
ENDBRANCH   2   3
TORSDOF 13
ENDMDL
MODEL       36
REMARK 921   NORMALIZED FREE ENERGY PREDICTED BY IDOCK:   -4.17 KCAL/MOL
REMARK 922        TOTAL FREE ENERGY PREDICTED BY IDOCK:   -9.45 KCAL/MOL
REMARK 923 INTER-LIGAND FREE ENERGY PREDICTED BY IDOCK:   -8.29 KCAL/MOL
REMARK 924 INTRA-LIGAND FREE ENERGY PREDICTED BY IDOCK:   -1.16 KCAL/MOL
REMARK 927      BINDING AFFINITY PREDICTED BY RF-SCORE:    0.00 PKD
ROOT
HETATM    1  C   UNL     1     -11.949  12.769  67.920  1.00  0.00    -0.266 C  
HETATM    2  O   UNL     1     -12.269  14.010  67.293  1.00  0.00    -0.405 OA 
ENDROOT
BRANCH   2   3
HETATM    3  C   UNL     1     -12.535  13.940  65.958  1.00  0.00    -0.461 C  
HETATM    4  O   UNL     1     -13.611  13.624  65.463  1.00  0.00    -0.414 OA 
BRANCH   3   5
HETATM    5  C   UNL     1     -11.291  14.341  65.160  1.00  0.00    -0.345 C  
BRANCH   5   6
HETATM    6  C   UNL     1     -10.339  13.156  64.950  1.00  0.00    -0.352 C  
HETATM    7  C   UNL     1     -11.792  11.978  63.210  1.00  0.00    -0.450 C  
HETATM    8  C   UNL     1      -9.955  10.740  64.369  1.00  0.00    -0.400 C  
HETATM    9  C   UNL     1     -11.012  11.838  64.518  1.00  0.00    -0.382 C  
ENDBRANCH   5   6
BRANCH   5  10
HETATM   10  N   UNL     1     -10.596  15.414  65.871  1.00  0.00    -0.322 N  
HETATM   11  C   UNL     1     -10.623  16.706  65.402  1.00  0.00    -0.237 C  
HETATM   12  H   UNL     1     -10.085  15.201  66.728  1.00  0.00     0.000 HD 
HETATM   13  O   UNL     1     -11.218  17.051  64.387  1.00  0.00    -1.167 OA 
BRANCH  11  14
HETATM   14  C   UNL     1      -9.811  17.679  66.223  1.00  0.00    -0.297 C  
BRANCH  14  15
HETATM   15  C   UNL     1     -10.487  19.048  66.241  1.00  0.00    -0.534 C  
BRANCH  15  16
HETATM   16  C   UNL     1     -10.447  19.713  67.618  1.00  0.00    -0.579 C  
BRANCH  16  17
HETATM   17  C   UNL     1      -9.339  19.146  68.502  1.00  0.00    -0.426 C  
BRANCH  17  18
HETATM   18  C   UNL     1      -7.999  19.830  68.252  1.00  0.00    -0.330 C  
BRANCH  18  19
HETATM   19  C   UNL     1      -6.906  18.782  68.046  1.00  0.00    -0.244 C  
BRANCH  19  20
HETATM   20  C   UNL     1      -6.960  17.706  69.127  1.00  0.00    -0.217 C  
BRANCH  20  21
HETATM   21  C   UNL     1      -6.980  16.309  68.504  1.00  0.00    -0.143 C  
BRANCH  21  22
HETATM   22  C   UNL     1      -8.313  15.653  68.704  1.00  0.00    -0.177 C  
HETATM   23  C   UNL     1      -8.522  14.335  68.592  1.00  0.00    -0.142 C  
ENDBRANCH  21  22
ENDBRANCH  20  21
ENDBRANCH  19  20
ENDBRANCH  18  19
ENDBRANCH  17  18
ENDBRANCH  16  17
ENDBRANCH  15  16
ENDBRANCH  14  15
ENDBRANCH  11  14
ENDBRANCH   5  10
ENDBRANCH   3   5
ENDBRANCH   2   3
TORSDOF 13
ENDMDL
MODEL       37
REMARK 921   NORMALIZED FREE ENERGY PREDICTED BY IDOCK:   -4.16 KCAL/MOL
REMARK 922        TOTAL FREE ENERGY PREDICTED BY IDOCK:   -9.43 KCAL/MOL
REMARK 923 INTER-LIGAND FREE ENERGY PREDICTED BY IDOCK:   -7.55 KCAL/MOL
REMARK 924 INTRA-LIGAND FREE ENERGY PREDICTED BY IDOCK:   -1.88 KCAL/MOL
REMARK 927      BINDING AFFINITY PREDICTED BY RF-SCORE:    0.00 PKD
ROOT
HETATM    1  C   UNL     1     -12.410  15.582  70.521  1.00  0.00    -0.418 C  
HETATM    2  O   UNL     1     -12.064  15.675  69.141  1.00  0.00    -0.344 OA 
ENDROOT
BRANCH   2   3
HETATM    3  C   UNL     1     -11.838  14.487  68.512  1.00  0.00    -0.320 C  
HETATM    4  O   UNL     1     -12.159  13.384  68.939  1.00  0.00    -0.331 OA 
BRANCH   3   5
HETATM    5  C   UNL     1     -11.141  14.735  67.171  1.00  0.00    -0.333 C  
BRANCH   5   6
HETATM    6  C   UNL     1     -11.199  13.501  66.260  1.00  0.00    -0.310 C  
HETATM    7  C   UNL     1     -12.286  14.703  64.285  1.00  0.00    -0.432 C  
HETATM    8  C   UNL     1     -12.295  12.205  64.405  1.00  0.00    -0.422 C  
HETATM    9  C   UNL     1     -12.341  13.498  65.225  1.00  0.00    -0.506 C  
ENDBRANCH   5   6
BRANCH   5  10
HETATM   10  N   UNL     1      -9.747  15.101  67.420  1.00  0.00    -0.209 N  
HETATM   11  C   UNL     1      -9.051  15.885  66.531  1.00  0.00    -0.286 C  
HETATM   12  H   UNL     1      -9.284  14.770  68.267  1.00  0.00     0.000 HD 
HETATM   13  O   UNL     1      -9.533  16.332  65.496  1.00  0.00    -0.451 OA 
BRANCH  11  14
HETATM   14  C   UNL     1      -7.610  16.123  66.912  1.00  0.00    -0.275 C  
BRANCH  14  15
HETATM   15  C   UNL     1      -7.503  16.437  68.403  1.00  0.00    -0.171 C  
BRANCH  15  16
HETATM   16  C   UNL     1      -6.252  17.245  68.752  1.00  0.00    -0.176 C  
BRANCH  16  17
HETATM   17  C   UNL     1      -6.569  18.715  69.019  1.00  0.00    -0.284 C  
BRANCH  17  18
HETATM   18  C   UNL     1      -5.916  19.637  67.995  1.00  0.00    -0.234 C  
BRANCH  18  19
HETATM   19  C   UNL     1      -6.907  20.712  67.552  1.00  0.00    -0.389 C  
BRANCH  19  20
HETATM   20  C   UNL     1      -7.919  20.156  66.554  1.00  0.00    -0.317 C  
BRANCH  20  21
HETATM   21  C   UNL     1      -9.350  20.445  67.011  1.00  0.00    -0.511 C  
BRANCH  21  22
HETATM   22  C   UNL     1     -10.049  19.182  67.414  1.00  0.00    -0.465 C  
HETATM   23  C   UNL     1     -10.270  18.822  68.685  1.00  0.00    -0.366 C  
ENDBRANCH  21  22
ENDBRANCH  20  21
ENDBRANCH  19  20
ENDBRANCH  18  19
ENDBRANCH  17  18
ENDBRANCH  16  17
ENDBRANCH  15  16
ENDBRANCH  14  15
ENDBRANCH  11  14
ENDBRANCH   5  10
ENDBRANCH   3   5
ENDBRANCH   2   3
TORSDOF 13
ENDMDL
MODEL       38
REMARK 921   NORMALIZED FREE ENERGY PREDICTED BY IDOCK:   -4.16 KCAL/MOL
REMARK 922        TOTAL FREE ENERGY PREDICTED BY IDOCK:   -9.42 KCAL/MOL
REMARK 923 INTER-LIGAND FREE ENERGY PREDICTED BY IDOCK:   -8.16 KCAL/MOL
REMARK 924 INTRA-LIGAND FREE ENERGY PREDICTED BY IDOCK:   -1.26 KCAL/MOL
REMARK 927      BINDING AFFINITY PREDICTED BY RF-SCORE:    0.00 PKD
ROOT
HETATM    1  C   UNL     1     -14.371   8.381  71.906  1.00  0.00    -0.473 C  
HETATM    2  O   UNL     1     -13.370   9.164  72.554  1.00  0.00    -0.458 OA 
ENDROOT
BRANCH   2   3
HETATM    3  C   UNL     1     -12.945  10.259  71.862  1.00  0.00    -0.449 C  
HETATM    4  O   UNL     1     -13.290  11.415  72.078  1.00  0.00    -0.467 OA 
BRANCH   3   5
HETATM    5  C   UNL     1     -11.944   9.835  70.783  1.00  0.00    -0.299 C  
BRANCH   5   6
HETATM    6  C   UNL     1     -10.897   8.854  71.328  1.00  0.00    -0.360 C  
HETATM    7  C   UNL     1     -10.769   7.430  69.211  1.00  0.00    -0.197 C  
HETATM    8  C   UNL     1      -9.871   6.559  71.377  1.00  0.00    -0.191 C  
HETATM    9  C   UNL     1     -10.949   7.435  70.730  1.00  0.00    -0.272 C  
ENDBRANCH   5   6
BRANCH   5  10
HETATM   10  N   UNL     1     -11.280  11.027  70.256  1.00  0.00    -0.472 N  
HETATM   11  C   UNL     1     -11.570  11.502  68.999  1.00  0.00    -0.318 C  
HETATM   12  H   UNL     1     -10.590  11.513  70.830  1.00  0.00     0.000 HD 
HETATM   13  O   UNL     1     -12.389  10.984  68.248  1.00  0.00    -0.479 OA 
BRANCH  11  14
HETATM   14  C   UNL     1     -10.757  12.706  68.590  1.00  0.00    -0.269 C  
BRANCH  14  15
HETATM   15  C   UNL     1     -10.946  12.989  67.101  1.00  0.00    -0.293 C  
BRANCH  15  16
HETATM   16  C   UNL     1     -11.235  14.462  66.808  1.00  0.00    -0.340 C  
BRANCH  16  17
HETATM   17  C   UNL     1      -9.998  15.341  66.986  1.00  0.00    -0.235 C  
BRANCH  17  18
HETATM   18  C   UNL     1     -10.216  16.432  68.029  1.00  0.00    -0.264 C  
BRANCH  18  19
HETATM   19  C   UNL     1     -11.480  16.140  68.835  1.00  0.00    -0.331 C  
BRANCH  19  20
HETATM   20  C   UNL     1     -11.188  16.104  70.333  1.00  0.00    -0.394 C  
BRANCH  20  21
HETATM   21  C   UNL     1     -12.001  15.007  71.021  1.00  0.00    -0.376 C  
BRANCH  21  22
HETATM   22  C   UNL     1     -13.080  15.598  71.878  1.00  0.00    -0.545 C  
HETATM   23  C   UNL     1     -14.383  15.322  71.737  1.00  0.00    -0.678 C  
ENDBRANCH  21  22
ENDBRANCH  20  21
ENDBRANCH  19  20
ENDBRANCH  18  19
ENDBRANCH  17  18
ENDBRANCH  16  17
ENDBRANCH  15  16
ENDBRANCH  14  15
ENDBRANCH  11  14
ENDBRANCH   5  10
ENDBRANCH   3   5
ENDBRANCH   2   3
TORSDOF 13
ENDMDL
MODEL       39
REMARK 921   NORMALIZED FREE ENERGY PREDICTED BY IDOCK:   -4.15 KCAL/MOL
REMARK 922        TOTAL FREE ENERGY PREDICTED BY IDOCK:   -9.41 KCAL/MOL
REMARK 923 INTER-LIGAND FREE ENERGY PREDICTED BY IDOCK:   -8.48 KCAL/MOL
REMARK 924 INTRA-LIGAND FREE ENERGY PREDICTED BY IDOCK:   -0.94 KCAL/MOL
REMARK 927      BINDING AFFINITY PREDICTED BY RF-SCORE:    0.00 PKD
ROOT
HETATM    1  C   UNL     1     -12.085  15.035  64.459  1.00  0.00    -0.363 C  
HETATM    2  O   UNL     1     -12.778  13.838  64.809  1.00  0.00    -0.647 OA 
ENDROOT
BRANCH   2   3
HETATM    3  C   UNL     1     -12.368  12.713  64.157  1.00  0.00    -0.436 C  
HETATM    4  O   UNL     1     -12.953  12.180  63.222  1.00  0.00    -0.735 OA 
BRANCH   3   5
HETATM    5  C   UNL     1     -11.045  12.222  64.753  1.00  0.00    -0.311 C  
BRANCH   5   6
HETATM    6  C   UNL     1     -10.620  10.870  64.165  1.00  0.00    -0.327 C  
HETATM    7  C   UNL     1      -8.388  10.754  65.401  1.00  0.00    -0.104 C  
HETATM    8  C   UNL     1      -8.820   9.276  63.431  1.00  0.00    -0.150 C  
HETATM    9  C   UNL     1      -9.100  10.648  64.052  1.00  0.00    -0.246 C  
ENDBRANCH   5   6
BRANCH   5  10
HETATM   10  N   UNL     1     -11.190  12.109  66.204  1.00  0.00    -0.323 N  
HETATM   11  C   UNL     1     -10.464  12.909  67.053  1.00  0.00    -0.238 C  
HETATM   12  H   UNL     1     -11.841  11.425  66.592  1.00  0.00     0.000 HD 
HETATM   13  O   UNL     1      -9.667  13.760  66.672  1.00  0.00    -0.271 OA 
BRANCH  11  14
HETATM   14  C   UNL     1     -10.693  12.625  68.518  1.00  0.00    -0.271 C  
BRANCH  14  15
HETATM   15  C   UNL     1     -11.927  13.375  69.014  1.00  0.00    -0.357 C  
BRANCH  15  16
HETATM   16  C   UNL     1     -12.001  14.811  68.491  1.00  0.00    -0.284 C  
BRANCH  16  17
HETATM   17  C   UNL     1     -11.884  15.841  69.613  1.00  0.00    -0.352 C  
BRANCH  17  18
HETATM   18  C   UNL     1     -11.165  15.279  70.835  1.00  0.00    -0.367 C  
BRANCH  18  19
HETATM   19  C   UNL     1     -12.097  15.301  72.045  1.00  0.00    -0.459 C  
BRANCH  19  20
HETATM   20  C   UNL     1     -13.549  15.511  71.625  1.00  0.00    -0.575 C  
BRANCH  20  21
HETATM   21  C   UNL     1     -14.383  14.259  71.901  1.00  0.00    -0.597 C  
BRANCH  21  22
HETATM   22  C   UNL     1     -13.537  13.173  72.494  1.00  0.00    -0.595 C  
HETATM   23  C   UNL     1     -13.261  12.018  71.874  1.00  0.00    -0.469 C  
ENDBRANCH  21  22
ENDBRANCH  20  21
ENDBRANCH  19  20
ENDBRANCH  18  19
ENDBRANCH  17  18
ENDBRANCH  16  17
ENDBRANCH  15  16
ENDBRANCH  14  15
ENDBRANCH  11  14
ENDBRANCH   5  10
ENDBRANCH   3   5
ENDBRANCH   2   3
TORSDOF 13
ENDMDL
MODEL       40
REMARK 921   NORMALIZED FREE ENERGY PREDICTED BY IDOCK:   -4.15 KCAL/MOL
REMARK 922        TOTAL FREE ENERGY PREDICTED BY IDOCK:   -9.41 KCAL/MOL
REMARK 923 INTER-LIGAND FREE ENERGY PREDICTED BY IDOCK:   -7.72 KCAL/MOL
REMARK 924 INTRA-LIGAND FREE ENERGY PREDICTED BY IDOCK:   -1.69 KCAL/MOL
REMARK 927      BINDING AFFINITY PREDICTED BY RF-SCORE:    0.00 PKD
ROOT
HETATM    1  C   UNL     1     -10.501  19.689  65.705  1.00  0.00    -0.444 C  
HETATM    2  O   UNL     1     -10.488  18.263  65.689  1.00  0.00    -0.627 OA 
ENDROOT
BRANCH   2   3
HETATM    3  C   UNL     1     -10.404  17.664  66.910  1.00  0.00    -0.329 C  
HETATM    4  O   UNL     1     -10.676  18.192  67.982  1.00  0.00    -0.374 OA 
BRANCH   3   5
HETATM    5  C   UNL     1      -9.941  16.213  66.746  1.00  0.00    -0.258 C  
BRANCH   5   6
HETATM    6  C   UNL     1      -8.419  16.115  66.575  1.00  0.00    -0.346 C  
HETATM    7  C   UNL     1      -8.075  14.381  68.419  1.00  0.00    -0.143 C  
HETATM    8  C   UNL     1      -6.136  15.691  67.538  1.00  0.00    -0.143 C  
HETATM    9  C   UNL     1      -7.636  15.729  67.844  1.00  0.00    -0.144 C  
ENDBRANCH   5   6
BRANCH   5  10
HETATM   10  N   UNL     1     -10.609  15.630  65.581  1.00  0.00    -0.356 N  
HETATM   11  C   UNL     1     -11.602  14.691  65.732  1.00  0.00    -0.328 C  
HETATM   12  H   UNL     1     -10.334  15.926  64.644  1.00  0.00     0.000 HD 
HETATM   13  O   UNL     1     -11.998  14.287  66.819  1.00  0.00    -0.414 OA 
BRANCH  11  14
HETATM   14  C   UNL     1     -12.146  14.154  64.431  1.00  0.00    -0.486 C  
BRANCH  14  15
HETATM   15  C   UNL     1     -12.328  12.640  64.520  1.00  0.00    -0.537 C  
BRANCH  15  16
HETATM   16  C   UNL     1     -11.459  11.877  63.518  1.00  0.00    -0.523 C  
BRANCH  16  17
HETATM   17  C   UNL     1     -10.090  11.522  64.093  1.00  0.00    -0.354 C  
BRANCH  17  18
HETATM   18  C   UNL     1     -10.202  10.719  65.385  1.00  0.00    -0.341 C  
BRANCH  18  19
HETATM   19  C   UNL     1      -9.343  11.359  66.474  1.00  0.00    -0.204 C  
BRANCH  19  20
HETATM   20  C   UNL     1      -9.874  11.029  67.866  1.00  0.00    -0.186 C  
BRANCH  20  21
HETATM   21  C   UNL     1     -11.403  11.003  67.874  1.00  0.00    -0.381 C  
BRANCH  21  22
HETATM   22  C   UNL     1     -11.932  11.040  69.276  1.00  0.00    -0.410 C  
HETATM   23  C   UNL     1     -11.951  12.139  70.040  1.00  0.00    -0.391 C  
ENDBRANCH  21  22
ENDBRANCH  20  21
ENDBRANCH  19  20
ENDBRANCH  18  19
ENDBRANCH  17  18
ENDBRANCH  16  17
ENDBRANCH  15  16
ENDBRANCH  14  15
ENDBRANCH  11  14
ENDBRANCH   5  10
ENDBRANCH   3   5
ENDBRANCH   2   3
TORSDOF 13
ENDMDL
MODEL       41
REMARK 921   NORMALIZED FREE ENERGY PREDICTED BY IDOCK:   -4.14 KCAL/MOL
REMARK 922        TOTAL FREE ENERGY PREDICTED BY IDOCK:   -9.40 KCAL/MOL
REMARK 923 INTER-LIGAND FREE ENERGY PREDICTED BY IDOCK:   -7.88 KCAL/MOL
REMARK 924 INTRA-LIGAND FREE ENERGY PREDICTED BY IDOCK:   -1.51 KCAL/MOL
REMARK 927      BINDING AFFINITY PREDICTED BY RF-SCORE:    0.00 PKD
ROOT
HETATM    1  C   UNL     1     -12.087  12.105  63.682  1.00  0.00    -0.551 C  
HETATM    2  O   UNL     1     -12.967  12.348  64.778  1.00  0.00    -0.786 OA 
ENDROOT
BRANCH   2   3
HETATM    3  C   UNL     1     -12.742  13.505  65.464  1.00  0.00    -0.440 C  
HETATM    4  O   UNL     1     -13.410  14.528  65.372  1.00  0.00    -0.458 OA 
BRANCH   3   5
HETATM    5  C   UNL     1     -11.537  13.330  66.394  1.00  0.00    -0.347 C  
BRANCH   5   6
HETATM    6  C   UNL     1     -11.946  12.756  67.757  1.00  0.00    -0.316 C  
HETATM    7  C   UNL     1      -9.991  11.122  67.933  1.00  0.00    -0.189 C  
HETATM    8  C   UNL     1     -11.998  10.852  69.399  1.00  0.00    -0.393 C  
HETATM    9  C   UNL     1     -11.507  11.303  68.020  1.00  0.00    -0.369 C  
ENDBRANCH   5   6
BRANCH   5  10
HETATM   10  N   UNL     1     -10.886  14.628  66.577  1.00  0.00    -0.309 N  
HETATM   11  C   UNL     1     -10.049  15.141  65.616  1.00  0.00    -0.363 C  
HETATM   12  H   UNL     1     -11.057  15.160  67.431  1.00  0.00     0.000 HD 
HETATM   13  O   UNL     1      -9.795  14.573  64.560  1.00  0.00     0.000 OA 
BRANCH  11  14
HETATM   14  C   UNL     1      -9.418  16.461  65.986  1.00  0.00    -0.345 C  
BRANCH  14  15
HETATM   15  C   UNL     1     -10.365  17.269  66.871  1.00  0.00    -0.310 C  
BRANCH  15  16
HETATM   16  C   UNL     1     -10.576  18.698  66.367  1.00  0.00    -0.399 C  
BRANCH  16  17
HETATM   17  C   UNL     1     -10.255  19.741  67.435  1.00  0.00    -0.575 C  
BRANCH  17  18
HETATM   18  C   UNL     1      -9.419  19.160  68.571  1.00  0.00    -0.444 C  
BRANCH  18  19
HETATM   19  C   UNL     1      -7.976  19.652  68.463  1.00  0.00    -0.350 C  
BRANCH  19  20
HETATM   20  C   UNL     1      -7.846  20.764  67.427  1.00  0.00    -0.293 C  
BRANCH  20  21
HETATM   21  C   UNL     1      -6.633  20.529  66.525  1.00  0.00    -0.295 C  
BRANCH  21  22
HETATM   22  C   UNL     1      -6.353  19.064  66.376  1.00  0.00    -0.209 C  
HETATM   23  C   UNL     1      -6.305  18.429  65.198  1.00  0.00    -0.141 C  
ENDBRANCH  21  22
ENDBRANCH  20  21
ENDBRANCH  19  20
ENDBRANCH  18  19
ENDBRANCH  17  18
ENDBRANCH  16  17
ENDBRANCH  15  16
ENDBRANCH  14  15
ENDBRANCH  11  14
ENDBRANCH   5  10
ENDBRANCH   3   5
ENDBRANCH   2   3
TORSDOF 13
ENDMDL
MODEL       42
REMARK 921   NORMALIZED FREE ENERGY PREDICTED BY IDOCK:   -4.12 KCAL/MOL
REMARK 922        TOTAL FREE ENERGY PREDICTED BY IDOCK:   -9.37 KCAL/MOL
REMARK 923 INTER-LIGAND FREE ENERGY PREDICTED BY IDOCK:   -8.20 KCAL/MOL
REMARK 924 INTRA-LIGAND FREE ENERGY PREDICTED BY IDOCK:   -1.17 KCAL/MOL
REMARK 927      BINDING AFFINITY PREDICTED BY RF-SCORE:    0.00 PKD
ROOT
HETATM    1  C   UNL     1     -12.597  12.029  63.480  1.00  0.00    -0.507 C  
HETATM    2  O   UNL     1     -11.185  11.931  63.307  1.00  0.00    -0.364 OA 
ENDROOT
BRANCH   2   3
HETATM    3  C   UNL     1     -10.510  11.330  64.327  1.00  0.00    -0.357 C  
HETATM    4  O   UNL     1      -9.810  10.329  64.225  1.00  0.00    -0.329 OA 
BRANCH   3   5
HETATM    5  C   UNL     1     -10.735  12.108  65.627  1.00  0.00    -0.275 C  
BRANCH   5   6
HETATM    6  C   UNL     1     -10.033  13.472  65.605  1.00  0.00    -0.252 C  
HETATM    7  C   UNL     1     -11.777  14.670  67.036  1.00  0.00    -0.379 C  
HETATM    8  C   UNL     1     -10.137  15.984  65.681  1.00  0.00    -0.384 C  
HETATM    9  C   UNL     1     -10.962  14.694  65.742  1.00  0.00    -0.330 C  
ENDBRANCH   5   6
BRANCH   5  10
HETATM   10  N   UNL     1     -10.236  11.312  66.749  1.00  0.00    -0.218 N  
HETATM   11  C   UNL     1     -11.060  10.968  67.794  1.00  0.00    -0.295 C  
HETATM   12  H   UNL     1      -9.262  11.008  66.756  1.00  0.00     0.000 HD 
HETATM   13  O   UNL     1     -12.243  11.284  67.861  1.00  0.00    -0.570 OA 
BRANCH  11  14
HETATM   14  C   UNL     1     -10.375  10.194  68.893  1.00  0.00    -0.223 C  
BRANCH  14  15
HETATM   15  C   UNL     1     -11.410   9.600  69.846  1.00  0.00    -0.200 C  
BRANCH  15  16
HETATM   16  C   UNL     1     -11.459  10.321  71.195  1.00  0.00    -0.319 C  
BRANCH  16  17
HETATM   17  C   UNL     1     -12.659  11.258  71.306  1.00  0.00    -0.487 C  
BRANCH  17  18
HETATM   18  C   UNL     1     -12.312  12.685  70.895  1.00  0.00    -0.352 C  
BRANCH  18  19
HETATM   19  C   UNL     1     -13.474  13.622  71.222  1.00  0.00    -0.196 C  
BRANCH  19  20
HETATM   20  C   UNL     1     -13.497  13.978  72.706  1.00  0.00    -0.576 C  
BRANCH  20  21
HETATM   21  C   UNL     1     -13.638  15.488  72.901  1.00  0.00    -0.633 C  
BRANCH  21  22
HETATM   22  C   UNL     1     -12.296  16.157  72.887  1.00  0.00    -0.607 C  
HETATM   23  C   UNL     1     -11.576  16.367  71.778  1.00  0.00    -0.343 C  
ENDBRANCH  21  22
ENDBRANCH  20  21
ENDBRANCH  19  20
ENDBRANCH  18  19
ENDBRANCH  17  18
ENDBRANCH  16  17
ENDBRANCH  15  16
ENDBRANCH  14  15
ENDBRANCH  11  14
ENDBRANCH   5  10
ENDBRANCH   3   5
ENDBRANCH   2   3
TORSDOF 13
ENDMDL
MODEL       43
REMARK 921   NORMALIZED FREE ENERGY PREDICTED BY IDOCK:   -4.12 KCAL/MOL
REMARK 922        TOTAL FREE ENERGY PREDICTED BY IDOCK:   -9.36 KCAL/MOL
REMARK 923 INTER-LIGAND FREE ENERGY PREDICTED BY IDOCK:   -8.11 KCAL/MOL
REMARK 924 INTRA-LIGAND FREE ENERGY PREDICTED BY IDOCK:   -1.25 KCAL/MOL
REMARK 927      BINDING AFFINITY PREDICTED BY RF-SCORE:    0.00 PKD
ROOT
HETATM    1  C   UNL     1     -12.085  14.974  64.479  1.00  0.00    -0.363 C  
HETATM    2  O   UNL     1     -12.918  13.872  64.832  1.00  0.00    -0.711 OA 
ENDROOT
BRANCH   2   3
HETATM    3  C   UNL     1     -12.506  12.656  64.373  1.00  0.00    -0.428 C  
HETATM    4  O   UNL     1     -13.028  12.027  63.460  1.00  0.00    -0.774 OA 
BRANCH   3   5
HETATM    5  C   UNL     1     -11.270  12.198  65.153  1.00  0.00    -0.329 C  
BRANCH   5   6
HETATM    6  C   UNL     1     -10.717  10.870  64.620  1.00  0.00    -0.254 C  
HETATM    7  C   UNL     1      -8.498  11.004  65.879  1.00  0.00    -0.140 C  
HETATM    8  C   UNL     1      -8.769   9.423  63.961  1.00  0.00    -0.225 C  
HETATM    9  C   UNL     1      -9.181  10.785  64.528  1.00  0.00    -0.250 C  
ENDBRANCH   5   6
BRANCH   5  10
HETATM   10  N   UNL     1     -11.627  12.055  66.565  1.00  0.00    -0.351 N  
HETATM   11  C   UNL     1     -11.068  12.868  67.522  1.00  0.00    -0.269 C  
HETATM   12  H   UNL     1     -12.300  11.341  66.844  1.00  0.00     0.000 HD 
HETATM   13  O   UNL     1     -10.258  13.755  67.274  1.00  0.00    -0.249 OA 
BRANCH  11  14
HETATM   14  C   UNL     1     -11.501  12.552  68.933  1.00  0.00    -0.355 C  
BRANCH  14  15
HETATM   15  C   UNL     1     -12.405  13.661  69.468  1.00  0.00    -0.232 C  
BRANCH  15  16
HETATM   16  C   UNL     1     -12.071  14.056  70.908  1.00  0.00    -0.404 C  
BRANCH  16  17
HETATM   17  C   UNL     1     -11.728  15.538  71.036  1.00  0.00    -0.423 C  
BRANCH  17  18
HETATM   18  C   UNL     1     -11.356  16.159  69.694  1.00  0.00    -0.316 C  
BRANCH  18  19
HETATM   19  C   UNL     1      -9.836  16.192  69.537  1.00  0.00    -0.198 C  
BRANCH  19  20
HETATM   20  C   UNL     1      -9.409  17.220  68.493  1.00  0.00    -0.276 C  
BRANCH  20  21
HETATM   21  C   UNL     1     -10.594  17.636  67.621  1.00  0.00    -0.364 C  
BRANCH  21  22
HETATM   22  C   UNL     1     -10.586  19.115  67.376  1.00  0.00    -0.577 C  
HETATM   23  C   UNL     1     -10.532  19.671  66.159  1.00  0.00    -0.624 C  
ENDBRANCH  21  22
ENDBRANCH  20  21
ENDBRANCH  19  20
ENDBRANCH  18  19
ENDBRANCH  17  18
ENDBRANCH  16  17
ENDBRANCH  15  16
ENDBRANCH  14  15
ENDBRANCH  11  14
ENDBRANCH   5  10
ENDBRANCH   3   5
ENDBRANCH   2   3
TORSDOF 13
ENDMDL
MODEL       44
REMARK 921   NORMALIZED FREE ENERGY PREDICTED BY IDOCK:   -4.11 KCAL/MOL
REMARK 922        TOTAL FREE ENERGY PREDICTED BY IDOCK:   -9.34 KCAL/MOL
REMARK 923 INTER-LIGAND FREE ENERGY PREDICTED BY IDOCK:   -7.36 KCAL/MOL
REMARK 924 INTRA-LIGAND FREE ENERGY PREDICTED BY IDOCK:   -1.98 KCAL/MOL
REMARK 927      BINDING AFFINITY PREDICTED BY RF-SCORE:    0.00 PKD
ROOT
HETATM    1  C   UNL     1     -11.631  10.149  70.891  1.00  0.00    -0.372 C  
HETATM    2  O   UNL     1     -12.084  10.647  69.634  1.00  0.00    -0.291 OA 
ENDROOT
BRANCH   2   3
HETATM    3  C   UNL     1     -11.897  11.982  69.431  1.00  0.00    -0.324 C  
HETATM    4  O   UNL     1     -12.090  12.862  70.262  1.00  0.00    -0.347 OA 
BRANCH   3   5
HETATM    5  C   UNL     1     -11.380  12.223  68.009  1.00  0.00    -0.293 C  
BRANCH   5   6
HETATM    6  C   UNL     1     -10.237  11.266  67.646  1.00  0.00    -0.206 C  
HETATM    7  C   UNL     1     -10.524  11.486  65.118  1.00  0.00    -0.340 C  
HETATM    8  C   UNL     1      -9.201   9.595  66.079  1.00  0.00    -0.232 C  
HETATM    9  C   UNL     1     -10.395  10.528  66.303  1.00  0.00    -0.276 C  
ENDBRANCH   5   6
BRANCH   5  10
HETATM   10  N   UNL     1     -10.922  13.608  67.898  1.00  0.00    -0.254 N  
HETATM   11  C   UNL     1     -11.520  14.483  67.023  1.00  0.00    -0.370 C  
HETATM   12  H   UNL     1     -10.147  13.929  68.479  1.00  0.00     0.000 HD 
HETATM   13  O   UNL     1     -12.460  14.183  66.296  1.00  0.00    -0.466 OA 
BRANCH  11  14
HETATM   14  C   UNL     1     -10.891  15.855  66.994  1.00  0.00    -0.252 C  
BRANCH  14  15
HETATM   15  C   UNL     1      -9.847  15.934  65.883  1.00  0.00    -0.383 C  
BRANCH  15  16
HETATM   16  C   UNL     1      -8.487  16.426  66.379  1.00  0.00    -0.364 C  
BRANCH  16  17
HETATM   17  C   UNL     1      -8.360  16.341  67.898  1.00  0.00    -0.170 C  
BRANCH  17  18
HETATM   18  C   UNL     1      -7.474  17.447  68.462  1.00  0.00    -0.251 C  
BRANCH  18  19
HETATM   19  C   UNL     1      -7.983  18.812  68.001  1.00  0.00    -0.306 C  
BRANCH  19  20
HETATM   20  C   UNL     1      -9.122  19.308  68.888  1.00  0.00    -0.368 C  
BRANCH  20  21
HETATM   21  C   UNL     1     -10.358  19.639  68.052  1.00  0.00    -0.579 C  
BRANCH  21  22
HETATM   22  C   UNL     1     -10.001  19.793  66.604  1.00  0.00    -0.556 C  
HETATM   23  C   UNL     1     -10.867  19.619  65.597  1.00  0.00    -0.358 C  
ENDBRANCH  21  22
ENDBRANCH  20  21
ENDBRANCH  19  20
ENDBRANCH  18  19
ENDBRANCH  17  18
ENDBRANCH  16  17
ENDBRANCH  15  16
ENDBRANCH  14  15
ENDBRANCH  11  14
ENDBRANCH   5  10
ENDBRANCH   3   5
ENDBRANCH   2   3
TORSDOF 13
ENDMDL
MODEL       45
REMARK 921   NORMALIZED FREE ENERGY PREDICTED BY IDOCK:   -4.11 KCAL/MOL
REMARK 922        TOTAL FREE ENERGY PREDICTED BY IDOCK:   -9.34 KCAL/MOL
REMARK 923 INTER-LIGAND FREE ENERGY PREDICTED BY IDOCK:   -7.75 KCAL/MOL
REMARK 924 INTRA-LIGAND FREE ENERGY PREDICTED BY IDOCK:   -1.59 KCAL/MOL
REMARK 927      BINDING AFFINITY PREDICTED BY RF-SCORE:    0.00 PKD
ROOT
HETATM    1  C   UNL     1     -10.253  15.841  68.446  1.00  0.00    -0.223 C  
HETATM    2  O   UNL     1     -10.524  14.449  68.291  1.00  0.00    -0.234 OA 
ENDROOT
BRANCH   2   3
HETATM    3  C   UNL     1     -10.125  13.904  67.107  1.00  0.00    -0.252 C  
HETATM    4  O   UNL     1      -9.466  14.476  66.247  1.00  0.00    -0.289 OA 
BRANCH   3   5
HETATM    5  C   UNL     1     -10.602  12.451  67.019  1.00  0.00    -0.225 C  
BRANCH   5   6
HETATM    6  C   UNL     1     -11.773  12.293  66.039  1.00  0.00    -0.451 C  
HETATM    7  C   UNL     1     -10.494  10.859  64.357  1.00  0.00    -0.403 C  
HETATM    8  C   UNL     1     -12.634  11.971  63.699  1.00  0.00    -0.605 C  
HETATM    9  C   UNL     1     -11.376  12.090  64.564  1.00  0.00    -0.393 C  
ENDBRANCH   5   6
BRANCH   5  10
HETATM   10  N   UNL     1     -11.007  12.002  68.351  1.00  0.00    -0.222 N  
HETATM   11  C   UNL     1     -10.786  10.708  68.759  1.00  0.00    -0.229 C  
HETATM   12  H   UNL     1     -11.460  12.659  68.987  1.00  0.00     0.000 HD 
HETATM   13  O   UNL     1     -10.242   9.858  68.063  1.00  0.00    -0.164 OA 
BRANCH  11  14
HETATM   14  C   UNL     1     -11.313  10.397  70.139  1.00  0.00    -0.397 C  
BRANCH  14  15
HETATM   15  C   UNL     1     -12.449  11.352  70.499  1.00  0.00    -0.381 C  
BRANCH  15  16
HETATM   16  C   UNL     1     -13.157  10.970  71.800  1.00  0.00    -0.554 C  
BRANCH  16  17
HETATM   17  C   UNL     1     -12.914   9.512  72.184  1.00  0.00    -0.497 C  
BRANCH  17  18
HETATM   18  C   UNL     1     -14.187   8.677  72.102  1.00  0.00    -0.520 C  
BRANCH  18  19
HETATM   19  C   UNL     1     -13.871   7.295  71.532  1.00  0.00    -0.463 C  
BRANCH  19  20
HETATM   20  C   UNL     1     -12.421   6.902  71.804  1.00  0.00    -0.397 C  
BRANCH  20  21
HETATM   21  C   UNL     1     -11.685   6.600  70.498  1.00  0.00    -0.453 C  
BRANCH  21  22
HETATM   22  C   UNL     1     -10.222   6.901  70.626  1.00  0.00    -0.212 C  
HETATM   23  C   UNL     1      -9.670   7.483  71.698  1.00  0.00    -0.184 C  
ENDBRANCH  21  22
ENDBRANCH  20  21
ENDBRANCH  19  20
ENDBRANCH  18  19
ENDBRANCH  17  18
ENDBRANCH  16  17
ENDBRANCH  15  16
ENDBRANCH  14  15
ENDBRANCH  11  14
ENDBRANCH   5  10
ENDBRANCH   3   5
ENDBRANCH   2   3
TORSDOF 13
ENDMDL
MODEL       46
REMARK 921   NORMALIZED FREE ENERGY PREDICTED BY IDOCK:   -4.09 KCAL/MOL
REMARK 922        TOTAL FREE ENERGY PREDICTED BY IDOCK:   -9.31 KCAL/MOL
REMARK 923 INTER-LIGAND FREE ENERGY PREDICTED BY IDOCK:   -7.65 KCAL/MOL
REMARK 924 INTRA-LIGAND FREE ENERGY PREDICTED BY IDOCK:   -1.67 KCAL/MOL
REMARK 927      BINDING AFFINITY PREDICTED BY RF-SCORE:    0.00 PKD
ROOT
HETATM    1  C   UNL     1     -11.877  12.236  63.938  1.00  0.00    -0.464 C  
HETATM    2  O   UNL     1     -12.068  12.036  65.337  1.00  0.00    -0.444 OA 
ENDROOT
BRANCH   2   3
HETATM    3  C   UNL     1     -12.115  13.171  66.090  1.00  0.00    -0.417 C  
HETATM    4  O   UNL     1     -12.857  14.126  65.891  1.00  0.00    -0.471 OA 
BRANCH   3   5
HETATM    5  C   UNL     1     -11.115  13.069  67.245  1.00  0.00    -0.273 C  
BRANCH   5   6
HETATM    6  C   UNL     1     -11.788  12.606  68.545  1.00  0.00    -0.342 C  
HETATM    7  C   UNL     1     -10.213  10.636  68.949  1.00  0.00    -0.216 C  
HETATM    8  C   UNL     1     -12.398  10.774  70.155  1.00  0.00    -0.401 C  
HETATM    9  C   UNL     1     -11.666  11.100  68.850  1.00  0.00    -0.406 C  
ENDBRANCH   5   6
BRANCH   5  10
HETATM   10  N   UNL     1     -10.490  14.376  67.450  1.00  0.00    -0.259 N  
HETATM   11  C   UNL     1      -9.127  14.530  67.361  1.00  0.00    -0.196 C  
HETATM   12  H   UNL     1     -11.075  15.185  67.660  1.00  0.00     0.000 HD 
HETATM   13  O   UNL     1      -8.353  13.615  67.105  1.00  0.00    -0.186 OA 
BRANCH  11  14
HETATM   14  C   UNL     1      -8.643  15.930  67.653  1.00  0.00    -0.172 C  
BRANCH  14  15
HETATM   15  C   UNL     1      -8.382  16.681  66.349  1.00  0.00    -0.353 C  
BRANCH  15  16
HETATM   16  C   UNL     1      -6.970  17.265  66.272  1.00  0.00    -0.299 C  
BRANCH  16  17
HETATM   17  C   UNL     1      -6.980  18.783  66.111  1.00  0.00    -0.285 C  
BRANCH  17  18
HETATM   18  C   UNL     1      -6.507  19.496  67.374  1.00  0.00    -0.214 C  
BRANCH  18  19
HETATM   19  C   UNL     1      -7.647  20.324  67.965  1.00  0.00    -0.240 C  
BRANCH  19  20
HETATM   20  C   UNL     1      -8.631  19.445  68.733  1.00  0.00    -0.371 C  
BRANCH  20  21
HETATM   21  C   UNL     1     -10.063  19.954  68.563  1.00  0.00    -0.538 C  
BRANCH  21  22
HETATM   22  C   UNL     1     -10.764  19.221  67.459  1.00  0.00    -0.571 C  
HETATM   23  C   UNL     1     -10.721  19.590  66.172  1.00  0.00    -0.528 C  
ENDBRANCH  21  22
ENDBRANCH  20  21
ENDBRANCH  19  20
ENDBRANCH  18  19
ENDBRANCH  17  18
ENDBRANCH  16  17
ENDBRANCH  15  16
ENDBRANCH  14  15
ENDBRANCH  11  14
ENDBRANCH   5  10
ENDBRANCH   3   5
ENDBRANCH   2   3
TORSDOF 13
ENDMDL
MODEL       47
REMARK 921   NORMALIZED FREE ENERGY PREDICTED BY IDOCK:   -4.08 KCAL/MOL
REMARK 922        TOTAL FREE ENERGY PREDICTED BY IDOCK:   -9.28 KCAL/MOL
REMARK 923 INTER-LIGAND FREE ENERGY PREDICTED BY IDOCK:   -8.04 KCAL/MOL
REMARK 924 INTRA-LIGAND FREE ENERGY PREDICTED BY IDOCK:   -1.24 KCAL/MOL
REMARK 927      BINDING AFFINITY PREDICTED BY RF-SCORE:    0.00 PKD
ROOT
HETATM    1  C   UNL     1     -12.461  12.454  63.529  1.00  0.00    -0.500 C  
HETATM    2  O   UNL     1     -12.015  13.359  64.538  1.00  0.00    -0.373 OA 
ENDROOT
BRANCH   2   3
HETATM    3  C   UNL     1     -11.632  12.783  65.713  1.00  0.00    -0.376 C  
HETATM    4  O   UNL     1     -12.379  12.224  66.507  1.00  0.00    -0.504 OA 
BRANCH   3   5
HETATM    5  C   UNL     1     -10.116  12.917  65.885  1.00  0.00    -0.289 C  
BRANCH   5   6
HETATM    6  C   UNL     1      -9.457  11.569  66.208  1.00  0.00    -0.235 C  
HETATM    7  C   UNL     1      -9.421  10.727  63.797  1.00  0.00    -0.320 C  
HETATM    8  C   UNL     1      -9.101   9.133  65.697  1.00  0.00    -0.273 C  
HETATM    9  C   UNL     1      -9.803  10.417  65.245  1.00  0.00    -0.361 C  
ENDBRANCH   5   6
BRANCH   5  10
HETATM   10  N   UNL     1      -9.842  13.873  66.958  1.00  0.00    -0.251 N  
HETATM   11  C   UNL     1      -9.777  15.222  66.704  1.00  0.00    -0.252 C  
HETATM   12  H   UNL     1      -9.698  13.533  67.909  1.00  0.00     0.000 HD 
HETATM   13  O   UNL     1      -9.945  15.715  65.594  1.00  0.00    -0.327 OA 
BRANCH  11  14
HETATM   14  C   UNL     1      -9.432  16.062  67.909  1.00  0.00    -0.210 C  
BRANCH  14  15
HETATM   15  C   UNL     1     -10.677  16.779  68.427  1.00  0.00    -0.362 C  
BRANCH  15  16
HETATM   16  C   UNL     1     -11.577  15.874  69.270  1.00  0.00    -0.372 C  
BRANCH  16  17
HETATM   17  C   UNL     1     -10.993  15.607  70.655  1.00  0.00    -0.364 C  
BRANCH  17  18
HETATM   18  C   UNL     1     -12.057  15.147  71.647  1.00  0.00    -0.424 C  
BRANCH  18  19
HETATM   19  C   UNL     1     -12.968  14.110  70.992  1.00  0.00    -0.399 C  
BRANCH  19  20
HETATM   20  C   UNL     1     -13.503  13.115  72.019  1.00  0.00    -0.598 C  
BRANCH  20  21
HETATM   21  C   UNL     1     -13.036  11.695  71.696  1.00  0.00    -0.483 C  
BRANCH  21  22
HETATM   22  C   UNL     1     -12.315  11.655  70.382  1.00  0.00    -0.373 C  
HETATM   23  C   UNL     1     -11.375  10.752  70.072  1.00  0.00    -0.397 C  
ENDBRANCH  21  22
ENDBRANCH  20  21
ENDBRANCH  19  20
ENDBRANCH  18  19
ENDBRANCH  17  18
ENDBRANCH  16  17
ENDBRANCH  15  16
ENDBRANCH  14  15
ENDBRANCH  11  14
ENDBRANCH   5  10
ENDBRANCH   3   5
ENDBRANCH   2   3
TORSDOF 13
ENDMDL
MODEL       48
REMARK 921   NORMALIZED FREE ENERGY PREDICTED BY IDOCK:   -4.07 KCAL/MOL
REMARK 922        TOTAL FREE ENERGY PREDICTED BY IDOCK:   -9.27 KCAL/MOL
REMARK 923 INTER-LIGAND FREE ENERGY PREDICTED BY IDOCK:   -7.86 KCAL/MOL
REMARK 924 INTRA-LIGAND FREE ENERGY PREDICTED BY IDOCK:   -1.40 KCAL/MOL
REMARK 927      BINDING AFFINITY PREDICTED BY RF-SCORE:    0.00 PKD
ROOT
HETATM    1  C   UNL     1     -11.128  14.754  66.227  1.00  0.00    -0.341 C  
HETATM    2  O   UNL     1     -12.230  13.874  66.439  1.00  0.00    -0.435 OA 
ENDROOT
BRANCH   2   3
HETATM    3  C   UNL     1     -12.281  12.791  65.612  1.00  0.00    -0.444 C  
HETATM    4  O   UNL     1     -13.159  12.568  64.787  1.00  0.00    -0.853 OA 
BRANCH   3   5
HETATM    5  C   UNL     1     -11.059  11.900  65.849  1.00  0.00    -0.316 C  
BRANCH   5   6
HETATM    6  C   UNL     1     -10.782  10.980  64.653  1.00  0.00    -0.318 C  
HETATM    7  C   UNL     1      -8.401  10.374  65.354  1.00  0.00    -0.166 C  
HETATM    8  C   UNL     1      -9.175   9.952  63.014  1.00  0.00    -0.284 C  
HETATM    9  C   UNL     1      -9.304  10.878  64.227  1.00  0.00    -0.259 C  
ENDBRANCH   5   6
BRANCH   5  10
HETATM   10  N   UNL     1     -11.283  11.096  67.051  1.00  0.00    -0.275 N  
HETATM   11  C   UNL     1     -10.548  11.310  68.193  1.00  0.00    -0.192 C  
HETATM   12  H   UNL     1     -11.995  10.365  67.041  1.00  0.00     0.000 HD 
HETATM   13  O   UNL     1      -9.680  12.170  68.293  1.00  0.00    -0.209 OA 
BRANCH  11  14
HETATM   14  C   UNL     1     -10.867  10.359  69.321  1.00  0.00    -0.280 C  
BRANCH  14  15
HETATM   15  C   UNL     1     -11.754  11.047  70.356  1.00  0.00    -0.437 C  
BRANCH  15  16
HETATM   16  C   UNL     1     -13.048  10.279  70.633  1.00  0.00    -0.292 C  
BRANCH  16  17
HETATM   17  C   UNL     1     -13.130   9.786  72.076  1.00  0.00    -0.546 C  
BRANCH  17  18
HETATM   18  C   UNL     1     -12.299   8.527  72.299  1.00  0.00    -0.450 C  
BRANCH  18  19
HETATM   19  C   UNL     1     -12.757   7.423  71.348  1.00  0.00    -0.408 C  
BRANCH  19  20
HETATM   20  C   UNL     1     -11.571   6.770  70.644  1.00  0.00    -0.422 C  
BRANCH  20  21
HETATM   21  C   UNL     1     -10.438   6.491  71.632  1.00  0.00    -0.241 C  
BRANCH  21  22
HETATM   22  C   UNL     1     -10.538   5.100  72.183  1.00  0.00    -0.273 C  
HETATM   23  C   UNL     1     -11.186   4.789  73.313  1.00  0.00    -0.421 C  
ENDBRANCH  21  22
ENDBRANCH  20  21
ENDBRANCH  19  20
ENDBRANCH  18  19
ENDBRANCH  17  18
ENDBRANCH  16  17
ENDBRANCH  15  16
ENDBRANCH  14  15
ENDBRANCH  11  14
ENDBRANCH   5  10
ENDBRANCH   3   5
ENDBRANCH   2   3
TORSDOF 13
ENDMDL
MODEL       49
REMARK 921   NORMALIZED FREE ENERGY PREDICTED BY IDOCK:   -4.07 KCAL/MOL
REMARK 922        TOTAL FREE ENERGY PREDICTED BY IDOCK:   -9.27 KCAL/MOL
REMARK 923 INTER-LIGAND FREE ENERGY PREDICTED BY IDOCK:   -8.24 KCAL/MOL
REMARK 924 INTRA-LIGAND FREE ENERGY PREDICTED BY IDOCK:   -1.03 KCAL/MOL
REMARK 927      BINDING AFFINITY PREDICTED BY RF-SCORE:    0.00 PKD
ROOT
HETATM    1  C   UNL     1      -9.780  18.609  66.244  1.00  0.00    -0.307 C  
HETATM    2  O   UNL     1     -10.744  17.679  66.732  1.00  0.00    -0.262 OA 
ENDROOT
BRANCH   2   3
HETATM    3  C   UNL     1     -10.610  17.330  68.043  1.00  0.00    -0.394 C  
HETATM    4  O   UNL     1     -10.281  18.085  68.950  1.00  0.00    -0.379 OA 
BRANCH   3   5
HETATM    5  C   UNL     1     -10.956  15.849  68.223  1.00  0.00    -0.329 C  
BRANCH   5   6
HETATM    6  C   UNL     1     -11.156  15.140  66.876  1.00  0.00    -0.314 C  
HETATM    7  C   UNL     1     -10.548  12.811  67.731  1.00  0.00    -0.231 C  
HETATM    8  C   UNL     1     -10.580  13.287  65.277  1.00  0.00    -0.325 C  
HETATM    9  C   UNL     1     -10.300  13.877  66.663  1.00  0.00    -0.278 C  
ENDBRANCH   5   6
BRANCH   5  10
HETATM   10  N   UNL     1     -12.175  15.741  69.025  1.00  0.00    -0.559 N  
HETATM   11  C   UNL     1     -12.113  15.560  70.386  1.00  0.00    -0.392 C  
HETATM   12  H   UNL     1     -13.085  15.801  68.567  1.00  0.00     0.000 HD 
HETATM   13  O   UNL     1     -11.064  15.485  71.016  1.00  0.00    -0.344 OA 
BRANCH  11  14
HETATM   14  C   UNL     1     -13.459  15.414  71.053  1.00  0.00    -0.510 C  
BRANCH  14  15
HETATM   15  C   UNL     1     -13.314  14.664  72.376  1.00  0.00    -0.510 C  
BRANCH  15  16
HETATM   16  C   UNL     1     -13.817  13.221  72.300  1.00  0.00    -0.637 C  
BRANCH  16  17
HETATM   17  C   UNL     1     -12.798  12.287  71.652  1.00  0.00    -0.378 C  
BRANCH  17  18
HETATM   18  C   UNL     1     -13.136  10.819  71.886  1.00  0.00    -0.557 C  
BRANCH  18  19
HETATM   19  C   UNL     1     -12.400   9.944  70.872  1.00  0.00    -0.403 C  
BRANCH  19  20
HETATM   20  C   UNL     1     -11.161   9.302  71.489  1.00  0.00    -0.457 C  
BRANCH  20  21
HETATM   21  C   UNL     1      -9.954   9.445  70.562  1.00  0.00    -0.328 C  
BRANCH  21  22
HETATM   22  C   UNL     1      -9.644   8.145  69.882  1.00  0.00    -0.175 C  
HETATM   23  C   UNL     1      -9.640   6.958  70.503  1.00  0.00    -0.171 C  
ENDBRANCH  21  22
ENDBRANCH  20  21
ENDBRANCH  19  20
ENDBRANCH  18  19
ENDBRANCH  17  18
ENDBRANCH  16  17
ENDBRANCH  15  16
ENDBRANCH  14  15
ENDBRANCH  11  14
ENDBRANCH   5  10
ENDBRANCH   3   5
ENDBRANCH   2   3
TORSDOF 13
ENDMDL
MODEL       50
REMARK 921   NORMALIZED FREE ENERGY PREDICTED BY IDOCK:   -4.06 KCAL/MOL
REMARK 922        TOTAL FREE ENERGY PREDICTED BY IDOCK:   -9.26 KCAL/MOL
REMARK 923 INTER-LIGAND FREE ENERGY PREDICTED BY IDOCK:   -8.43 KCAL/MOL
REMARK 924 INTRA-LIGAND FREE ENERGY PREDICTED BY IDOCK:   -0.82 KCAL/MOL
REMARK 927      BINDING AFFINITY PREDICTED BY RF-SCORE:    0.00 PKD
ROOT
HETATM    1  C   UNL     1     -14.392   7.915  71.587  1.00  0.00    -0.479 C  
HETATM    2  O   UNL     1     -13.949   8.950  72.463  1.00  0.00    -0.462 OA 
ENDROOT
BRANCH   2   3
HETATM    3  C   UNL     1     -13.084   9.850  71.916  1.00  0.00    -0.459 C  
HETATM    4  O   UNL     1     -13.095  11.059  72.116  1.00  0.00    -0.460 OA 
BRANCH   3   5
HETATM    5  C   UNL     1     -12.071   9.121  71.027  1.00  0.00    -0.263 C  
BRANCH   5   6
HETATM    6  C   UNL     1     -10.752   8.855  71.764  1.00  0.00    -0.432 C  
HETATM    7  C   UNL     1     -11.224   6.388  72.230  1.00  0.00    -0.314 C  
HETATM    8  C   UNL     1      -9.431   7.592  73.491  1.00  0.00    -0.347 C  
HETATM    9  C   UNL     1     -10.801   7.734  72.820  1.00  0.00    -0.438 C  
ENDBRANCH   5   6
BRANCH   5  10
HETATM   10  N   UNL     1     -11.818   9.930  69.834  1.00  0.00    -0.456 N  
HETATM   11  C   UNL     1     -10.999   9.472  68.830  1.00  0.00    -0.080 C  
HETATM   12  H   UNL     1     -12.256  10.847  69.747  1.00  0.00     0.000 HD 
HETATM   13  O   UNL     1     -10.441   8.381  68.851  1.00  0.00    -0.218 OA 
BRANCH  11  14
HETATM   14  C   UNL     1     -10.801  10.451  67.698  1.00  0.00    -0.361 C  
BRANCH  14  15
HETATM   15  C   UNL     1     -11.625  11.714  67.943  1.00  0.00    -0.369 C  
BRANCH  15  16
HETATM   16  C   UNL     1     -10.931  12.982  67.441  1.00  0.00    -0.284 C  
BRANCH  16  17
HETATM   17  C   UNL     1     -10.307  13.788  68.577  1.00  0.00    -0.244 C  
BRANCH  17  18
HETATM   18  C   UNL     1     -10.588  15.281  68.443  1.00  0.00    -0.246 C  
BRANCH  18  19
HETATM   19  C   UNL     1     -11.647  15.707  69.459  1.00  0.00    -0.366 C  
BRANCH  19  20
HETATM   20  C   UNL     1     -11.219  15.363  70.883  1.00  0.00    -0.397 C  
BRANCH  20  21
HETATM   21  C   UNL     1     -12.308  15.746  71.886  1.00  0.00    -0.533 C  
BRANCH  21  22
HETATM   22  C   UNL     1     -13.650  15.253  71.434  1.00  0.00    -0.598 C  
HETATM   23  C   UNL     1     -14.301  14.231  72.003  1.00  0.00    -0.629 C  
ENDBRANCH  21  22
ENDBRANCH  20  21
ENDBRANCH  19  20
ENDBRANCH  18  19
ENDBRANCH  17  18
ENDBRANCH  16  17
ENDBRANCH  15  16
ENDBRANCH  14  15
ENDBRANCH  11  14
ENDBRANCH   5  10
ENDBRANCH   3   5
ENDBRANCH   2   3
TORSDOF 13
ENDMDL
MODEL       51
REMARK 921   NORMALIZED FREE ENERGY PREDICTED BY IDOCK:   -4.06 KCAL/MOL
REMARK 922        TOTAL FREE ENERGY PREDICTED BY IDOCK:   -9.25 KCAL/MOL
REMARK 923 INTER-LIGAND FREE ENERGY PREDICTED BY IDOCK:   -7.58 KCAL/MOL
REMARK 924 INTRA-LIGAND FREE ENERGY PREDICTED BY IDOCK:   -1.67 KCAL/MOL
REMARK 927      BINDING AFFINITY PREDICTED BY RF-SCORE:    0.00 PKD
ROOT
HETATM    1  C   UNL     1     -11.681  12.559  66.248  1.00  0.00    -0.404 C  
HETATM    2  O   UNL     1     -12.002  12.364  67.624  1.00  0.00    -0.454 OA 
ENDROOT
BRANCH   2   3
HETATM    3  C   UNL     1     -12.027  13.494  68.385  1.00  0.00    -0.343 C  
HETATM    4  O   UNL     1     -11.901  14.638  67.964  1.00  0.00    -0.338 OA 
BRANCH   3   5
HETATM    5  C   UNL     1     -12.261  13.125  69.853  1.00  0.00    -0.225 C  
BRANCH   5   6
HETATM    6  C   UNL     1     -11.777  14.228  70.804  1.00  0.00    -0.270 C  
HETATM    7  C   UNL     1     -13.770  14.075  72.394  1.00  0.00    -0.669 C  
HETATM    8  C   UNL     1     -12.270  16.075  72.438  1.00  0.00    -0.603 C  
HETATM    9  C   UNL     1     -12.889  14.994  71.547  1.00  0.00    -0.422 C  
ENDBRANCH   5   6
BRANCH   5  10
HETATM   10  N   UNL     1     -11.560  11.875  70.147  1.00  0.00    -0.520 N  
HETATM   11  C   UNL     1     -12.139  10.907  70.932  1.00  0.00    -0.349 C  
HETATM   12  H   UNL     1     -10.627  11.720  69.763  1.00  0.00     0.000 HD 
HETATM   13  O   UNL     1     -13.256  11.008  71.426  1.00  0.00    -0.356 OA 
BRANCH  11  14
HETATM   14  C   UNL     1     -11.260   9.705  71.180  1.00  0.00    -0.454 C  
BRANCH  14  15
HETATM   15  C   UNL     1     -12.102   8.431  71.207  1.00  0.00    -0.315 C  
BRANCH  15  16
HETATM   16  C   UNL     1     -11.563   7.382  72.181  1.00  0.00    -0.331 C  
BRANCH  16  17
HETATM   17  C   UNL     1     -11.116   6.108  71.469  1.00  0.00    -0.342 C  
BRANCH  17  18
HETATM   18  C   UNL     1     -11.407   6.155  69.973  1.00  0.00    -0.443 C  
BRANCH  18  19
HETATM   19  C   UNL     1     -10.144   5.814  69.184  1.00  0.00    -0.257 C  
BRANCH  19  20
HETATM   20  C   UNL     1      -9.110   6.932  69.282  1.00  0.00    -0.140 C  
BRANCH  20  21
HETATM   21  C   UNL     1      -7.788   6.404  69.841  1.00  0.00    -0.114 C  
BRANCH  21  22
HETATM   22  C   UNL     1      -7.454   7.067  71.144  1.00  0.00    -0.081 C  
HETATM   23  C   UNL     1      -7.944   8.253  71.526  1.00  0.00    -0.148 C  
ENDBRANCH  21  22
ENDBRANCH  20  21
ENDBRANCH  19  20
ENDBRANCH  18  19
ENDBRANCH  17  18
ENDBRANCH  16  17
ENDBRANCH  15  16
ENDBRANCH  14  15
ENDBRANCH  11  14
ENDBRANCH   5  10
ENDBRANCH   3   5
ENDBRANCH   2   3
TORSDOF 13
ENDMDL
MODEL       52
REMARK 921   NORMALIZED FREE ENERGY PREDICTED BY IDOCK:   -4.05 KCAL/MOL
REMARK 922        TOTAL FREE ENERGY PREDICTED BY IDOCK:   -9.24 KCAL/MOL
REMARK 923 INTER-LIGAND FREE ENERGY PREDICTED BY IDOCK:   -7.93 KCAL/MOL
REMARK 924 INTRA-LIGAND FREE ENERGY PREDICTED BY IDOCK:   -1.31 KCAL/MOL
REMARK 927      BINDING AFFINITY PREDICTED BY RF-SCORE:    0.00 PKD
ROOT
HETATM    1  C   UNL     1     -10.051  11.251  64.930  1.00  0.00    -0.281 C  
HETATM    2  O   UNL     1     -10.489  10.705  66.172  1.00  0.00    -0.243 OA 
ENDROOT
BRANCH   2   3
HETATM    3  C   UNL     1     -11.166  11.567  66.984  1.00  0.00    -0.300 C  
HETATM    4  O   UNL     1     -12.179  12.185  66.678  1.00  0.00    -0.566 OA 
BRANCH   3   5
HETATM    5  C   UNL     1     -10.484  11.631  68.354  1.00  0.00    -0.213 C  
BRANCH   5   6
HETATM    6  C   UNL     1     -11.498  11.533  69.502  1.00  0.00    -0.378 C  
HETATM    7  C   UNL     1     -10.446   9.473  70.585  1.00  0.00    -0.374 C  
HETATM    8  C   UNL     1     -12.776  10.159  71.175  1.00  0.00    -0.494 C  
HETATM    9  C   UNL     1     -11.730  10.115  70.058  1.00  0.00    -0.294 C  
ENDBRANCH   5   6
BRANCH   5  10
HETATM   10  N   UNL     1      -9.741  12.887  68.456  1.00  0.00    -0.370 N  
HETATM   11  C   UNL     1      -8.413  12.953  68.108  1.00  0.00    -0.176 C  
HETATM   12  H   UNL     1     -10.215  13.727  68.790  1.00  0.00     0.000 HD 
HETATM   13  O   UNL     1      -7.770  11.996  67.691  1.00  0.00    -0.125 OA 
BRANCH  11  14
HETATM   14  C   UNL     1      -7.783  14.308  68.325  1.00  0.00    -0.136 C  
BRANCH  14  15
HETATM   15  C   UNL     1      -8.578  15.383  67.587  1.00  0.00    -0.176 C  
BRANCH  15  16
HETATM   16  C   UNL     1      -8.997  16.541  68.495  1.00  0.00    -0.231 C  
BRANCH  16  17
HETATM   17  C   UNL     1     -10.454  16.429  68.939  1.00  0.00    -0.285 C  
BRANCH  17  18
HETATM   18  C   UNL     1     -10.596  15.668  70.253  1.00  0.00    -0.329 C  
BRANCH  18  19
HETATM   19  C   UNL     1     -12.047  15.714  70.729  1.00  0.00    -0.454 C  
BRANCH  19  20
HETATM   20  C   UNL     1     -12.134  16.083  72.208  1.00  0.00    -0.617 C  
BRANCH  20  21
HETATM   21  C   UNL     1     -13.539  15.822  72.753  1.00  0.00    -0.662 C  
BRANCH  21  22
HETATM   22  C   UNL     1     -14.198  14.695  72.016  1.00  0.00    -0.625 C  
HETATM   23  C   UNL     1     -13.985  13.400  72.284  1.00  0.00    -0.605 C  
ENDBRANCH  21  22
ENDBRANCH  20  21
ENDBRANCH  19  20
ENDBRANCH  18  19
ENDBRANCH  17  18
ENDBRANCH  16  17
ENDBRANCH  15  16
ENDBRANCH  14  15
ENDBRANCH  11  14
ENDBRANCH   5  10
ENDBRANCH   3   5
ENDBRANCH   2   3
TORSDOF 13
ENDMDL
MODEL       53
REMARK 921   NORMALIZED FREE ENERGY PREDICTED BY IDOCK:   -4.05 KCAL/MOL
REMARK 922        TOTAL FREE ENERGY PREDICTED BY IDOCK:   -9.24 KCAL/MOL
REMARK 923 INTER-LIGAND FREE ENERGY PREDICTED BY IDOCK:   -9.36 KCAL/MOL
REMARK 924 INTRA-LIGAND FREE ENERGY PREDICTED BY IDOCK:    0.12 KCAL/MOL
REMARK 927      BINDING AFFINITY PREDICTED BY RF-SCORE:    0.00 PKD
ROOT
HETATM    1  C   UNL     1     -12.512  11.932  63.667  1.00  0.00    -0.470 C  
HETATM    2  O   UNL     1     -12.846  12.642  64.858  1.00  0.00    -0.763 OA 
ENDROOT
BRANCH   2   3
HETATM    3  C   UNL     1     -12.562  13.975  64.843  1.00  0.00    -0.342 C  
HETATM    4  O   UNL     1     -12.818  14.747  63.926  1.00  0.00    -0.694 OA 
BRANCH   3   5
HETATM    5  C   UNL     1     -11.894  14.378  66.161  1.00  0.00    -0.382 C  
BRANCH   5   6
HETATM    6  C   UNL     1     -10.541  15.063  65.931  1.00  0.00    -0.338 C  
HETATM    7  C   UNL     1     -10.559  16.387  68.115  1.00  0.00    -0.318 C  
HETATM    8  C   UNL     1      -8.996  17.019  66.268  1.00  0.00    -0.282 C  
HETATM    9  C   UNL     1     -10.377  16.442  66.597  1.00  0.00    -0.292 C  
ENDBRANCH   5   6
BRANCH   5  10
HETATM   10  N   UNL     1     -11.711  13.183  66.985  1.00  0.00    -0.358 N  
HETATM   11  C   UNL     1     -10.604  12.383  66.835  1.00  0.00    -0.229 C  
HETATM   12  H   UNL     1     -12.416  12.940  67.682  1.00  0.00     0.000 HD 
HETATM   13  O   UNL     1      -9.707  12.605  66.029  1.00  0.00    -0.255 OA 
BRANCH  11  14
HETATM   14  C   UNL     1     -10.597  11.163  67.723  1.00  0.00    -0.248 C  
BRANCH  14  15
HETATM   15  C   UNL     1     -11.814  11.175  68.646  1.00  0.00    -0.357 C  
BRANCH  15  16
HETATM   16  C   UNL     1     -11.476  10.762  70.080  1.00  0.00    -0.412 C  
BRANCH  16  17
HETATM   17  C   UNL     1     -12.716  10.351  70.870  1.00  0.00    -0.477 C  
BRANCH  17  18
HETATM   18  C   UNL     1     -13.080  11.376  71.939  1.00  0.00    -0.505 C  
BRANCH  18  19
HETATM   19  C   UNL     1     -13.130  12.775  71.327  1.00  0.00    -0.245 C  
BRANCH  19  20
HETATM   20  C   UNL     1     -13.216  13.851  72.406  1.00  0.00    -0.587 C  
BRANCH  20  21
HETATM   21  C   UNL     1     -12.914  15.232  71.824  1.00  0.00    -0.475 C  
BRANCH  21  22
HETATM   22  C   UNL     1     -12.188  16.086  72.819  1.00  0.00    -0.617 C  
HETATM   23  C   UNL     1     -12.470  16.113  74.128  1.00  0.00    -0.711 C  
ENDBRANCH  21  22
ENDBRANCH  20  21
ENDBRANCH  19  20
ENDBRANCH  18  19
ENDBRANCH  17  18
ENDBRANCH  16  17
ENDBRANCH  15  16
ENDBRANCH  14  15
ENDBRANCH  11  14
ENDBRANCH   5  10
ENDBRANCH   3   5
ENDBRANCH   2   3
TORSDOF 13
ENDMDL
MODEL       54
REMARK 921   NORMALIZED FREE ENERGY PREDICTED BY IDOCK:   -4.05 KCAL/MOL
REMARK 922        TOTAL FREE ENERGY PREDICTED BY IDOCK:   -9.24 KCAL/MOL
REMARK 923 INTER-LIGAND FREE ENERGY PREDICTED BY IDOCK:   -8.27 KCAL/MOL
REMARK 924 INTRA-LIGAND FREE ENERGY PREDICTED BY IDOCK:   -0.97 KCAL/MOL
REMARK 927      BINDING AFFINITY PREDICTED BY RF-SCORE:    0.00 PKD
ROOT
HETATM    1  C   UNL     1      -7.467  14.459  67.748  1.00  0.00    -0.170 C  
HETATM    2  O   UNL     1      -8.621  15.230  67.418  1.00  0.00    -0.160 OA 
ENDROOT
BRANCH   2   3
HETATM    3  C   UNL     1      -8.404  16.275  66.570  1.00  0.00    -0.308 C  
HETATM    4  O   UNL     1      -7.307  16.736  66.276  1.00  0.00    -0.261 OA 
BRANCH   3   5
HETATM    5  C   UNL     1      -9.740  16.778  66.014  1.00  0.00    -0.259 C  
BRANCH   5   6
HETATM    6  C   UNL     1     -10.403  17.794  66.953  1.00  0.00    -0.344 C  
HETATM    7  C   UNL     1      -8.965  19.776  66.227  1.00  0.00    -0.431 C  
HETATM    8  C   UNL     1     -10.281  19.881  68.350  1.00  0.00    -0.557 C  
HETATM    9  C   UNL     1      -9.504  18.961  67.403  1.00  0.00    -0.334 C  
ENDBRANCH   5   6
BRANCH   5  10
HETATM   10  N   UNL     1     -10.630  15.634  65.813  1.00  0.00    -0.342 N  
HETATM   11  C   UNL     1     -11.457  15.566  64.717  1.00  0.00    -0.313 C  
HETATM   12  H   UNL     1     -10.637  14.876  66.495  1.00  0.00     0.000 HD 
HETATM   13  O   UNL     1     -11.506  16.428  63.846  1.00  0.00    -1.063 OA 
BRANCH  11  14
HETATM   14  C   UNL     1     -12.349  14.349  64.690  1.00  0.00    -0.435 C  
BRANCH  14  15
HETATM   15  C   UNL     1     -11.520  13.083  64.898  1.00  0.00    -0.348 C  
BRANCH  15  16
HETATM   16  C   UNL     1     -11.804  12.400  66.237  1.00  0.00    -0.431 C  
BRANCH  16  17
HETATM   17  C   UNL     1     -10.523  12.006  66.968  1.00  0.00    -0.248 C  
BRANCH  17  18
HETATM   18  C   UNL     1     -10.788  11.014  68.095  1.00  0.00    -0.274 C  
BRANCH  18  19
HETATM   19  C   UNL     1     -12.057  11.406  68.850  1.00  0.00    -0.285 C  
BRANCH  19  20
HETATM   20  C   UNL     1     -11.820  11.436  70.357  1.00  0.00    -0.428 C  
BRANCH  20  21
HETATM   21  C   UNL     1     -12.672  10.381  71.063  1.00  0.00    -0.490 C  
BRANCH  21  22
HETATM   22  C   UNL     1     -11.893   9.117  71.275  1.00  0.00    -0.396 C  
HETATM   23  C   UNL     1     -10.561   9.074  71.407  1.00  0.00    -0.393 C  
ENDBRANCH  21  22
ENDBRANCH  20  21
ENDBRANCH  19  20
ENDBRANCH  18  19
ENDBRANCH  17  18
ENDBRANCH  16  17
ENDBRANCH  15  16
ENDBRANCH  14  15
ENDBRANCH  11  14
ENDBRANCH   5  10
ENDBRANCH   3   5
ENDBRANCH   2   3
TORSDOF 13
ENDMDL
MODEL       55
REMARK 921   NORMALIZED FREE ENERGY PREDICTED BY IDOCK:   -4.05 KCAL/MOL
REMARK 922        TOTAL FREE ENERGY PREDICTED BY IDOCK:   -9.23 KCAL/MOL
REMARK 923 INTER-LIGAND FREE ENERGY PREDICTED BY IDOCK:   -7.74 KCAL/MOL
REMARK 924 INTRA-LIGAND FREE ENERGY PREDICTED BY IDOCK:   -1.49 KCAL/MOL
REMARK 927      BINDING AFFINITY PREDICTED BY RF-SCORE:    0.00 PKD
ROOT
HETATM    1  C   UNL     1     -14.337   7.642  71.518  1.00  0.00    -0.452 C  
HETATM    2  O   UNL     1     -13.883   8.799  72.218  1.00  0.00    -0.422 OA 
ENDROOT
BRANCH   2   3
HETATM    3  C   UNL     1     -12.828   9.450  71.651  1.00  0.00    -0.378 C  
HETATM    4  O   UNL     1     -12.688  10.666  71.597  1.00  0.00    -0.406 OA 
BRANCH   3   5
HETATM    5  C   UNL     1     -11.821   8.431  71.109  1.00  0.00    -0.282 C  
BRANCH   5   6
HETATM    6  C   UNL     1     -10.654   8.208  72.081  1.00  0.00    -0.358 C  
HETATM    7  C   UNL     1     -11.199   5.760  72.564  1.00  0.00    -0.347 C  
HETATM    8  C   UNL     1      -9.662   7.033  74.070  1.00  0.00    -0.332 C  
HETATM    9  C   UNL     1     -10.890   7.134  73.160  1.00  0.00    -0.373 C  
ENDBRANCH   5   6
BRANCH   5  10
HETATM   10  N   UNL     1     -11.311   8.905  69.822  1.00  0.00    -0.442 N  
HETATM   11  C   UNL     1     -10.880   8.020  68.863  1.00  0.00     0.029 C  
HETATM   12  H   UNL     1     -11.274   9.907  69.634  1.00  0.00     0.000 HD 
HETATM   13  O   UNL     1     -10.897   6.802  69.002  1.00  0.00    -0.236 OA 
BRANCH  11  14
HETATM   14  C   UNL     1     -10.334   8.675  67.617  1.00  0.00    -0.317 C  
BRANCH  14  15
HETATM   15  C   UNL     1     -10.691  10.161  67.603  1.00  0.00    -0.339 C  
BRANCH  15  16
HETATM   16  C   UNL     1      -9.528  11.046  67.151  1.00  0.00    -0.181 C  
BRANCH  16  17
HETATM   17  C   UNL     1      -9.763  12.520  67.476  1.00  0.00    -0.196 C  
BRANCH  17  18
HETATM   18  C   UNL     1     -10.784  12.704  68.594  1.00  0.00    -0.269 C  
BRANCH  18  19
HETATM   19  C   UNL     1     -11.991  13.486  68.077  1.00  0.00    -0.372 C  
BRANCH  19  20
HETATM   20  C   UNL     1     -11.680  14.172  66.749  1.00  0.00    -0.432 C  
BRANCH  20  21
HETATM   21  C   UNL     1     -12.607  13.665  65.644  1.00  0.00    -0.531 C  
BRANCH  21  22
HETATM   22  C   UNL     1     -11.820  13.064  64.518  1.00  0.00    -0.431 C  
HETATM   23  C   UNL     1     -12.307  12.150  63.670  1.00  0.00    -0.673 C  
ENDBRANCH  21  22
ENDBRANCH  20  21
ENDBRANCH  19  20
ENDBRANCH  18  19
ENDBRANCH  17  18
ENDBRANCH  16  17
ENDBRANCH  15  16
ENDBRANCH  14  15
ENDBRANCH  11  14
ENDBRANCH   5  10
ENDBRANCH   3   5
ENDBRANCH   2   3
TORSDOF 13
ENDMDL
MODEL       56
REMARK 921   NORMALIZED FREE ENERGY PREDICTED BY IDOCK:   -4.03 KCAL/MOL
REMARK 922        TOTAL FREE ENERGY PREDICTED BY IDOCK:   -9.21 KCAL/MOL
REMARK 923 INTER-LIGAND FREE ENERGY PREDICTED BY IDOCK:   -8.62 KCAL/MOL
REMARK 924 INTRA-LIGAND FREE ENERGY PREDICTED BY IDOCK:   -0.59 KCAL/MOL
REMARK 927      BINDING AFFINITY PREDICTED BY RF-SCORE:    0.00 PKD
ROOT
HETATM    1  C   UNL     1     -12.101  15.505  64.088  1.00  0.00    -0.045 C  
HETATM    2  O   UNL     1     -12.615  14.320  63.483  1.00  0.00    -0.814 OA 
ENDROOT
BRANCH   2   3
HETATM    3  C   UNL     1     -12.310  13.156  64.124  1.00  0.00    -0.348 C  
HETATM    4  O   UNL     1     -13.118  12.300  64.466  1.00  0.00    -0.791 OA 
BRANCH   3   5
HETATM    5  C   UNL     1     -10.796  13.060  64.334  1.00  0.00    -0.388 C  
BRANCH   5   6
HETATM    6  C   UNL     1     -10.170  11.947  63.484  1.00  0.00    -0.485 C  
HETATM    7  C   UNL     1     -10.297  10.152  65.296  1.00  0.00    -0.154 C  
HETATM    8  C   UNL     1      -8.821   9.833  63.304  1.00  0.00    -0.260 C  
HETATM    9  C   UNL     1      -9.411  10.862  64.273  1.00  0.00    -0.289 C  
ENDBRANCH   5   6
BRANCH   5  10
HETATM   10  N   UNL     1     -10.527  12.812  65.751  1.00  0.00    -0.271 N  
HETATM   11  C   UNL     1      -9.920  13.765  66.533  1.00  0.00    -0.288 C  
HETATM   12  H   UNL     1     -10.795  11.919  66.164  1.00  0.00     0.000 HD 
HETATM   13  O   UNL     1      -9.574  14.866  66.120  1.00  0.00    -0.279 OA 
BRANCH  11  14
HETATM   14  C   UNL     1      -9.668  13.328  67.956  1.00  0.00    -0.223 C  
BRANCH  14  15
HETATM   15  C   UNL     1     -10.464  12.063  68.269  1.00  0.00    -0.218 C  
BRANCH  15  16
HETATM   16  C   UNL     1     -11.850  12.360  68.844  1.00  0.00    -0.350 C  
BRANCH  16  17
HETATM   17  C   UNL     1     -11.960  11.971  70.317  1.00  0.00    -0.398 C  
BRANCH  17  18
HETATM   18  C   UNL     1     -12.544  13.097  71.164  1.00  0.00    -0.403 C  
BRANCH  18  19
HETATM   19  C   UNL     1     -12.782  14.334  70.299  1.00  0.00    -0.305 C  
BRANCH  19  20
HETATM   20  C   UNL     1     -11.918  15.506  70.757  1.00  0.00    -0.420 C  
BRANCH  20  21
HETATM   21  C   UNL     1     -11.494  15.332  72.216  1.00  0.00    -0.480 C  
BRANCH  21  22
HETATM   22  C   UNL     1     -12.373  16.134  73.128  1.00  0.00    -0.641 C  
HETATM   23  C   UNL     1     -12.507  15.893  74.439  1.00  0.00    -0.767 C  
ENDBRANCH  21  22
ENDBRANCH  20  21
ENDBRANCH  19  20
ENDBRANCH  18  19
ENDBRANCH  17  18
ENDBRANCH  16  17
ENDBRANCH  15  16
ENDBRANCH  14  15
ENDBRANCH  11  14
ENDBRANCH   5  10
ENDBRANCH   3   5
ENDBRANCH   2   3
TORSDOF 13
ENDMDL
MODEL       57
REMARK 921   NORMALIZED FREE ENERGY PREDICTED BY IDOCK:   -4.03 KCAL/MOL
REMARK 922        TOTAL FREE ENERGY PREDICTED BY IDOCK:   -9.21 KCAL/MOL
REMARK 923 INTER-LIGAND FREE ENERGY PREDICTED BY IDOCK:   -8.27 KCAL/MOL
REMARK 924 INTRA-LIGAND FREE ENERGY PREDICTED BY IDOCK:   -0.94 KCAL/MOL
REMARK 927      BINDING AFFINITY PREDICTED BY RF-SCORE:    0.00 PKD
ROOT
HETATM    1  C   UNL     1     -14.161   8.448  71.733  1.00  0.00    -0.458 C  
HETATM    2  O   UNL     1     -12.986   9.150  72.132  1.00  0.00    -0.372 OA 
ENDROOT
BRANCH   2   3
HETATM    3  C   UNL     1     -12.850  10.405  71.618  1.00  0.00    -0.474 C  
HETATM    4  O   UNL     1     -13.406  11.411  72.043  1.00  0.00    -0.467 OA 
BRANCH   3   5
HETATM    5  C   UNL     1     -11.874  10.380  70.438  1.00  0.00    -0.328 C  
BRANCH   5   6
HETATM    6  C   UNL     1     -10.627   9.539  70.746  1.00  0.00    -0.387 C  
HETATM    7  C   UNL     1     -10.318   8.677  68.362  1.00  0.00    -0.239 C  
HETATM    8  C   UNL     1      -9.162   7.552  70.272  1.00  0.00    -0.157 C  
HETATM    9  C   UNL     1     -10.423   8.309  69.842  1.00  0.00    -0.223 C  
ENDBRANCH   5   6
BRANCH   5  10
HETATM   10  N   UNL     1     -11.480  11.752  70.119  1.00  0.00    -0.510 N  
HETATM   11  C   UNL     1     -11.656  12.263  68.855  1.00  0.00    -0.316 C  
HETATM   12  H   UNL     1     -11.068  12.339  70.845  1.00  0.00     0.000 HD 
HETATM   13  O   UNL     1     -12.149  11.631  67.928  1.00  0.00    -0.613 OA 
BRANCH  11  14
HETATM   14  C   UNL     1     -11.146  13.673  68.681  1.00  0.00    -0.299 C  
BRANCH  14  15
HETATM   15  C   UNL     1     -11.287  14.109  67.224  1.00  0.00    -0.349 C  
BRANCH  15  16
HETATM   16  C   UNL     1     -10.377  15.285  66.866  1.00  0.00    -0.278 C  
BRANCH  16  17
HETATM   17  C   UNL     1     -10.738  16.552  67.637  1.00  0.00    -0.311 C  
BRANCH  17  18
HETATM   18  C   UNL     1      -9.972  17.770  67.131  1.00  0.00    -0.322 C  
BRANCH  18  19
HETATM   19  C   UNL     1     -10.660  19.052  67.598  1.00  0.00    -0.526 C  
BRANCH  19  20
HETATM   20  C   UNL     1      -9.860  20.289  67.197  1.00  0.00    -0.606 C  
BRANCH  20  21
HETATM   21  C   UNL     1      -8.668  19.905  66.319  1.00  0.00    -0.384 C  
BRANCH  21  22
HETATM   22  C   UNL     1      -7.374  20.269  66.984  1.00  0.00    -0.327 C  
HETATM   23  C   UNL     1      -6.965  19.759  68.153  1.00  0.00    -0.324 C  
ENDBRANCH  21  22
ENDBRANCH  20  21
ENDBRANCH  19  20
ENDBRANCH  18  19
ENDBRANCH  17  18
ENDBRANCH  16  17
ENDBRANCH  15  16
ENDBRANCH  14  15
ENDBRANCH  11  14
ENDBRANCH   5  10
ENDBRANCH   3   5
ENDBRANCH   2   3
TORSDOF 13
ENDMDL
MODEL       58
REMARK 921   NORMALIZED FREE ENERGY PREDICTED BY IDOCK:   -4.03 KCAL/MOL
REMARK 922        TOTAL FREE ENERGY PREDICTED BY IDOCK:   -9.20 KCAL/MOL
REMARK 923 INTER-LIGAND FREE ENERGY PREDICTED BY IDOCK:   -8.27 KCAL/MOL
REMARK 924 INTRA-LIGAND FREE ENERGY PREDICTED BY IDOCK:   -0.92 KCAL/MOL
REMARK 927      BINDING AFFINITY PREDICTED BY RF-SCORE:    0.00 PKD
ROOT
HETATM    1  C   UNL     1     -12.585  12.079  63.292  1.00  0.00    -0.385 C  
HETATM    2  O   UNL     1     -12.466  13.498  63.377  1.00  0.00    -0.750 OA 
ENDROOT
BRANCH   2   3
HETATM    3  C   UNL     1     -12.278  13.995  64.632  1.00  0.00    -0.435 C  
HETATM    4  O   UNL     1     -13.158  14.173  65.466  1.00  0.00    -0.691 OA 
BRANCH   3   5
HETATM    5  C   UNL     1     -10.790  14.279  64.860  1.00  0.00    -0.416 C  
BRANCH   5   6
HETATM    6  C   UNL     1     -10.052  13.052  65.413  1.00  0.00    -0.265 C  
HETATM    7  C   UNL     1     -10.856  13.347  67.820  1.00  0.00    -0.267 C  
HETATM    8  C   UNL     1      -8.908  11.864  67.311  1.00  0.00    -0.179 C  
HETATM    9  C   UNL     1      -9.653  13.138  66.899  1.00  0.00    -0.248 C  
ENDBRANCH   5   6
BRANCH   5  10
HETATM   10  N   UNL     1     -10.657  15.399  65.792  1.00  0.00    -0.328 N  
HETATM   11  C   UNL     1     -10.887  16.691  65.382  1.00  0.00    -0.173 C  
HETATM   12  H   UNL     1     -10.391  15.219  66.760  1.00  0.00     0.000 HD 
HETATM   13  O   UNL     1     -11.218  16.995  64.242  1.00  0.00    -1.186 OA 
BRANCH  11  14
HETATM   14  C   UNL     1     -10.653  17.730  66.452  1.00  0.00    -0.218 C  
BRANCH  14  15
HETATM   15  C   UNL     1     -10.769  19.133  65.860  1.00  0.00    -0.435 C  
BRANCH  15  16
HETATM   16  C   UNL     1      -9.666  20.075  66.346  1.00  0.00    -0.557 C  
BRANCH  16  17
HETATM   17  C   UNL     1      -8.981  19.561  67.610  1.00  0.00    -0.373 C  
BRANCH  17  18
HETATM   18  C   UNL     1      -7.583  20.146  67.782  1.00  0.00    -0.324 C  
BRANCH  18  19
HETATM   19  C   UNL     1      -6.552  19.250  67.097  1.00  0.00    -0.201 C  
BRANCH  19  20
HETATM   20  C   UNL     1      -7.095  17.838  66.890  1.00  0.00    -0.217 C  
BRANCH  20  21
HETATM   21  C   UNL     1      -6.339  16.832  67.757  1.00  0.00    -0.164 C  
BRANCH  21  22
HETATM   22  C   UNL     1      -7.132  16.473  68.978  1.00  0.00    -0.213 C  
HETATM   23  C   UNL     1      -8.439  16.182  68.961  1.00  0.00    -0.251 C  
ENDBRANCH  21  22
ENDBRANCH  20  21
ENDBRANCH  19  20
ENDBRANCH  18  19
ENDBRANCH  17  18
ENDBRANCH  16  17
ENDBRANCH  15  16
ENDBRANCH  14  15
ENDBRANCH  11  14
ENDBRANCH   5  10
ENDBRANCH   3   5
ENDBRANCH   2   3
TORSDOF 13
ENDMDL
MODEL       59
REMARK 921   NORMALIZED FREE ENERGY PREDICTED BY IDOCK:   -4.03 KCAL/MOL
REMARK 922        TOTAL FREE ENERGY PREDICTED BY IDOCK:   -9.19 KCAL/MOL
REMARK 923 INTER-LIGAND FREE ENERGY PREDICTED BY IDOCK:   -8.04 KCAL/MOL
REMARK 924 INTRA-LIGAND FREE ENERGY PREDICTED BY IDOCK:   -1.16 KCAL/MOL
REMARK 927      BINDING AFFINITY PREDICTED BY RF-SCORE:    0.00 PKD
ROOT
HETATM    1  C   UNL     1     -10.588   7.134  73.368  1.00  0.00    -0.382 C  
HETATM    2  O   UNL     1     -11.253   8.064  72.515  1.00  0.00    -0.333 OA 
ENDROOT
BRANCH   2   3
HETATM    3  C   UNL     1     -10.438   8.826  71.731  1.00  0.00    -0.346 C  
HETATM    4  O   UNL     1      -9.280   9.128  71.993  1.00  0.00    -0.339 OA 
BRANCH   3   5
HETATM    5  C   UNL     1     -11.179   9.231  70.453  1.00  0.00    -0.247 C  
BRANCH   5   6
HETATM    6  C   UNL     1     -10.450   8.747  69.193  1.00  0.00    -0.230 C  
HETATM    7  C   UNL     1     -11.279   6.335  69.341  1.00  0.00    -0.489 C  
HETATM    8  C   UNL     1      -9.330   6.914  67.886  1.00  0.00    -0.118 C  
HETATM    9  C   UNL     1     -10.067   7.254  69.185  1.00  0.00    -0.183 C  
ENDBRANCH   5   6
BRANCH   5  10
HETATM   10  N   UNL     1     -11.308  10.688  70.421  1.00  0.00    -0.369 N  
HETATM   11  C   UNL     1     -12.421  11.310  70.935  1.00  0.00    -0.394 C  
HETATM   12  H   UNL     1     -10.562  11.250  70.013  1.00  0.00     0.000 HD 
HETATM   13  O   UNL     1     -13.359  10.713  71.450  1.00  0.00    -0.325 OA 
BRANCH  11  14
HETATM   14  C   UNL     1     -12.421  12.811  70.773  1.00  0.00    -0.357 C  
BRANCH  14  15
HETATM   15  C   UNL     1     -11.541  13.214  69.591  1.00  0.00    -0.321 C  
BRANCH  15  16
HETATM   16  C   UNL     1     -11.924  14.572  69.001  1.00  0.00    -0.334 C  
BRANCH  16  17
HETATM   17  C   UNL     1     -11.287  14.809  67.633  1.00  0.00    -0.352 C  
BRANCH  17  18
HETATM   18  C   UNL     1     -11.343  13.566  66.752  1.00  0.00    -0.351 C  
BRANCH  18  19
HETATM   19  C   UNL     1     -12.463  13.704  65.723  1.00  0.00    -0.524 C  
BRANCH  19  20
HETATM   20  C   UNL     1     -12.519  12.491  64.798  1.00  0.00    -0.532 C  
BRANCH  20  21
HETATM   21  C   UNL     1     -11.805  12.780  63.477  1.00  0.00    -0.618 C  
BRANCH  21  22
HETATM   22  C   UNL     1     -10.495  12.054  63.407  1.00  0.00    -0.474 C  
HETATM   23  C   UNL     1     -10.281  10.845  63.942  1.00  0.00    -0.418 C  
ENDBRANCH  21  22
ENDBRANCH  20  21
ENDBRANCH  19  20
ENDBRANCH  18  19
ENDBRANCH  17  18
ENDBRANCH  16  17
ENDBRANCH  15  16
ENDBRANCH  14  15
ENDBRANCH  11  14
ENDBRANCH   5  10
ENDBRANCH   3   5
ENDBRANCH   2   3
TORSDOF 13
ENDMDL
MODEL       60
REMARK 921   NORMALIZED FREE ENERGY PREDICTED BY IDOCK:   -4.02 KCAL/MOL
REMARK 922        TOTAL FREE ENERGY PREDICTED BY IDOCK:   -9.19 KCAL/MOL
REMARK 923 INTER-LIGAND FREE ENERGY PREDICTED BY IDOCK:   -7.54 KCAL/MOL
REMARK 924 INTRA-LIGAND FREE ENERGY PREDICTED BY IDOCK:   -1.65 KCAL/MOL
REMARK 927      BINDING AFFINITY PREDICTED BY RF-SCORE:    0.00 PKD
ROOT
HETATM    1  C   UNL     1     -11.262   9.006  71.005  1.00  0.00    -0.295 C  
HETATM    2  O   UNL     1     -11.144  10.405  70.751  1.00  0.00    -0.304 OA 
ENDROOT
BRANCH   2   3
HETATM    3  C   UNL     1     -12.261  11.142  71.010  1.00  0.00    -0.333 C  
HETATM    4  O   UNL     1     -13.270  10.732  71.572  1.00  0.00    -0.382 OA 
BRANCH   3   5
HETATM    5  C   UNL     1     -12.060  12.578  70.514  1.00  0.00    -0.274 C  
BRANCH   5   6
HETATM    6  C   UNL     1     -12.929  13.577  71.290  1.00  0.00    -0.384 C  
HETATM    7  C   UNL     1     -11.263  15.509  71.154  1.00  0.00    -0.423 C  
HETATM    8  C   UNL     1     -13.137  15.572  72.807  1.00  0.00    -0.579 C  
HETATM    9  C   UNL     1     -12.154  14.662  72.063  1.00  0.00    -0.346 C  
ENDBRANCH   5   6
BRANCH   5  10
HETATM   10  N   UNL     1     -12.388  12.638  69.089  1.00  0.00     0.028 N  
HETATM   11  C   UNL     1     -11.446  13.016  68.162  1.00  0.00    -0.319 C  
HETATM   12  H   UNL     1     -13.330  12.397  68.779  1.00  0.00     0.000 HD 
HETATM   13  O   UNL     1     -10.292  13.314  68.447  1.00  0.00    -0.242 OA 
BRANCH  11  14
HETATM   14  C   UNL     1     -11.963  13.078  66.746  1.00  0.00    -0.434 C  
BRANCH  14  15
HETATM   15  C   UNL     1     -10.906  13.682  65.824  1.00  0.00    -0.274 C  
BRANCH  15  16
HETATM   16  C   UNL     1     -11.286  15.073  65.315  1.00  0.00    -0.368 C  
BRANCH  16  17
HETATM   17  C   UNL     1     -10.357  16.159  65.852  1.00  0.00    -0.384 C  
BRANCH  17  18
HETATM   18  C   UNL     1      -8.965  15.620  66.165  1.00  0.00    -0.362 C  
BRANCH  18  19
HETATM   19  C   UNL     1      -8.380  16.350  67.373  1.00  0.00    -0.183 C  
BRANCH  19  20
HETATM   20  C   UNL     1      -9.482  16.884  68.285  1.00  0.00    -0.250 C  
BRANCH  20  21
HETATM   21  C   UNL     1      -9.267  18.368  68.586  1.00  0.00    -0.328 C  
BRANCH  21  22
HETATM   22  C   UNL     1     -10.172  19.221  67.748  1.00  0.00    -0.507 C  
HETATM   23  C   UNL     1      -9.767  20.306  67.076  1.00  0.00    -0.598 C  
ENDBRANCH  21  22
ENDBRANCH  20  21
ENDBRANCH  19  20
ENDBRANCH  18  19
ENDBRANCH  17  18
ENDBRANCH  16  17
ENDBRANCH  15  16
ENDBRANCH  14  15
ENDBRANCH  11  14
ENDBRANCH   5  10
ENDBRANCH   3   5
ENDBRANCH   2   3
TORSDOF 13
ENDMDL
MODEL       61
REMARK 921   NORMALIZED FREE ENERGY PREDICTED BY IDOCK:   -4.02 KCAL/MOL
REMARK 922        TOTAL FREE ENERGY PREDICTED BY IDOCK:   -9.18 KCAL/MOL
REMARK 923 INTER-LIGAND FREE ENERGY PREDICTED BY IDOCK:   -7.41 KCAL/MOL
REMARK 924 INTRA-LIGAND FREE ENERGY PREDICTED BY IDOCK:   -1.77 KCAL/MOL
REMARK 927      BINDING AFFINITY PREDICTED BY RF-SCORE:    0.00 PKD
ROOT
HETATM    1  C   UNL     1      -6.696  13.677  67.765  1.00  0.00    -0.170 C  
HETATM    2  O   UNL     1      -8.105  13.488  67.886  1.00  0.00    -0.137 OA 
ENDROOT
BRANCH   2   3
HETATM    3  C   UNL     1      -8.616  12.434  67.188  1.00  0.00    -0.189 C  
HETATM    4  O   UNL     1      -7.960  11.535  66.676  1.00  0.00    -0.158 OA 
BRANCH   3   5
HETATM    5  C   UNL     1     -10.145  12.525  67.159  1.00  0.00    -0.214 C  
BRANCH   5   6
HETATM    6  C   UNL     1     -10.627  13.917  66.730  1.00  0.00    -0.277 C  
HETATM    7  C   UNL     1     -11.199  13.252  64.331  1.00  0.00    -0.409 C  
HETATM    8  C   UNL     1     -10.957  15.662  64.950  1.00  0.00    -0.447 C  
HETATM    9  C   UNL     1     -10.460  14.241  65.233  1.00  0.00    -0.408 C  
ENDBRANCH   5   6
BRANCH   5  10
HETATM   10  N   UNL     1     -10.665  12.208  68.490  1.00  0.00    -0.225 N  
HETATM   11  C   UNL     1     -11.255  10.994  68.748  1.00  0.00    -0.266 C  
HETATM   12  H   UNL     1     -10.587  12.899  69.237  1.00  0.00     0.000 HD 
HETATM   13  O   UNL     1     -11.381  10.107  67.913  1.00  0.00    -0.252 OA 
BRANCH  11  14
HETATM   14  C   UNL     1     -11.785  10.852  70.154  1.00  0.00    -0.433 C  
BRANCH  14  15
HETATM   15  C   UNL     1     -12.286  12.200  70.669  1.00  0.00    -0.392 C  
BRANCH  15  16
HETATM   16  C   UNL     1     -13.220  12.066  71.874  1.00  0.00    -0.469 C  
BRANCH  16  17
HETATM   17  C   UNL     1     -13.713  13.421  72.376  1.00  0.00    -0.698 C  
BRANCH  17  18
HETATM   18  C   UNL     1     -13.652  14.491  71.291  1.00  0.00    -0.423 C  
BRANCH  18  19
HETATM   19  C   UNL     1     -12.974  15.748  71.834  1.00  0.00    -0.513 C  
BRANCH  19  20
HETATM   20  C   UNL     1     -11.624  15.985  71.161  1.00  0.00    -0.492 C  
BRANCH  20  21
HETATM   21  C   UNL     1     -11.727  15.785  69.649  1.00  0.00    -0.363 C  
BRANCH  21  22
HETATM   22  C   UNL     1     -10.998  16.870  68.914  1.00  0.00    -0.207 C  
HETATM   23  C   UNL     1      -9.668  16.906  68.762  1.00  0.00    -0.265 C  
ENDBRANCH  21  22
ENDBRANCH  20  21
ENDBRANCH  19  20
ENDBRANCH  18  19
ENDBRANCH  17  18
ENDBRANCH  16  17
ENDBRANCH  15  16
ENDBRANCH  14  15
ENDBRANCH  11  14
ENDBRANCH   5  10
ENDBRANCH   3   5
ENDBRANCH   2   3
TORSDOF 13
ENDMDL
MODEL       62
REMARK 921   NORMALIZED FREE ENERGY PREDICTED BY IDOCK:   -4.02 KCAL/MOL
REMARK 922        TOTAL FREE ENERGY PREDICTED BY IDOCK:   -9.18 KCAL/MOL
REMARK 923 INTER-LIGAND FREE ENERGY PREDICTED BY IDOCK:   -7.49 KCAL/MOL
REMARK 924 INTRA-LIGAND FREE ENERGY PREDICTED BY IDOCK:   -1.69 KCAL/MOL
REMARK 927      BINDING AFFINITY PREDICTED BY RF-SCORE:    0.00 PKD
ROOT
HETATM    1  C   UNL     1     -12.733  13.868  65.631  1.00  0.00    -0.495 C  
HETATM    2  O   UNL     1     -11.919  14.208  66.751  1.00  0.00    -0.411 OA 
ENDROOT
BRANCH   2   3
HETATM    3  C   UNL     1     -11.712  13.205  67.650  1.00  0.00    -0.369 C  
HETATM    4  O   UNL     1     -12.143  12.062  67.553  1.00  0.00    -0.555 OA 
BRANCH   3   5
HETATM    5  C   UNL     1     -10.831  13.710  68.797  1.00  0.00    -0.255 C  
BRANCH   5   6
HETATM    6  C   UNL     1     -11.582  14.696  69.702  1.00  0.00    -0.349 C  
HETATM    7  C   UNL     1     -12.613  12.911  71.210  1.00  0.00    -0.352 C  
HETATM    8  C   UNL     1     -13.525  15.239  71.203  1.00  0.00    -0.559 C  
HETATM    9  C   UNL     1     -12.869  14.149  70.350  1.00  0.00    -0.256 C  
ENDBRANCH   5   6
BRANCH   5  10
HETATM   10  N   UNL     1      -9.645  14.357  68.236  1.00  0.00    -0.205 N  
HETATM   11  C   UNL     1      -8.470  13.662  68.075  1.00  0.00    -0.174 C  
HETATM   12  H   UNL     1      -9.691  15.338  67.960  1.00  0.00     0.000 HD 
HETATM   13  O   UNL     1      -8.331  12.481  68.372  1.00  0.00    -0.167 OA 
BRANCH  11  14
HETATM   14  C   UNL     1      -7.331  14.492  67.535  1.00  0.00    -0.212 C  
BRANCH  14  15
HETATM   15  C   UNL     1      -7.672  15.978  67.620  1.00  0.00    -0.165 C  
BRANCH  15  16
HETATM   16  C   UNL     1      -7.687  16.664  66.252  1.00  0.00    -0.273 C  
BRANCH  16  17
HETATM   17  C   UNL     1      -7.126  18.083  66.311  1.00  0.00    -0.307 C  
BRANCH  17  18
HETATM   18  C   UNL     1      -6.555  18.417  67.685  1.00  0.00    -0.197 C  
BRANCH  18  19
HETATM   19  C   UNL     1      -7.379  19.526  68.338  1.00  0.00    -0.352 C  
BRANCH  19  20
HETATM   20  C   UNL     1      -8.299  20.202  67.326  1.00  0.00    -0.394 C  
BRANCH  20  21
HETATM   21  C   UNL     1      -9.740  20.236  67.837  1.00  0.00    -0.472 C  
BRANCH  21  22
HETATM   22  C   UNL     1     -10.561  19.156  67.198  1.00  0.00    -0.564 C  
HETATM   23  C   UNL     1     -10.674  18.988  65.874  1.00  0.00    -0.404 C  
ENDBRANCH  21  22
ENDBRANCH  20  21
ENDBRANCH  19  20
ENDBRANCH  18  19
ENDBRANCH  17  18
ENDBRANCH  16  17
ENDBRANCH  15  16
ENDBRANCH  14  15
ENDBRANCH  11  14
ENDBRANCH   5  10
ENDBRANCH   3   5
ENDBRANCH   2   3
TORSDOF 13
ENDMDL
MODEL       63
REMARK 921   NORMALIZED FREE ENERGY PREDICTED BY IDOCK:   -4.01 KCAL/MOL
REMARK 922        TOTAL FREE ENERGY PREDICTED BY IDOCK:   -9.17 KCAL/MOL
REMARK 923 INTER-LIGAND FREE ENERGY PREDICTED BY IDOCK:   -7.78 KCAL/MOL
REMARK 924 INTRA-LIGAND FREE ENERGY PREDICTED BY IDOCK:   -1.39 KCAL/MOL
REMARK 927      BINDING AFFINITY PREDICTED BY RF-SCORE:    0.00 PKD
ROOT
HETATM    1  C   UNL     1     -13.151  10.283  71.585  1.00  0.00    -0.449 C  
HETATM    2  O   UNL     1     -12.409  11.371  71.038  1.00  0.00    -0.369 OA 
ENDROOT
BRANCH   2   3
HETATM    3  C   UNL     1     -11.719  11.093  69.896  1.00  0.00    -0.355 C  
HETATM    4  O   UNL     1     -11.133  10.044  69.657  1.00  0.00    -0.242 OA 
BRANCH   3   5
HETATM    5  C   UNL     1     -11.804  12.283  68.935  1.00  0.00    -0.303 C  
BRANCH   5   6
HETATM    6  C   UNL     1     -11.237  11.942  67.551  1.00  0.00    -0.359 C  
HETATM    7  C   UNL     1     -12.099  14.056  66.404  1.00  0.00    -0.483 C  
HETATM    8  C   UNL     1     -11.356  12.094  65.044  1.00  0.00    -0.379 C  
HETATM    9  C   UNL     1     -12.014  12.530  66.357  1.00  0.00    -0.386 C  
ENDBRANCH   5   6
BRANCH   5  10
HETATM   10  N   UNL     1     -11.067  13.410  69.509  1.00  0.00    -0.460 N  
HETATM   11  C   UNL     1     -11.730  14.476  70.069  1.00  0.00    -0.301 C  
HETATM   12  H   UNL     1     -10.047  13.404  69.493  1.00  0.00     0.000 HD 
HETATM   13  O   UNL     1     -12.951  14.560  70.137  1.00  0.00    -0.233 OA 
BRANCH  11  14
HETATM   14  C   UNL     1     -10.823  15.576  70.564  1.00  0.00    -0.353 C  
BRANCH  14  15
HETATM   15  C   UNL     1     -10.329  16.421  69.392  1.00  0.00    -0.290 C  
BRANCH  15  16
HETATM   16  C   UNL     1      -8.857  16.171  69.058  1.00  0.00    -0.251 C  
BRANCH  16  17
HETATM   17  C   UNL     1      -8.479  16.702  67.677  1.00  0.00    -0.200 C  
BRANCH  17  18
HETATM   18  C   UNL     1      -7.308  17.677  67.738  1.00  0.00    -0.193 C  
BRANCH  18  19
HETATM   19  C   UNL     1      -7.293  18.556  66.489  1.00  0.00    -0.258 C  
BRANCH  19  20
HETATM   20  C   UNL     1      -8.066  19.853  66.714  1.00  0.00    -0.349 C  
BRANCH  20  21
HETATM   21  C   UNL     1      -9.456  19.775  66.083  1.00  0.00    -0.464 C  
BRANCH  21  22
HETATM   22  C   UNL     1     -10.523  19.752  67.136  1.00  0.00    -0.592 C  
HETATM   23  C   UNL     1     -10.289  19.945  68.441  1.00  0.00    -0.507 C  
ENDBRANCH  21  22
ENDBRANCH  20  21
ENDBRANCH  19  20
ENDBRANCH  18  19
ENDBRANCH  17  18
ENDBRANCH  16  17
ENDBRANCH  15  16
ENDBRANCH  14  15
ENDBRANCH  11  14
ENDBRANCH   5  10
ENDBRANCH   3   5
ENDBRANCH   2   3
TORSDOF 13
ENDMDL
MODEL       64
REMARK 921   NORMALIZED FREE ENERGY PREDICTED BY IDOCK:   -4.01 KCAL/MOL
REMARK 922        TOTAL FREE ENERGY PREDICTED BY IDOCK:   -9.17 KCAL/MOL
REMARK 923 INTER-LIGAND FREE ENERGY PREDICTED BY IDOCK:   -7.70 KCAL/MOL
REMARK 924 INTRA-LIGAND FREE ENERGY PREDICTED BY IDOCK:   -1.46 KCAL/MOL
REMARK 927      BINDING AFFINITY PREDICTED BY RF-SCORE:    0.00 PKD
ROOT
HETATM    1  C   UNL     1     -11.124  14.966  65.835  1.00  0.00    -0.338 C  
HETATM    2  O   UNL     1     -11.994  14.591  66.902  1.00  0.00    -0.403 OA 
ENDROOT
BRANCH   2   3
HETATM    3  C   UNL     1     -11.602  14.992  68.145  1.00  0.00    -0.340 C  
HETATM    4  O   UNL     1     -11.155  16.097  68.427  1.00  0.00    -0.329 OA 
BRANCH   3   5
HETATM    5  C   UNL     1     -11.829  13.859  69.150  1.00  0.00    -0.358 C  
BRANCH   5   6
HETATM    6  C   UNL     1     -11.832  14.371  70.597  1.00  0.00    -0.361 C  
HETATM    7  C   UNL     1     -13.159  12.407  71.550  1.00  0.00    -0.362 C  
HETATM    8  C   UNL     1     -12.924  14.526  72.856  1.00  0.00    -0.582 C  
HETATM    9  C   UNL     1     -13.036  13.928  71.450  1.00  0.00    -0.430 C  
ENDBRANCH   5   6
BRANCH   5  10
HETATM   10  N   UNL     1     -10.776  12.857  68.981  1.00  0.00    -0.412 N  
HETATM   11  C   UNL     1     -11.066  11.599  68.510  1.00  0.00    -0.235 C  
HETATM   12  H   UNL     1      -9.812  13.096  69.216  1.00  0.00     0.000 HD 
HETATM   13  O   UNL     1     -12.193  11.232  68.197  1.00  0.00    -0.622 OA 
BRANCH  11  14
HETATM   14  C   UNL     1      -9.877  10.672  68.448  1.00  0.00    -0.170 C  
BRANCH  14  15
HETATM   15  C   UNL     1      -9.780   9.849  69.731  1.00  0.00    -0.266 C  
BRANCH  15  16
HETATM   16  C   UNL     1      -9.083   8.504  69.524  1.00  0.00    -0.150 C  
BRANCH  16  17
HETATM   17  C   UNL     1      -8.889   7.745  70.834  1.00  0.00    -0.142 C  
BRANCH  17  18
HETATM   18  C   UNL     1      -9.562   6.376  70.809  1.00  0.00    -0.193 C  
BRANCH  18  19
HETATM   19  C   UNL     1     -11.064   6.536  70.582  1.00  0.00    -0.364 C  
BRANCH  19  20
HETATM   20  C   UNL     1     -11.833   6.489  71.899  1.00  0.00    -0.381 C  
BRANCH  20  21
HETATM   21  C   UNL     1     -12.046   7.897  72.456  1.00  0.00    -0.298 C  
BRANCH  21  22
HETATM   22  C   UNL     1     -13.132   8.610  71.707  1.00  0.00    -0.396 C  
HETATM   23  C   UNL     1     -14.397   8.178  71.633  1.00  0.00    -0.570 C  
ENDBRANCH  21  22
ENDBRANCH  20  21
ENDBRANCH  19  20
ENDBRANCH  18  19
ENDBRANCH  17  18
ENDBRANCH  16  17
ENDBRANCH  15  16
ENDBRANCH  14  15
ENDBRANCH  11  14
ENDBRANCH   5  10
ENDBRANCH   3   5
ENDBRANCH   2   3
TORSDOF 13
ENDMDL
MODEL       65
REMARK 921   NORMALIZED FREE ENERGY PREDICTED BY IDOCK:   -4.01 KCAL/MOL
REMARK 922        TOTAL FREE ENERGY PREDICTED BY IDOCK:   -9.16 KCAL/MOL
REMARK 923 INTER-LIGAND FREE ENERGY PREDICTED BY IDOCK:   -7.57 KCAL/MOL
REMARK 924 INTRA-LIGAND FREE ENERGY PREDICTED BY IDOCK:   -1.58 KCAL/MOL
REMARK 927      BINDING AFFINITY PREDICTED BY RF-SCORE:    0.00 PKD
ROOT
HETATM    1  C   UNL     1     -12.615  12.326  63.784  1.00  0.00    -0.470 C  
HETATM    2  O   UNL     1     -12.609  12.470  65.203  1.00  0.00    -0.631 OA 
ENDROOT
BRANCH   2   3
HETATM    3  C   UNL     1     -11.435  12.153  65.818  1.00  0.00    -0.361 C  
HETATM    4  O   UNL     1     -10.613  11.342  65.408  1.00  0.00    -0.267 OA 
BRANCH   3   5
HETATM    5  C   UNL     1     -11.278  12.983  67.096  1.00  0.00    -0.286 C  
BRANCH   5   6
HETATM    6  C   UNL     1      -9.896  13.644  67.182  1.00  0.00    -0.242 C  
HETATM    7  C   UNL     1     -10.766  16.045  67.097  1.00  0.00    -0.283 C  
HETATM    8  C   UNL     1      -8.354  15.558  66.653  1.00  0.00    -0.286 C  
HETATM    9  C   UNL     1      -9.785  15.028  66.513  1.00  0.00    -0.285 C  
ENDBRANCH   5   6
BRANCH   5  10
HETATM   10  N   UNL     1     -11.485  12.115  68.255  1.00  0.00    -0.282 N  
HETATM   11  C   UNL     1     -11.996  12.613  69.430  1.00  0.00    -0.260 C  
HETATM   12  H   UNL     1     -11.248  11.124  68.190  1.00  0.00     0.000 HD 
HETATM   13  O   UNL     1     -12.315  13.785  69.591  1.00  0.00    -0.316 OA 
BRANCH  11  14
HETATM   14  C   UNL     1     -12.094  11.596  70.541  1.00  0.00    -0.458 C  
BRANCH  14  15
HETATM   15  C   UNL     1     -11.368  10.312  70.148  1.00  0.00    -0.388 C  
BRANCH  15  16
HETATM   16  C   UNL     1     -11.611   9.166  71.133  1.00  0.00    -0.386 C  
BRANCH  16  17
HETATM   17  C   UNL     1     -10.339   8.762  71.874  1.00  0.00    -0.414 C  
BRANCH  17  18
HETATM   18  C   UNL     1     -10.083   7.260  71.795  1.00  0.00    -0.193 C  
BRANCH  18  19
HETATM   19  C   UNL     1     -11.231   6.572  71.059  1.00  0.00    -0.362 C  
BRANCH  19  20
HETATM   20  C   UNL     1     -10.716   5.711  69.909  1.00  0.00    -0.399 C  
BRANCH  20  21
HETATM   21  C   UNL     1     -11.157   6.283  68.561  1.00  0.00    -0.397 C  
BRANCH  21  22
HETATM   22  C   UNL     1     -10.221   7.361  68.103  1.00  0.00    -0.223 C  
HETATM   23  C   UNL     1     -10.514   8.249  67.145  1.00  0.00    -0.386 C  
ENDBRANCH  21  22
ENDBRANCH  20  21
ENDBRANCH  19  20
ENDBRANCH  18  19
ENDBRANCH  17  18
ENDBRANCH  16  17
ENDBRANCH  15  16
ENDBRANCH  14  15
ENDBRANCH  11  14
ENDBRANCH   5  10
ENDBRANCH   3   5
ENDBRANCH   2   3
TORSDOF 13
ENDMDL
MODEL       66
REMARK 921   NORMALIZED FREE ENERGY PREDICTED BY IDOCK:   -4.00 KCAL/MOL
REMARK 922        TOTAL FREE ENERGY PREDICTED BY IDOCK:   -9.16 KCAL/MOL
REMARK 923 INTER-LIGAND FREE ENERGY PREDICTED BY IDOCK:   -7.77 KCAL/MOL
REMARK 924 INTRA-LIGAND FREE ENERGY PREDICTED BY IDOCK:   -1.39 KCAL/MOL
REMARK 927      BINDING AFFINITY PREDICTED BY RF-SCORE:    0.00 PKD
ROOT
HETATM    1  C   UNL     1     -10.903   6.345  69.276  1.00  0.00    -0.327 C  
HETATM    2  O   UNL     1     -11.499   5.982  70.519  1.00  0.00    -0.304 OA 
ENDROOT
BRANCH   2   3
HETATM    3  C   UNL     1     -12.154   6.986  71.169  1.00  0.00    -0.369 C  
HETATM    4  O   UNL     1     -13.335   6.970  71.496  1.00  0.00    -0.366 OA 
BRANCH   3   5
HETATM    5  C   UNL     1     -11.185   8.136  71.457  1.00  0.00    -0.259 C  
BRANCH   5   6
HETATM    6  C   UNL     1     -10.565   8.025  72.857  1.00  0.00    -0.399 C  
HETATM    7  C   UNL     1      -8.146   7.909  72.046  1.00  0.00    -0.141 C  
HETATM    8  C   UNL     1      -8.733   7.215  74.376  1.00  0.00    -0.238 C  
HETATM    9  C   UNL     1      -9.223   7.272  72.925  1.00  0.00    -0.185 C  
ENDBRANCH   5   6
BRANCH   5  10
HETATM   10  N   UNL     1     -11.903   9.405  71.333  1.00  0.00    -0.346 N  
HETATM   11  C   UNL     1     -11.436  10.405  70.514  1.00  0.00    -0.345 C  
HETATM   12  H   UNL     1     -12.764   9.549  71.861  1.00  0.00     0.000 HD 
HETATM   13  O   UNL     1     -10.416  10.313  69.840  1.00  0.00    -0.257 OA 
BRANCH  11  14
HETATM   14  C   UNL     1     -12.264  11.666  70.544  1.00  0.00    -0.451 C  
BRANCH  14  15
HETATM   15  C   UNL     1     -13.223  11.641  71.733  1.00  0.00    -0.438 C  
BRANCH  15  16
HETATM   16  C   UNL     1     -13.555  13.039  72.258  1.00  0.00    -0.643 C  
BRANCH  16  17
HETATM   17  C   UNL     1     -13.090  14.139  71.308  1.00  0.00    -0.420 C  
BRANCH  17  18
HETATM   18  C   UNL     1     -11.973  14.984  71.912  1.00  0.00    -0.454 C  
BRANCH  18  19
HETATM   19  C   UNL     1     -11.544  16.068  70.924  1.00  0.00    -0.453 C  
BRANCH  19  20
HETATM   20  C   UNL     1     -10.707  15.484  69.789  1.00  0.00    -0.301 C  
BRANCH  20  21
HETATM   21  C   UNL     1     -11.057  16.148  68.457  1.00  0.00    -0.357 C  
BRANCH  21  22
HETATM   22  C   UNL     1     -11.374  15.120  67.413  1.00  0.00    -0.309 C  
HETATM   23  C   UNL     1     -12.032  13.980  67.662  1.00  0.00    -0.404 C  
ENDBRANCH  21  22
ENDBRANCH  20  21
ENDBRANCH  19  20
ENDBRANCH  18  19
ENDBRANCH  17  18
ENDBRANCH  16  17
ENDBRANCH  15  16
ENDBRANCH  14  15
ENDBRANCH  11  14
ENDBRANCH   5  10
ENDBRANCH   3   5
ENDBRANCH   2   3
TORSDOF 13
ENDMDL
MODEL       67
REMARK 921   NORMALIZED FREE ENERGY PREDICTED BY IDOCK:   -4.00 KCAL/MOL
REMARK 922        TOTAL FREE ENERGY PREDICTED BY IDOCK:   -9.14 KCAL/MOL
REMARK 923 INTER-LIGAND FREE ENERGY PREDICTED BY IDOCK:   -7.69 KCAL/MOL
REMARK 924 INTRA-LIGAND FREE ENERGY PREDICTED BY IDOCK:   -1.45 KCAL/MOL
REMARK 927      BINDING AFFINITY PREDICTED BY RF-SCORE:    0.00 PKD
ROOT
HETATM    1  C   UNL     1     -10.217  19.700  66.224  1.00  0.00    -0.498 C  
HETATM    2  O   UNL     1     -10.758  18.809  67.198  1.00  0.00    -0.429 OA 
ENDROOT
BRANCH   2   3
HETATM    3  C   UNL     1     -10.099  18.776  68.391  1.00  0.00    -0.393 C  
HETATM    4  O   UNL     1     -10.007  19.710  69.179  1.00  0.00    -0.441 OA 
BRANCH   3   5
HETATM    5  C   UNL     1      -9.506  17.382  68.617  1.00  0.00    -0.280 C  
BRANCH   5   6
HETATM    6  C   UNL     1      -8.361  17.082  67.640  1.00  0.00    -0.196 C  
HETATM    7  C   UNL     1      -6.521  18.084  69.101  1.00  0.00    -0.249 C  
HETATM    8  C   UNL     1      -6.109  17.648  66.674  1.00  0.00    -0.221 C  
HETATM    9  C   UNL     1      -7.162  18.047  67.713  1.00  0.00    -0.211 C  
ENDBRANCH   5   6
BRANCH   5  10
HETATM   10  N   UNL     1     -10.565  16.384  68.460  1.00  0.00    -0.286 N  
HETATM   11  C   UNL     1     -11.316  15.975  69.536  1.00  0.00    -0.344 C  
HETATM   12  H   UNL     1     -10.749  15.987  67.538  1.00  0.00     0.000 HD 
HETATM   13  O   UNL     1     -11.166  16.405  70.674  1.00  0.00    -0.358 OA 
BRANCH  11  14
HETATM   14  C   UNL     1     -12.327  14.902  69.212  1.00  0.00    -0.138 C  
BRANCH  14  15
HETATM   15  C   UNL     1     -12.126  13.694  70.124  1.00  0.00    -0.431 C  
BRANCH  15  16
HETATM   16  C   UNL     1     -11.430  12.527  69.420  1.00  0.00    -0.327 C  
BRANCH  16  17
HETATM   17  C   UNL     1     -11.667  12.538  67.912  1.00  0.00    -0.416 C  
BRANCH  17  18
HETATM   18  C   UNL     1     -10.419  12.955  67.139  1.00  0.00    -0.241 C  
BRANCH  18  19
HETATM   19  C   UNL     1     -10.816  13.740  65.890  1.00  0.00    -0.283 C  
BRANCH  19  20
HETATM   20  C   UNL     1     -12.247  13.421  65.465  1.00  0.00    -0.499 C  
BRANCH  20  21
HETATM   21  C   UNL     1     -12.260  12.483  64.257  1.00  0.00    -0.535 C  
BRANCH  21  22
HETATM   22  C   UNL     1     -10.903  12.405  63.625  1.00  0.00    -0.509 C  
HETATM   23  C   UNL     1     -10.300  11.258  63.289  1.00  0.00    -0.406 C  
ENDBRANCH  21  22
ENDBRANCH  20  21
ENDBRANCH  19  20
ENDBRANCH  18  19
ENDBRANCH  17  18
ENDBRANCH  16  17
ENDBRANCH  15  16
ENDBRANCH  14  15
ENDBRANCH  11  14
ENDBRANCH   5  10
ENDBRANCH   3   5
ENDBRANCH   2   3
TORSDOF 13
ENDMDL
MODEL       68
REMARK 921   NORMALIZED FREE ENERGY PREDICTED BY IDOCK:   -3.99 KCAL/MOL
REMARK 922        TOTAL FREE ENERGY PREDICTED BY IDOCK:   -9.14 KCAL/MOL
REMARK 923 INTER-LIGAND FREE ENERGY PREDICTED BY IDOCK:   -7.45 KCAL/MOL
REMARK 924 INTRA-LIGAND FREE ENERGY PREDICTED BY IDOCK:   -1.69 KCAL/MOL
REMARK 927      BINDING AFFINITY PREDICTED BY RF-SCORE:    0.00 PKD
ROOT
HETATM    1  C   UNL     1     -12.500  13.220  65.391  1.00  0.00    -0.489 C  
HETATM    2  O   UNL     1     -11.954  12.128  66.128  1.00  0.00    -0.593 OA 
ENDROOT
BRANCH   2   3
HETATM    3  C   UNL     1     -10.836  12.413  66.854  1.00  0.00    -0.251 C  
HETATM    4  O   UNL     1      -9.682  12.288  66.462  1.00  0.00    -0.222 OA 
BRANCH   3   5
HETATM    5  C   UNL     1     -11.236  12.942  68.235  1.00  0.00    -0.270 C  
BRANCH   5   6
HETATM    6  C   UNL     1     -10.563  14.285  68.550  1.00  0.00    -0.260 C  
HETATM    7  C   UNL     1     -12.334  15.062  70.219  1.00  0.00    -0.392 C  
HETATM    8  C   UNL     1     -10.720  16.699  69.234  1.00  0.00    -0.337 C  
HETATM    9  C   UNL     1     -11.518  15.417  68.975  1.00  0.00    -0.349 C  
ENDBRANCH   5   6
BRANCH   5  10
HETATM   10  N   UNL     1     -10.867  11.953  69.248  1.00  0.00    -0.425 N  
HETATM   11  C   UNL     1     -11.728  10.939  69.593  1.00  0.00    -0.331 C  
HETATM   12  H   UNL     1      -9.956  12.017  69.704  1.00  0.00     0.000 HD 
HETATM   13  O   UNL     1     -12.835  10.784  69.090  1.00  0.00    -0.103 OA 
BRANCH  11  14
HETATM   14  C   UNL     1     -11.214  10.039  70.692  1.00  0.00    -0.425 C  
BRANCH  14  15
HETATM   15  C   UNL     1     -12.315   9.777  71.717  1.00  0.00    -0.470 C  
BRANCH  15  16
HETATM   16  C   UNL     1     -12.620   8.288  71.893  1.00  0.00    -0.379 C  
BRANCH  16  17
HETATM   17  C   UNL     1     -11.431   7.518  72.464  1.00  0.00    -0.376 C  
BRANCH  17  18
HETATM   18  C   UNL     1     -11.303   6.127  71.852  1.00  0.00    -0.350 C  
BRANCH  18  19
HETATM   19  C   UNL     1     -11.182   6.232  70.333  1.00  0.00    -0.439 C  
BRANCH  19  20
HETATM   20  C   UNL     1      -9.729   6.118  69.883  1.00  0.00    -0.193 C  
BRANCH  20  21
HETATM   21  C   UNL     1      -9.350   7.282  68.966  1.00  0.00    -0.148 C  
BRANCH  21  22
HETATM   22  C   UNL     1     -10.421   7.532  67.947  1.00  0.00    -0.266 C  
HETATM   23  C   UNL     1     -10.411   8.559  67.088  1.00  0.00    -0.377 C  
ENDBRANCH  21  22
ENDBRANCH  20  21
ENDBRANCH  19  20
ENDBRANCH  18  19
ENDBRANCH  17  18
ENDBRANCH  16  17
ENDBRANCH  15  16
ENDBRANCH  14  15
ENDBRANCH  11  14
ENDBRANCH   5  10
ENDBRANCH   3   5
ENDBRANCH   2   3
TORSDOF 13
ENDMDL
MODEL       69
REMARK 921   NORMALIZED FREE ENERGY PREDICTED BY IDOCK:   -3.99 KCAL/MOL
REMARK 922        TOTAL FREE ENERGY PREDICTED BY IDOCK:   -9.13 KCAL/MOL
REMARK 923 INTER-LIGAND FREE ENERGY PREDICTED BY IDOCK:   -7.88 KCAL/MOL
REMARK 924 INTRA-LIGAND FREE ENERGY PREDICTED BY IDOCK:   -1.24 KCAL/MOL
REMARK 927      BINDING AFFINITY PREDICTED BY RF-SCORE:    0.00 PKD
ROOT
HETATM    1  C   UNL     1     -10.806  14.954  65.146  1.00  0.00    -0.414 C  
HETATM    2  O   UNL     1     -12.017  14.199  65.150  1.00  0.00    -0.354 OA 
ENDROOT
BRANCH   2   3
HETATM    3  C   UNL     1     -12.038  13.122  64.314  1.00  0.00    -0.414 C  
HETATM    4  O   UNL     1     -12.782  12.986  63.350  1.00  0.00    -0.694 OA 
BRANCH   3   5
HETATM    5  C   UNL     1     -10.971  12.111  64.744  1.00  0.00    -0.310 C  
BRANCH   5   6
HETATM    6  C   UNL     1     -10.619  11.136  63.612  1.00  0.00    -0.414 C  
HETATM    7  C   UNL     1      -8.633  10.070  64.815  1.00  0.00    -0.188 C  
HETATM    8  C   UNL     1      -8.921   9.779  62.348  1.00  0.00    -0.288 C  
HETATM    9  C   UNL     1      -9.135  10.730  63.530  1.00  0.00    -0.237 C  
ENDBRANCH   5   6
BRANCH   5  10
HETATM   10  N   UNL     1     -11.462  11.366  65.904  1.00  0.00    -0.030 N  
HETATM   11  C   UNL     1     -10.896  11.536  67.145  1.00  0.00    -0.268 C  
HETATM   12  H   UNL     1     -12.237  10.712  65.790  1.00  0.00     0.000 HD 
HETATM   13  O   UNL     1      -9.970  12.307  67.371  1.00  0.00    -0.198 OA 
BRANCH  11  14
HETATM   14  C   UNL     1     -11.484  10.654  68.219  1.00  0.00    -0.318 C  
BRANCH  14  15
HETATM   15  C   UNL     1     -11.745  11.466  69.486  1.00  0.00    -0.417 C  
BRANCH  15  16
HETATM   16  C   UNL     1     -12.195  10.600  70.664  1.00  0.00    -0.459 C  
BRANCH  16  17
HETATM   17  C   UNL     1     -13.230  11.305  71.538  1.00  0.00    -0.354 C  
BRANCH  17  18
HETATM   18  C   UNL     1     -12.719  12.641  72.067  1.00  0.00    -0.124 C  
BRANCH  18  19
HETATM   19  C   UNL     1     -13.897  13.556  72.401  1.00  0.00    -0.687 C  
BRANCH  19  20
HETATM   20  C   UNL     1     -14.021  14.692  71.390  1.00  0.00    -0.470 C  
BRANCH  20  21
HETATM   21  C   UNL     1     -12.812  15.625  71.467  1.00  0.00    -0.538 C  
BRANCH  21  22
HETATM   22  C   UNL     1     -12.065  15.642  70.167  1.00  0.00    -0.400 C  
HETATM   23  C   UNL     1     -10.798  15.232  70.027  1.00  0.00    -0.303 C  
ENDBRANCH  21  22
ENDBRANCH  20  21
ENDBRANCH  19  20
ENDBRANCH  18  19
ENDBRANCH  17  18
ENDBRANCH  16  17
ENDBRANCH  15  16
ENDBRANCH  14  15
ENDBRANCH  11  14
ENDBRANCH   5  10
ENDBRANCH   3   5
ENDBRANCH   2   3
TORSDOF 13
ENDMDL
MODEL       70
REMARK 921   NORMALIZED FREE ENERGY PREDICTED BY IDOCK:   -3.97 KCAL/MOL
REMARK 922        TOTAL FREE ENERGY PREDICTED BY IDOCK:   -9.10 KCAL/MOL
REMARK 923 INTER-LIGAND FREE ENERGY PREDICTED BY IDOCK:   -7.75 KCAL/MOL
REMARK 924 INTRA-LIGAND FREE ENERGY PREDICTED BY IDOCK:   -1.35 KCAL/MOL
REMARK 927      BINDING AFFINITY PREDICTED BY RF-SCORE:    0.00 PKD
ROOT
HETATM    1  C   UNL     1     -12.326  12.424  63.425  1.00  0.00    -0.499 C  
HETATM    2  O   UNL     1     -11.636  12.911  64.574  1.00  0.00    -0.320 OA 
ENDROOT
BRANCH   2   3
HETATM    3  C   UNL     1     -12.381  13.673  65.424  1.00  0.00    -0.476 C  
HETATM    4  O   UNL     1     -13.307  14.405  65.097  1.00  0.00    -0.542 OA 
BRANCH   3   5
HETATM    5  C   UNL     1     -11.905  13.458  66.864  1.00  0.00    -0.403 C  
BRANCH   5   6
HETATM    6  C   UNL     1     -11.235  14.714  67.438  1.00  0.00    -0.351 C  
HETATM    7  C   UNL     1     -11.619  14.101  69.888  1.00  0.00    -0.329 C  
HETATM    8  C   UNL     1     -11.028  16.445  69.250  1.00  0.00    -0.322 C  
HETATM    9  C   UNL     1     -11.764  15.175  68.809  1.00  0.00    -0.366 C  
ENDBRANCH   5   6
BRANCH   5  10
HETATM   10  N   UNL     1     -10.965  12.338  66.892  1.00  0.00    -0.254 N  
HETATM   11  C   UNL     1     -11.245  11.196  67.603  1.00  0.00    -0.297 C  
HETATM   12  H   UNL     1     -10.088  12.405  66.374  1.00  0.00     0.000 HD 
HETATM   13  O   UNL     1     -12.276  11.029  68.245  1.00  0.00    -0.582 OA 
BRANCH  11  14
HETATM   14  C   UNL     1     -10.146  10.162  67.571  1.00  0.00    -0.244 C  
BRANCH  14  15
HETATM   15  C   UNL     1     -10.243   9.250  68.792  1.00  0.00    -0.223 C  
BRANCH  15  16
HETATM   16  C   UNL     1      -8.885   8.992  69.449  1.00  0.00    -0.144 C  
BRANCH  16  17
HETATM   17  C   UNL     1      -8.957   9.065  70.973  1.00  0.00    -0.304 C  
BRANCH  17  18
HETATM   18  C   UNL     1      -9.086   7.684  71.607  1.00  0.00    -0.157 C  
BRANCH  18  19
HETATM   19  C   UNL     1     -10.506   7.151  71.417  1.00  0.00    -0.220 C  
BRANCH  19  20
HETATM   20  C   UNL     1     -11.469   7.766  72.428  1.00  0.00    -0.418 C  
BRANCH  20  21
HETATM   21  C   UNL     1     -12.548   8.588  71.723  1.00  0.00    -0.387 C  
BRANCH  21  22
HETATM   22  C   UNL     1     -12.197  10.045  71.721  1.00  0.00    -0.383 C  
HETATM   23  C   UNL     1     -13.094  11.031  71.845  1.00  0.00    -0.525 C  
ENDBRANCH  21  22
ENDBRANCH  20  21
ENDBRANCH  19  20
ENDBRANCH  18  19
ENDBRANCH  17  18
ENDBRANCH  16  17
ENDBRANCH  15  16
ENDBRANCH  14  15
ENDBRANCH  11  14
ENDBRANCH   5  10
ENDBRANCH   3   5
ENDBRANCH   2   3
TORSDOF 13
ENDMDL
MODEL       71
REMARK 921   NORMALIZED FREE ENERGY PREDICTED BY IDOCK:   -3.96 KCAL/MOL
REMARK 922        TOTAL FREE ENERGY PREDICTED BY IDOCK:   -9.07 KCAL/MOL
REMARK 923 INTER-LIGAND FREE ENERGY PREDICTED BY IDOCK:   -7.44 KCAL/MOL
REMARK 924 INTRA-LIGAND FREE ENERGY PREDICTED BY IDOCK:   -1.63 KCAL/MOL
REMARK 927      BINDING AFFINITY PREDICTED BY RF-SCORE:    0.00 PKD
ROOT
HETATM    1  C   UNL     1     -10.514  16.420  65.891  1.00  0.00    -0.337 C  
HETATM    2  O   UNL     1     -10.781  15.974  67.220  1.00  0.00    -0.314 OA 
ENDROOT
BRANCH   2   3
HETATM    3  C   UNL     1     -10.353  16.804  68.213  1.00  0.00    -0.319 C  
HETATM    4  O   UNL     1     -10.505  18.020  68.239  1.00  0.00    -0.375 OA 
BRANCH   3   5
HETATM    5  C   UNL     1      -9.671  15.986  69.314  1.00  0.00    -0.257 C  
BRANCH   5   6
HETATM    6  C   UNL     1      -8.395  15.299  68.808  1.00  0.00    -0.179 C  
HETATM    7  C   UNL     1      -6.879  17.330  69.130  1.00  0.00    -0.234 C  
HETATM    8  C   UNL     1      -6.145  15.421  67.692  1.00  0.00    -0.151 C  
HETATM    9  C   UNL     1      -7.350  16.236  68.171  1.00  0.00    -0.144 C  
ENDBRANCH   5   6
BRANCH   5  10
HETATM   10  N   UNL     1     -10.611  14.981  69.810  1.00  0.00    -0.363 N  
HETATM   11  C   UNL     1     -11.457  15.259  70.857  1.00  0.00    -0.339 C  
HETATM   12  H   UNL     1     -10.639  14.060  69.372  1.00  0.00     0.000 HD 
HETATM   13  O   UNL     1     -11.494  16.341  71.433  1.00  0.00    -0.422 OA 
BRANCH  11  14
HETATM   14  C   UNL     1     -12.322  14.097  71.279  1.00  0.00    -0.447 C  
BRANCH  14  15
HETATM   15  C   UNL     1     -12.409  13.068  70.154  1.00  0.00    -0.270 C  
BRANCH  15  16
HETATM   16  C   UNL     1     -12.204  11.633  70.643  1.00  0.00    -0.461 C  
BRANCH  16  17
HETATM   17  C   UNL     1     -11.824  10.684  69.509  1.00  0.00    -0.345 C  
BRANCH  17  18
HETATM   18  C   UNL     1     -10.678  11.230  68.664  1.00  0.00    -0.241 C  
BRANCH  18  19
HETATM   19  C   UNL     1     -11.074  11.237  67.188  1.00  0.00    -0.364 C  
BRANCH  19  20
HETATM   20  C   UNL     1     -10.981  12.640  66.596  1.00  0.00    -0.292 C  
BRANCH  20  21
HETATM   21  C   UNL     1     -12.293  13.031  65.915  1.00  0.00    -0.432 C  
BRANCH  21  22
HETATM   22  C   UNL     1     -12.109  13.165  64.433  1.00  0.00    -0.471 C  
HETATM   23  C   UNL     1     -12.411  12.203  63.552  1.00  0.00    -0.682 C  
ENDBRANCH  21  22
ENDBRANCH  20  21
ENDBRANCH  19  20
ENDBRANCH  18  19
ENDBRANCH  17  18
ENDBRANCH  16  17
ENDBRANCH  15  16
ENDBRANCH  14  15
ENDBRANCH  11  14
ENDBRANCH   5  10
ENDBRANCH   3   5
ENDBRANCH   2   3
TORSDOF 13
ENDMDL
MODEL       72
REMARK 921   NORMALIZED FREE ENERGY PREDICTED BY IDOCK:   -3.95 KCAL/MOL
REMARK 922        TOTAL FREE ENERGY PREDICTED BY IDOCK:   -9.06 KCAL/MOL
REMARK 923 INTER-LIGAND FREE ENERGY PREDICTED BY IDOCK:   -7.31 KCAL/MOL
REMARK 924 INTRA-LIGAND FREE ENERGY PREDICTED BY IDOCK:   -1.76 KCAL/MOL
REMARK 927      BINDING AFFINITY PREDICTED BY RF-SCORE:    0.00 PKD
ROOT
HETATM    1  C   UNL     1      -9.577   9.631  66.911  1.00  0.00    -0.167 C  
HETATM    2  O   UNL     1      -9.945  10.919  67.402  1.00  0.00    -0.180 OA 
ENDROOT
BRANCH   2   3
HETATM    3  C   UNL     1      -9.119  11.941  67.039  1.00  0.00    -0.191 C  
HETATM    4  O   UNL     1      -7.905  11.967  67.206  1.00  0.00    -0.154 OA 
BRANCH   3   5
HETATM    5  C   UNL     1      -9.931  13.050  66.364  1.00  0.00    -0.277 C  
BRANCH   5   6
HETATM    6  C   UNL     1     -10.582  12.569  65.060  1.00  0.00    -0.329 C  
HETATM    7  C   UNL     1     -12.629  14.087  65.232  1.00  0.00    -0.495 C  
HETATM    8  C   UNL     1     -12.635  12.130  63.676  1.00  0.00    -0.616 C  
HETATM    9  C   UNL     1     -12.120  12.661  65.018  1.00  0.00    -0.497 C  
ENDBRANCH   5   6
BRANCH   5  10
HETATM   10  N   UNL     1      -9.049  14.184  66.089  1.00  0.00    -0.501 N  
HETATM   11  C   UNL     1      -9.250  15.400  66.698  1.00  0.00    -0.275 C  
HETATM   12  H   UNL     1      -8.274  14.071  65.435  1.00  0.00     0.000 HD 
HETATM   13  O   UNL     1     -10.150  15.620  67.501  1.00  0.00    -0.246 OA 
BRANCH  11  14
HETATM   14  C   UNL     1      -8.285  16.476  66.262  1.00  0.00    -0.360 C  
BRANCH  14  15
HETATM   15  C   UNL     1      -7.006  16.407  67.093  1.00  0.00    -0.239 C  
BRANCH  15  16
HETATM   16  C   UNL     1      -6.027  17.538  66.773  1.00  0.00    -0.212 C  
BRANCH  16  17
HETATM   17  C   UNL     1      -6.368  18.244  65.462  1.00  0.00    -0.285 C  
BRANCH  17  18
HETATM   18  C   UNL     1      -6.661  19.726  65.669  1.00  0.00    -0.296 C  
BRANCH  18  19
HETATM   19  C   UNL     1      -6.587  20.072  67.155  1.00  0.00    -0.235 C  
BRANCH  19  20
HETATM   20  C   UNL     1      -7.879  20.728  67.637  1.00  0.00    -0.190 C  
BRANCH  20  21
HETATM   21  C   UNL     1      -8.927  19.672  67.990  1.00  0.00    -0.381 C  
BRANCH  21  22
HETATM   22  C   UNL     1     -10.210  19.925  67.256  1.00  0.00    -0.572 C  
HETATM   23  C   UNL     1     -10.429  19.561  65.986  1.00  0.00    -0.611 C  
ENDBRANCH  21  22
ENDBRANCH  20  21
ENDBRANCH  19  20
ENDBRANCH  18  19
ENDBRANCH  17  18
ENDBRANCH  16  17
ENDBRANCH  15  16
ENDBRANCH  14  15
ENDBRANCH  11  14
ENDBRANCH   5  10
ENDBRANCH   3   5
ENDBRANCH   2   3
TORSDOF 13
ENDMDL
MODEL       73
REMARK 921   NORMALIZED FREE ENERGY PREDICTED BY IDOCK:   -3.94 KCAL/MOL
REMARK 922        TOTAL FREE ENERGY PREDICTED BY IDOCK:   -9.04 KCAL/MOL
REMARK 923 INTER-LIGAND FREE ENERGY PREDICTED BY IDOCK:   -7.22 KCAL/MOL
REMARK 924 INTRA-LIGAND FREE ENERGY PREDICTED BY IDOCK:   -1.83 KCAL/MOL
REMARK 927      BINDING AFFINITY PREDICTED BY RF-SCORE:    0.00 PKD
ROOT
HETATM    1  C   UNL     1     -13.682  13.392  72.209  1.00  0.00    -0.607 C  
HETATM    2  O   UNL     1     -12.871  12.738  71.235  1.00  0.00    -0.359 OA 
ENDROOT
BRANCH   2   3
HETATM    3  C   UNL     1     -12.842  11.378  71.315  1.00  0.00    -0.379 C  
HETATM    4  O   UNL     1     -13.520  10.696  72.074  1.00  0.00    -0.375 OA 
BRANCH   3   5
HETATM    5  C   UNL     1     -11.849  10.819  70.291  1.00  0.00    -0.349 C  
BRANCH   5   6
HETATM    6  C   UNL     1     -12.020  11.472  68.913  1.00  0.00    -0.364 C  
HETATM    7  C   UNL     1      -9.521  11.683  68.429  1.00  0.00    -0.193 C  
HETATM    8  C   UNL     1     -11.181  13.000  67.101  1.00  0.00    -0.322 C  
HETATM    9  C   UNL     1     -10.871  12.400  68.476  1.00  0.00    -0.270 C  
ENDBRANCH   5   6
BRANCH   5  10
HETATM   10  N   UNL     1     -12.043   9.373  70.182  1.00  0.00    -0.445 N  
HETATM   11  C   UNL     1     -11.305   8.500  70.945  1.00  0.00    -0.268 C  
HETATM   12  H   UNL     1     -12.738   9.007  69.530  1.00  0.00     0.000 HD 
HETATM   13  O   UNL     1     -10.458   8.854  71.757  1.00  0.00    -0.314 OA 
BRANCH  11  14
HETATM   14  C   UNL     1     -11.591   7.044  70.670  1.00  0.00    -0.379 C  
BRANCH  14  15
HETATM   15  C   UNL     1     -10.298   6.232  70.722  1.00  0.00    -0.256 C  
BRANCH  15  16
HETATM   16  C   UNL     1     -10.176   5.233  69.570  1.00  0.00    -0.338 C  
BRANCH  16  17
HETATM   17  C   UNL     1      -9.277   5.750  68.450  1.00  0.00    -0.121 C  
BRANCH  17  18
HETATM   18  C   UNL     1      -9.972   5.711  67.093  1.00  0.00    -0.188 C  
BRANCH  18  19
HETATM   19  C   UNL     1     -10.999   6.839  66.999  1.00  0.00    -0.439 C  
BRANCH  19  20
HETATM   20  C   UNL     1     -10.328   8.208  67.076  1.00  0.00    -0.403 C  
BRANCH  20  21
HETATM   21  C   UNL     1      -9.275   8.361  65.978  1.00  0.00    -0.247 C  
BRANCH  21  22
HETATM   22  C   UNL     1      -9.233   9.770  65.468  1.00  0.00    -0.270 C  
HETATM   23  C   UNL     1     -10.258  10.373  64.854  1.00  0.00    -0.330 C  
ENDBRANCH  21  22
ENDBRANCH  20  21
ENDBRANCH  19  20
ENDBRANCH  18  19
ENDBRANCH  17  18
ENDBRANCH  16  17
ENDBRANCH  15  16
ENDBRANCH  14  15
ENDBRANCH  11  14
ENDBRANCH   5  10
ENDBRANCH   3   5
ENDBRANCH   2   3
TORSDOF 13
ENDMDL
MODEL       74
REMARK 921   NORMALIZED FREE ENERGY PREDICTED BY IDOCK:   -3.93 KCAL/MOL
REMARK 922        TOTAL FREE ENERGY PREDICTED BY IDOCK:   -9.03 KCAL/MOL
REMARK 923 INTER-LIGAND FREE ENERGY PREDICTED BY IDOCK:   -7.96 KCAL/MOL
REMARK 924 INTRA-LIGAND FREE ENERGY PREDICTED BY IDOCK:   -1.07 KCAL/MOL
REMARK 927      BINDING AFFINITY PREDICTED BY RF-SCORE:    0.00 PKD
ROOT
HETATM    1  C   UNL     1      -7.215   8.364  71.937  1.00  0.00    -0.095 C  
HETATM    2  O   UNL     1      -8.510   8.891  72.217  1.00  0.00    -0.391 OA 
ENDROOT
BRANCH   2   3
HETATM    3  C   UNL     1      -9.297   8.115  73.016  1.00  0.00    -0.265 C  
HETATM    4  O   UNL     1      -9.034   7.781  74.165  1.00  0.00    -0.251 OA 
BRANCH   3   5
HETATM    5  C   UNL     1     -10.583   7.742  72.271  1.00  0.00    -0.259 C  
BRANCH   5   6
HETATM    6  C   UNL     1     -10.359   6.585  71.288  1.00  0.00    -0.234 C  
HETATM    7  C   UNL     1     -11.099   4.746  72.900  1.00  0.00    -0.301 C  
HETATM    8  C   UNL     1      -9.796   4.175  70.844  1.00  0.00    -0.247 C  
HETATM    9  C   UNL     1     -10.016   5.229  71.934  1.00  0.00    -0.240 C  
ENDBRANCH   5   6
BRANCH   5  10
HETATM   10  N   UNL     1     -11.072   8.917  71.550  1.00  0.00    -0.299 N  
HETATM   11  C   UNL     1     -12.317   9.439  71.809  1.00  0.00    -0.394 C  
HETATM   12  H   UNL     1     -10.481   9.356  70.844  1.00  0.00     0.000 HD 
HETATM   13  O   UNL     1     -13.088   8.979  72.645  1.00  0.00    -0.426 OA 
BRANCH  11  14
HETATM   14  C   UNL     1     -12.688  10.616  70.940  1.00  0.00    -0.498 C  
BRANCH  14  15
HETATM   15  C   UNL     1     -11.512  11.004  70.047  1.00  0.00    -0.398 C  
BRANCH  15  16
HETATM   16  C   UNL     1     -11.885  12.047  68.992  1.00  0.00    -0.372 C  
BRANCH  16  17
HETATM   17  C   UNL     1     -10.958  13.260  69.026  1.00  0.00    -0.249 C  
BRANCH  17  18
HETATM   18  C   UNL     1     -11.667  14.509  69.541  1.00  0.00    -0.361 C  
BRANCH  18  19
HETATM   19  C   UNL     1     -12.900  14.114  70.351  1.00  0.00    -0.256 C  
BRANCH  19  20
HETATM   20  C   UNL     1     -13.243  15.175  71.393  1.00  0.00    -0.528 C  
BRANCH  20  21
HETATM   21  C   UNL     1     -11.990  15.934  71.831  1.00  0.00    -0.588 C  
BRANCH  21  22
HETATM   22  C   UNL     1     -11.983  16.147  73.315  1.00  0.00    -0.544 C  
HETATM   23  C   UNL     1     -12.360  15.221  74.205  1.00  0.00    -0.762 C  
ENDBRANCH  21  22
ENDBRANCH  20  21
ENDBRANCH  19  20
ENDBRANCH  18  19
ENDBRANCH  17  18
ENDBRANCH  16  17
ENDBRANCH  15  16
ENDBRANCH  14  15
ENDBRANCH  11  14
ENDBRANCH   5  10
ENDBRANCH   3   5
ENDBRANCH   2   3
TORSDOF 13
ENDMDL
MODEL       75
REMARK 921   NORMALIZED FREE ENERGY PREDICTED BY IDOCK:   -3.93 KCAL/MOL
REMARK 922        TOTAL FREE ENERGY PREDICTED BY IDOCK:   -9.02 KCAL/MOL
REMARK 923 INTER-LIGAND FREE ENERGY PREDICTED BY IDOCK:   -7.93 KCAL/MOL
REMARK 924 INTRA-LIGAND FREE ENERGY PREDICTED BY IDOCK:   -1.09 KCAL/MOL
REMARK 927      BINDING AFFINITY PREDICTED BY RF-SCORE:    0.00 PKD
ROOT
HETATM    1  C   UNL     1     -11.808   9.789  71.519  1.00  0.00    -0.399 C  
HETATM    2  O   UNL     1     -10.455   9.374  71.696  1.00  0.00    -0.325 OA 
ENDROOT
BRANCH   2   3
HETATM    3  C   UNL     1      -9.675   9.425  70.579  1.00  0.00    -0.271 C  
HETATM    4  O   UNL     1      -8.470   9.648  70.562  1.00  0.00    -0.190 OA 
BRANCH   3   5
HETATM    5  C   UNL     1     -10.527   9.136  69.339  1.00  0.00    -0.219 C  
BRANCH   5   6
HETATM    6  C   UNL     1     -10.177   7.781  68.709  1.00  0.00    -0.212 C  
HETATM    7  C   UNL     1     -11.622   6.393  70.294  1.00  0.00    -0.451 C  
HETATM    8  C   UNL     1      -9.848   5.297  68.915  1.00  0.00    -0.230 C  
HETATM    9  C   UNL     1     -10.240   6.574  69.664  1.00  0.00    -0.220 C  
ENDBRANCH   5   6
BRANCH   5  10
HETATM   10  N   UNL     1     -10.320  10.205  68.361  1.00  0.00    -0.174 N  
HETATM   11  C   UNL     1     -11.296  11.142  68.120  1.00  0.00    -0.309 C  
HETATM   12  H   UNL     1      -9.437  10.256  67.852  1.00  0.00     0.000 HD 
HETATM   13  O   UNL     1     -12.380  11.159  68.693  1.00  0.00    -0.549 OA 
BRANCH  11  14
HETATM   14  C   UNL     1     -10.943  12.140  67.045  1.00  0.00    -0.319 C  
BRANCH  14  15
HETATM   15  C   UNL     1     -12.141  13.039  66.745  1.00  0.00    -0.366 C  
BRANCH  15  16
HETATM   16  C   UNL     1     -11.772  14.522  66.685  1.00  0.00    -0.384 C  
BRANCH  16  17
HETATM   17  C   UNL     1     -10.880  14.943  67.851  1.00  0.00    -0.276 C  
BRANCH  17  18
HETATM   18  C   UNL     1     -11.508  16.060  68.678  1.00  0.00    -0.377 C  
BRANCH  18  19
HETATM   19  C   UNL     1     -11.525  15.670  70.156  1.00  0.00    -0.358 C  
BRANCH  19  20
HETATM   20  C   UNL     1     -12.683  14.725  70.467  1.00  0.00    -0.397 C  
BRANCH  20  21
HETATM   21  C   UNL     1     -13.607  15.326  71.527  1.00  0.00    -0.593 C  
BRANCH  21  22
HETATM   22  C   UNL     1     -13.143  14.967  72.907  1.00  0.00    -0.576 C  
HETATM   23  C   UNL     1     -12.763  15.865  73.825  1.00  0.00    -0.729 C  
ENDBRANCH  21  22
ENDBRANCH  20  21
ENDBRANCH  19  20
ENDBRANCH  18  19
ENDBRANCH  17  18
ENDBRANCH  16  17
ENDBRANCH  15  16
ENDBRANCH  14  15
ENDBRANCH  11  14
ENDBRANCH   5  10
ENDBRANCH   3   5
ENDBRANCH   2   3
TORSDOF 13
ENDMDL
MODEL       76
REMARK 921   NORMALIZED FREE ENERGY PREDICTED BY IDOCK:   -3.92 KCAL/MOL
REMARK 922        TOTAL FREE ENERGY PREDICTED BY IDOCK:   -9.00 KCAL/MOL
REMARK 923 INTER-LIGAND FREE ENERGY PREDICTED BY IDOCK:   -7.87 KCAL/MOL
REMARK 924 INTRA-LIGAND FREE ENERGY PREDICTED BY IDOCK:   -1.13 KCAL/MOL
REMARK 927      BINDING AFFINITY PREDICTED BY RF-SCORE:    0.00 PKD
ROOT
HETATM    1  C   UNL     1     -13.391  12.748  72.137  1.00  0.00    -0.492 C  
HETATM    2  O   UNL     1     -13.002  11.842  71.106  1.00  0.00    -0.299 OA 
ENDROOT
BRANCH   2   3
HETATM    3  C   UNL     1     -12.946  10.530  71.470  1.00  0.00    -0.460 C  
HETATM    4  O   UNL     1     -13.723   9.970  72.233  1.00  0.00    -0.326 OA 
BRANCH   3   5
HETATM    5  C   UNL     1     -11.775   9.844  70.759  1.00  0.00    -0.341 C  
BRANCH   5   6
HETATM    6  C   UNL     1     -10.847   9.127  71.748  1.00  0.00    -0.416 C  
HETATM    7  C   UNL     1     -11.521   6.764  71.049  1.00  0.00    -0.372 C  
HETATM    8  C   UNL     1     -10.322   7.149  73.209  1.00  0.00    -0.369 C  
HETATM    9  C   UNL     1     -11.325   7.738  72.212  1.00  0.00    -0.374 C  
ENDBRANCH   5   6
BRANCH   5  10
HETATM   10  N   UNL     1     -11.020  10.849  70.010  1.00  0.00    -0.455 N  
HETATM   11  C   UNL     1     -10.604  10.607  68.722  1.00  0.00    -0.206 C  
HETATM   12  H   UNL     1     -10.799  11.743  70.450  1.00  0.00     0.000 HD 
HETATM   13  O   UNL     1     -10.833   9.566  68.117  1.00  0.00    -0.222 OA 
BRANCH  11  14
HETATM   14  C   UNL     1      -9.791  11.725  68.115  1.00  0.00    -0.190 C  
BRANCH  14  15
HETATM   15  C   UNL     1     -10.676  12.943  67.859  1.00  0.00    -0.235 C  
BRANCH  15  16
HETATM   16  C   UNL     1     -11.807  12.658  66.869  1.00  0.00    -0.425 C  
BRANCH  16  17
HETATM   17  C   UNL     1     -12.314  13.928  66.190  1.00  0.00    -0.504 C  
BRANCH  17  18
HETATM   18  C   UNL     1     -11.624  14.179  64.854  1.00  0.00    -0.379 C  
BRANCH  18  19
HETATM   19  C   UNL     1     -11.023  15.583  64.831  1.00  0.00    -0.452 C  
BRANCH  19  20
HETATM   20  C   UNL     1      -9.670  15.620  65.535  1.00  0.00    -0.286 C  
BRANCH  20  21
HETATM   21  C   UNL     1      -9.696  16.594  66.714  1.00  0.00    -0.271 C  
BRANCH  21  22
HETATM   22  C   UNL     1      -9.794  18.011  66.235  1.00  0.00    -0.310 C  
HETATM   23  C   UNL     1     -10.313  19.011  66.959  1.00  0.00    -0.487 C  
ENDBRANCH  21  22
ENDBRANCH  20  21
ENDBRANCH  19  20
ENDBRANCH  18  19
ENDBRANCH  17  18
ENDBRANCH  16  17
ENDBRANCH  15  16
ENDBRANCH  14  15
ENDBRANCH  11  14
ENDBRANCH   5  10
ENDBRANCH   3   5
ENDBRANCH   2   3
TORSDOF 13
ENDMDL
MODEL       77
REMARK 921   NORMALIZED FREE ENERGY PREDICTED BY IDOCK:   -3.91 KCAL/MOL
REMARK 922        TOTAL FREE ENERGY PREDICTED BY IDOCK:   -8.99 KCAL/MOL
REMARK 923 INTER-LIGAND FREE ENERGY PREDICTED BY IDOCK:   -7.63 KCAL/MOL
REMARK 924 INTRA-LIGAND FREE ENERGY PREDICTED BY IDOCK:   -1.35 KCAL/MOL
REMARK 927      BINDING AFFINITY PREDICTED BY RF-SCORE:    0.00 PKD
ROOT
HETATM    1  C   UNL     1      -8.538   8.015  73.663  1.00  0.00    -0.260 C  
HETATM    2  O   UNL     1      -9.903   8.198  73.290  1.00  0.00    -0.270 OA 
ENDROOT
BRANCH   2   3
HETATM    3  C   UNL     1     -10.673   7.073  73.314  1.00  0.00    -0.340 C  
HETATM    4  O   UNL     1     -10.506   6.114  74.058  1.00  0.00    -0.279 OA 
BRANCH   3   5
HETATM    5  C   UNL     1     -11.802   7.196  72.287  1.00  0.00    -0.239 C  
BRANCH   5   6
HETATM    6  C   UNL     1     -11.536   6.342  71.040  1.00  0.00    -0.394 C  
HETATM    7  C   UNL     1      -9.832   7.941  70.007  1.00  0.00    -0.181 C  
HETATM    8  C   UNL     1     -10.897   6.159  68.615  1.00  0.00    -0.403 C  
HETATM    9  C   UNL     1     -11.106   7.126  69.784  1.00  0.00    -0.239 C  
ENDBRANCH   5   6
BRANCH   5  10
HETATM   10  N   UNL     1     -11.946   8.601  71.905  1.00  0.00    -0.331 N  
HETATM   11  C   UNL     1     -13.180   9.206  71.886  1.00  0.00    -0.416 C  
HETATM   12  H   UNL     1     -11.119   9.139  71.649  1.00  0.00     0.000 HD 
HETATM   13  O   UNL     1     -14.223   8.636  72.186  1.00  0.00    -0.431 OA 
BRANCH  11  14
HETATM   14  C   UNL     1     -13.159  10.640  71.417  1.00  0.00    -0.499 C  
BRANCH  14  15
HETATM   15  C   UNL     1     -11.827  10.954  70.738  1.00  0.00    -0.424 C  
BRANCH  15  16
HETATM   16  C   UNL     1     -11.946  11.061  69.217  1.00  0.00    -0.410 C  
BRANCH  16  17
HETATM   17  C   UNL     1     -10.866  11.958  68.614  1.00  0.00    -0.273 C  
BRANCH  17  18
HETATM   18  C   UNL     1     -11.461  13.109  67.810  1.00  0.00    -0.352 C  
BRANCH  18  19
HETATM   19  C   UNL     1     -12.274  14.022  68.726  1.00  0.00    -0.237 C  
BRANCH  19  20
HETATM   20  C   UNL     1     -11.440  15.201  69.218  1.00  0.00    -0.327 C  
BRANCH  20  21
HETATM   21  C   UNL     1     -11.559  15.358  70.734  1.00  0.00    -0.381 C  
BRANCH  21  22
HETATM   22  C   UNL     1     -12.490  14.332  71.307  1.00  0.00    -0.439 C  
HETATM   23  C   UNL     1     -13.271  14.545  72.374  1.00  0.00    -0.508 C  
ENDBRANCH  21  22
ENDBRANCH  20  21
ENDBRANCH  19  20
ENDBRANCH  18  19
ENDBRANCH  17  18
ENDBRANCH  16  17
ENDBRANCH  15  16
ENDBRANCH  14  15
ENDBRANCH  11  14
ENDBRANCH   5  10
ENDBRANCH   3   5
ENDBRANCH   2   3
TORSDOF 13
ENDMDL
MODEL       78
REMARK 921   NORMALIZED FREE ENERGY PREDICTED BY IDOCK:   -3.90 KCAL/MOL
REMARK 922        TOTAL FREE ENERGY PREDICTED BY IDOCK:   -8.98 KCAL/MOL
REMARK 923 INTER-LIGAND FREE ENERGY PREDICTED BY IDOCK:   -7.60 KCAL/MOL
REMARK 924 INTRA-LIGAND FREE ENERGY PREDICTED BY IDOCK:   -1.38 KCAL/MOL
REMARK 927      BINDING AFFINITY PREDICTED BY RF-SCORE:    0.00 PKD
ROOT
HETATM    1  C   UNL     1      -8.990   4.363  70.441  1.00  0.00    -0.092 C  
HETATM    2  O   UNL     1     -10.044   5.246  70.065  1.00  0.00    -0.219 OA 
ENDROOT
BRANCH   2   3
HETATM    3  C   UNL     1     -10.741   5.800  71.097  1.00  0.00    -0.261 C  
HETATM    4  O   UNL     1     -10.985   5.252  72.165  1.00  0.00    -0.223 OA 
BRANCH   3   5
HETATM    5  C   UNL     1     -11.154   7.230  70.735  1.00  0.00    -0.266 C  
BRANCH   5   6
HETATM    6  C   UNL     1     -12.559   7.567  71.254  1.00  0.00    -0.345 C  
HETATM    7  C   UNL     1     -12.270  10.101  71.118  1.00  0.00    -0.490 C  
HETATM    8  C   UNL     1     -14.125   9.112  72.471  1.00  0.00    -0.387 C  
HETATM    9  C   UNL     1     -12.684   8.915  71.989  1.00  0.00    -0.456 C  
ENDBRANCH   5   6
BRANCH   5  10
HETATM   10  N   UNL     1     -11.113   7.382  69.281  1.00  0.00    -0.443 N  
HETATM   11  C   UNL     1     -10.168   8.179  68.680  1.00  0.00    -0.207 C  
HETATM   12  H   UNL     1     -11.796   6.890  68.704  1.00  0.00     0.000 HD 
HETATM   13  O   UNL     1      -9.308   8.798  69.296  1.00  0.00    -0.148 OA 
BRANCH  11  14
HETATM   14  C   UNL     1     -10.300   8.270  67.179  1.00  0.00    -0.387 C  
BRANCH  14  15
HETATM   15  C   UNL     1     -10.229   9.728  66.729  1.00  0.00    -0.300 C  
BRANCH  15  16
HETATM   16  C   UNL     1     -11.191  10.634  67.500  1.00  0.00    -0.326 C  
BRANCH  16  17
HETATM   17  C   UNL     1     -10.722  12.087  67.523  1.00  0.00    -0.262 C  
BRANCH  17  18
HETATM   18  C   UNL     1     -11.842  13.044  67.918  1.00  0.00    -0.389 C  
BRANCH  18  19
HETATM   19  C   UNL     1     -12.037  14.099  66.829  1.00  0.00    -0.474 C  
BRANCH  19  20
HETATM   20  C   UNL     1     -11.239  13.755  65.574  1.00  0.00    -0.303 C  
BRANCH  20  21
HETATM   21  C   UNL     1     -12.116  13.855  64.326  1.00  0.00    -0.477 C  
BRANCH  21  22
HETATM   22  C   UNL     1     -12.174  12.542  63.605  1.00  0.00    -0.642 C  
HETATM   23  C   UNL     1     -11.208  11.616  63.659  1.00  0.00    -0.497 C  
ENDBRANCH  21  22
ENDBRANCH  20  21
ENDBRANCH  19  20
ENDBRANCH  18  19
ENDBRANCH  17  18
ENDBRANCH  16  17
ENDBRANCH  15  16
ENDBRANCH  14  15
ENDBRANCH  11  14
ENDBRANCH   5  10
ENDBRANCH   3   5
ENDBRANCH   2   3
TORSDOF 13
ENDMDL
MODEL       79
REMARK 921   NORMALIZED FREE ENERGY PREDICTED BY IDOCK:   -3.88 KCAL/MOL
REMARK 922        TOTAL FREE ENERGY PREDICTED BY IDOCK:   -8.94 KCAL/MOL
REMARK 923 INTER-LIGAND FREE ENERGY PREDICTED BY IDOCK:   -7.65 KCAL/MOL
REMARK 924 INTRA-LIGAND FREE ENERGY PREDICTED BY IDOCK:   -1.29 KCAL/MOL
REMARK 927      BINDING AFFINITY PREDICTED BY RF-SCORE:    0.00 PKD
ROOT
HETATM    1  C   UNL     1     -12.582  12.109  63.525  1.00  0.00    -0.506 C  
HETATM    2  O   UNL     1     -13.039  12.469  64.827  1.00  0.00    -0.853 OA 
ENDROOT
BRANCH   2   3
HETATM    3  C   UNL     1     -12.637  13.694  65.271  1.00  0.00    -0.469 C  
HETATM    4  O   UNL     1     -12.751  14.746  64.654  1.00  0.00    -0.523 OA 
BRANCH   3   5
HETATM    5  C   UNL     1     -12.040  13.566  66.676  1.00  0.00    -0.396 C  
BRANCH   5   6
HETATM    6  C   UNL     1     -11.108  14.738  67.010  1.00  0.00    -0.333 C  
HETATM    7  C   UNL     1     -11.655  14.785  69.504  1.00  0.00    -0.339 C  
HETATM    8  C   UNL     1     -10.535  16.739  68.420  1.00  0.00    -0.339 C  
HETATM    9  C   UNL     1     -11.536  15.598  68.214  1.00  0.00    -0.353 C  
ENDBRANCH   5   6
BRANCH   5  10
HETATM   10  N   UNL     1     -11.303  12.305  66.765  1.00  0.00    -0.318 N  
HETATM   11  C   UNL     1     -11.555  11.408  67.776  1.00  0.00    -0.251 C  
HETATM   12  H   UNL     1     -10.591  12.088  66.067  1.00  0.00     0.000 HD 
HETATM   13  O   UNL     1     -12.397  11.586  68.650  1.00  0.00    -0.445 OA 
BRANCH  11  14
HETATM   14  C   UNL     1     -10.670  10.186  67.753  1.00  0.00    -0.328 C  
BRANCH  14  15
HETATM   15  C   UNL     1      -9.780  10.202  66.512  1.00  0.00    -0.252 C  
BRANCH  15  16
HETATM   16  C   UNL     1      -9.629   8.821  65.872  1.00  0.00    -0.255 C  
BRANCH  16  17
HETATM   17  C   UNL     1      -8.439   8.048  66.435  1.00  0.00    -0.138 C  
BRANCH  17  18
HETATM   18  C   UNL     1      -8.785   6.591  66.724  1.00  0.00    -0.123 C  
BRANCH  18  19
HETATM   19  C   UNL     1     -10.272   6.462  67.048  1.00  0.00    -0.264 C  
BRANCH  19  20
HETATM   20  C   UNL     1     -10.494   5.634  68.311  1.00  0.00    -0.257 C  
BRANCH  20  21
HETATM   21  C   UNL     1     -11.405   6.372  69.293  1.00  0.00    -0.405 C  
BRANCH  21  22
HETATM   22  C   UNL     1     -10.677   6.691  70.564  1.00  0.00    -0.293 C  
HETATM   23  C   UNL     1      -9.691   5.939  71.069  1.00  0.00    -0.209 C  
ENDBRANCH  21  22
ENDBRANCH  20  21
ENDBRANCH  19  20
ENDBRANCH  18  19
ENDBRANCH  17  18
ENDBRANCH  16  17
ENDBRANCH  15  16
ENDBRANCH  14  15
ENDBRANCH  11  14
ENDBRANCH   5  10
ENDBRANCH   3   5
ENDBRANCH   2   3
TORSDOF 13
ENDMDL
MODEL       80
REMARK 921   NORMALIZED FREE ENERGY PREDICTED BY IDOCK:   -3.88 KCAL/MOL
REMARK 922        TOTAL FREE ENERGY PREDICTED BY IDOCK:   -8.94 KCAL/MOL
REMARK 923 INTER-LIGAND FREE ENERGY PREDICTED BY IDOCK:   -7.70 KCAL/MOL
REMARK 924 INTRA-LIGAND FREE ENERGY PREDICTED BY IDOCK:   -1.24 KCAL/MOL
REMARK 927      BINDING AFFINITY PREDICTED BY RF-SCORE:    0.00 PKD
ROOT
HETATM    1  C   UNL     1     -11.982  11.939  70.049  1.00  0.00    -0.332 C  
HETATM    2  O   UNL     1     -12.309  10.561  69.880  1.00  0.00    -0.271 OA 
ENDROOT
BRANCH   2   3
HETATM    3  C   UNL     1     -12.329   9.820  71.024  1.00  0.00    -0.332 C  
HETATM    4  O   UNL     1     -12.905  10.127  72.061  1.00  0.00    -0.411 OA 
BRANCH   3   5
HETATM    5  C   UNL     1     -11.540   8.524  70.816  1.00  0.00    -0.231 C  
BRANCH   5   6
HETATM    6  C   UNL     1     -10.346   8.420  71.774  1.00  0.00    -0.333 C  
HETATM    7  C   UNL     1     -10.996   6.143  72.732  1.00  0.00    -0.294 C  
HETATM    8  C   UNL     1      -9.332   7.585  73.918  1.00  0.00    -0.301 C  
HETATM    9  C   UNL     1     -10.591   7.585  73.045  1.00  0.00    -0.422 C  
ENDBRANCH   5   6
BRANCH   5  10
HETATM   10  N   UNL     1     -11.070   8.471  69.431  1.00  0.00    -0.432 N  
HETATM   11  C   UNL     1     -11.005   7.279  68.750  1.00  0.00    -0.003 C  
HETATM   12  H   UNL     1     -10.786   9.333  68.964  1.00  0.00     0.000 HD 
HETATM   13  O   UNL     1     -11.334   6.201  69.233  1.00  0.00    -0.416 OA 
BRANCH  11  14
HETATM   14  C   UNL     1     -10.447   7.394  67.353  1.00  0.00    -0.366 C  
BRANCH  14  15
HETATM   15  C   UNL     1      -9.663   8.696  67.203  1.00  0.00    -0.248 C  
BRANCH  15  16
HETATM   16  C   UNL     1     -10.385   9.727  66.332  1.00  0.00    -0.247 C  
BRANCH  16  17
HETATM   17  C   UNL     1      -9.679   9.952  64.997  1.00  0.00    -0.359 C  
BRANCH  17  18
HETATM   18  C   UNL     1      -9.838  11.384  64.498  1.00  0.00    -0.302 C  
BRANCH  18  19
HETATM   19  C   UNL     1     -10.907  11.443  63.408  1.00  0.00    -0.375 C  
BRANCH  19  20
HETATM   20  C   UNL     1     -11.778  12.687  63.552  1.00  0.00    -0.604 C  
BRANCH  20  21
HETATM   21  C   UNL     1     -12.639  12.607  64.813  1.00  0.00    -0.530 C  
BRANCH  21  22
HETATM   22  C   UNL     1     -12.541  13.873  65.610  1.00  0.00    -0.553 C  
HETATM   23  C   UNL     1     -11.395  14.527  65.836  1.00  0.00    -0.341 C  
ENDBRANCH  21  22
ENDBRANCH  20  21
ENDBRANCH  19  20
ENDBRANCH  18  19
ENDBRANCH  17  18
ENDBRANCH  16  17
ENDBRANCH  15  16
ENDBRANCH  14  15
ENDBRANCH  11  14
ENDBRANCH   5  10
ENDBRANCH   3   5
ENDBRANCH   2   3
TORSDOF 13
ENDMDL
MODEL       81
REMARK 921   NORMALIZED FREE ENERGY PREDICTED BY IDOCK:   -3.88 KCAL/MOL
REMARK 922        TOTAL FREE ENERGY PREDICTED BY IDOCK:   -8.94 KCAL/MOL
REMARK 923 INTER-LIGAND FREE ENERGY PREDICTED BY IDOCK:   -7.28 KCAL/MOL
REMARK 924 INTRA-LIGAND FREE ENERGY PREDICTED BY IDOCK:   -1.65 KCAL/MOL
REMARK 927      BINDING AFFINITY PREDICTED BY RF-SCORE:    0.00 PKD
ROOT
HETATM    1  C   UNL     1     -12.223  10.913  70.101  1.00  0.00    -0.343 C  
HETATM    2  O   UNL     1     -12.179  11.081  68.686  1.00  0.00    -0.571 OA 
ENDROOT
BRANCH   2   3
HETATM    3  C   UNL     1     -11.897  12.344  68.255  1.00  0.00    -0.309 C  
HETATM    4  O   UNL     1     -12.243  13.379  68.811  1.00  0.00    -0.295 OA 
BRANCH   3   5
HETATM    5  C   UNL     1     -11.054  12.279  66.978  1.00  0.00    -0.287 C  
BRANCH   5   6
HETATM    6  C   UNL     1     -10.108  11.071  66.977  1.00  0.00    -0.232 C  
HETATM    7  C   UNL     1      -9.854  10.958  64.438  1.00  0.00    -0.365 C  
HETATM    8  C   UNL     1      -9.199   9.009  65.861  1.00  0.00    -0.290 C  
HETATM    9  C   UNL     1     -10.171  10.185  65.718  1.00  0.00    -0.283 C  
ENDBRANCH   5   6
BRANCH   5  10
HETATM   10  N   UNL     1     -10.279  13.515  66.857  1.00  0.00    -0.253 N  
HETATM   11  C   UNL     1     -10.506  14.394  65.825  1.00  0.00    -0.318 C  
HETATM   12  H   UNL     1      -9.561  13.727  67.550  1.00  0.00     0.000 HD 
HETATM   13  O   UNL     1     -11.353  14.220  64.956  1.00  0.00    -0.333 OA 
BRANCH  11  14
HETATM   14  C   UNL     1      -9.584  15.589  65.818  1.00  0.00    -0.367 C  
BRANCH  14  15
HETATM   15  C   UNL     1     -10.397  16.882  65.807  1.00  0.00    -0.298 C  
BRANCH  15  16
HETATM   16  C   UNL     1     -10.752  17.373  67.212  1.00  0.00    -0.219 C  
BRANCH  16  17
HETATM   17  C   UNL     1     -10.818  18.896  67.293  1.00  0.00    -0.448 C  
BRANCH  17  18
HETATM   18  C   UNL     1      -9.697  19.561  66.501  1.00  0.00    -0.478 C  
BRANCH  18  19
HETATM   19  C   UNL     1      -8.951  20.558  67.387  1.00  0.00    -0.420 C  
BRANCH  19  20
HETATM   20  C   UNL     1      -7.521  20.098  67.657  1.00  0.00    -0.341 C  
BRANCH  20  21
HETATM   21  C   UNL     1      -7.480  19.096  68.811  1.00  0.00    -0.379 C  
BRANCH  21  22
HETATM   22  C   UNL     1      -7.021  17.750  68.336  1.00  0.00    -0.228 C  
HETATM   23  C   UNL     1      -7.369  16.594  68.915  1.00  0.00    -0.225 C  
ENDBRANCH  21  22
ENDBRANCH  20  21
ENDBRANCH  19  20
ENDBRANCH  18  19
ENDBRANCH  17  18
ENDBRANCH  16  17
ENDBRANCH  15  16
ENDBRANCH  14  15
ENDBRANCH  11  14
ENDBRANCH   5  10
ENDBRANCH   3   5
ENDBRANCH   2   3
TORSDOF 13
ENDMDL
MODEL       82
REMARK 921   NORMALIZED FREE ENERGY PREDICTED BY IDOCK:   -3.87 KCAL/MOL
REMARK 922        TOTAL FREE ENERGY PREDICTED BY IDOCK:   -8.92 KCAL/MOL
REMARK 923 INTER-LIGAND FREE ENERGY PREDICTED BY IDOCK:   -7.32 KCAL/MOL
REMARK 924 INTRA-LIGAND FREE ENERGY PREDICTED BY IDOCK:   -1.60 KCAL/MOL
REMARK 927      BINDING AFFINITY PREDICTED BY RF-SCORE:    0.00 PKD
ROOT
HETATM    1  C   UNL     1     -13.153  14.005  71.489  1.00  0.00    -0.363 C  
HETATM    2  O   UNL     1     -12.744  14.451  70.198  1.00  0.00    -0.334 OA 
ENDROOT
BRANCH   2   3
HETATM    3  C   UNL     1     -11.814  15.447  70.190  1.00  0.00    -0.335 C  
HETATM    4  O   UNL     1     -11.471  16.108  71.163  1.00  0.00    -0.413 OA 
BRANCH   3   5
HETATM    5  C   UNL     1     -11.235  15.605  68.780  1.00  0.00    -0.332 C  
BRANCH   5   6
HETATM    6  C   UNL     1     -10.957  17.074  68.438  1.00  0.00    -0.263 C  
HETATM    7  C   UNL     1      -8.502  16.725  67.826  1.00  0.00    -0.196 C  
HETATM    8  C   UNL     1      -9.372  19.022  68.293  1.00  0.00    -0.393 C  
HETATM    9  C   UNL     1      -9.502  17.537  68.649  1.00  0.00    -0.278 C  
ENDBRANCH   5   6
BRANCH   5  10
HETATM   10  N   UNL     1     -12.177  15.040  67.814  1.00  0.00    -0.437 N  
HETATM   11  C   UNL     1     -11.738  14.512  66.623  1.00  0.00    -0.371 C  
HETATM   12  H   UNL     1     -13.175  15.038  68.027  1.00  0.00     0.000 HD 
HETATM   13  O   UNL     1     -10.559  14.468  66.292  1.00  0.00    -0.292 OA 
BRANCH  11  14
HETATM   14  C   UNL     1     -12.844  14.023  65.719  1.00  0.00    -0.416 C  
BRANCH  14  15
HETATM   15  C   UNL     1     -12.482  12.660  65.133  1.00  0.00    -0.531 C  
BRANCH  15  16
HETATM   16  C   UNL     1     -12.140  12.725  63.643  1.00  0.00    -0.624 C  
BRANCH  16  17
HETATM   17  C   UNL     1     -11.283  11.543  63.195  1.00  0.00    -0.110 C  
BRANCH  17  18
HETATM   18  C   UNL     1      -9.807  11.752  63.513  1.00  0.00    -0.386 C  
BRANCH  18  19
HETATM   19  C   UNL     1      -9.271  10.565  64.312  1.00  0.00    -0.281 C  
BRANCH  19  20
HETATM   20  C   UNL     1      -9.254  10.865  65.808  1.00  0.00    -0.224 C  
BRANCH  20  21
HETATM   21  C   UNL     1     -10.272   9.998  66.549  1.00  0.00    -0.291 C  
BRANCH  21  22
HETATM   22  C   UNL     1     -10.313  10.346  68.007  1.00  0.00    -0.212 C  
HETATM   23  C   UNL     1     -10.426  11.596  68.473  1.00  0.00    -0.236 C  
ENDBRANCH  21  22
ENDBRANCH  20  21
ENDBRANCH  19  20
ENDBRANCH  18  19
ENDBRANCH  17  18
ENDBRANCH  16  17
ENDBRANCH  15  16
ENDBRANCH  14  15
ENDBRANCH  11  14
ENDBRANCH   5  10
ENDBRANCH   3   5
ENDBRANCH   2   3
TORSDOF 13
ENDMDL
MODEL       83
REMARK 921   NORMALIZED FREE ENERGY PREDICTED BY IDOCK:   -3.87 KCAL/MOL
REMARK 922        TOTAL FREE ENERGY PREDICTED BY IDOCK:   -8.91 KCAL/MOL
REMARK 923 INTER-LIGAND FREE ENERGY PREDICTED BY IDOCK:   -7.62 KCAL/MOL
REMARK 924 INTRA-LIGAND FREE ENERGY PREDICTED BY IDOCK:   -1.29 KCAL/MOL
REMARK 927      BINDING AFFINITY PREDICTED BY RF-SCORE:    0.00 PKD
ROOT
HETATM    1  C   UNL     1     -10.851   6.393  66.961  1.00  0.00    -0.392 C  
HETATM    2  O   UNL     1     -11.207   6.568  68.331  1.00  0.00    -0.283 OA 
ENDROOT
BRANCH   2   3
HETATM    3  C   UNL     1     -10.161   6.687  69.198  1.00  0.00    -0.179 C  
HETATM    4  O   UNL     1      -9.009   6.338  68.973  1.00  0.00    -0.123 OA 
BRANCH   3   5
HETATM    5  C   UNL     1     -10.635   7.351  70.494  1.00  0.00    -0.224 C  
BRANCH   5   6
HETATM    6  C   UNL     1     -11.327   6.350  71.429  1.00  0.00    -0.354 C  
HETATM    7  C   UNL     1     -10.135   7.128  73.550  1.00  0.00    -0.374 C  
HETATM    8  C   UNL     1     -11.308   4.921  73.498  1.00  0.00    -0.303 C  
HETATM    9  C   UNL     1     -10.513   5.936  72.670  1.00  0.00    -0.237 C  
ENDBRANCH   5   6
BRANCH   5  10
HETATM   10  N   UNL     1     -11.557   8.437  70.162  1.00  0.00    -0.462 N  
HETATM   11  C   UNL     1     -11.124   9.740  70.105  1.00  0.00    -0.285 C  
HETATM   12  H   UNL     1     -12.537   8.224  69.970  1.00  0.00     0.000 HD 
HETATM   13  O   UNL     1      -9.966  10.083  70.314  1.00  0.00    -0.244 OA 
BRANCH  11  14
HETATM   14  C   UNL     1     -12.213  10.741  69.804  1.00  0.00    -0.359 C  
BRANCH  14  15
HETATM   15  C   UNL     1     -11.739  11.733  68.743  1.00  0.00    -0.389 C  
BRANCH  15  16
HETATM   16  C   UNL     1     -12.139  13.176  69.057  1.00  0.00    -0.240 C  
BRANCH  16  17
HETATM   17  C   UNL     1     -10.993  14.157  68.825  1.00  0.00    -0.275 C  
BRANCH  17  18
HETATM   18  C   UNL     1     -11.353  15.573  69.263  1.00  0.00    -0.330 C  
BRANCH  18  19
HETATM   19  C   UNL     1     -12.422  15.527  70.354  1.00  0.00    -0.443 C  
BRANCH  19  20
HETATM   20  C   UNL     1     -11.836  15.877  71.720  1.00  0.00    -0.579 C  
BRANCH  20  21
HETATM   21  C   UNL     1     -12.628  15.204  72.841  1.00  0.00    -0.512 C  
BRANCH  21  22
HETATM   22  C   UNL     1     -13.654  14.263  72.282  1.00  0.00    -0.573 C  
HETATM   23  C   UNL     1     -13.640  12.939  72.479  1.00  0.00    -0.460 C  
ENDBRANCH  21  22
ENDBRANCH  20  21
ENDBRANCH  19  20
ENDBRANCH  18  19
ENDBRANCH  17  18
ENDBRANCH  16  17
ENDBRANCH  15  16
ENDBRANCH  14  15
ENDBRANCH  11  14
ENDBRANCH   5  10
ENDBRANCH   3   5
ENDBRANCH   2   3
TORSDOF 13
ENDMDL
MODEL       84
REMARK 921   NORMALIZED FREE ENERGY PREDICTED BY IDOCK:   -3.86 KCAL/MOL
REMARK 922        TOTAL FREE ENERGY PREDICTED BY IDOCK:   -8.90 KCAL/MOL
REMARK 923 INTER-LIGAND FREE ENERGY PREDICTED BY IDOCK:   -7.34 KCAL/MOL
REMARK 924 INTRA-LIGAND FREE ENERGY PREDICTED BY IDOCK:   -1.56 KCAL/MOL
REMARK 927      BINDING AFFINITY PREDICTED BY RF-SCORE:    0.00 PKD
ROOT
HETATM    1  C   UNL     1      -9.070  16.216  66.064  1.00  0.00    -0.318 C  
HETATM    2  O   UNL     1     -10.135  15.326  65.734  1.00  0.00    -0.304 OA 
ENDROOT
BRANCH   2   3
HETATM    3  C   UNL     1     -10.623  14.587  66.770  1.00  0.00    -0.276 C  
HETATM    4  O   UNL     1     -11.042  15.037  67.829  1.00  0.00    -0.288 OA 
BRANCH   3   5
HETATM    5  C   UNL     1     -10.594  13.100  66.404  1.00  0.00    -0.286 C  
BRANCH   5   6
HETATM    6  C   UNL     1     -11.798  12.699  65.542  1.00  0.00    -0.479 C  
HETATM    7  C   UNL     1     -10.492  11.131  64.006  1.00  0.00    -0.447 C  
HETATM    8  C   UNL     1     -12.757  11.954  63.340  1.00  0.00    -0.496 C  
HETATM    9  C   UNL     1     -11.468  12.305  64.089  1.00  0.00    -0.453 C  
ENDBRANCH   5   6
BRANCH   5  10
HETATM   10  N   UNL     1     -10.580  12.308  67.634  1.00  0.00    -0.211 N  
HETATM   11  C   UNL     1      -9.624  11.343  67.844  1.00  0.00    -0.177 C  
HETATM   12  H   UNL     1     -11.290  12.475  68.347  1.00  0.00     0.000 HD 
HETATM   13  O   UNL     1      -8.731  11.084  67.045  1.00  0.00    -0.136 OA 
BRANCH  11  14
HETATM   14  C   UNL     1      -9.786  10.583  69.138  1.00  0.00    -0.233 C  
BRANCH  14  15
HETATM   15  C   UNL     1     -10.656   9.346  68.918  1.00  0.00    -0.231 C  
BRANCH  15  16
HETATM   16  C   UNL     1      -9.912   8.039  69.200  1.00  0.00    -0.188 C  
BRANCH  16  17
HETATM   17  C   UNL     1     -10.184   7.510  70.606  1.00  0.00    -0.202 C  
BRANCH  17  18
HETATM   18  C   UNL     1     -11.665   7.572  70.965  1.00  0.00    -0.317 C  
BRANCH  18  19
HETATM   19  C   UNL     1     -11.842   8.192  72.350  1.00  0.00    -0.448 C  
BRANCH  19  20
HETATM   20  C   UNL     1     -13.143   8.985  72.440  1.00  0.00    -0.487 C  
BRANCH  20  21
HETATM   21  C   UNL     1     -13.282   9.942  71.256  1.00  0.00    -0.465 C  
BRANCH  21  22
HETATM   22  C   UNL     1     -12.999  11.355  71.672  1.00  0.00    -0.523 C  
HETATM   23  C   UNL     1     -12.501  12.290  70.854  1.00  0.00    -0.371 C  
ENDBRANCH  21  22
ENDBRANCH  20  21
ENDBRANCH  19  20
ENDBRANCH  18  19
ENDBRANCH  17  18
ENDBRANCH  16  17
ENDBRANCH  15  16
ENDBRANCH  14  15
ENDBRANCH  11  14
ENDBRANCH   5  10
ENDBRANCH   3   5
ENDBRANCH   2   3
TORSDOF 13
ENDMDL
MODEL       85
REMARK 921   NORMALIZED FREE ENERGY PREDICTED BY IDOCK:   -3.86 KCAL/MOL
REMARK 922        TOTAL FREE ENERGY PREDICTED BY IDOCK:   -8.90 KCAL/MOL
REMARK 923 INTER-LIGAND FREE ENERGY PREDICTED BY IDOCK:   -7.39 KCAL/MOL
REMARK 924 INTRA-LIGAND FREE ENERGY PREDICTED BY IDOCK:   -1.50 KCAL/MOL
REMARK 927      BINDING AFFINITY PREDICTED BY RF-SCORE:    0.00 PKD
ROOT
HETATM    1  C   UNL     1     -11.385  12.317  68.708  1.00  0.00    -0.289 C  
HETATM    2  O   UNL     1     -11.207  13.354  67.745  1.00  0.00    -0.259 OA 
ENDROOT
BRANCH   2   3
HETATM    3  C   UNL     1     -11.472  13.007  66.454  1.00  0.00    -0.341 C  
HETATM    4  O   UNL     1     -12.533  12.553  66.043  1.00  0.00    -0.565 OA 
BRANCH   3   5
HETATM    5  C   UNL     1     -10.248  13.292  65.578  1.00  0.00    -0.290 C  
BRANCH   5   6
HETATM    6  C   UNL     1      -9.326  12.070  65.468  1.00  0.00    -0.042 C  
HETATM    7  C   UNL     1     -10.423  11.124  63.363  1.00  0.00    -0.382 C  
HETATM    8  C   UNL     1      -8.932   9.688  64.766  1.00  0.00    -0.268 C  
HETATM    9  C   UNL     1      -9.948  10.835  64.788  1.00  0.00    -0.382 C  
ENDBRANCH   5   6
BRANCH   5  10
HETATM   10  N   UNL     1      -9.510  14.420  66.147  1.00  0.00    -0.450 N  
HETATM   11  C   UNL     1      -9.759  15.708  65.737  1.00  0.00    -0.345 C  
HETATM   12  H   UNL     1      -8.800  14.248  66.860  1.00  0.00     0.000 HD 
HETATM   13  O   UNL     1     -10.598  16.004  64.894  1.00  0.00    -0.587 OA 
BRANCH  11  14
HETATM   14  C   UNL     1      -8.873  16.745  66.384  1.00  0.00    -0.331 C  
BRANCH  14  15
HETATM   15  C   UNL     1      -7.810  16.068  67.246  1.00  0.00    -0.212 C  
BRANCH  15  16
HETATM   16  C   UNL     1      -6.528  16.894  67.367  1.00  0.00    -0.182 C  
BRANCH  16  17
HETATM   17  C   UNL     1      -6.712  18.325  66.864  1.00  0.00    -0.210 C  
BRANCH  17  18
HETATM   18  C   UNL     1      -6.114  19.350  67.821  1.00  0.00    -0.220 C  
BRANCH  18  19
HETATM   19  C   UNL     1      -7.195  20.326  68.285  1.00  0.00    -0.236 C  
BRANCH  19  20
HETATM   20  C   UNL     1      -8.374  20.349  67.316  1.00  0.00    -0.398 C  
BRANCH  20  21
HETATM   21  C   UNL     1      -9.701  20.280  68.072  1.00  0.00    -0.422 C  
BRANCH  21  22
HETATM   22  C   UNL     1     -10.812  19.840  67.166  1.00  0.00    -0.467 C  
HETATM   23  C   UNL     1     -10.684  19.702  65.840  1.00  0.00    -0.515 C  
ENDBRANCH  21  22
ENDBRANCH  20  21
ENDBRANCH  19  20
ENDBRANCH  18  19
ENDBRANCH  17  18
ENDBRANCH  16  17
ENDBRANCH  15  16
ENDBRANCH  14  15
ENDBRANCH  11  14
ENDBRANCH   5  10
ENDBRANCH   3   5
ENDBRANCH   2   3
TORSDOF 13
ENDMDL
MODEL       86
REMARK 921   NORMALIZED FREE ENERGY PREDICTED BY IDOCK:   -3.86 KCAL/MOL
REMARK 922        TOTAL FREE ENERGY PREDICTED BY IDOCK:   -8.89 KCAL/MOL
REMARK 923 INTER-LIGAND FREE ENERGY PREDICTED BY IDOCK:   -7.86 KCAL/MOL
REMARK 924 INTRA-LIGAND FREE ENERGY PREDICTED BY IDOCK:   -1.04 KCAL/MOL
REMARK 927      BINDING AFFINITY PREDICTED BY RF-SCORE:    0.00 PKD
ROOT
HETATM    1  C   UNL     1     -11.088   3.246  73.723  1.00  0.00    -0.197 C  
HETATM    2  O   UNL     1     -11.693   4.479  73.339  1.00  0.00    -0.270 OA 
ENDROOT
BRANCH   2   3
HETATM    3  C   UNL     1     -10.862   5.560  73.326  1.00  0.00    -0.293 C  
HETATM    4  O   UNL     1     -10.395   6.110  74.316  1.00  0.00    -0.292 OA 
BRANCH   3   5
HETATM    5  C   UNL     1     -10.574   5.975  71.880  1.00  0.00    -0.226 C  
BRANCH   5   6
HETATM    6  C   UNL     1      -9.250   5.390  71.370  1.00  0.00    -0.171 C  
HETATM    7  C   UNL     1     -10.065   4.977  68.985  1.00  0.00    -0.238 C  
HETATM    8  C   UNL     1      -7.990   3.861  69.822  1.00  0.00    -0.058 C  
HETATM    9  C   UNL     1      -9.377   4.380  70.213  1.00  0.00    -0.218 C  
ENDBRANCH   5   6
BRANCH   5  10
HETATM   10  N   UNL     1     -10.532   7.435  71.804  1.00  0.00    -0.197 N  
HETATM   11  C   UNL     1     -11.669   8.163  71.542  1.00  0.00    -0.286 C  
HETATM   12  H   UNL     1      -9.647   7.921  71.948  1.00  0.00     0.000 HD 
HETATM   13  O   UNL     1     -12.773   7.661  71.364  1.00  0.00    -0.333 OA 
BRANCH  11  14
HETATM   14  C   UNL     1     -11.441   9.652  71.444  1.00  0.00    -0.455 C  
BRANCH  14  15
HETATM   15  C   UNL     1     -12.770  10.397  71.548  1.00  0.00    -0.564 C  
BRANCH  15  16
HETATM   16  C   UNL     1     -12.631  11.898  71.285  1.00  0.00    -0.383 C  
BRANCH  16  17
HETATM   17  C   UNL     1     -11.882  12.191  69.987  1.00  0.00    -0.383 C  
BRANCH  17  18
HETATM   18  C   UNL     1     -11.992  13.656  69.580  1.00  0.00    -0.397 C  
BRANCH  18  19
HETATM   19  C   UNL     1     -12.000  14.545  70.823  1.00  0.00    -0.388 C  
BRANCH  19  20
HETATM   20  C   UNL     1     -13.234  15.443  70.855  1.00  0.00    -0.512 C  
BRANCH  20  21
HETATM   21  C   UNL     1     -14.014  15.250  72.156  1.00  0.00    -0.650 C  
BRANCH  21  22
HETATM   22  C   UNL     1     -13.086  14.974  73.301  1.00  0.00    -0.607 C  
HETATM   23  C   UNL     1     -12.606  15.919  74.118  1.00  0.00    -0.741 C  
ENDBRANCH  21  22
ENDBRANCH  20  21
ENDBRANCH  19  20
ENDBRANCH  18  19
ENDBRANCH  17  18
ENDBRANCH  16  17
ENDBRANCH  15  16
ENDBRANCH  14  15
ENDBRANCH  11  14
ENDBRANCH   5  10
ENDBRANCH   3   5
ENDBRANCH   2   3
TORSDOF 13
ENDMDL
MODEL       87
REMARK 921   NORMALIZED FREE ENERGY PREDICTED BY IDOCK:   -3.85 KCAL/MOL
REMARK 922        TOTAL FREE ENERGY PREDICTED BY IDOCK:   -8.89 KCAL/MOL
REMARK 923 INTER-LIGAND FREE ENERGY PREDICTED BY IDOCK:   -7.44 KCAL/MOL
REMARK 924 INTRA-LIGAND FREE ENERGY PREDICTED BY IDOCK:   -1.45 KCAL/MOL
REMARK 927      BINDING AFFINITY PREDICTED BY RF-SCORE:    0.00 PKD
ROOT
HETATM    1  C   UNL     1      -8.402  11.203  66.683  1.00  0.00    -0.160 C  
HETATM    2  O   UNL     1      -9.490  10.659  67.428  1.00  0.00    -0.153 OA 
ENDROOT
BRANCH   2   3
HETATM    3  C   UNL     1      -9.165  10.141  68.646  1.00  0.00    -0.157 C  
HETATM    4  O   UNL     1      -8.218  10.495  69.339  1.00  0.00    -0.158 OA 
BRANCH   3   5
HETATM    5  C   UNL     1     -10.179   9.062  69.039  1.00  0.00    -0.205 C  
BRANCH   5   6
HETATM    6  C   UNL     1     -10.622   8.227  67.830  1.00  0.00    -0.236 C  
HETATM    7  C   UNL     1     -11.208   6.137  69.176  1.00  0.00    -0.409 C  
HETATM    8  C   UNL     1     -10.901   5.999  66.698  1.00  0.00    -0.289 C  
HETATM    9  C   UNL     1     -10.443   6.704  67.979  1.00  0.00    -0.261 C  
ENDBRANCH   5   6
BRANCH   5  10
HETATM   10  N   UNL     1     -11.342   9.704  69.651  1.00  0.00    -0.415 N  
HETATM   11  C   UNL     1     -11.499   9.729  71.016  1.00  0.00    -0.383 C  
HETATM   12  H   UNL     1     -12.047  10.140  69.056  1.00  0.00     0.000 HD 
HETATM   13  O   UNL     1     -10.698   9.238  71.803  1.00  0.00    -0.363 OA 
BRANCH  11  14
HETATM   14  C   UNL     1     -12.779  10.381  71.480  1.00  0.00    -0.564 C  
BRANCH  14  15
HETATM   15  C   UNL     1     -12.781  11.863  71.109  1.00  0.00    -0.384 C  
BRANCH  15  16
HETATM   16  C   UNL     1     -13.519  12.730  72.131  1.00  0.00    -0.591 C  
BRANCH  16  17
HETATM   17  C   UNL     1     -13.511  14.208  71.747  1.00  0.00    -0.471 C  
BRANCH  17  18
HETATM   18  C   UNL     1     -12.142  14.848  71.959  1.00  0.00    -0.436 C  
BRANCH  18  19
HETATM   19  C   UNL     1     -11.921  15.960  70.935  1.00  0.00    -0.432 C  
BRANCH  19  20
HETATM   20  C   UNL     1     -10.791  15.610  69.971  1.00  0.00    -0.340 C  
BRANCH  20  21
HETATM   21  C   UNL     1     -11.164  15.982  68.536  1.00  0.00    -0.374 C  
BRANCH  21  22
HETATM   22  C   UNL     1     -11.503  14.760  67.736  1.00  0.00    -0.363 C  
HETATM   23  C   UNL     1     -11.233  13.509  68.131  1.00  0.00    -0.302 C  
ENDBRANCH  21  22
ENDBRANCH  20  21
ENDBRANCH  19  20
ENDBRANCH  18  19
ENDBRANCH  17  18
ENDBRANCH  16  17
ENDBRANCH  15  16
ENDBRANCH  14  15
ENDBRANCH  11  14
ENDBRANCH   5  10
ENDBRANCH   3   5
ENDBRANCH   2   3
TORSDOF 13
ENDMDL
MODEL       88
REMARK 921   NORMALIZED FREE ENERGY PREDICTED BY IDOCK:   -3.85 KCAL/MOL
REMARK 922        TOTAL FREE ENERGY PREDICTED BY IDOCK:   -8.88 KCAL/MOL
REMARK 923 INTER-LIGAND FREE ENERGY PREDICTED BY IDOCK:   -6.73 KCAL/MOL
REMARK 924 INTRA-LIGAND FREE ENERGY PREDICTED BY IDOCK:   -2.15 KCAL/MOL
REMARK 927      BINDING AFFINITY PREDICTED BY RF-SCORE:    0.00 PKD
ROOT
HETATM    1  C   UNL     1     -11.416   8.221  72.372  1.00  0.00    -0.394 C  
HETATM    2  O   UNL     1     -12.161   8.587  71.212  1.00  0.00    -0.290 OA 
ENDROOT
BRANCH   2   3
HETATM    3  C   UNL     1     -12.378   9.924  71.054  1.00  0.00    -0.357 C  
HETATM    4  O   UNL     1     -13.180  10.594  71.694  1.00  0.00    -0.412 OA 
BRANCH   3   5
HETATM    5  C   UNL     1     -11.448  10.476  69.969  1.00  0.00    -0.316 C  
BRANCH   5   6
HETATM    6  C   UNL     1     -12.085  11.650  69.214  1.00  0.00    -0.323 C  
HETATM    7  C   UNL     1      -9.874  12.742  68.548  1.00  0.00    -0.147 C  
HETATM    8  C   UNL     1     -12.009  14.036  68.423  1.00  0.00    -0.378 C  
HETATM    9  C   UNL     1     -11.249  12.945  69.184  1.00  0.00    -0.293 C  
ENDBRANCH   5   6
BRANCH   5  10
HETATM   10  N   UNL     1     -11.123   9.401  69.031  1.00  0.00    -0.437 N  
HETATM   11  C   UNL     1      -9.823   8.995  68.844  1.00  0.00    -0.175 C  
HETATM   12  H   UNL     1     -11.872   8.947  68.508  1.00  0.00     0.000 HD 
HETATM   13  O   UNL     1      -8.866   9.481  69.435  1.00  0.00    -0.148 OA 
BRANCH  11  14
HETATM   14  C   UNL     1      -9.657   7.915  67.802  1.00  0.00    -0.174 C  
BRANCH  14  15
HETATM   15  C   UNL     1      -8.610   8.333  66.771  1.00  0.00    -0.131 C  
BRANCH  15  16
HETATM   16  C   UNL     1      -9.228   8.939  65.509  1.00  0.00    -0.242 C  
BRANCH  16  17
HETATM   17  C   UNL     1      -9.309  10.462  65.579  1.00  0.00    -0.244 C  
BRANCH  17  18
HETATM   18  C   UNL     1     -10.747  10.954  65.704  1.00  0.00    -0.178 C  
BRANCH  18  19
HETATM   19  C   UNL     1     -10.937  12.228  64.882  1.00  0.00    -0.344 C  
BRANCH  19  20
HETATM   20  C   UNL     1     -12.346  12.790  65.047  1.00  0.00    -0.559 C  
BRANCH  20  21
HETATM   21  C   UNL     1     -12.373  14.290  64.752  1.00  0.00    -0.440 C  
BRANCH  21  22
HETATM   22  C   UNL     1     -10.982  14.844  64.669  1.00  0.00    -0.323 C  
HETATM   23  C   UNL     1     -10.491  15.760  65.514  1.00  0.00    -0.425 C  
ENDBRANCH  21  22
ENDBRANCH  20  21
ENDBRANCH  19  20
ENDBRANCH  18  19
ENDBRANCH  17  18
ENDBRANCH  16  17
ENDBRANCH  15  16
ENDBRANCH  14  15
ENDBRANCH  11  14
ENDBRANCH   5  10
ENDBRANCH   3   5
ENDBRANCH   2   3
TORSDOF 13
ENDMDL
MODEL       89
REMARK 921   NORMALIZED FREE ENERGY PREDICTED BY IDOCK:   -3.85 KCAL/MOL
REMARK 922        TOTAL FREE ENERGY PREDICTED BY IDOCK:   -8.88 KCAL/MOL
REMARK 923 INTER-LIGAND FREE ENERGY PREDICTED BY IDOCK:   -7.42 KCAL/MOL
REMARK 924 INTRA-LIGAND FREE ENERGY PREDICTED BY IDOCK:   -1.46 KCAL/MOL
REMARK 927      BINDING AFFINITY PREDICTED BY RF-SCORE:    0.00 PKD
ROOT
HETATM    1  C   UNL     1      -5.337  19.830  68.014  1.00  0.00    -0.187 C  
HETATM    2  O   UNL     1      -6.341  18.817  68.035  1.00  0.00    -0.204 OA 
ENDROOT
BRANCH   2   3
HETATM    3  C   UNL     1      -6.462  18.089  66.888  1.00  0.00    -0.180 C  
HETATM    4  O   UNL     1      -5.540  17.772  66.147  1.00  0.00    -0.175 OA 
BRANCH   3   5
HETATM    5  C   UNL     1      -7.928  17.701  66.673  1.00  0.00    -0.251 C  
BRANCH   5   6
HETATM    6  C   UNL     1      -8.858  18.401  67.674  1.00  0.00    -0.272 C  
HETATM    7  C   UNL     1     -10.546  19.193  65.928  1.00  0.00    -0.495 C  
HETATM    8  C   UNL     1     -10.522  20.207  68.213  1.00  0.00    -0.357 C  
HETATM    9  C   UNL     1      -9.658  19.590  67.109  1.00  0.00    -0.430 C  
ENDBRANCH   5   6
BRANCH   5  10
HETATM   10  N   UNL     1      -8.059  16.249  66.807  1.00  0.00    -0.234 N  
HETATM   11  C   UNL     1      -9.048  15.564  66.144  1.00  0.00    -0.324 C  
HETATM   12  H   UNL     1      -7.406  15.739  67.402  1.00  0.00     0.000 HD 
HETATM   13  O   UNL     1      -9.868  16.097  65.404  1.00  0.00    -0.474 OA 
BRANCH  11  14
HETATM   14  C   UNL     1      -9.077  14.083  66.434  1.00  0.00    -0.120 C  
BRANCH  14  15
HETATM   15  C   UNL     1      -9.925  13.804  67.673  1.00  0.00    -0.238 C  
BRANCH  15  16
HETATM   16  C   UNL     1     -11.172  12.975  67.365  1.00  0.00    -0.325 C  
BRANCH  16  17
HETATM   17  C   UNL     1     -12.343  13.840  66.906  1.00  0.00    -0.328 C  
BRANCH  17  18
HETATM   18  C   UNL     1     -12.429  13.930  65.386  1.00  0.00    -0.528 C  
BRANCH  18  19
HETATM   19  C   UNL     1     -12.782  12.563  64.801  1.00  0.00    -0.415 C  
BRANCH  19  20
HETATM   20  C   UNL     1     -12.089  12.338  63.460  1.00  0.00    -0.649 C  
BRANCH  20  21
HETATM   21  C   UNL     1     -10.575  12.221  63.642  1.00  0.00    -0.501 C  
BRANCH  21  22
HETATM   22  C   UNL     1     -10.156  10.784  63.735  1.00  0.00    -0.391 C  
HETATM   23  C   UNL     1      -9.434  10.280  64.744  1.00  0.00    -0.341 C  
ENDBRANCH  21  22
ENDBRANCH  20  21
ENDBRANCH  19  20
ENDBRANCH  18  19
ENDBRANCH  17  18
ENDBRANCH  16  17
ENDBRANCH  15  16
ENDBRANCH  14  15
ENDBRANCH  11  14
ENDBRANCH   5  10
ENDBRANCH   3   5
ENDBRANCH   2   3
TORSDOF 13
ENDMDL
MODEL       90
REMARK 921   NORMALIZED FREE ENERGY PREDICTED BY IDOCK:   -3.84 KCAL/MOL
REMARK 922        TOTAL FREE ENERGY PREDICTED BY IDOCK:   -8.86 KCAL/MOL
REMARK 923 INTER-LIGAND FREE ENERGY PREDICTED BY IDOCK:   -7.36 KCAL/MOL
REMARK 924 INTRA-LIGAND FREE ENERGY PREDICTED BY IDOCK:   -1.50 KCAL/MOL
REMARK 927      BINDING AFFINITY PREDICTED BY RF-SCORE:    0.00 PKD
ROOT
HETATM    1  C   UNL     1     -11.199   7.229  72.661  1.00  0.00    -0.313 C  
HETATM    2  O   UNL     1     -10.656   7.511  71.372  1.00  0.00    -0.211 OA 
ENDROOT
BRANCH   2   3
HETATM    3  C   UNL     1     -10.141   8.764  71.215  1.00  0.00    -0.266 C  
HETATM    4  O   UNL     1      -9.138   9.195  71.770  1.00  0.00    -0.346 OA 
BRANCH   3   5
HETATM    5  C   UNL     1     -10.992   9.551  70.214  1.00  0.00    -0.269 C  
BRANCH   5   6
HETATM    6  C   UNL     1     -10.158  10.064  69.033  1.00  0.00    -0.211 C  
HETATM    7  C   UNL     1     -10.545   8.020  67.551  1.00  0.00    -0.302 C  
HETATM    8  C   UNL     1      -8.695   9.621  67.037  1.00  0.00    -0.135 C  
HETATM    9  C   UNL     1      -9.513   8.973  68.157  1.00  0.00    -0.155 C  
ENDBRANCH   5   6
BRANCH   5  10
HETATM   10  N   UNL     1     -11.617  10.679  70.906  1.00  0.00    -0.324 N  
HETATM   11  C   UNL     1     -12.883  10.574  71.430  1.00  0.00    -0.447 C  
HETATM   12  H   UNL     1     -11.105  11.556  71.002  1.00  0.00     0.000 HD 
HETATM   13  O   UNL     1     -13.564   9.556  71.367  1.00  0.00    -0.366 OA 
BRANCH  11  14
HETATM   14  C   UNL     1     -13.399  11.844  72.062  1.00  0.00    -0.425 C  
BRANCH  14  15
HETATM   15  C   UNL     1     -12.744  13.061  71.411  1.00  0.00    -0.375 C  
BRANCH  15  16
HETATM   16  C   UNL     1     -13.552  14.345  71.606  1.00  0.00    -0.463 C  
BRANCH  16  17
HETATM   17  C   UNL     1     -12.897  15.548  70.932  1.00  0.00    -0.535 C  
BRANCH  17  18
HETATM   18  C   UNL     1     -11.374  15.464  70.963  1.00  0.00    -0.411 C  
BRANCH  18  19
HETATM   19  C   UNL     1     -10.816  15.551  69.544  1.00  0.00    -0.267 C  
BRANCH  19  20
HETATM   20  C   UNL     1     -11.902  15.289  68.504  1.00  0.00    -0.305 C  
BRANCH  20  21
HETATM   21  C   UNL     1     -11.773  13.880  67.924  1.00  0.00    -0.396 C  
BRANCH  21  22
HETATM   22  C   UNL     1     -12.075  13.875  66.456  1.00  0.00    -0.484 C  
HETATM   23  C   UNL     1     -11.476  13.066  65.572  1.00  0.00    -0.352 C  
ENDBRANCH  21  22
ENDBRANCH  20  21
ENDBRANCH  19  20
ENDBRANCH  18  19
ENDBRANCH  17  18
ENDBRANCH  16  17
ENDBRANCH  15  16
ENDBRANCH  14  15
ENDBRANCH  11  14
ENDBRANCH   5  10
ENDBRANCH   3   5
ENDBRANCH   2   3
TORSDOF 13
ENDMDL
MODEL       91
REMARK 921   NORMALIZED FREE ENERGY PREDICTED BY IDOCK:   -3.83 KCAL/MOL
REMARK 922        TOTAL FREE ENERGY PREDICTED BY IDOCK:   -8.85 KCAL/MOL
REMARK 923 INTER-LIGAND FREE ENERGY PREDICTED BY IDOCK:   -7.95 KCAL/MOL
REMARK 924 INTRA-LIGAND FREE ENERGY PREDICTED BY IDOCK:   -0.90 KCAL/MOL
REMARK 927      BINDING AFFINITY PREDICTED BY RF-SCORE:    0.00 PKD
ROOT
HETATM    1  C   UNL     1     -10.718  10.759  67.370  1.00  0.00    -0.268 C  
HETATM    2  O   UNL     1     -11.922  11.514  67.252  1.00  0.00    -0.605 OA 
ENDROOT
BRANCH   2   3
HETATM    3  C   UNL     1     -11.863  12.788  67.735  1.00  0.00    -0.332 C  
HETATM    4  O   UNL     1     -12.292  13.784  67.166  1.00  0.00    -0.357 OA 
BRANCH   3   5
HETATM    5  C   UNL     1     -11.200  12.789  69.116  1.00  0.00    -0.237 C  
BRANCH   5   6
HETATM    6  C   UNL     1     -12.213  12.516  70.236  1.00  0.00    -0.345 C  
HETATM    7  C   UNL     1     -12.979  14.942  70.471  1.00  0.00    -0.339 C  
HETATM    8  C   UNL     1     -13.475  13.280  72.272  1.00  0.00    -0.679 C  
HETATM    9  C   UNL     1     -12.468  13.695  71.195  1.00  0.00    -0.442 C  
ENDBRANCH   5   6
BRANCH   5  10
HETATM   10  N   UNL     1     -10.558  14.085  69.333  1.00  0.00    -0.440 N  
HETATM   11  C   UNL     1      -9.347  14.381  68.753  1.00  0.00    -0.150 C  
HETATM   12  H   UNL     1     -11.015  14.781  69.923  1.00  0.00     0.000 HD 
HETATM   13  O   UNL     1      -8.734  13.608  68.025  1.00  0.00    -0.159 OA 
BRANCH  11  14
HETATM   14  C   UNL     1      -8.799  15.738  69.123  1.00  0.00    -0.250 C  
BRANCH  14  15
HETATM   15  C   UNL     1      -9.930  16.761  69.198  1.00  0.00    -0.252 C  
BRANCH  15  16
HETATM   16  C   UNL     1     -10.760  16.825  67.915  1.00  0.00    -0.347 C  
BRANCH  16  17
HETATM   17  C   UNL     1     -10.186  17.813  66.903  1.00  0.00    -0.346 C  
BRANCH  17  18
HETATM   18  C   UNL     1     -10.629  19.245  67.185  1.00  0.00    -0.575 C  
BRANCH  18  19
HETATM   19  C   UNL     1      -9.904  20.210  66.249  1.00  0.00    -0.541 C  
BRANCH  19  20
HETATM   20  C   UNL     1      -8.440  19.816  66.069  1.00  0.00    -0.304 C  
BRANCH  20  21
HETATM   21  C   UNL     1      -7.563  20.479  67.132  1.00  0.00    -0.372 C  
BRANCH  21  22
HETATM   22  C   UNL     1      -6.908  19.451  68.004  1.00  0.00    -0.280 C  
HETATM   23  C   UNL     1      -7.149  19.318  69.314  1.00  0.00    -0.333 C  
ENDBRANCH  21  22
ENDBRANCH  20  21
ENDBRANCH  19  20
ENDBRANCH  18  19
ENDBRANCH  17  18
ENDBRANCH  16  17
ENDBRANCH  15  16
ENDBRANCH  14  15
ENDBRANCH  11  14
ENDBRANCH   5  10
ENDBRANCH   3   5
ENDBRANCH   2   3
TORSDOF 13
ENDMDL
MODEL       92
REMARK 921   NORMALIZED FREE ENERGY PREDICTED BY IDOCK:   -3.81 KCAL/MOL
REMARK 922        TOTAL FREE ENERGY PREDICTED BY IDOCK:   -8.81 KCAL/MOL
REMARK 923 INTER-LIGAND FREE ENERGY PREDICTED BY IDOCK:   -7.68 KCAL/MOL
REMARK 924 INTRA-LIGAND FREE ENERGY PREDICTED BY IDOCK:   -1.13 KCAL/MOL
REMARK 927      BINDING AFFINITY PREDICTED BY RF-SCORE:    0.00 PKD
ROOT
HETATM    1  C   UNL     1      -9.301  15.211  67.899  1.00  0.00    -0.185 C  
HETATM    2  O   UNL     1     -10.097  14.393  68.754  1.00  0.00    -0.236 OA 
ENDROOT
BRANCH   2   3
HETATM    3  C   UNL     1     -11.413  14.293  68.410  1.00  0.00    -0.301 C  
HETATM    4  O   UNL     1     -11.887  14.592  67.321  1.00  0.00    -0.394 OA 
BRANCH   3   5
HETATM    5  C   UNL     1     -12.214  13.724  69.585  1.00  0.00    -0.305 C  
BRANCH   5   6
HETATM    6  C   UNL     1     -12.378  14.748  70.715  1.00  0.00    -0.397 C  
HETATM    7  C   UNL     1     -13.732  13.214  72.244  1.00  0.00    -0.647 C  
HETATM    8  C   UNL     1     -13.695  15.682  72.642  1.00  0.00    -0.666 C  
HETATM    9  C   UNL     1     -13.647  14.586  71.573  1.00  0.00    -0.465 C  
ENDBRANCH   5   6
BRANCH   5  10
HETATM   10  N   UNL     1     -11.532  12.532  70.091  1.00  0.00    -0.523 N  
HETATM   11  C   UNL     1     -11.613  11.333  69.423  1.00  0.00    -0.321 C  
HETATM   12  H   UNL     1     -10.988  12.592  70.952  1.00  0.00     0.000 HD 
HETATM   13  O   UNL     1     -12.237  11.176  68.380  1.00  0.00    -0.610 OA 
BRANCH  11  14
HETATM   14  C   UNL     1     -10.899  10.194  70.108  1.00  0.00    -0.368 C  
BRANCH  14  15
HETATM   15  C   UNL     1     -11.703   9.716  71.316  1.00  0.00    -0.458 C  
BRANCH  15  16
HETATM   16  C   UNL     1     -11.205   8.381  71.871  1.00  0.00    -0.379 C  
BRANCH  16  17
HETATM   17  C   UNL     1      -9.716   8.414  72.210  1.00  0.00    -0.386 C  
BRANCH  17  18
HETATM   18  C   UNL     1      -8.920   7.401  71.393  1.00  0.00    -0.141 C  
BRANCH  18  19
HETATM   19  C   UNL     1      -8.161   8.113  70.274  1.00  0.00    -0.109 C  
BRANCH  19  20
HETATM   20  C   UNL     1      -8.233   7.326  68.968  1.00  0.00    -0.125 C  
BRANCH  20  21
HETATM   21  C   UNL     1      -9.280   7.926  68.029  1.00  0.00    -0.134 C  
BRANCH  21  22
HETATM   22  C   UNL     1     -10.571   7.168  68.112  1.00  0.00    -0.241 C  
HETATM   23  C   UNL     1     -10.656   5.832  68.097  1.00  0.00    -0.286 C  
ENDBRANCH  21  22
ENDBRANCH  20  21
ENDBRANCH  19  20
ENDBRANCH  18  19
ENDBRANCH  17  18
ENDBRANCH  16  17
ENDBRANCH  15  16
ENDBRANCH  14  15
ENDBRANCH  11  14
ENDBRANCH   5  10
ENDBRANCH   3   5
ENDBRANCH   2   3
TORSDOF 13
ENDMDL
MODEL       93
REMARK 921   NORMALIZED FREE ENERGY PREDICTED BY IDOCK:   -3.81 KCAL/MOL
REMARK 922        TOTAL FREE ENERGY PREDICTED BY IDOCK:   -8.80 KCAL/MOL
REMARK 923 INTER-LIGAND FREE ENERGY PREDICTED BY IDOCK:   -6.97 KCAL/MOL
REMARK 924 INTRA-LIGAND FREE ENERGY PREDICTED BY IDOCK:   -1.83 KCAL/MOL
REMARK 927      BINDING AFFINITY PREDICTED BY RF-SCORE:    0.00 PKD
ROOT
HETATM    1  C   UNL     1     -12.774  12.496  63.495  1.00  0.00    -0.252 C  
HETATM    2  O   UNL     1     -11.829  11.430  63.432  1.00  0.00    -0.247 OA 
ENDROOT
BRANCH   2   3
HETATM    3  C   UNL     1     -10.593  11.713  63.932  1.00  0.00    -0.391 C  
HETATM    4  O   UNL     1      -9.541  11.643  63.308  1.00  0.00    -0.345 OA 
BRANCH   3   5
HETATM    5  C   UNL     1     -10.714  12.160  65.392  1.00  0.00    -0.284 C  
BRANCH   5   6
HETATM    6  C   UNL     1      -9.969  13.476  65.650  1.00  0.00    -0.252 C  
HETATM    7  C   UNL     1     -11.855  14.569  66.982  1.00  0.00    -0.408 C  
HETATM    8  C   UNL     1      -9.996  15.958  66.052  1.00  0.00    -0.360 C  
HETATM    9  C   UNL     1     -10.865  14.717  65.826  1.00  0.00    -0.334 C  
ENDBRANCH   5   6
BRANCH   5  10
HETATM   10  N   UNL     1     -10.176  11.108  66.256  1.00  0.00    -0.232 N  
HETATM   11  C   UNL     1     -10.893  10.642  67.332  1.00  0.00    -0.296 C  
HETATM   12  H   UNL     1      -9.255  10.716  66.057  1.00  0.00     0.000 HD 
HETATM   13  O   UNL     1     -12.007  11.051  67.638  1.00  0.00    -0.583 OA 
BRANCH  11  14
HETATM   14  C   UNL     1     -10.171   9.598  68.150  1.00  0.00    -0.225 C  
BRANCH  14  15
HETATM   15  C   UNL     1      -9.623  10.219  69.434  1.00  0.00    -0.237 C  
BRANCH  15  16
HETATM   16  C   UNL     1      -9.075   9.177  70.410  1.00  0.00    -0.270 C  
BRANCH  16  17
HETATM   17  C   UNL     1      -9.028   7.779  69.798  1.00  0.00    -0.146 C  
BRANCH  17  18
HETATM   18  C   UNL     1      -9.641   6.729  70.719  1.00  0.00    -0.173 C  
BRANCH  18  19
HETATM   19  C   UNL     1     -10.903   6.148  70.083  1.00  0.00    -0.395 C  
BRANCH  19  20
HETATM   20  C   UNL     1     -12.155   6.864  70.581  1.00  0.00    -0.363 C  
BRANCH  20  21
HETATM   21  C   UNL     1     -11.995   7.290  72.041  1.00  0.00    -0.333 C  
BRANCH  21  22
HETATM   22  C   UNL     1     -12.276   8.754  72.205  1.00  0.00    -0.429 C  
HETATM   23  C   UNL     1     -12.769   9.534  71.235  1.00  0.00    -0.416 C  
ENDBRANCH  21  22
ENDBRANCH  20  21
ENDBRANCH  19  20
ENDBRANCH  18  19
ENDBRANCH  17  18
ENDBRANCH  16  17
ENDBRANCH  15  16
ENDBRANCH  14  15
ENDBRANCH  11  14
ENDBRANCH   5  10
ENDBRANCH   3   5
ENDBRANCH   2   3
TORSDOF 13
ENDMDL
MODEL       94
REMARK 921   NORMALIZED FREE ENERGY PREDICTED BY IDOCK:   -3.80 KCAL/MOL
REMARK 922        TOTAL FREE ENERGY PREDICTED BY IDOCK:   -8.80 KCAL/MOL
REMARK 923 INTER-LIGAND FREE ENERGY PREDICTED BY IDOCK:   -6.69 KCAL/MOL
REMARK 924 INTRA-LIGAND FREE ENERGY PREDICTED BY IDOCK:   -2.11 KCAL/MOL
REMARK 927      BINDING AFFINITY PREDICTED BY RF-SCORE:    0.00 PKD
ROOT
HETATM    1  C   UNL     1      -5.322  18.535  67.898  1.00  0.00    -0.165 C  
HETATM    2  O   UNL     1      -6.563  17.867  67.677  1.00  0.00    -0.178 OA 
ENDROOT
BRANCH   2   3
HETATM    3  C   UNL     1      -6.881  17.640  66.371  1.00  0.00    -0.262 C  
HETATM    4  O   UNL     1      -6.077  17.498  65.458  1.00  0.00    -0.021 OA 
BRANCH   3   5
HETATM    5  C   UNL     1      -8.403  17.563  66.214  1.00  0.00    -0.224 C  
BRANCH   5   6
HETATM    6  C   UNL     1      -9.134  18.135  67.436  1.00  0.00    -0.253 C  
HETATM    7  C   UNL     1     -10.377  19.957  66.148  1.00  0.00    -0.604 C  
HETATM    8  C   UNL     1     -10.190  20.074  68.639  1.00  0.00    -0.443 C  
HETATM    9  C   UNL     1      -9.490  19.632  67.350  1.00  0.00    -0.433 C  
ENDBRANCH   5   6
BRANCH   5  10
HETATM   10  N   UNL     1      -8.789  16.165  66.015  1.00  0.00    -0.325 N  
HETATM   11  C   UNL     1      -9.952  15.840  65.359  1.00  0.00    -0.237 C  
HETATM   12  H   UNL     1      -8.186  15.422  66.369  1.00  0.00     0.000 HD 
HETATM   13  O   UNL     1     -10.728  16.668  64.896  1.00  0.00    -0.710 OA 
BRANCH  11  14
HETATM   14  C   UNL     1     -10.228  14.357  65.288  1.00  0.00    -0.416 C  
BRANCH  14  15
HETATM   15  C   UNL     1      -9.606  13.647  66.489  1.00  0.00    -0.294 C  
BRANCH  15  16
HETATM   16  C   UNL     1     -10.595  12.734  67.216  1.00  0.00    -0.245 C  
BRANCH  16  17
HETATM   17  C   UNL     1     -11.941  13.413  67.456  1.00  0.00    -0.381 C  
BRANCH  17  18
HETATM   18  C   UNL     1     -12.020  14.056  68.837  1.00  0.00    -0.387 C  
BRANCH  18  19
HETATM   19  C   UNL     1     -11.939  15.577  68.712  1.00  0.00    -0.265 C  
BRANCH  19  20
HETATM   20  C   UNL     1     -11.016  16.172  69.772  1.00  0.00    -0.349 C  
BRANCH  20  21
HETATM   21  C   UNL     1      -9.857  15.224  70.079  1.00  0.00    -0.072 C  
BRANCH  21  22
HETATM   22  C   UNL     1      -8.587  15.708  69.447  1.00  0.00    -0.248 C  
HETATM   23  C   UNL     1      -7.505  14.941  69.260  1.00  0.00    -0.177 C  
ENDBRANCH  21  22
ENDBRANCH  20  21
ENDBRANCH  19  20
ENDBRANCH  18  19
ENDBRANCH  17  18
ENDBRANCH  16  17
ENDBRANCH  15  16
ENDBRANCH  14  15
ENDBRANCH  11  14
ENDBRANCH   5  10
ENDBRANCH   3   5
ENDBRANCH   2   3
TORSDOF 13
ENDMDL
MODEL       95
REMARK 921   NORMALIZED FREE ENERGY PREDICTED BY IDOCK:   -3.80 KCAL/MOL
REMARK 922        TOTAL FREE ENERGY PREDICTED BY IDOCK:   -8.80 KCAL/MOL
REMARK 923 INTER-LIGAND FREE ENERGY PREDICTED BY IDOCK:   -7.53 KCAL/MOL
REMARK 924 INTRA-LIGAND FREE ENERGY PREDICTED BY IDOCK:   -1.27 KCAL/MOL
REMARK 927      BINDING AFFINITY PREDICTED BY RF-SCORE:    0.00 PKD
ROOT
HETATM    1  C   UNL     1     -14.401   8.362  71.460  1.00  0.00    -0.408 C  
HETATM    2  O   UNL     1     -12.996   8.543  71.629  1.00  0.00    -0.328 OA 
ENDROOT
BRANCH   2   3
HETATM    3  C   UNL     1     -12.252   7.401  71.609  1.00  0.00    -0.330 C  
HETATM    4  O   UNL     1     -12.614   6.309  72.032  1.00  0.00    -0.269 OA 
BRANCH   3   5
HETATM    5  C   UNL     1     -10.896   7.676  70.953  1.00  0.00    -0.241 C  
BRANCH   5   6
HETATM    6  C   UNL     1      -9.893   8.281  71.944  1.00  0.00    -0.300 C  
HETATM    7  C   UNL     1      -8.673   6.090  72.428  1.00  0.00    -0.126 C  
HETATM    8  C   UNL     1      -8.400   8.051  73.954  1.00  0.00    -0.319 C  
HETATM    9  C   UNL     1      -9.369   7.315  73.024  1.00  0.00    -0.204 C  
ENDBRANCH   5   6
BRANCH   5  10
HETATM   10  N   UNL     1     -11.091   8.589  69.826  1.00  0.00    -0.431 N  
HETATM   11  C   UNL     1     -10.381   8.435  68.659  1.00  0.00    -0.197 C  
HETATM   12  H   UNL     1     -11.764   9.352  69.907  1.00  0.00     0.000 HD 
HETATM   13  O   UNL     1      -9.560   7.543  68.475  1.00  0.00    -0.148 OA 
BRANCH  11  14
HETATM   14  C   UNL     1     -10.661   9.492  67.620  1.00  0.00    -0.314 C  
BRANCH  14  15
HETATM   15  C   UNL     1     -11.286  10.723  68.274  1.00  0.00    -0.376 C  
BRANCH  15  16
HETATM   16  C   UNL     1     -10.898  12.028  67.577  1.00  0.00    -0.284 C  
BRANCH  16  17
HETATM   17  C   UNL     1     -12.026  13.057  67.605  1.00  0.00    -0.353 C  
BRANCH  17  18
HETATM   18  C   UNL     1     -11.865  14.113  66.517  1.00  0.00    -0.439 C  
BRANCH  18  19
HETATM   19  C   UNL     1     -12.772  13.786  65.332  1.00  0.00    -0.513 C  
BRANCH  19  20
HETATM   20  C   UNL     1     -11.970  13.657  64.039  1.00  0.00    -0.478 C  
BRANCH  20  21
HETATM   21  C   UNL     1     -12.191  12.288  63.396  1.00  0.00    -0.630 C  
BRANCH  21  22
HETATM   22  C   UNL     1     -11.063  11.355  63.720  1.00  0.00    -0.417 C  
HETATM   23  C   UNL     1      -9.790  11.570  63.365  1.00  0.00    -0.422 C  
ENDBRANCH  21  22
ENDBRANCH  20  21
ENDBRANCH  19  20
ENDBRANCH  18  19
ENDBRANCH  17  18
ENDBRANCH  16  17
ENDBRANCH  15  16
ENDBRANCH  14  15
ENDBRANCH  11  14
ENDBRANCH   5  10
ENDBRANCH   3   5
ENDBRANCH   2   3
TORSDOF 13
ENDMDL
MODEL       96
REMARK 921   NORMALIZED FREE ENERGY PREDICTED BY IDOCK:   -3.80 KCAL/MOL
REMARK 922        TOTAL FREE ENERGY PREDICTED BY IDOCK:   -8.79 KCAL/MOL
REMARK 923 INTER-LIGAND FREE ENERGY PREDICTED BY IDOCK:   -7.43 KCAL/MOL
REMARK 924 INTRA-LIGAND FREE ENERGY PREDICTED BY IDOCK:   -1.36 KCAL/MOL
REMARK 927      BINDING AFFINITY PREDICTED BY RF-SCORE:    0.00 PKD
ROOT
HETATM    1  C   UNL     1      -9.224   7.425  73.016  1.00  0.00    -0.165 C  
HETATM    2  O   UNL     1      -9.075   8.756  72.527  1.00  0.00    -0.367 OA 
ENDROOT
BRANCH   2   3
HETATM    3  C   UNL     1      -9.422   8.942  71.221  1.00  0.00    -0.272 C  
HETATM    4  O   UNL     1      -8.725   8.660  70.254  1.00  0.00    -0.133 OA 
BRANCH   3   5
HETATM    5  C   UNL     1     -10.831   9.536  71.139  1.00  0.00    -0.355 C  
BRANCH   5   6
HETATM    6  C   UNL     1     -11.880   8.473  70.787  1.00  0.00    -0.184 C  
HETATM    7  C   UNL     1     -13.564   9.189  72.569  1.00  0.00    -0.497 C  
HETATM    8  C   UNL     1     -13.763   6.952  71.470  1.00  0.00    -0.274 C  
HETATM    9  C   UNL     1     -12.784   8.027  71.953  1.00  0.00    -0.354 C  
ENDBRANCH   5   6
BRANCH   5  10
HETATM   10  N   UNL     1     -10.841  10.596  70.130  1.00  0.00    -0.451 N  
HETATM   11  C   UNL     1     -11.748  11.627  70.196  1.00  0.00    -0.296 C  
HETATM   12  H   UNL     1     -10.165  10.569  69.366  1.00  0.00     0.000 HD 
HETATM   13  O   UNL     1     -12.587  11.740  71.082  1.00  0.00    -0.378 OA 
BRANCH  11  14
HETATM   14  C   UNL     1     -11.658  12.603  69.049  1.00  0.00    -0.367 C  
BRANCH  14  15
HETATM   15  C   UNL     1     -11.439  11.856  67.735  1.00  0.00    -0.389 C  
BRANCH  15  16
HETATM   16  C   UNL     1     -11.996  12.607  66.524  1.00  0.00    -0.401 C  
BRANCH  16  17
HETATM   17  C   UNL     1     -11.247  12.266  65.238  1.00  0.00    -0.372 C  
BRANCH  17  18
HETATM   18  C   UNL     1     -10.498  13.469  64.675  1.00  0.00    -0.439 C  
BRANCH  18  19
HETATM   19  C   UNL     1     -11.444  14.661  64.544  1.00  0.00    -0.340 C  
BRANCH  19  20
HETATM   20  C   UNL     1     -10.820  15.930  65.118  1.00  0.00    -0.438 C  
BRANCH  20  21
HETATM   21  C   UNL     1      -9.584  15.599  65.954  1.00  0.00    -0.385 C  
BRANCH  21  22
HETATM   22  C   UNL     1      -9.812  15.925  67.400  1.00  0.00    -0.234 C  
HETATM   23  C   UNL     1     -11.024  16.041  67.958  1.00  0.00    -0.341 C  
ENDBRANCH  21  22
ENDBRANCH  20  21
ENDBRANCH  19  20
ENDBRANCH  18  19
ENDBRANCH  17  18
ENDBRANCH  16  17
ENDBRANCH  15  16
ENDBRANCH  14  15
ENDBRANCH  11  14
ENDBRANCH   5  10
ENDBRANCH   3   5
ENDBRANCH   2   3
TORSDOF 13
ENDMDL
MODEL       97
REMARK 921   NORMALIZED FREE ENERGY PREDICTED BY IDOCK:   -3.79 KCAL/MOL
REMARK 922        TOTAL FREE ENERGY PREDICTED BY IDOCK:   -8.78 KCAL/MOL
REMARK 923 INTER-LIGAND FREE ENERGY PREDICTED BY IDOCK:   -8.13 KCAL/MOL
REMARK 924 INTRA-LIGAND FREE ENERGY PREDICTED BY IDOCK:   -0.66 KCAL/MOL
REMARK 927      BINDING AFFINITY PREDICTED BY RF-SCORE:    0.00 PKD
ROOT
HETATM    1  C   UNL     1     -12.114  13.377  64.435  1.00  0.00    -0.416 C  
HETATM    2  O   UNL     1     -12.617  14.155  65.519  1.00  0.00    -0.485 OA 
ENDROOT
BRANCH   2   3
HETATM    3  C   UNL     1     -12.207  13.765  66.760  1.00  0.00    -0.397 C  
HETATM    4  O   UNL     1     -12.201  12.613  67.177  1.00  0.00    -0.445 OA 
BRANCH   3   5
HETATM    5  C   UNL     1     -11.727  14.983  67.554  1.00  0.00    -0.253 C  
BRANCH   5   6
HETATM    6  C   UNL     1     -10.204  15.157  67.470  1.00  0.00    -0.238 C  
HETATM    7  C   UNL     1     -10.279  17.443  66.332  1.00  0.00    -0.339 C  
HETATM    8  C   UNL     1      -8.173  16.095  66.323  1.00  0.00    -0.275 C  
HETATM    9  C   UNL     1      -9.703  16.026  66.301  1.00  0.00    -0.332 C  
ENDBRANCH   5   6
BRANCH   5  10
HETATM   10  N   UNL     1     -12.131  14.828  68.952  1.00  0.00    -0.539 N  
HETATM   11  C   UNL     1     -11.819  15.784  69.889  1.00  0.00    -0.344 C  
HETATM   12  H   UNL     1     -12.653  13.998  69.235  1.00  0.00     0.000 HD 
HETATM   13  O   UNL     1     -11.204  16.813  69.633  1.00  0.00    -0.159 OA 
BRANCH  11  14
HETATM   14  C   UNL     1     -12.262  15.444  71.291  1.00  0.00    -0.430 C  
BRANCH  14  15
HETATM   15  C   UNL     1     -13.370  14.393  71.254  1.00  0.00    -0.409 C  
BRANCH  15  16
HETATM   16  C   UNL     1     -13.302  13.417  72.430  1.00  0.00    -0.629 C  
BRANCH  16  17
HETATM   17  C   UNL     1     -13.576  11.977  72.002  1.00  0.00    -0.230 C  
BRANCH  17  18
HETATM   18  C   UNL     1     -12.445  11.406  71.154  1.00  0.00    -0.465 C  
BRANCH  18  19
HETATM   19  C   UNL     1     -12.270   9.917  71.448  1.00  0.00    -0.499 C  
BRANCH  19  20
HETATM   20  C   UNL     1     -10.864   9.443  71.092  1.00  0.00    -0.427 C  
BRANCH  20  21
HETATM   21  C   UNL     1     -10.319  10.210  69.888  1.00  0.00    -0.308 C  
BRANCH  21  22
HETATM   22  C   UNL     1     -10.984   9.762  68.621  1.00  0.00    -0.189 C  
HETATM   23  C   UNL     1     -10.393   8.992  67.698  1.00  0.00    -0.317 C  
ENDBRANCH  21  22
ENDBRANCH  20  21
ENDBRANCH  19  20
ENDBRANCH  18  19
ENDBRANCH  17  18
ENDBRANCH  16  17
ENDBRANCH  15  16
ENDBRANCH  14  15
ENDBRANCH  11  14
ENDBRANCH   5  10
ENDBRANCH   3   5
ENDBRANCH   2   3
TORSDOF 13
ENDMDL
MODEL       98
REMARK 921   NORMALIZED FREE ENERGY PREDICTED BY IDOCK:   -3.79 KCAL/MOL
REMARK 922        TOTAL FREE ENERGY PREDICTED BY IDOCK:   -8.78 KCAL/MOL
REMARK 923 INTER-LIGAND FREE ENERGY PREDICTED BY IDOCK:   -8.15 KCAL/MOL
REMARK 924 INTRA-LIGAND FREE ENERGY PREDICTED BY IDOCK:   -0.62 KCAL/MOL
REMARK 927      BINDING AFFINITY PREDICTED BY RF-SCORE:    0.00 PKD
ROOT
HETATM    1  C   UNL     1      -8.069   9.368  70.587  1.00  0.00    -0.161 C  
HETATM    2  O   UNL     1      -9.289   8.632  70.651  1.00  0.00    -0.163 OA 
ENDROOT
BRANCH   2   3
HETATM    3  C   UNL     1      -9.952   8.701  71.840  1.00  0.00    -0.322 C  
HETATM    4  O   UNL     1      -9.594   8.171  72.885  1.00  0.00    -0.257 OA 
BRANCH   3   5
HETATM    5  C   UNL     1     -11.206   9.566  71.685  1.00  0.00    -0.308 C  
BRANCH   5   6
HETATM    6  C   UNL     1     -12.471   8.827  72.143  1.00  0.00    -0.460 C  
HETATM    7  C   UNL     1     -12.040   6.723  70.759  1.00  0.00    -0.402 C  
HETATM    8  C   UNL     1     -14.311   7.170  71.705  1.00  0.00    -0.528 C  
HETATM    9  C   UNL     1     -13.044   7.814  71.132  1.00  0.00    -0.157 C  
ENDBRANCH   5   6
BRANCH   5  10
HETATM   10  N   UNL     1     -11.342   9.959  70.282  1.00  0.00    -0.274 N  
HETATM   11  C   UNL     1     -11.818  11.202  69.938  1.00  0.00    -0.363 C  
HETATM   12  H   UNL     1     -11.079   9.301  69.548  1.00  0.00     0.000 HD 
HETATM   13  O   UNL     1     -12.149  12.054  70.755  1.00  0.00    -0.349 OA 
BRANCH  11  14
HETATM   14  C   UNL     1     -11.947  11.425  68.451  1.00  0.00    -0.270 C  
BRANCH  14  15
HETATM   15  C   UNL     1     -11.810  12.911  68.126  1.00  0.00    -0.380 C  
BRANCH  15  16
HETATM   16  C   UNL     1     -10.375  13.421  68.268  1.00  0.00    -0.251 C  
BRANCH  16  17
HETATM   17  C   UNL     1     -10.294  14.693  69.109  1.00  0.00    -0.222 C  
BRANCH  17  18
HETATM   18  C   UNL     1     -11.610  15.464  69.110  1.00  0.00    -0.354 C  
BRANCH  18  19
HETATM   19  C   UNL     1     -12.020  15.796  70.544  1.00  0.00    -0.401 C  
BRANCH  19  20
HETATM   20  C   UNL     1     -13.340  15.125  70.913  1.00  0.00    -0.463 C  
BRANCH  20  21
HETATM   21  C   UNL     1     -13.734  15.454  72.354  1.00  0.00    -0.644 C  
BRANCH  21  22
HETATM   22  C   UNL     1     -12.555  15.960  73.129  1.00  0.00    -0.622 C  
HETATM   23  C   UNL     1     -12.320  15.660  74.413  1.00  0.00    -0.802 C  
ENDBRANCH  21  22
ENDBRANCH  20  21
ENDBRANCH  19  20
ENDBRANCH  18  19
ENDBRANCH  17  18
ENDBRANCH  16  17
ENDBRANCH  15  16
ENDBRANCH  14  15
ENDBRANCH  11  14
ENDBRANCH   5  10
ENDBRANCH   3   5
ENDBRANCH   2   3
TORSDOF 13
ENDMDL
MODEL       99
REMARK 921   NORMALIZED FREE ENERGY PREDICTED BY IDOCK:   -3.79 KCAL/MOL
REMARK 922        TOTAL FREE ENERGY PREDICTED BY IDOCK:   -8.77 KCAL/MOL
REMARK 923 INTER-LIGAND FREE ENERGY PREDICTED BY IDOCK:   -7.04 KCAL/MOL
REMARK 924 INTRA-LIGAND FREE ENERGY PREDICTED BY IDOCK:   -1.74 KCAL/MOL
REMARK 927      BINDING AFFINITY PREDICTED BY RF-SCORE:    0.00 PKD
ROOT
HETATM    1  C   UNL     1     -10.301  10.216  66.327  1.00  0.00    -0.175 C  
HETATM    2  O   UNL     1     -11.337  10.396  67.290  1.00  0.00    -0.327 OA 
ENDROOT
BRANCH   2   3
HETATM    3  C   UNL     1     -11.617  11.691  67.612  1.00  0.00    -0.279 C  
HETATM    4  O   UNL     1     -12.377  12.428  66.996  1.00  0.00    -0.399 OA 
BRANCH   3   5
HETATM    5  C   UNL     1     -10.857  12.085  68.882  1.00  0.00    -0.211 C  
BRANCH   5   6
HETATM    6  C   UNL     1     -11.758  12.043  70.124  1.00  0.00    -0.316 C  
HETATM    7  C   UNL     1     -10.984   9.739  70.911  1.00  0.00    -0.411 C  
HETATM    8  C   UNL     1     -13.091  10.740  71.812  1.00  0.00    -0.573 C  
HETATM    9  C   UNL     1     -12.180  10.635  70.584  1.00  0.00    -0.459 C  
ENDBRANCH   5   6
BRANCH   5  10
HETATM   10  N   UNL     1     -10.313  13.433  68.711  1.00  0.00    -0.379 N  
HETATM   11  C   UNL     1      -9.086  13.631  68.125  1.00  0.00    -0.195 C  
HETATM   12  H   UNL     1     -10.853  14.237  69.031  1.00  0.00     0.000 HD 
HETATM   13  O   UNL     1      -8.377  12.722  67.706  1.00  0.00    -0.151 OA 
BRANCH  11  14
HETATM   14  C   UNL     1      -8.650  15.075  68.075  1.00  0.00    -0.158 C  
BRANCH  14  15
HETATM   15  C   UNL     1      -9.017  15.691  66.726  1.00  0.00    -0.291 C  
BRANCH  15  16
HETATM   16  C   UNL     1      -7.921  16.602  66.171  1.00  0.00    -0.237 C  
BRANCH  16  17
HETATM   17  C   UNL     1      -6.688  16.639  67.071  1.00  0.00    -0.242 C  
BRANCH  17  18
HETATM   18  C   UNL     1      -6.464  18.020  67.679  1.00  0.00    -0.187 C  
BRANCH  18  19
HETATM   19  C   UNL     1      -7.255  18.153  68.980  1.00  0.00    -0.226 C  
BRANCH  19  20
HETATM   20  C   UNL     1      -8.272  19.288  68.896  1.00  0.00    -0.344 C  
BRANCH  20  21
HETATM   21  C   UNL     1      -9.699  18.738  68.869  1.00  0.00    -0.393 C  
BRANCH  21  22
HETATM   22  C   UNL     1     -10.475  19.320  67.725  1.00  0.00    -0.539 C  
HETATM   23  C   UNL     1      -9.939  19.626  66.537  1.00  0.00    -0.545 C  
ENDBRANCH  21  22
ENDBRANCH  20  21
ENDBRANCH  19  20
ENDBRANCH  18  19
ENDBRANCH  17  18
ENDBRANCH  16  17
ENDBRANCH  15  16
ENDBRANCH  14  15
ENDBRANCH  11  14
ENDBRANCH   5  10
ENDBRANCH   3   5
ENDBRANCH   2   3
TORSDOF 13
ENDMDL
MODEL      100
REMARK 921   NORMALIZED FREE ENERGY PREDICTED BY IDOCK:   -3.78 KCAL/MOL
REMARK 922        TOTAL FREE ENERGY PREDICTED BY IDOCK:   -8.77 KCAL/MOL
REMARK 923 INTER-LIGAND FREE ENERGY PREDICTED BY IDOCK:   -7.50 KCAL/MOL
REMARK 924 INTRA-LIGAND FREE ENERGY PREDICTED BY IDOCK:   -1.27 KCAL/MOL
REMARK 927      BINDING AFFINITY PREDICTED BY RF-SCORE:    0.00 PKD
ROOT
HETATM    1  C   UNL     1      -9.417   7.811  66.876  1.00  0.00    -0.187 C  
HETATM    2  O   UNL     1     -10.670   7.617  67.529  1.00  0.00    -0.253 OA 
ENDROOT
BRANCH   2   3
HETATM    3  C   UNL     1     -10.690   6.638  68.478  1.00  0.00    -0.256 C  
HETATM    4  O   UNL     1     -10.617   5.435  68.260  1.00  0.00    -0.160 OA 
BRANCH   3   5
HETATM    5  C   UNL     1     -10.791   7.269  69.870  1.00  0.00    -0.247 C  
BRANCH   5   6
HETATM    6  C   UNL     1     -11.496   6.341  70.868  1.00  0.00    -0.377 C  
HETATM    7  C   UNL     1     -10.417   7.352  72.951  1.00  0.00    -0.344 C  
HETATM    8  C   UNL     1     -11.530   5.116  73.064  1.00  0.00    -0.349 C  
HETATM    9  C   UNL     1     -10.727   6.071  72.175  1.00  0.00    -0.270 C  
ENDBRANCH   5   6
BRANCH   5  10
HETATM   10  N   UNL     1     -11.521   8.533  69.767  1.00  0.00    -0.432 N  
HETATM   11  C   UNL     1     -10.905   9.730  70.043  1.00  0.00    -0.278 C  
HETATM   12  H   UNL     1     -12.502   8.525  69.486  1.00  0.00     0.000 HD 
HETATM   13  O   UNL     1      -9.730   9.830  70.379  1.00  0.00    -0.255 OA 
BRANCH  11  14
HETATM   14  C   UNL     1     -11.813  10.931  69.942  1.00  0.00    -0.427 C  
BRANCH  14  15
HETATM   15  C   UNL     1     -11.792  11.491  68.521  1.00  0.00    -0.365 C  
BRANCH  15  16
HETATM   16  C   UNL     1     -11.605  13.009  68.483  1.00  0.00    -0.363 C  
BRANCH  16  17
HETATM   17  C   UNL     1     -12.083  13.618  67.167  1.00  0.00    -0.404 C  
BRANCH  17  18
HETATM   18  C   UNL     1     -11.269  14.846  66.774  1.00  0.00    -0.338 C  
BRANCH  18  19
HETATM   19  C   UNL     1     -10.085  14.431  65.902  1.00  0.00    -0.344 C  
BRANCH  19  20
HETATM   20  C   UNL     1     -10.554  13.865  64.564  1.00  0.00    -0.375 C  
BRANCH  20  21
HETATM   21  C   UNL     1     -10.165  12.392  64.431  1.00  0.00    -0.342 C  
BRANCH  21  22
HETATM   22  C   UNL     1     -11.252  11.610  63.756  1.00  0.00    -0.498 C  
HETATM   23  C   UNL     1     -12.531  12.004  63.699  1.00  0.00    -0.637 C  
ENDBRANCH  21  22
ENDBRANCH  20  21
ENDBRANCH  19  20
ENDBRANCH  18  19
ENDBRANCH  17  18
ENDBRANCH  16  17
ENDBRANCH  15  16
ENDBRANCH  14  15
ENDBRANCH  11  14
ENDBRANCH   5  10
ENDBRANCH   3   5
ENDBRANCH   2   3
TORSDOF 13
ENDMDL
MODEL      101
REMARK 921   NORMALIZED FREE ENERGY PREDICTED BY IDOCK:   -3.76 KCAL/MOL
REMARK 922        TOTAL FREE ENERGY PREDICTED BY IDOCK:   -8.73 KCAL/MOL
REMARK 923 INTER-LIGAND FREE ENERGY PREDICTED BY IDOCK:   -7.15 KCAL/MOL
REMARK 924 INTRA-LIGAND FREE ENERGY PREDICTED BY IDOCK:   -1.58 KCAL/MOL
REMARK 927      BINDING AFFINITY PREDICTED BY RF-SCORE:    0.00 PKD
ROOT
HETATM    1  C   UNL     1     -14.385   8.182  71.764  1.00  0.00    -0.484 C  
HETATM    2  O   UNL     1     -13.682   9.219  72.446  1.00  0.00    -0.465 OA 
ENDROOT
BRANCH   2   3
HETATM    3  C   UNL     1     -12.882   9.996  71.663  1.00  0.00    -0.440 C  
HETATM    4  O   UNL     1     -12.993  11.207  71.513  1.00  0.00    -0.429 OA 
BRANCH   3   5
HETATM    5  C   UNL     1     -11.797   9.132  71.011  1.00  0.00    -0.292 C  
BRANCH   5   6
HETATM    6  C   UNL     1     -10.594   8.928  71.941  1.00  0.00    -0.419 C  
HETATM    7  C   UNL     1     -10.763   6.380  72.006  1.00  0.00    -0.261 C  
HETATM    8  C   UNL     1      -9.405   7.600  73.714  1.00  0.00    -0.324 C  
HETATM    9  C   UNL     1     -10.650   7.667  72.824  1.00  0.00    -0.381 C  
ENDBRANCH   5   6
BRANCH   5  10
HETATM   10  N   UNL     1     -11.361   9.774  69.770  1.00  0.00    -0.383 N  
HETATM   11  C   UNL     1     -10.868   9.030  68.725  1.00  0.00    -0.030 C  
HETATM   12  H   UNL     1     -11.425  10.788  69.680  1.00  0.00     0.000 HD 
HETATM   13  O   UNL     1     -10.765   7.808  68.747  1.00  0.00    -0.170 OA 
BRANCH  11  14
HETATM   14  C   UNL     1     -10.413   9.850  67.543  1.00  0.00    -0.310 C  
BRANCH  14  15
HETATM   15  C   UNL     1     -10.600  11.339  67.830  1.00  0.00    -0.239 C  
BRANCH  15  16
HETATM   16  C   UNL     1     -11.062  12.127  66.603  1.00  0.00    -0.353 C  
BRANCH  16  17
HETATM   17  C   UNL     1     -10.093  13.249  66.238  1.00  0.00    -0.294 C  
BRANCH  17  18
HETATM   18  C   UNL     1     -10.766  14.343  65.415  1.00  0.00    -0.359 C  
BRANCH  18  19
HETATM   19  C   UNL     1     -10.886  15.621  66.243  1.00  0.00    -0.262 C  
BRANCH  19  20
HETATM   20  C   UNL     1      -9.818  15.679  67.332  1.00  0.00    -0.225 C  
BRANCH  20  21
HETATM   21  C   UNL     1     -10.400  16.225  68.637  1.00  0.00    -0.263 C  
BRANCH  21  22
HETATM   22  C   UNL     1     -11.705  15.561  68.960  1.00  0.00    -0.392 C  
HETATM   23  C   UNL     1     -11.813  14.433  69.674  1.00  0.00    -0.372 C  
ENDBRANCH  21  22
ENDBRANCH  20  21
ENDBRANCH  19  20
ENDBRANCH  18  19
ENDBRANCH  17  18
ENDBRANCH  16  17
ENDBRANCH  15  16
ENDBRANCH  14  15
ENDBRANCH  11  14
ENDBRANCH   5  10
ENDBRANCH   3   5
ENDBRANCH   2   3
TORSDOF 13
ENDMDL
MODEL      102
REMARK 921   NORMALIZED FREE ENERGY PREDICTED BY IDOCK:   -3.76 KCAL/MOL
REMARK 922        TOTAL FREE ENERGY PREDICTED BY IDOCK:   -8.73 KCAL/MOL
REMARK 923 INTER-LIGAND FREE ENERGY PREDICTED BY IDOCK:   -7.09 KCAL/MOL
REMARK 924 INTRA-LIGAND FREE ENERGY PREDICTED BY IDOCK:   -1.64 KCAL/MOL
REMARK 927      BINDING AFFINITY PREDICTED BY RF-SCORE:    0.00 PKD
ROOT
HETATM    1  C   UNL     1      -8.441  18.407  68.203  1.00  0.00    -0.285 C  
HETATM    2  O   UNL     1      -9.563  17.743  68.782  1.00  0.00    -0.311 OA 
ENDROOT
BRANCH   2   3
HETATM    3  C   UNL     1     -10.264  16.933  67.939  1.00  0.00    -0.308 C  
HETATM    4  O   UNL     1     -10.557  17.197  66.779  1.00  0.00    -0.286 OA 
BRANCH   3   5
HETATM    5  C   UNL     1     -10.611  15.622  68.650  1.00  0.00    -0.243 C  
BRANCH   5   6
HETATM    6  C   UNL     1     -10.613  15.782  70.176  1.00  0.00    -0.334 C  
HETATM    7  C   UNL     1     -12.773  14.474  70.559  1.00  0.00    -0.404 C  
HETATM    8  C   UNL     1     -11.860  15.957  72.353  1.00  0.00    -0.618 C  
HETATM    9  C   UNL     1     -12.003  15.765  70.840  1.00  0.00    -0.453 C  
ENDBRANCH   5   6
BRANCH   5  10
HETATM   10  N   UNL     1      -9.641  14.598  68.260  1.00  0.00    -0.202 N  
HETATM   11  C   UNL     1      -9.939  13.676  67.286  1.00  0.00    -0.240 C  
HETATM   12  H   UNL     1      -8.729  14.570  68.718  1.00  0.00     0.000 HD 
HETATM   13  O   UNL     1     -11.004  13.644  66.681  1.00  0.00    -0.289 OA 
BRANCH  11  14
HETATM   14  C   UNL     1      -8.850  12.659  67.044  1.00  0.00    -0.212 C  
BRANCH  14  15
HETATM   15  C   UNL     1      -9.444  11.253  66.984  1.00  0.00    -0.186 C  
BRANCH  15  16
HETATM   16  C   UNL     1      -9.647  10.633  68.368  1.00  0.00    -0.170 C  
BRANCH  16  17
HETATM   17  C   UNL     1     -11.085  10.171  68.590  1.00  0.00    -0.254 C  
BRANCH  17  18
HETATM   18  C   UNL     1     -11.931  11.240  69.273  1.00  0.00    -0.411 C  
BRANCH  18  19
HETATM   19  C   UNL     1     -11.966  10.996  70.780  1.00  0.00    -0.436 C  
BRANCH  19  20
HETATM   20  C   UNL     1     -12.417   9.573  71.102  1.00  0.00    -0.399 C  
BRANCH  20  21
HETATM   21  C   UNL     1     -11.441   8.897  72.065  1.00  0.00    -0.431 C  
BRANCH  21  22
HETATM   22  C   UNL     1     -10.704   7.782  71.386  1.00  0.00    -0.250 C  
HETATM   23  C   UNL     1     -11.288   6.875  70.591  1.00  0.00    -0.366 C  
ENDBRANCH  21  22
ENDBRANCH  20  21
ENDBRANCH  19  20
ENDBRANCH  18  19
ENDBRANCH  17  18
ENDBRANCH  16  17
ENDBRANCH  15  16
ENDBRANCH  14  15
ENDBRANCH  11  14
ENDBRANCH   5  10
ENDBRANCH   3   5
ENDBRANCH   2   3
TORSDOF 13
ENDMDL
MODEL      103
REMARK 921   NORMALIZED FREE ENERGY PREDICTED BY IDOCK:   -3.76 KCAL/MOL
REMARK 922        TOTAL FREE ENERGY PREDICTED BY IDOCK:   -8.73 KCAL/MOL
REMARK 923 INTER-LIGAND FREE ENERGY PREDICTED BY IDOCK:   -7.16 KCAL/MOL
REMARK 924 INTRA-LIGAND FREE ENERGY PREDICTED BY IDOCK:   -1.56 KCAL/MOL
REMARK 927      BINDING AFFINITY PREDICTED BY RF-SCORE:    0.00 PKD
ROOT
HETATM    1  C   UNL     1     -12.859  13.792  71.524  1.00  0.00    -0.362 C  
HETATM    2  O   UNL     1     -11.925  14.081  70.486  1.00  0.00    -0.313 OA 
ENDROOT
BRANCH   2   3
HETATM    3  C   UNL     1     -11.459  15.362  70.458  1.00  0.00    -0.327 C  
HETATM    4  O   UNL     1     -11.700  16.225  71.294  1.00  0.00    -0.435 OA 
BRANCH   3   5
HETATM    5  C   UNL     1     -10.561  15.561  69.233  1.00  0.00    -0.236 C  
BRANCH   5   6
HETATM    6  C   UNL     1     -10.920  16.839  68.463  1.00  0.00    -0.312 C  
HETATM    7  C   UNL     1      -8.511  17.643  68.186  1.00  0.00    -0.260 C  
HETATM    8  C   UNL     1     -10.418  19.220  67.829  1.00  0.00    -0.539 C  
HETATM    9  C   UNL     1      -9.929  18.008  68.627  1.00  0.00    -0.396 C  
ENDBRANCH   5   6
BRANCH   5  10
HETATM   10  N   UNL     1     -10.694  14.399  68.354  1.00  0.00    -0.239 N  
HETATM   11  C   UNL     1      -9.588  13.700  67.933  1.00  0.00    -0.223 C  
HETATM   12  H   UNL     1     -11.622  14.103  68.049  1.00  0.00     0.000 HD 
HETATM   13  O   UNL     1      -8.440  13.983  68.258  1.00  0.00    -0.158 OA 
BRANCH  11  14
HETATM   14  C   UNL     1      -9.896  12.565  66.988  1.00  0.00    -0.217 C  
BRANCH  14  15
HETATM   15  C   UNL     1     -11.304  12.032  67.244  1.00  0.00    -0.394 C  
BRANCH  15  16
HETATM   16  C   UNL     1     -11.311  10.732  68.051  1.00  0.00    -0.378 C  
BRANCH  16  17
HETATM   17  C   UNL     1     -12.123  10.855  69.338  1.00  0.00    -0.362 C  
BRANCH  17  18
HETATM   18  C   UNL     1     -11.357  10.335  70.550  1.00  0.00    -0.422 C  
BRANCH  18  19
HETATM   19  C   UNL     1     -10.046   9.690  70.103  1.00  0.00    -0.311 C  
BRANCH  19  20
HETATM   20  C   UNL     1      -9.908   8.274  70.657  1.00  0.00    -0.203 C  
BRANCH  20  21
HETATM   21  C   UNL     1     -10.569   7.258  69.725  1.00  0.00    -0.247 C  
BRANCH  21  22
HETATM   22  C   UNL     1     -11.673   6.527  70.427  1.00  0.00    -0.439 C  
HETATM   23  C   UNL     1     -11.927   6.635  71.738  1.00  0.00    -0.391 C  
ENDBRANCH  21  22
ENDBRANCH  20  21
ENDBRANCH  19  20
ENDBRANCH  18  19
ENDBRANCH  17  18
ENDBRANCH  16  17
ENDBRANCH  15  16
ENDBRANCH  14  15
ENDBRANCH  11  14
ENDBRANCH   5  10
ENDBRANCH   3   5
ENDBRANCH   2   3
TORSDOF 13
ENDMDL
MODEL      104
REMARK 921   NORMALIZED FREE ENERGY PREDICTED BY IDOCK:   -3.75 KCAL/MOL
REMARK 922        TOTAL FREE ENERGY PREDICTED BY IDOCK:   -8.71 KCAL/MOL
REMARK 923 INTER-LIGAND FREE ENERGY PREDICTED BY IDOCK:   -7.03 KCAL/MOL
REMARK 924 INTRA-LIGAND FREE ENERGY PREDICTED BY IDOCK:   -1.68 KCAL/MOL
REMARK 927      BINDING AFFINITY PREDICTED BY RF-SCORE:    0.00 PKD
ROOT
HETATM    1  C   UNL     1      -6.748   9.721  70.360  1.00  0.00    -0.123 C  
HETATM    2  O   UNL     1      -8.100   9.622  69.918  1.00  0.00    -0.134 OA 
ENDROOT
BRANCH   2   3
HETATM    3  C   UNL     1      -8.991   9.185  70.853  1.00  0.00    -0.237 C  
HETATM    4  O   UNL     1      -8.704   8.778  71.973  1.00  0.00    -0.319 OA 
BRANCH   3   5
HETATM    5  C   UNL     1     -10.416   9.300  70.305  1.00  0.00    -0.228 C  
BRANCH   5   6
HETATM    6  C   UNL     1     -10.634   8.399  69.082  1.00  0.00    -0.177 C  
HETATM    7  C   UNL     1     -11.610   6.437  70.393  1.00  0.00    -0.440 C  
HETATM    8  C   UNL     1     -10.784   6.108  68.056  1.00  0.00    -0.370 C  
HETATM    9  C   UNL     1     -10.575   6.885  69.360  1.00  0.00    -0.254 C  
ENDBRANCH   5   6
BRANCH   5  10
HETATM   10  N   UNL     1     -10.675  10.695  69.945  1.00  0.00    -0.415 N  
HETATM   11  C   UNL     1     -11.916  11.255  70.130  1.00  0.00    -0.369 C  
HETATM   12  H   UNL     1      -9.922  11.260  69.551  1.00  0.00     0.000 HD 
HETATM   13  O   UNL     1     -12.872  10.651  70.603  1.00  0.00    -0.355 OA 
BRANCH  11  14
HETATM   14  C   UNL     1     -12.027  12.683  69.656  1.00  0.00    -0.352 C  
BRANCH  14  15
HETATM   15  C   UNL     1     -11.098  12.919  68.466  1.00  0.00    -0.299 C  
BRANCH  15  16
HETATM   16  C   UNL     1     -11.829  13.478  67.244  1.00  0.00    -0.427 C  
BRANCH  16  17
HETATM   17  C   UNL     1     -10.968  14.462  66.456  1.00  0.00    -0.316 C  
BRANCH  17  18
HETATM   18  C   UNL     1     -11.195  14.347  64.952  1.00  0.00    -0.392 C  
BRANCH  18  19
HETATM   19  C   UNL     1     -11.770  12.973  64.614  1.00  0.00    -0.408 C  
BRANCH  19  20
HETATM   20  C   UNL     1     -11.050  12.348  63.423  1.00  0.00    -0.465 C  
BRANCH  20  21
HETATM   21  C   UNL     1     -10.245  11.122  63.855  1.00  0.00    -0.420 C  
BRANCH  21  22
HETATM   22  C   UNL     1     -10.456  10.829  65.311  1.00  0.00    -0.282 C  
HETATM   23  C   UNL     1      -9.542  10.243  66.095  1.00  0.00    -0.248 C  
ENDBRANCH  21  22
ENDBRANCH  20  21
ENDBRANCH  19  20
ENDBRANCH  18  19
ENDBRANCH  17  18
ENDBRANCH  16  17
ENDBRANCH  15  16
ENDBRANCH  14  15
ENDBRANCH  11  14
ENDBRANCH   5  10
ENDBRANCH   3   5
ENDBRANCH   2   3
TORSDOF 13
ENDMDL
MODEL      105
REMARK 921   NORMALIZED FREE ENERGY PREDICTED BY IDOCK:   -3.75 KCAL/MOL
REMARK 922        TOTAL FREE ENERGY PREDICTED BY IDOCK:   -8.70 KCAL/MOL
REMARK 923 INTER-LIGAND FREE ENERGY PREDICTED BY IDOCK:   -7.50 KCAL/MOL
REMARK 924 INTRA-LIGAND FREE ENERGY PREDICTED BY IDOCK:   -1.20 KCAL/MOL
REMARK 927      BINDING AFFINITY PREDICTED BY RF-SCORE:    0.00 PKD
ROOT
HETATM    1  C   UNL     1     -12.527  11.927  63.764  1.00  0.00    -0.427 C  
HETATM    2  O   UNL     1     -12.891  12.598  64.969  1.00  0.00    -0.765 OA 
ENDROOT
BRANCH   2   3
HETATM    3  C   UNL     1     -12.532  13.911  65.039  1.00  0.00    -0.419 C  
HETATM    4  O   UNL     1     -12.727  14.749  64.167  1.00  0.00    -0.758 OA 
BRANCH   3   5
HETATM    5  C   UNL     1     -11.869  14.196  66.390  1.00  0.00    -0.423 C  
BRANCH   5   6
HETATM    6  C   UNL     1     -10.435  14.718  66.224  1.00  0.00    -0.300 C  
HETATM    7  C   UNL     1     -10.715  16.710  67.798  1.00  0.00    -0.327 C  
HETATM    8  C   UNL     1      -8.793  16.622  66.201  1.00  0.00    -0.323 C  
HETATM    9  C   UNL     1     -10.260  16.236  66.417  1.00  0.00    -0.322 C  
ENDBRANCH   5   6
BRANCH   5  10
HETATM   10  N   UNL     1     -11.859  12.966  67.183  1.00  0.00    -0.373 N  
HETATM   11  C   UNL     1     -12.069  12.998  68.541  1.00  0.00    -0.149 C  
HETATM   12  H   UNL     1     -11.695  12.071  66.721  1.00  0.00     0.000 HD 
HETATM   13  O   UNL     1     -12.282  14.027  69.173  1.00  0.00    -0.346 OA 
BRANCH  11  14
HETATM   14  C   UNL     1     -11.973  11.651  69.214  1.00  0.00    -0.382 C  
BRANCH  14  15
HETATM   15  C   UNL     1     -11.533  10.589  68.209  1.00  0.00    -0.272 C  
BRANCH  15  16
HETATM   16  C   UNL     1     -10.333   9.773  68.693  1.00  0.00    -0.224 C  
BRANCH  16  17
HETATM   17  C   UNL     1     -10.447   8.297  68.317  1.00  0.00    -0.211 C  
BRANCH  17  18
HETATM   18  C   UNL     1     -10.230   8.068  66.825  1.00  0.00    -0.367 C  
BRANCH  18  19
HETATM   19  C   UNL     1      -9.088   8.949  66.321  1.00  0.00    -0.236 C  
BRANCH  19  20
HETATM   20  C   UNL     1      -9.506   9.748  65.089  1.00  0.00    -0.338 C  
BRANCH  20  21
HETATM   21  C   UNL     1      -8.315   9.974  64.158  1.00  0.00    -0.167 C  
BRANCH  21  22
HETATM   22  C   UNL     1      -8.614   9.478  62.775  1.00  0.00    -0.215 C  
HETATM   23  C   UNL     1      -8.292   8.255  62.333  1.00  0.00    -0.160 C  
ENDBRANCH  21  22
ENDBRANCH  20  21
ENDBRANCH  19  20
ENDBRANCH  18  19
ENDBRANCH  17  18
ENDBRANCH  16  17
ENDBRANCH  15  16
ENDBRANCH  14  15
ENDBRANCH  11  14
ENDBRANCH   5  10
ENDBRANCH   3   5
ENDBRANCH   2   3
TORSDOF 13
ENDMDL
MODEL      106
REMARK 921   NORMALIZED FREE ENERGY PREDICTED BY IDOCK:   -3.74 KCAL/MOL
REMARK 922        TOTAL FREE ENERGY PREDICTED BY IDOCK:   -8.70 KCAL/MOL
REMARK 923 INTER-LIGAND FREE ENERGY PREDICTED BY IDOCK:   -7.67 KCAL/MOL
REMARK 924 INTRA-LIGAND FREE ENERGY PREDICTED BY IDOCK:   -1.03 KCAL/MOL
REMARK 927      BINDING AFFINITY PREDICTED BY RF-SCORE:    0.00 PKD
ROOT
HETATM    1  C   UNL     1      -8.464   8.081  73.192  1.00  0.00    -0.208 C  
HETATM    2  O   UNL     1      -9.841   8.399  73.005  1.00  0.00    -0.242 OA 
ENDROOT
BRANCH   2   3
HETATM    3  C   UNL     1     -10.702   7.345  73.084  1.00  0.00    -0.387 C  
HETATM    4  O   UNL     1     -10.654   6.449  73.918  1.00  0.00    -0.295 OA 
BRANCH   3   5
HETATM    5  C   UNL     1     -11.762   7.458  71.984  1.00  0.00    -0.289 C  
BRANCH   5   6
HETATM    6  C   UNL     1     -11.511   6.463  70.843  1.00  0.00    -0.406 C  
HETATM    7  C   UNL     1      -9.728   7.872  69.676  1.00  0.00    -0.173 C  
HETATM    8  C   UNL     1     -10.844   5.990  68.465  1.00  0.00    -0.363 C  
HETATM    9  C   UNL     1     -11.031   7.087  69.518  1.00  0.00    -0.251 C  
ENDBRANCH   5   6
BRANCH   5  10
HETATM   10  N   UNL     1     -11.759   8.824  71.460  1.00  0.00    -0.288 N  
HETATM   11  C   UNL     1     -12.846   9.649  71.628  1.00  0.00    -0.405 C  
HETATM   12  H   UNL     1     -10.938   9.170  70.963  1.00  0.00     0.000 HD 
HETATM   13  O   UNL     1     -13.868   9.317  72.219  1.00  0.00    -0.453 OA 
BRANCH  11  14
HETATM   14  C   UNL     1     -12.700  11.004  70.981  1.00  0.00    -0.485 C  
BRANCH  14  15
HETATM   15  C   UNL     1     -11.451  11.038  70.102  1.00  0.00    -0.383 C  
BRANCH  15  16
HETATM   16  C   UNL     1     -11.742  11.497  68.672  1.00  0.00    -0.389 C  
BRANCH  16  17
HETATM   17  C   UNL     1     -11.149  10.552  67.630  1.00  0.00    -0.375 C  
BRANCH  17  18
HETATM   18  C   UNL     1     -10.201  11.271  66.677  1.00  0.00    -0.268 C  
BRANCH  18  19
HETATM   19  C   UNL     1     -10.478  10.839  65.238  1.00  0.00    -0.282 C  
BRANCH  19  20
HETATM   20  C   UNL     1     -10.799  12.038  64.350  1.00  0.00    -0.378 C  
BRANCH  20  21
HETATM   21  C   UNL     1     -12.264  12.448  64.496  1.00  0.00    -0.509 C  
BRANCH  21  22
HETATM   22  C   UNL     1     -12.382  13.900  64.847  1.00  0.00    -0.445 C  
HETATM   23  C   UNL     1     -11.357  14.761  64.823  1.00  0.00    -0.399 C  
ENDBRANCH  21  22
ENDBRANCH  20  21
ENDBRANCH  19  20
ENDBRANCH  18  19
ENDBRANCH  17  18
ENDBRANCH  16  17
ENDBRANCH  15  16
ENDBRANCH  14  15
ENDBRANCH  11  14
ENDBRANCH   5  10
ENDBRANCH   3   5
ENDBRANCH   2   3
TORSDOF 13
ENDMDL
MODEL      107
REMARK 921   NORMALIZED FREE ENERGY PREDICTED BY IDOCK:   -3.74 KCAL/MOL
REMARK 922        TOTAL FREE ENERGY PREDICTED BY IDOCK:   -8.69 KCAL/MOL
REMARK 923 INTER-LIGAND FREE ENERGY PREDICTED BY IDOCK:   -6.96 KCAL/MOL
REMARK 924 INTRA-LIGAND FREE ENERGY PREDICTED BY IDOCK:   -1.73 KCAL/MOL
REMARK 927      BINDING AFFINITY PREDICTED BY RF-SCORE:    0.00 PKD
ROOT
HETATM    1  C   UNL     1     -10.940   7.717  72.973  1.00  0.00    -0.400 C  
HETATM    2  O   UNL     1     -11.479   8.589  71.981  1.00  0.00    -0.312 OA 
ENDROOT
BRANCH   2   3
HETATM    3  C   UNL     1     -11.152   8.284  70.694  1.00  0.00    -0.253 C  
HETATM    4  O   UNL     1     -11.457   7.252  70.107  1.00  0.00    -0.248 OA 
BRANCH   3   5
HETATM    5  C   UNL     1     -10.362   9.440  70.072  1.00  0.00    -0.233 C  
BRANCH   5   6
HETATM    6  C   UNL     1      -8.871   9.371  70.429  1.00  0.00    -0.290 C  
HETATM    7  C   UNL     1      -8.132  11.141  68.742  1.00  0.00    -0.140 C  
HETATM    8  C   UNL     1      -6.455   9.598  69.771  1.00  0.00    -0.049 C  
HETATM    9  C   UNL     1      -7.903   9.731  69.286  1.00  0.00    -0.105 C  
ENDBRANCH   5   6
BRANCH   5  10
HETATM   10  N   UNL     1     -10.926  10.706  70.541  1.00  0.00    -0.425 N  
HETATM   11  C   UNL     1     -11.865  11.381  69.797  1.00  0.00    -0.364 C  
HETATM   12  H   UNL     1     -10.618  11.094  71.434  1.00  0.00     0.000 HD 
HETATM   13  O   UNL     1     -12.295  10.983  68.721  1.00  0.00    -0.533 OA 
BRANCH  11  14
HETATM   14  C   UNL     1     -12.301  12.695  70.398  1.00  0.00    -0.315 C  
BRANCH  14  15
HETATM   15  C   UNL     1     -12.179  13.814  69.365  1.00  0.00    -0.325 C  
BRANCH  15  16
HETATM   16  C   UNL     1     -10.733  14.077  68.942  1.00  0.00    -0.265 C  
BRANCH  16  17
HETATM   17  C   UNL     1     -10.536  13.931  67.435  1.00  0.00    -0.263 C  
BRANCH  17  18
HETATM   18  C   UNL     1     -11.863  13.891  66.684  1.00  0.00    -0.447 C  
BRANCH  18  19
HETATM   19  C   UNL     1     -11.880  12.711  65.714  1.00  0.00    -0.497 C  
BRANCH  19  20
HETATM   20  C   UNL     1     -10.510  12.497  65.076  1.00  0.00    -0.323 C  
BRANCH  20  21
HETATM   21  C   UNL     1     -10.550  11.343  64.075  1.00  0.00    -0.444 C  
BRANCH  21  22
HETATM   22  C   UNL     1      -9.739  10.181  64.564  1.00  0.00    -0.361 C  
HETATM   23  C   UNL     1      -9.909   9.601  65.759  1.00  0.00    -0.373 C  
ENDBRANCH  21  22
ENDBRANCH  20  21
ENDBRANCH  19  20
ENDBRANCH  18  19
ENDBRANCH  17  18
ENDBRANCH  16  17
ENDBRANCH  15  16
ENDBRANCH  14  15
ENDBRANCH  11  14
ENDBRANCH   5  10
ENDBRANCH   3   5
ENDBRANCH   2   3
TORSDOF 13
ENDMDL
MODEL      108
REMARK 921   NORMALIZED FREE ENERGY PREDICTED BY IDOCK:   -3.73 KCAL/MOL
REMARK 922        TOTAL FREE ENERGY PREDICTED BY IDOCK:   -8.68 KCAL/MOL
REMARK 923 INTER-LIGAND FREE ENERGY PREDICTED BY IDOCK:   -7.99 KCAL/MOL
REMARK 924 INTRA-LIGAND FREE ENERGY PREDICTED BY IDOCK:   -0.69 KCAL/MOL
REMARK 927      BINDING AFFINITY PREDICTED BY RF-SCORE:    0.00 PKD
ROOT
HETATM    1  C   UNL     1     -12.059  12.895  67.933  1.00  0.00    -0.157 C  
HETATM    2  O   UNL     1     -12.368  14.037  67.136  1.00  0.00    -0.373 OA 
ENDROOT
BRANCH   2   3
HETATM    3  C   UNL     1     -12.418  13.817  65.792  1.00  0.00    -0.485 C  
HETATM    4  O   UNL     1     -13.408  13.456  65.167  1.00  0.00    -0.611 OA 
BRANCH   3   5
HETATM    5  C   UNL     1     -11.051  14.114  65.167  1.00  0.00    -0.348 C  
BRANCH   5   6
HETATM    6  C   UNL     1     -10.087  12.929  65.312  1.00  0.00    -0.254 C  
HETATM    7  C   UNL     1     -10.983  11.634  63.301  1.00  0.00    -0.361 C  
HETATM    8  C   UNL     1      -9.566  10.488  65.012  1.00  0.00    -0.331 C  
HETATM    9  C   UNL     1     -10.614  11.581  64.784  1.00  0.00    -0.362 C  
ENDBRANCH   5   6
BRANCH   5  10
HETATM   10  N   UNL     1     -10.482  15.298  65.810  1.00  0.00    -0.324 N  
HETATM   11  C   UNL     1     -10.718  16.557  65.311  1.00  0.00    -0.254 C  
HETATM   12  H   UNL     1      -9.901  15.188  66.643  1.00  0.00     0.000 HD 
HETATM   13  O   UNL     1     -11.408  16.779  64.323  1.00  0.00    -1.170 OA 
BRANCH  11  14
HETATM   14  C   UNL     1     -10.012  17.661  66.060  1.00  0.00    -0.220 C  
BRANCH  14  15
HETATM   15  C   UNL     1     -10.763  18.980  65.887  1.00  0.00    -0.404 C  
BRANCH  15  16
HETATM   16  C   UNL     1      -9.895  20.203  66.192  1.00  0.00    -0.515 C  
BRANCH  16  17
HETATM   17  C   UNL     1      -8.809  19.899  67.221  1.00  0.00    -0.410 C  
BRANCH  17  18
HETATM   18  C   UNL     1      -7.422  20.290  66.723  1.00  0.00    -0.333 C  
BRANCH  18  19
HETATM   19  C   UNL     1      -6.425  19.171  67.021  1.00  0.00    -0.197 C  
BRANCH  19  20
HETATM   20  C   UNL     1      -5.483  19.556  68.159  1.00  0.00    -0.202 C  
BRANCH  20  21
HETATM   21  C   UNL     1      -6.017  19.053  69.501  1.00  0.00    -0.279 C  
BRANCH  21  22
HETATM   22  C   UNL     1      -5.716  20.031  70.597  1.00  0.00    -0.336 C  
HETATM   23  C   UNL     1      -6.232  19.953  71.830  1.00  0.00    -0.063 C  
ENDBRANCH  21  22
ENDBRANCH  20  21
ENDBRANCH  19  20
ENDBRANCH  18  19
ENDBRANCH  17  18
ENDBRANCH  16  17
ENDBRANCH  15  16
ENDBRANCH  14  15
ENDBRANCH  11  14
ENDBRANCH   5  10
ENDBRANCH   3   5
ENDBRANCH   2   3
TORSDOF 13
ENDMDL
MODEL      109
REMARK 921   NORMALIZED FREE ENERGY PREDICTED BY IDOCK:   -3.73 KCAL/MOL
REMARK 922        TOTAL FREE ENERGY PREDICTED BY IDOCK:   -8.68 KCAL/MOL
REMARK 923 INTER-LIGAND FREE ENERGY PREDICTED BY IDOCK:   -6.81 KCAL/MOL
REMARK 924 INTRA-LIGAND FREE ENERGY PREDICTED BY IDOCK:   -1.86 KCAL/MOL
REMARK 927      BINDING AFFINITY PREDICTED BY RF-SCORE:    0.00 PKD
ROOT
HETATM    1  C   UNL     1     -10.701   5.740  68.081  1.00  0.00    -0.209 C  
HETATM    2  O   UNL     1     -10.819   7.104  67.682  1.00  0.00    -0.237 OA 
ENDROOT
BRANCH   2   3
HETATM    3  C   UNL     1      -9.848   7.553  66.838  1.00  0.00    -0.226 C  
HETATM    4  O   UNL     1      -9.095   6.845  66.179  1.00  0.00    -0.159 OA 
BRANCH   3   5
HETATM    5  C   UNL     1      -9.851   9.085  66.812  1.00  0.00    -0.234 C  
BRANCH   5   6
HETATM    6  C   UNL     1     -10.846   9.671  67.822  1.00  0.00    -0.278 C  
HETATM    7  C   UNL     1      -9.421  11.705  68.419  1.00  0.00    -0.193 C  
HETATM    8  C   UNL     1     -11.319  11.016  69.893  1.00  0.00    -0.364 C  
HETATM    9  C   UNL     1     -10.221  10.515  68.949  1.00  0.00    -0.223 C  
ENDBRANCH   5   6
BRANCH   5  10
HETATM   10  N   UNL     1     -10.190   9.536  65.462  1.00  0.00    -0.253 N  
HETATM   11  C   UNL     1      -9.323  10.321  64.740  1.00  0.00    -0.260 C  
HETATM   12  H   UNL     1     -11.083   9.264  65.051  1.00  0.00     0.000 HD 
HETATM   13  O   UNL     1      -8.228  10.685  65.154  1.00  0.00    -0.159 OA 
BRANCH  11  14
HETATM   14  C   UNL     1      -9.849  10.743  63.390  1.00  0.00    -0.400 C  
BRANCH  14  15
HETATM   15  C   UNL     1     -10.562  12.089  63.499  1.00  0.00    -0.514 C  
BRANCH  15  16
HETATM   16  C   UNL     1     -12.086  11.956  63.499  1.00  0.00    -0.575 C  
BRANCH  16  17
HETATM   17  C   UNL     1     -12.736  12.749  64.631  1.00  0.00    -0.439 C  
BRANCH  17  18
HETATM   18  C   UNL     1     -11.975  12.601  65.945  1.00  0.00    -0.497 C  
BRANCH  18  19
HETATM   19  C   UNL     1     -12.091  13.886  66.764  1.00  0.00    -0.476 C  
BRANCH  19  20
HETATM   20  C   UNL     1     -10.857  14.767  66.591  1.00  0.00    -0.319 C  
BRANCH  20  21
HETATM   21  C   UNL     1     -10.772  15.811  67.706  1.00  0.00    -0.307 C  
BRANCH  21  22
HETATM   22  C   UNL     1      -9.478  16.564  67.637  1.00  0.00    -0.225 C  
HETATM   23  C   UNL     1      -8.417  16.165  66.924  1.00  0.00    -0.264 C  
ENDBRANCH  21  22
ENDBRANCH  20  21
ENDBRANCH  19  20
ENDBRANCH  18  19
ENDBRANCH  17  18
ENDBRANCH  16  17
ENDBRANCH  15  16
ENDBRANCH  14  15
ENDBRANCH  11  14
ENDBRANCH   5  10
ENDBRANCH   3   5
ENDBRANCH   2   3
TORSDOF 13
ENDMDL
MODEL      110
REMARK 921   NORMALIZED FREE ENERGY PREDICTED BY IDOCK:   -3.73 KCAL/MOL
REMARK 922        TOTAL FREE ENERGY PREDICTED BY IDOCK:   -8.66 KCAL/MOL
REMARK 923 INTER-LIGAND FREE ENERGY PREDICTED BY IDOCK:   -8.06 KCAL/MOL
REMARK 924 INTRA-LIGAND FREE ENERGY PREDICTED BY IDOCK:   -0.60 KCAL/MOL
REMARK 927      BINDING AFFINITY PREDICTED BY RF-SCORE:    0.00 PKD
ROOT
HETATM    1  C   UNL     1      -7.760  11.375  66.710  1.00  0.00    -0.150 C  
HETATM    2  O   UNL     1      -8.901  12.086  66.235  1.00  0.00    -0.171 OA 
ENDROOT
BRANCH   2   3
HETATM    3  C   UNL     1      -9.892  11.316  65.704  1.00  0.00    -0.234 C  
HETATM    4  O   UNL     1      -9.748  10.482  64.818  1.00  0.00    -0.251 OA 
BRANCH   3   5
HETATM    5  C   UNL     1     -11.220  11.627  66.402  1.00  0.00    -0.287 C  
BRANCH   5   6
HETATM    6  C   UNL     1     -11.731  13.032  66.058  1.00  0.00    -0.442 C  
HETATM    7  C   UNL     1     -12.406  12.469  63.660  1.00  0.00    -0.618 C  
HETATM    8  C   UNL     1     -12.152  14.852  64.375  1.00  0.00    -0.417 C  
HETATM    9  C   UNL     1     -11.634  13.424  64.571  1.00  0.00    -0.405 C  
ENDBRANCH   5   6
BRANCH   5  10
HETATM   10  N   UNL     1     -11.036  11.506  67.849  1.00  0.00    -0.237 N  
HETATM   11  C   UNL     1     -10.869  10.277  68.441  1.00  0.00    -0.245 C  
HETATM   12  H   UNL     1     -11.032  12.347  68.426  1.00  0.00     0.000 HD 
HETATM   13  O   UNL     1     -10.853   9.219  67.821  1.00  0.00    -0.237 OA 
BRANCH  11  14
HETATM   14  C   UNL     1     -10.747  10.326  69.944  1.00  0.00    -0.344 C  
BRANCH  14  15
HETATM   15  C   UNL     1     -11.698   9.317  70.584  1.00  0.00    -0.276 C  
BRANCH  15  16
HETATM   16  C   UNL     1     -13.101   9.883  70.811  1.00  0.00    -0.256 C  
BRANCH  16  17
HETATM   17  C   UNL     1     -13.147  10.863  71.981  1.00  0.00    -0.462 C  
BRANCH  17  18
HETATM   18  C   UNL     1     -13.011  12.311  71.522  1.00  0.00    -0.390 C  
BRANCH  18  19
HETATM   19  C   UNL     1     -13.887  13.218  72.386  1.00  0.00    -0.630 C  
BRANCH  19  20
HETATM   20  C   UNL     1     -13.224  14.573  72.616  1.00  0.00    -0.571 C  
BRANCH  20  21
HETATM   21  C   UNL     1     -13.540  15.535  71.469  1.00  0.00    -0.571 C  
BRANCH  21  22
HETATM   22  C   UNL     1     -12.486  15.464  70.406  1.00  0.00    -0.447 C  
HETATM   23  C   UNL     1     -11.302  16.086  70.484  1.00  0.00    -0.420 C  
ENDBRANCH  21  22
ENDBRANCH  20  21
ENDBRANCH  19  20
ENDBRANCH  18  19
ENDBRANCH  17  18
ENDBRANCH  16  17
ENDBRANCH  15  16
ENDBRANCH  14  15
ENDBRANCH  11  14
ENDBRANCH   5  10
ENDBRANCH   3   5
ENDBRANCH   2   3
TORSDOF 13
ENDMDL
MODEL      111
REMARK 921   NORMALIZED FREE ENERGY PREDICTED BY IDOCK:   -3.72 KCAL/MOL
REMARK 922        TOTAL FREE ENERGY PREDICTED BY IDOCK:   -8.66 KCAL/MOL
REMARK 923 INTER-LIGAND FREE ENERGY PREDICTED BY IDOCK:   -6.98 KCAL/MOL
REMARK 924 INTRA-LIGAND FREE ENERGY PREDICTED BY IDOCK:   -1.68 KCAL/MOL
REMARK 927      BINDING AFFINITY PREDICTED BY RF-SCORE:    0.00 PKD
ROOT
HETATM    1  C   UNL     1     -14.200   8.458  71.677  1.00  0.00    -0.440 C  
HETATM    2  O   UNL     1     -13.199   9.230  72.338  1.00  0.00    -0.431 OA 
ENDROOT
BRANCH   2   3
HETATM    3  C   UNL     1     -12.816  10.368  71.692  1.00  0.00    -0.474 C  
HETATM    4  O   UNL     1     -13.217  11.498  71.943  1.00  0.00    -0.485 OA 
BRANCH   3   5
HETATM    5  C   UNL     1     -11.783  10.028  70.613  1.00  0.00    -0.337 C  
BRANCH   5   6
HETATM    6  C   UNL     1     -10.653   9.146  71.161  1.00  0.00    -0.379 C  
HETATM    7  C   UNL     1     -10.059   8.083  68.916  1.00  0.00    -0.209 C  
HETATM    8  C   UNL     1      -9.271   7.049  71.051  1.00  0.00    -0.155 C  
HETATM    9  C   UNL     1     -10.402   7.839  70.386  1.00  0.00    -0.212 C  
ENDBRANCH   5   6
BRANCH   5  10
HETATM   10  N   UNL     1     -11.226  11.272  70.080  1.00  0.00    -0.490 N  
HETATM   11  C   UNL     1     -11.427  11.632  68.769  1.00  0.00    -0.285 C  
HETATM   12  H   UNL     1     -10.682  11.881  70.691  1.00  0.00     0.000 HD 
HETATM   13  O   UNL     1     -12.074  10.964  67.970  1.00  0.00    -0.563 OA 
BRANCH  11  14
HETATM   14  C   UNL     1     -10.740  12.915  68.368  1.00  0.00    -0.273 C  
BRANCH  14  15
HETATM   15  C   UNL     1      -9.541  12.614  67.471  1.00  0.00    -0.184 C  
BRANCH  15  16
HETATM   16  C   UNL     1      -8.202  12.792  68.190  1.00  0.00    -0.167 C  
BRANCH  16  17
HETATM   17  C   UNL     1      -7.485  14.071  67.767  1.00  0.00    -0.169 C  
BRANCH  17  18
HETATM   18  C   UNL     1      -7.877  15.262  68.636  1.00  0.00    -0.142 C  
BRANCH  18  19
HETATM   19  C   UNL     1      -7.797  16.552  67.822  1.00  0.00    -0.164 C  
BRANCH  19  20
HETATM   20  C   UNL     1      -8.294  16.339  66.394  1.00  0.00    -0.365 C  
BRANCH  20  21
HETATM   21  C   UNL     1      -9.739  16.817  66.243  1.00  0.00    -0.318 C  
BRANCH  21  22
HETATM   22  C   UNL     1     -10.631  15.694  65.806  1.00  0.00    -0.374 C  
HETATM   23  C   UNL     1     -10.297  14.793  64.873  1.00  0.00    -0.365 C  
ENDBRANCH  21  22
ENDBRANCH  20  21
ENDBRANCH  19  20
ENDBRANCH  18  19
ENDBRANCH  17  18
ENDBRANCH  16  17
ENDBRANCH  15  16
ENDBRANCH  14  15
ENDBRANCH  11  14
ENDBRANCH   5  10
ENDBRANCH   3   5
ENDBRANCH   2   3
TORSDOF 13
ENDMDL
MODEL      112
REMARK 921   NORMALIZED FREE ENERGY PREDICTED BY IDOCK:   -3.72 KCAL/MOL
REMARK 922        TOTAL FREE ENERGY PREDICTED BY IDOCK:   -8.65 KCAL/MOL
REMARK 923 INTER-LIGAND FREE ENERGY PREDICTED BY IDOCK:   -7.64 KCAL/MOL
REMARK 924 INTRA-LIGAND FREE ENERGY PREDICTED BY IDOCK:   -1.01 KCAL/MOL
REMARK 927      BINDING AFFINITY PREDICTED BY RF-SCORE:    0.00 PKD
ROOT
HETATM    1  C   UNL     1      -9.290  15.260  67.905  1.00  0.00    -0.189 C  
HETATM    2  O   UNL     1     -10.118  14.489  68.773  1.00  0.00    -0.233 OA 
ENDROOT
BRANCH   2   3
HETATM    3  C   UNL     1     -11.444  14.473  68.457  1.00  0.00    -0.301 C  
HETATM    4  O   UNL     1     -11.927  14.851  67.397  1.00  0.00    -0.309 OA 
BRANCH   3   5
HETATM    5  C   UNL     1     -12.248  13.886  69.621  1.00  0.00    -0.321 C  
BRANCH   5   6
HETATM    6  C   UNL     1     -12.436  14.901  70.757  1.00  0.00    -0.401 C  
HETATM    7  C   UNL     1     -13.996  13.431  72.146  1.00  0.00    -0.531 C  
HETATM    8  C   UNL     1     -13.840  15.886  72.596  1.00  0.00    -0.496 C  
HETATM    9  C   UNL     1     -13.776  14.805  71.512  1.00  0.00    -0.511 C  
ENDBRANCH   5   6
BRANCH   5  10
HETATM   10  N   UNL     1     -11.554  12.701  70.127  1.00  0.00    -0.543 N  
HETATM   11  C   UNL     1     -11.642  11.496  69.471  1.00  0.00    -0.333 C  
HETATM   12  H   UNL     1     -10.996  12.770  70.978  1.00  0.00     0.000 HD 
HETATM   13  O   UNL     1     -12.282  11.327  68.439  1.00  0.00    -0.604 OA 
BRANCH  11  14
HETATM   14  C   UNL     1     -10.913  10.365  70.154  1.00  0.00    -0.365 C  
BRANCH  14  15
HETATM   15  C   UNL     1     -11.741   9.831  71.321  1.00  0.00    -0.472 C  
BRANCH  15  16
HETATM   16  C   UNL     1     -11.438   8.366  71.644  1.00  0.00    -0.349 C  
BRANCH  16  17
HETATM   17  C   UNL     1      -9.965   8.141  71.975  1.00  0.00    -0.299 C  
BRANCH  17  18
HETATM   18  C   UNL     1      -9.265   7.285  70.924  1.00  0.00    -0.155 C  
BRANCH  18  19
HETATM   19  C   UNL     1     -10.207   6.188  70.431  1.00  0.00    -0.256 C  
BRANCH  19  20
HETATM   20  C   UNL     1      -9.497   4.839  70.357  1.00  0.00    -0.241 C  
BRANCH  20  21
HETATM   21  C   UNL     1      -9.431   4.182  71.736  1.00  0.00    -0.210 C  
BRANCH  21  22
HETATM   22  C   UNL     1     -10.712   4.384  72.488  1.00  0.00    -0.164 C  
HETATM   23  C   UNL     1     -10.775   4.780  73.765  1.00  0.00    -0.359 C  
ENDBRANCH  21  22
ENDBRANCH  20  21
ENDBRANCH  19  20
ENDBRANCH  18  19
ENDBRANCH  17  18
ENDBRANCH  16  17
ENDBRANCH  15  16
ENDBRANCH  14  15
ENDBRANCH  11  14
ENDBRANCH   5  10
ENDBRANCH   3   5
ENDBRANCH   2   3
TORSDOF 13
ENDMDL
MODEL      113
REMARK 921   NORMALIZED FREE ENERGY PREDICTED BY IDOCK:   -3.70 KCAL/MOL
REMARK 922        TOTAL FREE ENERGY PREDICTED BY IDOCK:   -8.63 KCAL/MOL
REMARK 923 INTER-LIGAND FREE ENERGY PREDICTED BY IDOCK:   -7.26 KCAL/MOL
REMARK 924 INTRA-LIGAND FREE ENERGY PREDICTED BY IDOCK:   -1.37 KCAL/MOL
REMARK 927      BINDING AFFINITY PREDICTED BY RF-SCORE:    0.00 PKD
ROOT
HETATM    1  C   UNL     1      -6.685  12.214  68.825  1.00  0.00    -0.088 C  
HETATM    2  O   UNL     1      -7.727  13.143  68.533  1.00  0.00    -0.131 OA 
ENDROOT
BRANCH   2   3
HETATM    3  C   UNL     1      -8.518  12.821  67.471  1.00  0.00    -0.181 C  
HETATM    4  O   UNL     1      -8.200  12.086  66.544  1.00  0.00    -0.112 OA 
BRANCH   3   5
HETATM    5  C   UNL     1      -9.885  13.497  67.619  1.00  0.00    -0.228 C  
BRANCH   5   6
HETATM    6  C   UNL     1      -9.772  15.027  67.590  1.00  0.00    -0.215 C  
HETATM    7  C   UNL     1     -10.530  15.284  65.164  1.00  0.00    -0.438 C  
HETATM    8  C   UNL     1      -9.362  17.163  66.328  1.00  0.00    -0.260 C  
HETATM    9  C   UNL     1      -9.471  15.640  66.208  1.00  0.00    -0.351 C  
ENDBRANCH   5   6
BRANCH   5  10
HETATM   10  N   UNL     1     -10.492  13.069  68.880  1.00  0.00    -0.415 N  
HETATM   11  C   UNL     1     -11.533  12.172  68.894  1.00  0.00    -0.297 C  
HETATM   12  H   UNL     1     -10.138  13.442  69.761  1.00  0.00     0.000 HD 
HETATM   13  O   UNL     1     -12.014  11.669  67.885  1.00  0.00    -0.599 OA 
BRANCH  11  14
HETATM   14  C   UNL     1     -12.078  11.880  70.271  1.00  0.00    -0.409 C  
BRANCH  14  15
HETATM   15  C   UNL     1     -12.159  10.372  70.498  1.00  0.00    -0.423 C  
BRANCH  15  16
HETATM   16  C   UNL     1     -12.997   9.999  71.723  1.00  0.00    -0.560 C  
BRANCH  16  17
HETATM   17  C   UNL     1     -12.652   8.612  72.259  1.00  0.00    -0.457 C  
BRANCH  17  18
HETATM   18  C   UNL     1     -11.548   7.942  71.448  1.00  0.00    -0.304 C  
BRANCH  18  19
HETATM   19  C   UNL     1     -12.035   6.596  70.914  1.00  0.00    -0.413 C  
BRANCH  19  20
HETATM   20  C   UNL     1     -11.256   6.179  69.669  1.00  0.00    -0.488 C  
BRANCH  20  21
HETATM   21  C   UNL     1     -10.421   7.343  69.133  1.00  0.00    -0.217 C  
BRANCH  21  22
HETATM   22  C   UNL     1     -10.633   7.520  67.660  1.00  0.00    -0.303 C  
HETATM   23  C   UNL     1     -10.366   8.653  66.997  1.00  0.00    -0.368 C  
ENDBRANCH  21  22
ENDBRANCH  20  21
ENDBRANCH  19  20
ENDBRANCH  18  19
ENDBRANCH  17  18
ENDBRANCH  16  17
ENDBRANCH  15  16
ENDBRANCH  14  15
ENDBRANCH  11  14
ENDBRANCH   5  10
ENDBRANCH   3   5
ENDBRANCH   2   3
TORSDOF 13
ENDMDL
MODEL      114
REMARK 921   NORMALIZED FREE ENERGY PREDICTED BY IDOCK:   -3.70 KCAL/MOL
REMARK 922        TOTAL FREE ENERGY PREDICTED BY IDOCK:   -8.62 KCAL/MOL
REMARK 923 INTER-LIGAND FREE ENERGY PREDICTED BY IDOCK:   -7.35 KCAL/MOL
REMARK 924 INTRA-LIGAND FREE ENERGY PREDICTED BY IDOCK:   -1.28 KCAL/MOL
REMARK 927      BINDING AFFINITY PREDICTED BY RF-SCORE:    0.00 PKD
ROOT
HETATM    1  C   UNL     1      -8.588  16.532  66.243  1.00  0.00    -0.332 C  
HETATM    2  O   UNL     1      -9.313  15.372  65.840  1.00  0.00    -0.328 OA 
ENDROOT
BRANCH   2   3
HETATM    3  C   UNL     1      -9.580  14.475  66.831  1.00  0.00    -0.250 C  
HETATM    4  O   UNL     1      -9.663  14.737  68.025  1.00  0.00    -0.207 OA 
BRANCH   3   5
HETATM    5  C   UNL     1      -9.788  13.082  66.227  1.00  0.00    -0.278 C  
BRANCH   5   6
HETATM    6  C   UNL     1     -11.087  13.001  65.413  1.00  0.00    -0.300 C  
HETATM    7  C   UNL     1     -10.364  11.002  63.996  1.00  0.00    -0.436 C  
HETATM    8  C   UNL     1     -12.301  12.417  63.290  1.00  0.00    -0.497 C  
HETATM    9  C   UNL     1     -10.940  12.419  63.994  1.00  0.00    -0.442 C  
ENDBRANCH   5   6
BRANCH   5  10
HETATM   10  N   UNL     1      -9.817  12.096  67.307  1.00  0.00    -0.195 N  
HETATM   11  C   UNL     1      -8.793  11.195  67.469  1.00  0.00    -0.139 C  
HETATM   12  H   UNL     1     -10.610  12.077  67.949  1.00  0.00     0.000 HD 
HETATM   13  O   UNL     1      -7.801  11.153  66.749  1.00  0.00    -0.140 OA 
BRANCH  11  14
HETATM   14  C   UNL     1      -9.005  10.213  68.596  1.00  0.00    -0.136 C  
BRANCH  14  15
HETATM   15  C   UNL     1     -10.331   9.477  68.412  1.00  0.00    -0.237 C  
BRANCH  15  16
HETATM   16  C   UNL     1     -10.860   8.871  69.713  1.00  0.00    -0.207 C  
BRANCH  16  17
HETATM   17  C   UNL     1     -11.367   9.936  70.683  1.00  0.00    -0.413 C  
BRANCH  17  18
HETATM   18  C   UNL     1     -12.330  10.909  70.012  1.00  0.00    -0.385 C  
BRANCH  18  19
HETATM   19  C   UNL     1     -12.533  12.138  70.898  1.00  0.00    -0.374 C  
BRANCH  19  20
HETATM   20  C   UNL     1     -12.126  13.418  70.174  1.00  0.00    -0.415 C  
BRANCH  20  21
HETATM   21  C   UNL     1     -11.970  14.576  71.160  1.00  0.00    -0.401 C  
BRANCH  21  22
HETATM   22  C   UNL     1     -13.243  15.361  71.270  1.00  0.00    -0.585 C  
HETATM   23  C   UNL     1     -14.272  15.011  72.051  1.00  0.00    -0.649 C  
ENDBRANCH  21  22
ENDBRANCH  20  21
ENDBRANCH  19  20
ENDBRANCH  18  19
ENDBRANCH  17  18
ENDBRANCH  16  17
ENDBRANCH  15  16
ENDBRANCH  14  15
ENDBRANCH  11  14
ENDBRANCH   5  10
ENDBRANCH   3   5
ENDBRANCH   2   3
TORSDOF 13
ENDMDL
MODEL      115
REMARK 921   NORMALIZED FREE ENERGY PREDICTED BY IDOCK:   -3.70 KCAL/MOL
REMARK 922        TOTAL FREE ENERGY PREDICTED BY IDOCK:   -8.61 KCAL/MOL
REMARK 923 INTER-LIGAND FREE ENERGY PREDICTED BY IDOCK:   -7.31 KCAL/MOL
REMARK 924 INTRA-LIGAND FREE ENERGY PREDICTED BY IDOCK:   -1.30 KCAL/MOL
REMARK 927      BINDING AFFINITY PREDICTED BY RF-SCORE:    0.00 PKD
ROOT
HETATM    1  C   UNL     1     -12.481  14.210  65.937  1.00  0.00    -0.453 C  
HETATM    2  O   UNL     1     -12.107  13.830  67.260  1.00  0.00    -0.389 OA 
ENDROOT
BRANCH   2   3
HETATM    3  C   UNL     1     -11.658  12.550  67.396  1.00  0.00    -0.370 C  
HETATM    4  O   UNL     1     -11.864  11.636  66.607  1.00  0.00    -0.533 OA 
BRANCH   3   5
HETATM    5  C   UNL     1     -10.831  12.424  68.679  1.00  0.00    -0.240 C  
BRANCH   5   6
HETATM    6  C   UNL     1     -11.720  12.269  69.920  1.00  0.00    -0.346 C  
HETATM    7  C   UNL     1     -10.968   9.889  70.465  1.00  0.00    -0.391 C  
HETATM    8  C   UNL     1     -13.053  10.820  71.484  1.00  0.00    -0.517 C  
HETATM    9  C   UNL     1     -12.155  10.826  70.243  1.00  0.00    -0.433 C  
ENDBRANCH   5   6
BRANCH   5  10
HETATM   10  N   UNL     1      -9.988  13.613  68.819  1.00  0.00    -0.394 N  
HETATM   11  C   UNL     1      -8.718  13.645  68.295  1.00  0.00    -0.171 C  
HETATM   12  H   UNL     1     -10.350  14.430  69.312  1.00  0.00     0.000 HD 
HETATM   13  O   UNL     1      -8.210  12.712  67.682  1.00  0.00    -0.149 OA 
BRANCH  11  14
HETATM   14  C   UNL     1      -7.966  14.923  68.575  1.00  0.00    -0.140 C  
BRANCH  14  15
HETATM   15  C   UNL     1      -8.945  16.074  68.797  1.00  0.00    -0.226 C  
BRANCH  15  16
HETATM   16  C   UNL     1      -9.453  16.684  67.489  1.00  0.00    -0.229 C  
BRANCH  16  17
HETATM   17  C   UNL     1     -10.767  17.438  67.675  1.00  0.00    -0.310 C  
BRANCH  17  18
HETATM   18  C   UNL     1     -10.668  18.886  67.206  1.00  0.00    -0.523 C  
BRANCH  18  19
HETATM   19  C   UNL     1      -9.236  19.200  66.775  1.00  0.00    -0.356 C  
BRANCH  19  20
HETATM   20  C   UNL     1      -8.486  19.969  67.859  1.00  0.00    -0.301 C  
BRANCH  20  21
HETATM   21  C   UNL     1      -7.110  19.353  68.111  1.00  0.00    -0.310 C  
BRANCH  21  22
HETATM   22  C   UNL     1      -6.874  19.151  69.578  1.00  0.00    -0.243 C  
HETATM   23  C   UNL     1      -5.767  19.546  70.219  1.00  0.00    -0.284 C  
ENDBRANCH  21  22
ENDBRANCH  20  21
ENDBRANCH  19  20
ENDBRANCH  18  19
ENDBRANCH  17  18
ENDBRANCH  16  17
ENDBRANCH  15  16
ENDBRANCH  14  15
ENDBRANCH  11  14
ENDBRANCH   5  10
ENDBRANCH   3   5
ENDBRANCH   2   3
TORSDOF 13
ENDMDL
MODEL      116
REMARK 921   NORMALIZED FREE ENERGY PREDICTED BY IDOCK:   -3.69 KCAL/MOL
REMARK 922        TOTAL FREE ENERGY PREDICTED BY IDOCK:   -8.60 KCAL/MOL
REMARK 923 INTER-LIGAND FREE ENERGY PREDICTED BY IDOCK:   -7.53 KCAL/MOL
REMARK 924 INTRA-LIGAND FREE ENERGY PREDICTED BY IDOCK:   -1.08 KCAL/MOL
REMARK 927      BINDING AFFINITY PREDICTED BY RF-SCORE:    0.00 PKD
ROOT
HETATM    1  C   UNL     1      -9.460   4.430  68.422  1.00  0.00    -0.154 C  
HETATM    2  O   UNL     1     -10.259   4.804  69.543  1.00  0.00    -0.221 OA 
ENDROOT
BRANCH   2   3
HETATM    3  C   UNL     1     -10.908   5.997  69.428  1.00  0.00    -0.363 C  
HETATM    4  O   UNL     1     -11.403   6.440  68.398  1.00  0.00    -0.280 OA 
BRANCH   3   5
HETATM    5  C   UNL     1     -10.953   6.697  70.789  1.00  0.00    -0.270 C  
BRANCH   5   6
HETATM    6  C   UNL     1     -11.278   5.718  71.925  1.00  0.00    -0.289 C  
HETATM    7  C   UNL     1      -9.949   6.966  73.714  1.00  0.00    -0.345 C  
HETATM    8  C   UNL     1     -10.654   4.597  74.088  1.00  0.00    -0.348 C  
HETATM    9  C   UNL     1     -10.215   5.621  73.037  1.00  0.00    -0.213 C  
ENDBRANCH   5   6
BRANCH   5  10
HETATM   10  N   UNL     1     -11.961   7.757  70.745  1.00  0.00    -0.466 N  
HETATM   11  C   UNL     1     -11.630   9.060  71.029  1.00  0.00    -0.300 C  
HETATM   12  H   UNL     1     -12.924   7.525  70.500  1.00  0.00     0.000 HD 
HETATM   13  O   UNL     1     -10.498   9.427  71.324  1.00  0.00    -0.318 OA 
BRANCH  11  14
HETATM   14  C   UNL     1     -12.797  10.017  70.992  1.00  0.00    -0.455 C  
BRANCH  14  15
HETATM   15  C   UNL     1     -12.348  11.377  70.460  1.00  0.00    -0.439 C  
BRANCH  15  16
HETATM   16  C   UNL     1     -12.680  12.526  71.413  1.00  0.00    -0.345 C  
BRANCH  16  17
HETATM   17  C   UNL     1     -12.288  13.885  70.838  1.00  0.00    -0.451 C  
BRANCH  17  18
HETATM   18  C   UNL     1     -12.289  13.884  69.312  1.00  0.00    -0.201 C  
BRANCH  18  19
HETATM   19  C   UNL     1     -11.161  14.771  68.788  1.00  0.00    -0.286 C  
BRANCH  19  20
HETATM   20  C   UNL     1     -10.862  14.478  67.320  1.00  0.00    -0.297 C  
BRANCH  20  21
HETATM   21  C   UNL     1     -11.819  13.421  66.770  1.00  0.00    -0.452 C  
BRANCH  21  22
HETATM   22  C   UNL     1     -12.549  13.934  65.565  1.00  0.00    -0.560 C  
HETATM   23  C   UNL     1     -11.967  14.627  64.578  1.00  0.00    -0.473 C  
ENDBRANCH  21  22
ENDBRANCH  20  21
ENDBRANCH  19  20
ENDBRANCH  18  19
ENDBRANCH  17  18
ENDBRANCH  16  17
ENDBRANCH  15  16
ENDBRANCH  14  15
ENDBRANCH  11  14
ENDBRANCH   5  10
ENDBRANCH   3   5
ENDBRANCH   2   3
TORSDOF 13
ENDMDL
MODEL      117
REMARK 921   NORMALIZED FREE ENERGY PREDICTED BY IDOCK:   -3.69 KCAL/MOL
REMARK 922        TOTAL FREE ENERGY PREDICTED BY IDOCK:   -8.60 KCAL/MOL
REMARK 923 INTER-LIGAND FREE ENERGY PREDICTED BY IDOCK:   -7.39 KCAL/MOL
REMARK 924 INTRA-LIGAND FREE ENERGY PREDICTED BY IDOCK:   -1.21 KCAL/MOL
REMARK 927      BINDING AFFINITY PREDICTED BY RF-SCORE:    0.00 PKD
ROOT
HETATM    1  C   UNL     1     -10.657   5.794  66.701  1.00  0.00    -0.280 C  
HETATM    2  O   UNL     1     -11.078   6.721  67.700  1.00  0.00    -0.274 OA 
ENDROOT
BRANCH   2   3
HETATM    3  C   UNL     1     -10.080   7.259  68.458  1.00  0.00    -0.172 C  
HETATM    4  O   UNL     1      -9.079   7.815  68.024  1.00  0.00    -0.130 OA 
BRANCH   3   5
HETATM    5  C   UNL     1     -10.409   7.088  69.944  1.00  0.00    -0.210 C  
BRANCH   5   6
HETATM    6  C   UNL     1     -10.637   5.616  70.314  1.00  0.00    -0.370 C  
HETATM    7  C   UNL     1      -9.720   5.813  72.690  1.00  0.00    -0.168 C  
HETATM    8  C   UNL     1      -9.995   3.568  71.624  1.00  0.00    -0.190 C  
HETATM    9  C   UNL     1      -9.671   5.043  71.369  1.00  0.00    -0.231 C  
ENDBRANCH   5   6
BRANCH   5  10
HETATM   10  N   UNL     1     -11.605   7.869  70.259  1.00  0.00    -0.472 N  
HETATM   11  C   UNL     1     -11.508   9.099  70.865  1.00  0.00    -0.296 C  
HETATM   12  H   UNL     1     -12.525   7.495  70.026  1.00  0.00     0.000 HD 
HETATM   13  O   UNL     1     -10.444   9.625  71.172  1.00  0.00    -0.307 OA 
BRANCH  11  14
HETATM   14  C   UNL     1     -12.837   9.746  71.169  1.00  0.00    -0.434 C  
BRANCH  14  15
HETATM   15  C   UNL     1     -12.740  11.260  70.995  1.00  0.00    -0.457 C  
BRANCH  15  16
HETATM   16  C   UNL     1     -13.041  12.027  72.284  1.00  0.00    -0.162 C  
BRANCH  16  17
HETATM   17  C   UNL     1     -13.595  13.423  72.010  1.00  0.00    -0.577 C  
BRANCH  17  18
HETATM   18  C   UNL     1     -13.001  14.469  72.947  1.00  0.00    -0.582 C  
BRANCH  18  19
HETATM   19  C   UNL     1     -12.044  15.378  72.178  1.00  0.00    -0.489 C  
BRANCH  19  20
HETATM   20  C   UNL     1     -12.552  15.650  70.765  1.00  0.00    -0.482 C  
BRANCH  20  21
HETATM   21  C   UNL     1     -11.387  15.868  69.799  1.00  0.00    -0.347 C  
BRANCH  21  22
HETATM   22  C   UNL     1     -11.593  15.097  68.530  1.00  0.00    -0.354 C  
HETATM   23  C   UNL     1     -11.935  13.803  68.487  1.00  0.00    -0.402 C  
ENDBRANCH  21  22
ENDBRANCH  20  21
ENDBRANCH  19  20
ENDBRANCH  18  19
ENDBRANCH  17  18
ENDBRANCH  16  17
ENDBRANCH  15  16
ENDBRANCH  14  15
ENDBRANCH  11  14
ENDBRANCH   5  10
ENDBRANCH   3   5
ENDBRANCH   2   3
TORSDOF 13
ENDMDL
MODEL      118
REMARK 921   NORMALIZED FREE ENERGY PREDICTED BY IDOCK:   -3.68 KCAL/MOL
REMARK 922        TOTAL FREE ENERGY PREDICTED BY IDOCK:   -8.58 KCAL/MOL
REMARK 923 INTER-LIGAND FREE ENERGY PREDICTED BY IDOCK:   -7.33 KCAL/MOL
REMARK 924 INTRA-LIGAND FREE ENERGY PREDICTED BY IDOCK:   -1.26 KCAL/MOL
REMARK 927      BINDING AFFINITY PREDICTED BY RF-SCORE:    0.00 PKD
ROOT
HETATM    1  C   UNL     1     -11.591   6.483  70.037  1.00  0.00    -0.390 C  
HETATM    2  O   UNL     1     -11.870   7.207  71.234  1.00  0.00    -0.285 OA 
ENDROOT
BRANCH   2   3
HETATM    3  C   UNL     1     -11.780   8.563  71.132  1.00  0.00    -0.281 C  
HETATM    4  O   UNL     1     -12.513   9.368  71.694  1.00  0.00    -0.330 OA 
BRANCH   3   5
HETATM    5  C   UNL     1     -10.604   8.938  70.224  1.00  0.00    -0.218 C  
BRANCH   5   6
HETATM    6  C   UNL     1      -9.338   9.255  71.031  1.00  0.00    -0.298 C  
HETATM    7  C   UNL     1      -7.951   7.335  70.076  1.00  0.00    -0.117 C  
HETATM    8  C   UNL     1      -7.226   8.499  72.166  1.00  0.00    -0.102 C  
HETATM    9  C   UNL     1      -8.434   8.046  71.340  1.00  0.00    -0.142 C  
ENDBRANCH   5   6
BRANCH   5  10
HETATM   10  N   UNL     1     -10.980  10.099  69.416  1.00  0.00    -0.234 N  
HETATM   11  C   UNL     1     -11.024  10.021  68.044  1.00  0.00    -0.240 C  
HETATM   12  H   UNL     1     -11.213  10.978  69.877  1.00  0.00     0.000 HD 
HETATM   13  O   UNL     1     -10.767   9.003  67.411  1.00  0.00    -0.271 OA 
BRANCH  11  14
HETATM   14  C   UNL     1     -11.376  11.320  67.362  1.00  0.00    -0.349 C  
BRANCH  14  15
HETATM   15  C   UNL     1     -11.748  12.378  68.400  1.00  0.00    -0.386 C  
BRANCH  15  16
HETATM   16  C   UNL     1     -10.830  13.601  68.357  1.00  0.00    -0.274 C  
BRANCH  16  17
HETATM   17  C   UNL     1     -11.085  14.555  69.522  1.00  0.00    -0.285 C  
BRANCH  17  18
HETATM   18  C   UNL     1     -12.368  14.215  70.272  1.00  0.00    -0.421 C  
BRANCH  18  19
HETATM   19  C   UNL     1     -13.053  15.496  70.745  1.00  0.00    -0.446 C  
BRANCH  19  20
HETATM   20  C   UNL     1     -13.766  15.284  72.078  1.00  0.00    -0.596 C  
BRANCH  20  21
HETATM   21  C   UNL     1     -12.898  14.469  73.037  1.00  0.00    -0.550 C  
BRANCH  21  22
HETATM   22  C   UNL     1     -12.322  15.342  74.111  1.00  0.00    -0.762 C  
HETATM   23  C   UNL     1     -12.490  16.669  74.167  1.00  0.00    -0.350 C  
ENDBRANCH  21  22
ENDBRANCH  20  21
ENDBRANCH  19  20
ENDBRANCH  18  19
ENDBRANCH  17  18
ENDBRANCH  16  17
ENDBRANCH  15  16
ENDBRANCH  14  15
ENDBRANCH  11  14
ENDBRANCH   5  10
ENDBRANCH   3   5
ENDBRANCH   2   3
TORSDOF 13
ENDMDL
MODEL      119
REMARK 921   NORMALIZED FREE ENERGY PREDICTED BY IDOCK:   -3.68 KCAL/MOL
REMARK 922        TOTAL FREE ENERGY PREDICTED BY IDOCK:   -8.58 KCAL/MOL
REMARK 923 INTER-LIGAND FREE ENERGY PREDICTED BY IDOCK:   -7.03 KCAL/MOL
REMARK 924 INTRA-LIGAND FREE ENERGY PREDICTED BY IDOCK:   -1.55 KCAL/MOL
REMARK 927      BINDING AFFINITY PREDICTED BY RF-SCORE:    0.00 PKD
ROOT
HETATM    1  C   UNL     1      -9.936   8.671  66.532  1.00  0.00    -0.282 C  
HETATM    2  O   UNL     1      -9.374   9.306  65.386  1.00  0.00    -0.239 OA 
ENDROOT
BRANCH   2   3
HETATM    3  C   UNL     1      -8.585  10.387  65.643  1.00  0.00    -0.167 C  
HETATM    4  O   UNL     1      -7.360  10.379  65.685  1.00  0.00    -0.143 OA 
BRANCH   3   5
HETATM    5  C   UNL     1      -9.457  11.629  65.849  1.00  0.00    -0.228 C  
BRANCH   5   6
HETATM    6  C   UNL     1     -10.270  11.972  64.592  1.00  0.00    -0.313 C  
HETATM    7  C   UNL     1     -12.103  13.253  65.826  1.00  0.00    -0.491 C  
HETATM    8  C   UNL     1     -12.471  12.464  63.482  1.00  0.00    -0.605 C  
HETATM    9  C   UNL     1     -11.784  12.151  64.815  1.00  0.00    -0.390 C  
ENDBRANCH   5   6
BRANCH   5  10
HETATM   10  N   UNL     1      -8.598  12.759  66.206  1.00  0.00    -0.380 N  
HETATM   11  C   UNL     1      -8.677  13.342  67.449  1.00  0.00    -0.206 C  
HETATM   12  H   UNL     1      -7.931  13.119  65.524  1.00  0.00     0.000 HD 
HETATM   13  O   UNL     1      -9.444  12.967  68.329  1.00  0.00    -0.217 OA 
BRANCH  11  14
HETATM   14  C   UNL     1      -7.762  14.527  67.634  1.00  0.00    -0.194 C  
BRANCH  14  15
HETATM   15  C   UNL     1      -8.554  15.829  67.518  1.00  0.00    -0.180 C  
BRANCH  15  16
HETATM   16  C   UNL     1      -9.028  16.110  66.091  1.00  0.00    -0.372 C  
BRANCH  16  17
HETATM   17  C   UNL     1     -10.330  16.907  66.062  1.00  0.00    -0.335 C  
BRANCH  17  18
HETATM   18  C   UNL     1     -10.655  17.524  67.418  1.00  0.00    -0.311 C  
BRANCH  18  19
HETATM   19  C   UNL     1     -10.509  19.043  67.351  1.00  0.00    -0.539 C  
BRANCH  19  20
HETATM   20  C   UNL     1      -9.368  19.531  68.239  1.00  0.00    -0.420 C  
BRANCH  20  21
HETATM   21  C   UNL     1      -8.142  19.893  67.400  1.00  0.00    -0.348 C  
BRANCH  21  22
HETATM   22  C   UNL     1      -6.921  20.018  68.262  1.00  0.00    -0.330 C  
HETATM   23  C   UNL     1      -6.606  19.161  69.241  1.00  0.00    -0.341 C  
ENDBRANCH  21  22
ENDBRANCH  20  21
ENDBRANCH  19  20
ENDBRANCH  18  19
ENDBRANCH  17  18
ENDBRANCH  16  17
ENDBRANCH  15  16
ENDBRANCH  14  15
ENDBRANCH  11  14
ENDBRANCH   5  10
ENDBRANCH   3   5
ENDBRANCH   2   3
TORSDOF 13
ENDMDL
MODEL      120
REMARK 921   NORMALIZED FREE ENERGY PREDICTED BY IDOCK:   -3.68 KCAL/MOL
REMARK 922        TOTAL FREE ENERGY PREDICTED BY IDOCK:   -8.58 KCAL/MOL
REMARK 923 INTER-LIGAND FREE ENERGY PREDICTED BY IDOCK:   -7.30 KCAL/MOL
REMARK 924 INTRA-LIGAND FREE ENERGY PREDICTED BY IDOCK:   -1.28 KCAL/MOL
REMARK 927      BINDING AFFINITY PREDICTED BY RF-SCORE:    0.00 PKD
ROOT
HETATM    1  C   UNL     1     -12.899  15.602  71.281  1.00  0.00    -0.487 C  
HETATM    2  O   UNL     1     -11.848  14.886  70.635  1.00  0.00    -0.267 OA 
ENDROOT
BRANCH   2   3
HETATM    3  C   UNL     1     -11.740  15.089  69.292  1.00  0.00    -0.323 C  
HETATM    4  O   UNL     1     -11.731  16.182  68.737  1.00  0.00    -0.364 OA 
BRANCH   3   5
HETATM    5  C   UNL     1     -11.604  13.744  68.573  1.00  0.00    -0.338 C  
BRANCH   5   6
HETATM    6  C   UNL     1     -12.192  13.791  67.156  1.00  0.00    -0.352 C  
HETATM    7  C   UNL     1     -10.121  12.843  65.999  1.00  0.00    -0.290 C  
HETATM    8  C   UNL     1     -11.885  14.016  64.671  1.00  0.00    -0.433 C  
HETATM    9  C   UNL     1     -11.164  13.961  66.021  1.00  0.00    -0.300 C  
ENDBRANCH   5   6
BRANCH   5  10
HETATM   10  N   UNL     1     -12.286  12.715  69.358  1.00  0.00    -0.143 N  
HETATM   11  C   UNL     1     -11.686  11.504  69.610  1.00  0.00    -0.351 C  
HETATM   12  H   UNL     1     -13.220  12.899  69.725  1.00  0.00     0.000 HD 
HETATM   13  O   UNL     1     -10.565  11.204  69.215  1.00  0.00    -0.217 OA 
BRANCH  11  14
HETATM   14  C   UNL     1     -12.546  10.537  70.387  1.00  0.00    -0.364 C  
BRANCH  14  15
HETATM   15  C   UNL     1     -11.729   9.876  71.495  1.00  0.00    -0.414 C  
BRANCH  15  16
HETATM   16  C   UNL     1     -12.308   8.530  71.937  1.00  0.00    -0.407 C  
BRANCH  16  17
HETATM   17  C   UNL     1     -11.270   7.659  72.642  1.00  0.00    -0.419 C  
BRANCH  17  18
HETATM   18  C   UNL     1     -11.007   6.359  71.888  1.00  0.00    -0.295 C  
BRANCH  18  19
HETATM   19  C   UNL     1     -11.471   6.492  70.439  1.00  0.00    -0.465 C  
BRANCH  19  20
HETATM   20  C   UNL     1     -10.308   6.838  69.513  1.00  0.00    -0.225 C  
BRANCH  20  21
HETATM   21  C   UNL     1     -10.770   7.749  68.375  1.00  0.00    -0.088 C  
BRANCH  21  22
HETATM   22  C   UNL     1     -10.411   7.163  67.042  1.00  0.00    -0.392 C  
HETATM   23  C   UNL     1     -10.611   5.882  66.710  1.00  0.00    -0.368 C  
ENDBRANCH  21  22
ENDBRANCH  20  21
ENDBRANCH  19  20
ENDBRANCH  18  19
ENDBRANCH  17  18
ENDBRANCH  16  17
ENDBRANCH  15  16
ENDBRANCH  14  15
ENDBRANCH  11  14
ENDBRANCH   5  10
ENDBRANCH   3   5
ENDBRANCH   2   3
TORSDOF 13
ENDMDL
MODEL      121
REMARK 921   NORMALIZED FREE ENERGY PREDICTED BY IDOCK:   -3.68 KCAL/MOL
REMARK 922        TOTAL FREE ENERGY PREDICTED BY IDOCK:   -8.58 KCAL/MOL
REMARK 923 INTER-LIGAND FREE ENERGY PREDICTED BY IDOCK:   -7.56 KCAL/MOL
REMARK 924 INTRA-LIGAND FREE ENERGY PREDICTED BY IDOCK:   -1.01 KCAL/MOL
REMARK 927      BINDING AFFINITY PREDICTED BY RF-SCORE:    0.00 PKD
ROOT
HETATM    1  C   UNL     1      -7.365   9.786  69.852  1.00  0.00    -0.134 C  
HETATM    2  O   UNL     1      -8.704   9.855  69.365  1.00  0.00    -0.151 OA 
ENDROOT
BRANCH   2   3
HETATM    3  C   UNL     1      -9.645   9.260  70.152  1.00  0.00    -0.220 C  
HETATM    4  O   UNL     1      -9.487   8.226  70.789  1.00  0.00    -0.155 OA 
BRANCH   3   5
HETATM    5  C   UNL     1     -10.930  10.093  70.144  1.00  0.00    -0.316 C  
BRANCH   5   6
HETATM    6  C   UNL     1     -12.145   9.275  70.601  1.00  0.00    -0.154 C  
HETATM    7  C   UNL     1     -13.278  11.193  71.850  1.00  0.00    -0.488 C  
HETATM    8  C   UNL     1     -13.977   8.828  72.264  1.00  0.00    -0.511 C  
HETATM    9  C   UNL     1     -12.798   9.743  71.916  1.00  0.00    -0.520 C  
ENDBRANCH   5   6
BRANCH   5  10
HETATM   10  N   UNL     1     -11.157  10.604  68.792  1.00  0.00    -0.246 N  
HETATM   11  C   UNL     1     -11.356  11.945  68.566  1.00  0.00    -0.276 C  
HETATM   12  H   UNL     1     -11.166   9.955  68.004  1.00  0.00     0.000 HD 
HETATM   13  O   UNL     1     -11.352  12.793  69.451  1.00  0.00    -0.250 OA 
BRANCH  11  14
HETATM   14  C   UNL     1     -11.630  12.295  67.123  1.00  0.00    -0.423 C  
BRANCH  14  15
HETATM   15  C   UNL     1     -11.927  13.787  66.989  1.00  0.00    -0.452 C  
BRANCH  15  16
HETATM   16  C   UNL     1     -12.240  14.204  65.551  1.00  0.00    -0.443 C  
BRANCH  16  17
HETATM   17  C   UNL     1     -11.089  14.977  64.910  1.00  0.00    -0.425 C  
BRANCH  17  18
HETATM   18  C   UNL     1     -10.185  15.627  65.952  1.00  0.00    -0.372 C  
BRANCH  18  19
HETATM   19  C   UNL     1     -10.488  17.122  66.046  1.00  0.00    -0.271 C  
BRANCH  19  20
HETATM   20  C   UNL     1     -10.496  17.596  67.496  1.00  0.00    -0.365 C  
BRANCH  20  21
HETATM   21  C   UNL     1     -10.583  19.121  67.571  1.00  0.00    -0.567 C  
BRANCH  21  22
HETATM   22  C   UNL     1      -9.230  19.724  67.801  1.00  0.00    -0.427 C  
HETATM   23  C   UNL     1      -8.284  19.168  68.569  1.00  0.00    -0.399 C  
ENDBRANCH  21  22
ENDBRANCH  20  21
ENDBRANCH  19  20
ENDBRANCH  18  19
ENDBRANCH  17  18
ENDBRANCH  16  17
ENDBRANCH  15  16
ENDBRANCH  14  15
ENDBRANCH  11  14
ENDBRANCH   5  10
ENDBRANCH   3   5
ENDBRANCH   2   3
TORSDOF 13
ENDMDL
MODEL      122
REMARK 921   NORMALIZED FREE ENERGY PREDICTED BY IDOCK:   -3.66 KCAL/MOL
REMARK 922        TOTAL FREE ENERGY PREDICTED BY IDOCK:   -8.54 KCAL/MOL
REMARK 923 INTER-LIGAND FREE ENERGY PREDICTED BY IDOCK:   -8.06 KCAL/MOL
REMARK 924 INTRA-LIGAND FREE ENERGY PREDICTED BY IDOCK:   -0.48 KCAL/MOL
REMARK 927      BINDING AFFINITY PREDICTED BY RF-SCORE:    0.00 PKD
ROOT
HETATM    1  C   UNL     1      -9.903  16.325  66.119  1.00  0.00    -0.334 C  
HETATM    2  O   UNL     1     -11.026  16.547  66.970  1.00  0.00    -0.177 OA 
ENDROOT
BRANCH   2   3
HETATM    3  C   UNL     1     -10.765  16.498  68.307  1.00  0.00    -0.345 C  
HETATM    4  O   UNL     1      -9.814  17.032  68.867  1.00  0.00    -0.263 OA 
BRANCH   3   5
HETATM    5  C   UNL     1     -11.857  15.693  69.019  1.00  0.00    -0.364 C  
BRANCH   5   6
HETATM    6  C   UNL     1     -11.441  15.301  70.443  1.00  0.00    -0.330 C  
HETATM    7  C   UNL     1     -13.816  15.212  71.378  1.00  0.00    -0.587 C  
HETATM    8  C   UNL     1     -11.853  15.322  72.923  1.00  0.00    -0.510 C  
HETATM    9  C   UNL     1     -12.399  15.758  71.560  1.00  0.00    -0.514 C  
ENDBRANCH   5   6
BRANCH   5  10
HETATM   10  N   UNL     1     -12.146  14.491  68.238  1.00  0.00    -0.571 N  
HETATM   11  C   UNL     1     -11.198  13.508  68.076  1.00  0.00    -0.271 C  
HETATM   12  H   UNL     1     -13.064  14.380  67.807  1.00  0.00     0.000 HD 
HETATM   13  O   UNL     1     -10.075  13.557  68.565  1.00  0.00    -0.234 OA 
BRANCH  11  14
HETATM   14  C   UNL     1     -11.640  12.362  67.198  1.00  0.00    -0.435 C  
BRANCH  14  15
HETATM   15  C   UNL     1     -11.548  11.044  67.964  1.00  0.00    -0.326 C  
BRANCH  15  16
HETATM   16  C   UNL     1     -10.224  10.313  67.733  1.00  0.00    -0.225 C  
BRANCH  16  17
HETATM   17  C   UNL     1     -10.147   9.682  66.345  1.00  0.00    -0.317 C  
BRANCH  17  18
HETATM   18  C   UNL     1      -9.133  10.387  65.450  1.00  0.00    -0.221 C  
BRANCH  18  19
HETATM   19  C   UNL     1      -9.275   9.895  64.010  1.00  0.00    -0.302 C  
BRANCH  19  20
HETATM   20  C   UNL     1      -9.744  11.015  63.085  1.00  0.00    -0.398 C  
BRANCH  20  21
HETATM   21  C   UNL     1     -10.261  12.207  63.892  1.00  0.00    -0.426 C  
BRANCH  21  22
HETATM   22  C   UNL     1     -11.746  12.348  63.747  1.00  0.00    -0.566 C  
HETATM   23  C   UNL     1     -12.367  13.510  63.504  1.00  0.00    -0.343 C  
ENDBRANCH  21  22
ENDBRANCH  20  21
ENDBRANCH  19  20
ENDBRANCH  18  19
ENDBRANCH  17  18
ENDBRANCH  16  17
ENDBRANCH  15  16
ENDBRANCH  14  15
ENDBRANCH  11  14
ENDBRANCH   5  10
ENDBRANCH   3   5
ENDBRANCH   2   3
TORSDOF 13
ENDMDL
MODEL      123
REMARK 921   NORMALIZED FREE ENERGY PREDICTED BY IDOCK:   -3.65 KCAL/MOL
REMARK 922        TOTAL FREE ENERGY PREDICTED BY IDOCK:   -8.54 KCAL/MOL
REMARK 923 INTER-LIGAND FREE ENERGY PREDICTED BY IDOCK:   -7.41 KCAL/MOL
REMARK 924 INTRA-LIGAND FREE ENERGY PREDICTED BY IDOCK:   -1.13 KCAL/MOL
REMARK 927      BINDING AFFINITY PREDICTED BY RF-SCORE:    0.00 PKD
ROOT
HETATM    1  C   UNL     1      -7.482   8.520  71.777  1.00  0.00    -0.099 C  
HETATM    2  O   UNL     1      -8.803   8.960  72.086  1.00  0.00    -0.381 OA 
ENDROOT
BRANCH   2   3
HETATM    3  C   UNL     1      -9.497   8.166  72.950  1.00  0.00    -0.275 C  
HETATM    4  O   UNL     1      -9.111   7.815  74.059  1.00  0.00    -0.263 OA 
BRANCH   3   5
HETATM    5  C   UNL     1     -10.852   7.796  72.340  1.00  0.00    -0.303 C  
BRANCH   5   6
HETATM    6  C   UNL     1     -10.758   6.547  71.453  1.00  0.00    -0.280 C  
HETATM    7  C   UNL     1     -11.030   4.870  73.360  1.00  0.00    -0.394 C  
HETATM    8  C   UNL     1     -10.139   4.130  71.144  1.00  0.00    -0.145 C  
HETATM    9  C   UNL     1     -10.201   5.288  72.145  1.00  0.00    -0.252 C  
ENDBRANCH   5   6
BRANCH   5  10
HETATM   10  N   UNL     1     -11.343   8.927  71.552  1.00  0.00    -0.298 N  
HETATM   11  C   UNL     1     -12.577   9.480  71.800  1.00  0.00    -0.405 C  
HETATM   12  H   UNL     1     -10.761   9.312  70.808  1.00  0.00     0.000 HD 
HETATM   13  O   UNL     1     -13.335   9.086  72.679  1.00  0.00    -0.458 OA 
BRANCH  11  14
HETATM   14  C   UNL     1     -12.952  10.602  70.863  1.00  0.00    -0.429 C  
BRANCH  14  15
HETATM   15  C   UNL     1     -11.717  11.101  70.116  1.00  0.00    -0.439 C  
BRANCH  15  16
HETATM   16  C   UNL     1     -12.012  11.477  68.663  1.00  0.00    -0.312 C  
BRANCH  16  17
HETATM   17  C   UNL     1     -11.334  12.782  68.253  1.00  0.00    -0.335 C  
BRANCH  17  18
HETATM   18  C   UNL     1     -10.257  12.561  67.196  1.00  0.00    -0.225 C  
BRANCH  18  19
HETATM   19  C   UNL     1     -10.420  11.179  66.564  1.00  0.00    -0.305 C  
BRANCH  19  20
HETATM   20  C   UNL     1     -10.393  11.259  65.040  1.00  0.00    -0.359 C  
BRANCH  20  21
HETATM   21  C   UNL     1     -10.647  12.691  64.566  1.00  0.00    -0.369 C  
BRANCH  21  22
HETATM   22  C   UNL     1     -11.656  12.716  63.457  1.00  0.00    -0.584 C  
HETATM   23  C   UNL     1     -12.665  11.843  63.345  1.00  0.00    -0.496 C  
ENDBRANCH  21  22
ENDBRANCH  20  21
ENDBRANCH  19  20
ENDBRANCH  18  19
ENDBRANCH  17  18
ENDBRANCH  16  17
ENDBRANCH  15  16
ENDBRANCH  14  15
ENDBRANCH  11  14
ENDBRANCH   5  10
ENDBRANCH   3   5
ENDBRANCH   2   3
TORSDOF 13
ENDMDL
MODEL      124
REMARK 921   NORMALIZED FREE ENERGY PREDICTED BY IDOCK:   -3.64 KCAL/MOL
REMARK 922        TOTAL FREE ENERGY PREDICTED BY IDOCK:   -8.52 KCAL/MOL
REMARK 923 INTER-LIGAND FREE ENERGY PREDICTED BY IDOCK:   -7.19 KCAL/MOL
REMARK 924 INTRA-LIGAND FREE ENERGY PREDICTED BY IDOCK:   -1.33 KCAL/MOL
REMARK 927      BINDING AFFINITY PREDICTED BY RF-SCORE:    0.00 PKD
ROOT
HETATM    1  C   UNL     1     -10.148  18.774  68.482  1.00  0.00    -0.392 C  
HETATM    2  O   UNL     1     -10.829  17.527  68.362  1.00  0.00    -0.314 OA 
ENDROOT
BRANCH   2   3
HETATM    3  C   UNL     1     -10.266  16.484  69.036  1.00  0.00    -0.285 C  
HETATM    4  O   UNL     1      -9.064  16.309  69.197  1.00  0.00    -0.253 OA 
BRANCH   3   5
HETATM    5  C   UNL     1     -11.363  15.571  69.590  1.00  0.00    -0.315 C  
BRANCH   5   6
HETATM    6  C   UNL     1     -11.282  15.441  71.117  1.00  0.00    -0.410 C  
HETATM    7  C   UNL     1     -13.793  15.138  71.473  1.00  0.00    -0.597 C  
HETATM    8  C   UNL     1     -12.309  15.740  73.392  1.00  0.00    -0.638 C  
HETATM    9  C   UNL     1     -12.535  15.902  71.886  1.00  0.00    -0.524 C  
ENDBRANCH   5   6
BRANCH   5  10
HETATM   10  N   UNL     1     -11.239  14.250  68.973  1.00  0.00    -0.254 N  
HETATM   11  C   UNL     1     -11.815  13.982  67.754  1.00  0.00    -0.384 C  
HETATM   12  H   UNL     1     -10.715  13.518  69.453  1.00  0.00     0.000 HD 
HETATM   13  O   UNL     1     -12.453  14.804  67.107  1.00  0.00     0.003 OA 
BRANCH  11  14
HETATM   14  C   UNL     1     -11.638  12.558  67.287  1.00  0.00    -0.434 C  
BRANCH  14  15
HETATM   15  C   UNL     1     -11.612  12.502  65.761  1.00  0.00    -0.439 C  
BRANCH  15  16
HETATM   16  C   UNL     1     -11.021  11.197  65.224  1.00  0.00    -0.153 C  
BRANCH  16  17
HETATM   17  C   UNL     1      -9.502  11.145  65.373  1.00  0.00    -0.253 C  
BRANCH  17  18
HETATM   18  C   UNL     1      -9.049   9.956  66.213  1.00  0.00    -0.187 C  
BRANCH  18  19
HETATM   19  C   UNL     1     -10.242   9.058  66.535  1.00  0.00    -0.318 C  
BRANCH  19  20
HETATM   20  C   UNL     1     -10.181   8.547  67.972  1.00  0.00    -0.264 C  
BRANCH  20  21
HETATM   21  C   UNL     1     -10.422   9.685  68.965  1.00  0.00    -0.229 C  
BRANCH  21  22
HETATM   22  C   UNL     1      -9.293   9.788  69.946  1.00  0.00    -0.262 C  
HETATM   23  C   UNL     1      -9.092   8.922  70.947  1.00  0.00    -0.283 C  
ENDBRANCH  21  22
ENDBRANCH  20  21
ENDBRANCH  19  20
ENDBRANCH  18  19
ENDBRANCH  17  18
ENDBRANCH  16  17
ENDBRANCH  15  16
ENDBRANCH  14  15
ENDBRANCH  11  14
ENDBRANCH   5  10
ENDBRANCH   3   5
ENDBRANCH   2   3
TORSDOF 13
ENDMDL
MODEL      125
REMARK 921   NORMALIZED FREE ENERGY PREDICTED BY IDOCK:   -3.62 KCAL/MOL
REMARK 922        TOTAL FREE ENERGY PREDICTED BY IDOCK:   -8.48 KCAL/MOL
REMARK 923 INTER-LIGAND FREE ENERGY PREDICTED BY IDOCK:   -7.00 KCAL/MOL
REMARK 924 INTRA-LIGAND FREE ENERGY PREDICTED BY IDOCK:   -1.48 KCAL/MOL
REMARK 927      BINDING AFFINITY PREDICTED BY RF-SCORE:    0.00 PKD
ROOT
HETATM    1  C   UNL     1     -10.176  11.901  63.318  1.00  0.00    -0.395 C  
HETATM    2  O   UNL     1     -10.848  12.928  64.045  1.00  0.00    -0.387 OA 
ENDROOT
BRANCH   2   3
HETATM    3  C   UNL     1     -11.462  12.527  65.194  1.00  0.00    -0.328 C  
HETATM    4  O   UNL     1     -12.673  12.467  65.369  1.00  0.00    -0.582 OA 
BRANCH   3   5
HETATM    5  C   UNL     1     -10.409  12.132  66.234  1.00  0.00    -0.221 C  
BRANCH   5   6
HETATM    6  C   UNL     1     -10.704  10.760  66.855  1.00  0.00    -0.309 C  
HETATM    7  C   UNL     1      -8.469   9.709  66.204  1.00  0.00    -0.126 C  
HETATM    8  C   UNL     1     -10.392   8.266  66.888  1.00  0.00    -0.391 C  
HETATM    9  C   UNL     1      -9.991   9.568  66.188  1.00  0.00    -0.342 C  
ENDBRANCH   5   6
BRANCH   5  10
HETATM   10  N   UNL     1     -10.372  13.153  67.282  1.00  0.00    -0.242 N  
HETATM   11  C   UNL     1      -9.611  14.289  67.137  1.00  0.00    -0.245 C  
HETATM   12  H   UNL     1     -10.918  13.019  68.133  1.00  0.00     0.000 HD 
HETATM   13  O   UNL     1      -8.933  14.532  66.145  1.00  0.00    -0.140 OA 
BRANCH  11  14
HETATM   14  C   UNL     1      -9.642  15.210  68.332  1.00  0.00    -0.212 C  
BRANCH  14  15
HETATM   15  C   UNL     1     -10.754  16.245  68.172  1.00  0.00    -0.322 C  
BRANCH  15  16
HETATM   16  C   UNL     1     -10.644  17.395  69.175  1.00  0.00    -0.161 C  
BRANCH  16  17
HETATM   17  C   UNL     1      -9.980  18.629  68.570  1.00  0.00    -0.430 C  
BRANCH  17  18
HETATM   18  C   UNL     1     -10.816  19.238  67.449  1.00  0.00    -0.554 C  
BRANCH  18  19
HETATM   19  C   UNL     1      -9.956  19.429  66.200  1.00  0.00    -0.501 C  
BRANCH  19  20
HETATM   20  C   UNL     1      -8.567  19.953  66.558  1.00  0.00    -0.390 C  
BRANCH  20  21
HETATM   21  C   UNL     1      -7.481  19.155  65.835  1.00  0.00    -0.263 C  
BRANCH  21  22
HETATM   22  C   UNL     1      -6.632  18.400  66.813  1.00  0.00    -0.212 C  
HETATM   23  C   UNL     1      -6.636  17.066  66.934  1.00  0.00    -0.251 C  
ENDBRANCH  21  22
ENDBRANCH  20  21
ENDBRANCH  19  20
ENDBRANCH  18  19
ENDBRANCH  17  18
ENDBRANCH  16  17
ENDBRANCH  15  16
ENDBRANCH  14  15
ENDBRANCH  11  14
ENDBRANCH   5  10
ENDBRANCH   3   5
ENDBRANCH   2   3
TORSDOF 13
ENDMDL
MODEL      126
REMARK 921   NORMALIZED FREE ENERGY PREDICTED BY IDOCK:   -3.62 KCAL/MOL
REMARK 922        TOTAL FREE ENERGY PREDICTED BY IDOCK:   -8.47 KCAL/MOL
REMARK 923 INTER-LIGAND FREE ENERGY PREDICTED BY IDOCK:   -6.61 KCAL/MOL
REMARK 924 INTRA-LIGAND FREE ENERGY PREDICTED BY IDOCK:   -1.87 KCAL/MOL
REMARK 927      BINDING AFFINITY PREDICTED BY RF-SCORE:    0.00 PKD
ROOT
HETATM    1  C   UNL     1      -7.343  13.527  67.616  1.00  0.00    -0.174 C  
HETATM    2  O   UNL     1      -8.574  13.052  68.158  1.00  0.00    -0.176 OA 
ENDROOT
BRANCH   2   3
HETATM    3  C   UNL     1      -8.626  11.712  68.406  1.00  0.00    -0.156 C  
HETATM    4  O   UNL     1      -7.670  11.007  68.705  1.00  0.00    -0.115 OA 
BRANCH   3   5
HETATM    5  C   UNL     1     -10.070  11.218  68.281  1.00  0.00    -0.188 C  
BRANCH   5   6
HETATM    6  C   UNL     1     -10.611  11.387  66.855  1.00  0.00    -0.292 C  
HETATM    7  C   UNL     1      -9.752   9.139  65.998  1.00  0.00    -0.358 C  
HETATM    8  C   UNL     1     -10.452  10.920  64.389  1.00  0.00    -0.403 C  
HETATM    9  C   UNL     1      -9.821  10.648  65.758  1.00  0.00    -0.296 C  
ENDBRANCH   5   6
BRANCH   5  10
HETATM   10  N   UNL     1     -10.910  11.961  69.221  1.00  0.00    -0.425 N  
HETATM   11  C   UNL     1     -11.725  11.306  70.113  1.00  0.00    -0.343 C  
HETATM   12  H   UNL     1     -10.890  12.982  69.214  1.00  0.00     0.000 HD 
HETATM   13  O   UNL     1     -11.804  10.086  70.193  1.00  0.00    -0.238 OA 
BRANCH  11  14
HETATM   14  C   UNL     1     -12.564  12.221  70.971  1.00  0.00    -0.352 C  
BRANCH  14  15
HETATM   15  C   UNL     1     -12.527  13.645  70.418  1.00  0.00    -0.364 C  
BRANCH  15  16
HETATM   16  C   UNL     1     -12.049  14.670  71.448  1.00  0.00    -0.416 C  
BRANCH  16  17
HETATM   17  C   UNL     1     -11.330  15.850  70.798  1.00  0.00    -0.424 C  
BRANCH  17  18
HETATM   18  C   UNL     1     -11.574  15.911  69.294  1.00  0.00    -0.372 C  
BRANCH  18  19
HETATM   19  C   UNL     1     -10.648  16.946  68.656  1.00  0.00    -0.360 C  
BRANCH  19  20
HETATM   20  C   UNL     1      -9.972  16.390  67.406  1.00  0.00    -0.251 C  
BRANCH  20  21
HETATM   21  C   UNL     1     -10.834  15.307  66.756  1.00  0.00    -0.312 C  
BRANCH  21  22
HETATM   22  C   UNL     1     -10.294  14.928  65.410  1.00  0.00    -0.413 C  
HETATM   23  C   UNL     1     -11.052  14.490  64.397  1.00  0.00    -0.176 C  
ENDBRANCH  21  22
ENDBRANCH  20  21
ENDBRANCH  19  20
ENDBRANCH  18  19
ENDBRANCH  17  18
ENDBRANCH  16  17
ENDBRANCH  15  16
ENDBRANCH  14  15
ENDBRANCH  11  14
ENDBRANCH   5  10
ENDBRANCH   3   5
ENDBRANCH   2   3
TORSDOF 13
ENDMDL
MODEL      127
REMARK 921   NORMALIZED FREE ENERGY PREDICTED BY IDOCK:   -3.60 KCAL/MOL
REMARK 922        TOTAL FREE ENERGY PREDICTED BY IDOCK:   -8.44 KCAL/MOL
REMARK 923 INTER-LIGAND FREE ENERGY PREDICTED BY IDOCK:   -7.76 KCAL/MOL
REMARK 924 INTRA-LIGAND FREE ENERGY PREDICTED BY IDOCK:   -0.68 KCAL/MOL
REMARK 927      BINDING AFFINITY PREDICTED BY RF-SCORE:    0.00 PKD
ROOT
HETATM    1  C   UNL     1      -9.632   9.663  67.659  1.00  0.00    -0.142 C  
HETATM    2  O   UNL     1     -10.961  10.007  67.273  1.00  0.00    -0.262 OA 
ENDROOT
BRANCH   2   3
HETATM    3  C   UNL     1     -11.365  11.262  67.618  1.00  0.00    -0.282 C  
HETATM    4  O   UNL     1     -12.123  11.970  66.966  1.00  0.00    -0.603 OA 
BRANCH   3   5
HETATM    5  C   UNL     1     -10.747  11.654  68.964  1.00  0.00    -0.179 C  
BRANCH   5   6
HETATM    6  C   UNL     1     -11.795  11.690  70.085  1.00  0.00    -0.428 C  
HETATM    7  C   UNL     1     -10.972   9.576  71.260  1.00  0.00    -0.440 C  
HETATM    8  C   UNL     1     -13.241  10.500  71.763  1.00  0.00    -0.522 C  
HETATM    9  C   UNL     1     -12.175  10.319  70.677  1.00  0.00    -0.422 C  
ENDBRANCH   5   6
BRANCH   5  10
HETATM   10  N   UNL     1     -10.116  12.967  68.833  1.00  0.00    -0.438 N  
HETATM   11  C   UNL     1     -10.850  14.122  68.970  1.00  0.00    -0.251 C  
HETATM   12  H   UNL     1      -9.116  13.028  68.638  1.00  0.00     0.000 HD 
HETATM   13  O   UNL     1     -12.051  14.140  69.212  1.00  0.00    -0.326 OA 
BRANCH  11  14
HETATM   14  C   UNL     1     -10.058  15.388  68.750  1.00  0.00    -0.213 C  
BRANCH  14  15
HETATM   15  C   UNL     1     -10.895  16.408  67.981  1.00  0.00    -0.342 C  
BRANCH  15  16
HETATM   16  C   UNL     1     -10.374  16.657  66.565  1.00  0.00    -0.300 C  
BRANCH  16  17
HETATM   17  C   UNL     1     -10.160  18.142  66.281  1.00  0.00    -0.373 C  
BRANCH  17  18
HETATM   18  C   UNL     1     -10.908  19.029  67.270  1.00  0.00    -0.494 C  
BRANCH  18  19
HETATM   19  C   UNL     1      -9.916  19.737  68.191  1.00  0.00    -0.557 C  
BRANCH  19  20
HETATM   20  C   UNL     1      -8.544  19.867  67.535  1.00  0.00    -0.393 C  
BRANCH  20  21
HETATM   21  C   UNL     1      -7.436  19.459  68.506  1.00  0.00    -0.366 C  
BRANCH  21  22
HETATM   22  C   UNL     1      -7.258  17.970  68.521  1.00  0.00    -0.265 C  
HETATM   23  C   UNL     1      -6.692  17.275  67.526  1.00  0.00    -0.168 C  
ENDBRANCH  21  22
ENDBRANCH  20  21
ENDBRANCH  19  20
ENDBRANCH  18  19
ENDBRANCH  17  18
ENDBRANCH  16  17
ENDBRANCH  15  16
ENDBRANCH  14  15
ENDBRANCH  11  14
ENDBRANCH   5  10
ENDBRANCH   3   5
ENDBRANCH   2   3
TORSDOF 13
ENDMDL
MODEL      128
REMARK 921   NORMALIZED FREE ENERGY PREDICTED BY IDOCK:   -3.58 KCAL/MOL
REMARK 922        TOTAL FREE ENERGY PREDICTED BY IDOCK:   -8.41 KCAL/MOL
REMARK 923 INTER-LIGAND FREE ENERGY PREDICTED BY IDOCK:   -7.48 KCAL/MOL
REMARK 924 INTRA-LIGAND FREE ENERGY PREDICTED BY IDOCK:   -0.93 KCAL/MOL
REMARK 927      BINDING AFFINITY PREDICTED BY RF-SCORE:    0.00 PKD
ROOT
HETATM    1  C   UNL     1      -5.362  18.436  64.713  1.00  0.00    -0.105 C  
HETATM    2  O   UNL     1      -6.703  18.651  65.149  1.00  0.00    -0.507 OA 
ENDROOT
BRANCH   2   3
HETATM    3  C   UNL     1      -7.049  19.954  65.355  1.00  0.00    -0.261 C  
HETATM    4  O   UNL     1      -6.675  20.905  64.679  1.00  0.00    -0.227 OA 
BRANCH   3   5
HETATM    5  C   UNL     1      -8.004  20.054  66.549  1.00  0.00    -0.313 C  
BRANCH   5   6
HETATM    6  C   UNL     1      -7.284  20.526  67.819  1.00  0.00    -0.321 C  
HETATM    7  C   UNL     1      -6.204  18.271  68.343  1.00  0.00    -0.195 C  
HETATM    8  C   UNL     1      -6.334  20.048  70.097  1.00  0.00    -0.368 C  
HETATM    9  C   UNL     1      -7.036  19.437  68.880  1.00  0.00    -0.384 C  
ENDBRANCH   5   6
BRANCH   5  10
HETATM   10  N   UNL     1      -8.611  18.743  66.782  1.00  0.00    -0.282 N  
HETATM   11  C   UNL     1      -9.975  18.576  66.732  1.00  0.00    -0.360 C  
HETATM   12  H   UNL     1      -8.014  17.941  66.985  1.00  0.00     0.000 HD 
HETATM   13  O   UNL     1     -10.763  19.483  66.487  1.00  0.00    -0.449 OA 
BRANCH  11  14
HETATM   14  C   UNL     1     -10.438  17.176  67.050  1.00  0.00    -0.282 C  
BRANCH  14  15
HETATM   15  C   UNL     1      -9.976  16.207  65.963  1.00  0.00    -0.373 C  
BRANCH  15  16
HETATM   16  C   UNL     1     -11.027  15.991  64.872  1.00  0.00    -0.399 C  
BRANCH  16  17
HETATM   17  C   UNL     1     -11.177  14.519  64.497  1.00  0.00    -0.302 C  
BRANCH  17  18
HETATM   18  C   UNL     1     -12.539  13.962  64.897  1.00  0.00    -0.380 C  
BRANCH  18  19
HETATM   19  C   UNL     1     -12.391  12.526  65.398  1.00  0.00    -0.426 C  
BRANCH  19  20
HETATM   20  C   UNL     1     -11.234  12.401  66.387  1.00  0.00    -0.365 C  
BRANCH  20  21
HETATM   21  C   UNL     1     -11.738  12.489  67.828  1.00  0.00    -0.419 C  
BRANCH  21  22
HETATM   22  C   UNL     1     -11.701  13.904  68.323  1.00  0.00    -0.396 C  
HETATM   23  C   UNL     1     -11.797  14.247  69.614  1.00  0.00    -0.370 C  
ENDBRANCH  21  22
ENDBRANCH  20  21
ENDBRANCH  19  20
ENDBRANCH  18  19
ENDBRANCH  17  18
ENDBRANCH  16  17
ENDBRANCH  15  16
ENDBRANCH  14  15
ENDBRANCH  11  14
ENDBRANCH   5  10
ENDBRANCH   3   5
ENDBRANCH   2   3
TORSDOF 13
ENDMDL
MODEL      129
REMARK 921   NORMALIZED FREE ENERGY PREDICTED BY IDOCK:   -3.58 KCAL/MOL
REMARK 922        TOTAL FREE ENERGY PREDICTED BY IDOCK:   -8.41 KCAL/MOL
REMARK 923 INTER-LIGAND FREE ENERGY PREDICTED BY IDOCK:   -7.20 KCAL/MOL
REMARK 924 INTRA-LIGAND FREE ENERGY PREDICTED BY IDOCK:   -1.21 KCAL/MOL
REMARK 927      BINDING AFFINITY PREDICTED BY RF-SCORE:    0.00 PKD
ROOT
HETATM    1  C   UNL     1     -11.726  10.084  71.440  1.00  0.00    -0.334 C  
HETATM    2  O   UNL     1     -10.442   9.464  71.452  1.00  0.00    -0.333 OA 
ENDROOT
BRANCH   2   3
HETATM    3  C   UNL     1      -9.745   9.538  70.283  1.00  0.00    -0.263 C  
HETATM    4  O   UNL     1      -8.595   9.945  70.165  1.00  0.00    -0.195 OA 
BRANCH   3   5
HETATM    5  C   UNL     1     -10.607   9.011  69.131  1.00  0.00    -0.203 C  
BRANCH   5   6
HETATM    6  C   UNL     1     -10.314   7.536  68.827  1.00  0.00    -0.212 C  
HETATM    7  C   UNL     1     -12.029   6.600  70.472  1.00  0.00    -0.377 C  
HETATM    8  C   UNL     1     -10.224   5.131  69.557  1.00  0.00    -0.318 C  
HETATM    9  C   UNL     1     -10.579   6.558  69.988  1.00  0.00    -0.280 C  
ENDBRANCH   5   6
BRANCH   5  10
HETATM   10  N   UNL     1     -10.355   9.822  67.940  1.00  0.00    -0.198 N  
HETATM   11  C   UNL     1     -11.178  10.874  67.613  1.00  0.00    -0.309 C  
HETATM   12  H   UNL     1      -9.557   9.604  67.343  1.00  0.00     0.000 HD 
HETATM   13  O   UNL     1     -12.151  11.209  68.278  1.00  0.00    -0.620 OA 
BRANCH  11  14
HETATM   14  C   UNL     1     -10.809  11.570  66.326  1.00  0.00    -0.333 C  
BRANCH  14  15
HETATM   15  C   UNL     1     -12.033  12.266  65.733  1.00  0.00    -0.362 C  
BRANCH  15  16
HETATM   16  C   UNL     1     -11.751  12.909  64.374  1.00  0.00    -0.427 C  
BRANCH  16  17
HETATM   17  C   UNL     1     -10.686  14.000  64.460  1.00  0.00    -0.355 C  
BRANCH  17  18
HETATM   18  C   UNL     1     -11.097  15.128  65.402  1.00  0.00    -0.371 C  
BRANCH  18  19
HETATM   19  C   UNL     1     -10.057  15.288  66.510  1.00  0.00    -0.280 C  
BRANCH  19  20
HETATM   20  C   UNL     1     -10.674  15.062  67.887  1.00  0.00    -0.268 C  
BRANCH  20  21
HETATM   21  C   UNL     1     -11.049  16.392  68.541  1.00  0.00    -0.357 C  
BRANCH  21  22
HETATM   22  C   UNL     1     -10.131  17.489  68.090  1.00  0.00    -0.341 C  
HETATM   23  C   UNL     1     -10.551  18.666  67.610  1.00  0.00    -0.458 C  
ENDBRANCH  21  22
ENDBRANCH  20  21
ENDBRANCH  19  20
ENDBRANCH  18  19
ENDBRANCH  17  18
ENDBRANCH  16  17
ENDBRANCH  15  16
ENDBRANCH  14  15
ENDBRANCH  11  14
ENDBRANCH   5  10
ENDBRANCH   3   5
ENDBRANCH   2   3
TORSDOF 13
ENDMDL
MODEL      130
REMARK 921   NORMALIZED FREE ENERGY PREDICTED BY IDOCK:   -3.58 KCAL/MOL
REMARK 922        TOTAL FREE ENERGY PREDICTED BY IDOCK:   -8.41 KCAL/MOL
REMARK 923 INTER-LIGAND FREE ENERGY PREDICTED BY IDOCK:   -6.86 KCAL/MOL
REMARK 924 INTRA-LIGAND FREE ENERGY PREDICTED BY IDOCK:   -1.55 KCAL/MOL
REMARK 927      BINDING AFFINITY PREDICTED BY RF-SCORE:    0.00 PKD
ROOT
HETATM    1  C   UNL     1      -9.723   8.777  66.694  1.00  0.00    -0.242 C  
HETATM    2  O   UNL     1      -9.122   8.881  65.405  1.00  0.00    -0.206 OA 
ENDROOT
BRANCH   2   3
HETATM    3  C   UNL     1      -8.483  10.058  65.150  1.00  0.00    -0.153 C  
HETATM    4  O   UNL     1      -7.372  10.170  64.645  1.00  0.00    -0.141 OA 
BRANCH   3   5
HETATM    5  C   UNL     1      -9.375  11.232  65.566  1.00  0.00    -0.221 C  
BRANCH   5   6
HETATM    6  C   UNL     1     -10.161  11.802  64.378  1.00  0.00    -0.332 C  
HETATM    7  C   UNL     1     -11.989  12.890  65.792  1.00  0.00    -0.496 C  
HETATM    8  C   UNL     1     -12.336  12.523  63.343  1.00  0.00    -0.577 C  
HETATM    9  C   UNL     1     -11.675  11.972  64.610  1.00  0.00    -0.358 C  
ENDBRANCH   5   6
BRANCH   5  10
HETATM   10  N   UNL     1      -8.538  12.279  66.153  1.00  0.00    -0.391 N  
HETATM   11  C   UNL     1      -8.689  12.651  67.468  1.00  0.00    -0.184 C  
HETATM   12  H   UNL     1      -7.831  12.740  65.579  1.00  0.00     0.000 HD 
HETATM   13  O   UNL     1      -9.506  12.145  68.229  1.00  0.00    -0.202 OA 
BRANCH  11  14
HETATM   14  C   UNL     1      -7.786  13.781  67.899  1.00  0.00    -0.161 C  
BRANCH  14  15
HETATM   15  C   UNL     1      -8.310  15.110  67.361  1.00  0.00    -0.206 C  
BRANCH  15  16
HETATM   16  C   UNL     1      -8.571  16.137  68.465  1.00  0.00    -0.202 C  
BRANCH  16  17
HETATM   17  C   UNL     1      -9.793  15.779  69.310  1.00  0.00    -0.265 C  
BRANCH  17  18
HETATM   18  C   UNL     1     -11.082  15.815  68.496  1.00  0.00    -0.335 C  
BRANCH  18  19
HETATM   19  C   UNL     1     -12.268  15.428  69.379  1.00  0.00    -0.250 C  
BRANCH  19  20
HETATM   20  C   UNL     1     -11.807  14.709  70.644  1.00  0.00    -0.367 C  
BRANCH  20  21
HETATM   21  C   UNL     1     -12.281  13.255  70.647  1.00  0.00    -0.417 C  
BRANCH  21  22
HETATM   22  C   UNL     1     -13.193  12.992  71.808  1.00  0.00    -0.486 C  
HETATM   23  C   UNL     1     -13.899  13.942  72.434  1.00  0.00    -0.668 C  
ENDBRANCH  21  22
ENDBRANCH  20  21
ENDBRANCH  19  20
ENDBRANCH  18  19
ENDBRANCH  17  18
ENDBRANCH  16  17
ENDBRANCH  15  16
ENDBRANCH  14  15
ENDBRANCH  11  14
ENDBRANCH   5  10
ENDBRANCH   3   5
ENDBRANCH   2   3
TORSDOF 13
ENDMDL
MODEL      131
REMARK 921   NORMALIZED FREE ENERGY PREDICTED BY IDOCK:   -3.57 KCAL/MOL
REMARK 922        TOTAL FREE ENERGY PREDICTED BY IDOCK:   -8.40 KCAL/MOL
REMARK 923 INTER-LIGAND FREE ENERGY PREDICTED BY IDOCK:   -7.04 KCAL/MOL
REMARK 924 INTRA-LIGAND FREE ENERGY PREDICTED BY IDOCK:   -1.35 KCAL/MOL
REMARK 927      BINDING AFFINITY PREDICTED BY RF-SCORE:    0.00 PKD
ROOT
HETATM    1  C   UNL     1     -10.867   7.179  73.280  1.00  0.00    -0.338 C  
HETATM    2  O   UNL     1     -11.252   8.368  72.593  1.00  0.00    -0.369 OA 
ENDROOT
BRANCH   2   3
HETATM    3  C   UNL     1     -10.317   8.882  71.744  1.00  0.00    -0.356 C  
HETATM    4  O   UNL     1      -9.140   9.082  72.019  1.00  0.00    -0.375 OA 
BRANCH   3   5
HETATM    5  C   UNL     1     -10.952   9.152  70.376  1.00  0.00    -0.248 C  
BRANCH   5   6
HETATM    6  C   UNL     1     -10.837   7.939  69.443  1.00  0.00    -0.114 C  
HETATM    7  C   UNL     1      -8.359   8.269  68.915  1.00  0.00    -0.127 C  
HETATM    8  C   UNL     1      -9.771   6.790  67.477  1.00  0.00    -0.154 C  
HETATM    9  C   UNL     1      -9.762   8.052  68.345  1.00  0.00    -0.168 C  
ENDBRANCH   5   6
BRANCH   5  10
HETATM   10  N   UNL     1     -10.295  10.309  69.768  1.00  0.00    -0.292 N  
HETATM   11  C   UNL     1     -10.992  11.175  68.959  1.00  0.00    -0.235 C  
HETATM   12  H   UNL     1      -9.304  10.477  69.947  1.00  0.00     0.000 HD 
HETATM   13  O   UNL     1     -12.184  11.052  68.699  1.00  0.00    -0.571 OA 
BRANCH  11  14
HETATM   14  C   UNL     1     -10.154  12.282  68.370  1.00  0.00    -0.215 C  
BRANCH  14  15
HETATM   15  C   UNL     1      -8.935  11.700  67.658  1.00  0.00    -0.166 C  
BRANCH  15  16
HETATM   16  C   UNL     1      -9.046  11.772  66.134  1.00  0.00    -0.189 C  
BRANCH  16  17
HETATM   17  C   UNL     1      -9.693  10.523  65.541  1.00  0.00    -0.298 C  
BRANCH  17  18
HETATM   18  C   UNL     1      -9.999  10.685  64.056  1.00  0.00    -0.401 C  
BRANCH  18  19
HETATM   19  C   UNL     1     -10.462  12.113  63.770  1.00  0.00    -0.470 C  
BRANCH  19  20
HETATM   20  C   UNL     1     -11.984  12.196  63.685  1.00  0.00    -0.628 C  
BRANCH  20  21
HETATM   21  C   UNL     1     -12.584  12.598  65.033  1.00  0.00    -0.504 C  
BRANCH  21  22
HETATM   22  C   UNL     1     -12.481  14.079  65.244  1.00  0.00    -0.495 C  
HETATM   23  C   UNL     1     -11.596  14.658  66.065  1.00  0.00    -0.328 C  
ENDBRANCH  21  22
ENDBRANCH  20  21
ENDBRANCH  19  20
ENDBRANCH  18  19
ENDBRANCH  17  18
ENDBRANCH  16  17
ENDBRANCH  15  16
ENDBRANCH  14  15
ENDBRANCH  11  14
ENDBRANCH   5  10
ENDBRANCH   3   5
ENDBRANCH   2   3
TORSDOF 13
ENDMDL
MODEL      132
REMARK 921   NORMALIZED FREE ENERGY PREDICTED BY IDOCK:   -3.56 KCAL/MOL
REMARK 922        TOTAL FREE ENERGY PREDICTED BY IDOCK:   -8.38 KCAL/MOL
REMARK 923 INTER-LIGAND FREE ENERGY PREDICTED BY IDOCK:   -7.74 KCAL/MOL
REMARK 924 INTRA-LIGAND FREE ENERGY PREDICTED BY IDOCK:   -0.64 KCAL/MOL
REMARK 927      BINDING AFFINITY PREDICTED BY RF-SCORE:    0.00 PKD
ROOT
HETATM    1  C   UNL     1      -8.643  15.381  66.829  1.00  0.00    -0.273 C  
HETATM    2  O   UNL     1      -9.298  14.114  66.872  1.00  0.00    -0.243 OA 
ENDROOT
BRANCH   2   3
HETATM    3  C   UNL     1      -8.473  13.032  66.961  1.00  0.00    -0.136 C  
HETATM    4  O   UNL     1      -7.348  13.034  67.445  1.00  0.00    -0.147 OA 
BRANCH   3   5
HETATM    5  C   UNL     1      -9.175  11.798  66.386  1.00  0.00    -0.217 C  
BRANCH   5   6
HETATM    6  C   UNL     1      -9.919  12.118  65.083  1.00  0.00    -0.251 C  
HETATM    7  C   UNL     1     -12.045  12.968  66.216  1.00  0.00    -0.453 C  
HETATM    8  C   UNL     1     -12.065  12.348  63.794  1.00  0.00    -0.618 C  
HETATM    9  C   UNL     1     -11.455  12.029  65.162  1.00  0.00    -0.344 C  
ENDBRANCH   5   6
BRANCH   5  10
HETATM   10  N   UNL     1     -10.116  11.280  67.380  1.00  0.00    -0.185 N  
HETATM   11  C   UNL     1      -9.709  10.386  68.342  1.00  0.00    -0.158 C  
HETATM   12  H   UNL     1     -11.088  11.588  67.359  1.00  0.00     0.000 HD 
HETATM   13  O   UNL     1      -8.560   9.972  68.443  1.00  0.00    -0.110 OA 
BRANCH  11  14
HETATM   14  C   UNL     1     -10.815   9.912  69.252  1.00  0.00    -0.255 C  
BRANCH  14  15
HETATM   15  C   UNL     1     -11.913  10.969  69.345  1.00  0.00    -0.408 C  
BRANCH  15  16
HETATM   16  C   UNL     1     -12.396  11.201  70.778  1.00  0.00    -0.504 C  
BRANCH  16  17
HETATM   17  C   UNL     1     -12.507  12.686  71.118  1.00  0.00    -0.326 C  
BRANCH  17  18
HETATM   18  C   UNL     1     -13.577  12.954  72.171  1.00  0.00    -0.589 C  
BRANCH  18  19
HETATM   19  C   UNL     1     -13.502  14.408  72.635  1.00  0.00    -0.605 C  
BRANCH  19  20
HETATM   20  C   UNL     1     -13.290  15.355  71.457  1.00  0.00    -0.586 C  
BRANCH  20  21
HETATM   21  C   UNL     1     -11.948  16.080  71.576  1.00  0.00    -0.539 C  
BRANCH  21  22
HETATM   22  C   UNL     1     -11.245  16.125  70.253  1.00  0.00    -0.389 C  
HETATM   23  C   UNL     1     -11.778  15.683  69.107  1.00  0.00    -0.402 C  
ENDBRANCH  21  22
ENDBRANCH  20  21
ENDBRANCH  19  20
ENDBRANCH  18  19
ENDBRANCH  17  18
ENDBRANCH  16  17
ENDBRANCH  15  16
ENDBRANCH  14  15
ENDBRANCH  11  14
ENDBRANCH   5  10
ENDBRANCH   3   5
ENDBRANCH   2   3
TORSDOF 13
ENDMDL
MODEL      133
REMARK 921   NORMALIZED FREE ENERGY PREDICTED BY IDOCK:   -3.54 KCAL/MOL
REMARK 922        TOTAL FREE ENERGY PREDICTED BY IDOCK:   -8.33 KCAL/MOL
REMARK 923 INTER-LIGAND FREE ENERGY PREDICTED BY IDOCK:   -7.09 KCAL/MOL
REMARK 924 INTRA-LIGAND FREE ENERGY PREDICTED BY IDOCK:   -1.24 KCAL/MOL
REMARK 927      BINDING AFFINITY PREDICTED BY RF-SCORE:    0.00 PKD
ROOT
HETATM    1  C   UNL     1      -5.300  18.497  64.430  1.00  0.00    -0.091 C  
HETATM    2  O   UNL     1      -6.637  18.897  64.725  1.00  0.00    -0.501 OA 
ENDROOT
BRANCH   2   3
HETATM    3  C   UNL     1      -6.775  20.166  65.204  1.00  0.00    -0.296 C  
HETATM    4  O   UNL     1      -6.155  21.147  64.811  1.00  0.00    -0.262 OA 
BRANCH   3   5
HETATM    5  C   UNL     1      -7.847  20.193  66.299  1.00  0.00    -0.248 C  
BRANCH   5   6
HETATM    6  C   UNL     1      -7.254  20.542  67.671  1.00  0.00    -0.356 C  
HETATM    7  C   UNL     1      -6.070  18.303  68.004  1.00  0.00    -0.173 C  
HETATM    8  C   UNL     1      -6.445  19.835  69.944  1.00  0.00    -0.362 C  
HETATM    9  C   UNL     1      -7.013  19.343  68.609  1.00  0.00    -0.351 C  
ENDBRANCH   5   6
BRANCH   5  10
HETATM   10  N   UNL     1      -8.497  18.883  66.359  1.00  0.00    -0.301 N  
HETATM   11  C   UNL     1      -9.867  18.774  66.362  1.00  0.00    -0.373 C  
HETATM   12  H   UNL     1      -7.925  18.039  66.398  1.00  0.00     0.000 HD 
HETATM   13  O   UNL     1     -10.627  19.734  66.308  1.00  0.00    -0.472 OA 
BRANCH  11  14
HETATM   14  C   UNL     1     -10.374  17.357  66.482  1.00  0.00    -0.312 C  
BRANCH  14  15
HETATM   15  C   UNL     1      -9.301  16.463  67.100  1.00  0.00    -0.228 C  
BRANCH  15  16
HETATM   16  C   UNL     1      -9.060  15.182  66.300  1.00  0.00    -0.313 C  
BRANCH  16  17
HETATM   17  C   UNL     1      -8.496  14.057  67.164  1.00  0.00    -0.207 C  
BRANCH  17  18
HETATM   18  C   UNL     1      -9.231  12.740  66.942  1.00  0.00    -0.229 C  
BRANCH  18  19
HETATM   19  C   UNL     1     -10.563  12.751  67.691  1.00  0.00    -0.230 C  
BRANCH  19  20
HETATM   20  C   UNL     1     -11.718  12.352  66.777  1.00  0.00    -0.430 C  
BRANCH  20  21
HETATM   21  C   UNL     1     -12.278  13.570  66.043  1.00  0.00    -0.493 C  
BRANCH  21  22
HETATM   22  C   UNL     1     -12.180  13.394  64.557  1.00  0.00    -0.450 C  
HETATM   23  C   UNL     1     -11.047  13.080  63.915  1.00  0.00    -0.411 C  
ENDBRANCH  21  22
ENDBRANCH  20  21
ENDBRANCH  19  20
ENDBRANCH  18  19
ENDBRANCH  17  18
ENDBRANCH  16  17
ENDBRANCH  15  16
ENDBRANCH  14  15
ENDBRANCH  11  14
ENDBRANCH   5  10
ENDBRANCH   3   5
ENDBRANCH   2   3
TORSDOF 13
ENDMDL
MODEL      134
REMARK 921   NORMALIZED FREE ENERGY PREDICTED BY IDOCK:   -3.54 KCAL/MOL
REMARK 922        TOTAL FREE ENERGY PREDICTED BY IDOCK:   -8.33 KCAL/MOL
REMARK 923 INTER-LIGAND FREE ENERGY PREDICTED BY IDOCK:   -7.39 KCAL/MOL
REMARK 924 INTRA-LIGAND FREE ENERGY PREDICTED BY IDOCK:   -0.94 KCAL/MOL
REMARK 927      BINDING AFFINITY PREDICTED BY RF-SCORE:    0.00 PKD
ROOT
HETATM    1  C   UNL     1      -9.323   3.359  73.095  1.00  0.00    -0.097 C  
HETATM    2  O   UNL     1     -10.312   3.890  72.214  1.00  0.00    -0.171 OA 
ENDROOT
BRANCH   2   3
HETATM    3  C   UNL     1     -10.845   5.088  72.588  1.00  0.00    -0.226 C  
HETATM    4  O   UNL     1     -11.122   5.416  73.735  1.00  0.00    -0.245 OA 
BRANCH   3   5
HETATM    5  C   UNL     1     -11.026   5.981  71.357  1.00  0.00    -0.276 C  
BRANCH   5   6
HETATM    6  C   UNL     1      -9.792   5.955  70.445  1.00  0.00    -0.231 C  
HETATM    7  C   UNL     1     -11.092   6.242  68.265  1.00  0.00    -0.364 C  
HETATM    8  C   UNL     1      -8.726   5.433  68.228  1.00  0.00    -0.101 C  
HETATM    9  C   UNL     1     -10.039   5.428  69.018  1.00  0.00    -0.283 C  
ENDBRANCH   5   6
BRANCH   5  10
HETATM   10  N   UNL     1     -11.286   7.352  71.799  1.00  0.00    -0.241 N  
HETATM   11  C   UNL     1     -12.549   7.889  71.734  1.00  0.00    -0.328 C  
HETATM   12  H   UNL     1     -10.517   7.917  72.162  1.00  0.00     0.000 HD 
HETATM   13  O   UNL     1     -13.528   7.278  71.320  1.00  0.00    -0.369 OA 
BRANCH  11  14
HETATM   14  C   UNL     1     -12.633   9.329  72.177  1.00  0.00    -0.443 C  
BRANCH  14  15
HETATM   15  C   UNL     1     -12.965  10.229  70.989  1.00  0.00    -0.488 C  
BRANCH  15  16
HETATM   16  C   UNL     1     -11.728  10.633  70.184  1.00  0.00    -0.417 C  
BRANCH  16  17
HETATM   17  C   UNL     1     -12.083  11.484  68.967  1.00  0.00    -0.303 C  
BRANCH  17  18
HETATM   18  C   UNL     1     -11.911  12.975  69.241  1.00  0.00    -0.370 C  
BRANCH  18  19
HETATM   19  C   UNL     1     -11.884  13.749  67.924  1.00  0.00    -0.413 C  
BRANCH  19  20
HETATM   20  C   UNL     1     -11.829  12.804  66.726  1.00  0.00    -0.452 C  
BRANCH  20  21
HETATM   21  C   UNL     1     -12.454  13.454  65.491  1.00  0.00    -0.534 C  
BRANCH  21  22
HETATM   22  C   UNL     1     -12.555  12.472  64.363  1.00  0.00    -0.497 C  
HETATM   23  C   UNL     1     -11.498  11.890  63.781  1.00  0.00    -0.542 C  
ENDBRANCH  21  22
ENDBRANCH  20  21
ENDBRANCH  19  20
ENDBRANCH  18  19
ENDBRANCH  17  18
ENDBRANCH  16  17
ENDBRANCH  15  16
ENDBRANCH  14  15
ENDBRANCH  11  14
ENDBRANCH   5  10
ENDBRANCH   3   5
ENDBRANCH   2   3
TORSDOF 13
ENDMDL
MODEL      135
REMARK 921   NORMALIZED FREE ENERGY PREDICTED BY IDOCK:   -3.54 KCAL/MOL
REMARK 922        TOTAL FREE ENERGY PREDICTED BY IDOCK:   -8.33 KCAL/MOL
REMARK 923 INTER-LIGAND FREE ENERGY PREDICTED BY IDOCK:   -7.29 KCAL/MOL
REMARK 924 INTRA-LIGAND FREE ENERGY PREDICTED BY IDOCK:   -1.04 KCAL/MOL
REMARK 927      BINDING AFFINITY PREDICTED BY RF-SCORE:    0.00 PKD
ROOT
HETATM    1  C   UNL     1     -12.298  12.159  63.653  1.00  0.00    -0.568 C  
HETATM    2  O   UNL     1     -12.047  12.279  65.052  1.00  0.00    -0.386 OA 
ENDROOT
BRANCH   2   3
HETATM    3  C   UNL     1     -12.343  13.493  65.597  1.00  0.00    -0.476 C  
HETATM    4  O   UNL     1     -13.278  14.212  65.267  1.00  0.00    -0.760 OA 
BRANCH   3   5
HETATM    5  C   UNL     1     -11.343  13.819  66.711  1.00  0.00    -0.330 C  
BRANCH   5   6
HETATM    6  C   UNL     1     -11.762  13.204  68.053  1.00  0.00    -0.394 C  
HETATM    7  C   UNL     1     -12.468  15.413  69.125  1.00  0.00     0.041 C  
HETATM    8  C   UNL     1     -12.063  13.393  70.543  1.00  0.00    -0.399 C  
HETATM    9  C   UNL     1     -11.637  14.137  69.273  1.00  0.00    -0.350 C  
ENDBRANCH   5   6
BRANCH   5  10
HETATM   10  N   UNL     1     -11.236  15.272  66.843  1.00  0.00    -0.298 N  
HETATM   11  C   UNL     1     -10.454  16.005  65.982  1.00  0.00    -0.345 C  
HETATM   12  H   UNL     1     -11.749  15.748  67.585  1.00  0.00     0.000 HD 
HETATM   13  O   UNL     1      -9.812  15.514  65.061  1.00  0.00    -0.290 OA 
BRANCH  11  14
HETATM   14  C   UNL     1     -10.411  17.482  66.291  1.00  0.00    -0.283 C  
BRANCH  14  15
HETATM   15  C   UNL     1     -10.399  17.705  67.802  1.00  0.00    -0.365 C  
BRANCH  15  16
HETATM   16  C   UNL     1     -10.227  19.177  68.184  1.00  0.00    -0.489 C  
BRANCH  16  17
HETATM   17  C   UNL     1      -8.838  19.470  68.746  1.00  0.00    -0.354 C  
BRANCH  17  18
HETATM   18  C   UNL     1      -7.869  19.937  67.664  1.00  0.00    -0.325 C  
BRANCH  18  19
HETATM   19  C   UNL     1      -6.773  18.892  67.458  1.00  0.00    -0.208 C  
BRANCH  19  20
HETATM   20  C   UNL     1      -6.752  17.877  68.597  1.00  0.00    -0.239 C  
BRANCH  20  21
HETATM   21  C   UNL     1      -6.249  16.519  68.107  1.00  0.00    -0.134 C  
BRANCH  21  22
HETATM   22  C   UNL     1      -7.392  15.579  67.867  1.00  0.00    -0.155 C  
HETATM   23  C   UNL     1      -8.165  15.077  68.839  1.00  0.00    -0.178 C  
ENDBRANCH  21  22
ENDBRANCH  20  21
ENDBRANCH  19  20
ENDBRANCH  18  19
ENDBRANCH  17  18
ENDBRANCH  16  17
ENDBRANCH  15  16
ENDBRANCH  14  15
ENDBRANCH  11  14
ENDBRANCH   5  10
ENDBRANCH   3   5
ENDBRANCH   2   3
TORSDOF 13
ENDMDL
MODEL      136
REMARK 921   NORMALIZED FREE ENERGY PREDICTED BY IDOCK:   -3.54 KCAL/MOL
REMARK 922        TOTAL FREE ENERGY PREDICTED BY IDOCK:   -8.33 KCAL/MOL
REMARK 923 INTER-LIGAND FREE ENERGY PREDICTED BY IDOCK:   -6.69 KCAL/MOL
REMARK 924 INTRA-LIGAND FREE ENERGY PREDICTED BY IDOCK:   -1.64 KCAL/MOL
REMARK 927      BINDING AFFINITY PREDICTED BY RF-SCORE:    0.00 PKD
ROOT
HETATM    1  C   UNL     1      -7.504  13.736  67.493  1.00  0.00    -0.169 C  
HETATM    2  O   UNL     1      -8.602  13.034  68.070  1.00  0.00    -0.168 OA 
ENDROOT
BRANCH   2   3
HETATM    3  C   UNL     1      -8.329  11.768  68.496  1.00  0.00    -0.131 C  
HETATM    4  O   UNL     1      -7.314  11.421  69.087  1.00  0.00    -0.116 OA 
BRANCH   3   5
HETATM    5  C   UNL     1      -9.498  10.841  68.149  1.00  0.00    -0.158 C  
BRANCH   5   6
HETATM    6  C   UNL     1     -10.269  11.330  66.916  1.00  0.00    -0.254 C  
HETATM    7  C   UNL     1      -9.387   9.523  65.341  1.00  0.00    -0.324 C  
HETATM    8  C   UNL     1     -10.467  11.583  64.422  1.00  0.00    -0.380 C  
HETATM    9  C   UNL     1      -9.608  11.021  65.559  1.00  0.00    -0.263 C  
ENDBRANCH   5   6
BRANCH   5  10
HETATM   10  N   UNL     1     -10.399  10.762  69.299  1.00  0.00    -0.267 N  
HETATM   11  C   UNL     1     -10.366   9.685  70.152  1.00  0.00    -0.266 C  
HETATM   12  H   UNL     1     -11.063  11.518  69.470  1.00  0.00     0.000 HD 
HETATM   13  O   UNL     1      -9.596   8.739  70.024  1.00  0.00    -0.162 OA 
BRANCH  11  14
HETATM   14  C   UNL     1     -11.397   9.735  71.252  1.00  0.00    -0.445 C  
BRANCH  14  15
HETATM   15  C   UNL     1     -12.589  10.587  70.820  1.00  0.00    -0.474 C  
BRANCH  15  16
HETATM   16  C   UNL     1     -13.356  11.180  72.004  1.00  0.00    -0.384 C  
BRANCH  16  17
HETATM   17  C   UNL     1     -13.393  12.706  71.963  1.00  0.00    -0.555 C  
BRANCH  17  18
HETATM   18  C   UNL     1     -12.526  13.270  70.843  1.00  0.00    -0.424 C  
BRANCH  18  19
HETATM   19  C   UNL     1     -12.403  14.786  70.990  1.00  0.00    -0.397 C  
BRANCH  19  20
HETATM   20  C   UNL     1     -11.735  15.409  69.767  1.00  0.00    -0.352 C  
BRANCH  20  21
HETATM   21  C   UNL     1     -11.767  14.447  68.579  1.00  0.00    -0.370 C  
BRANCH  21  22
HETATM   22  C   UNL     1     -11.259  15.114  67.336  1.00  0.00    -0.323 C  
HETATM   23  C   UNL     1     -10.461  16.190  67.337  1.00  0.00    -0.310 C  
ENDBRANCH  21  22
ENDBRANCH  20  21
ENDBRANCH  19  20
ENDBRANCH  18  19
ENDBRANCH  17  18
ENDBRANCH  16  17
ENDBRANCH  15  16
ENDBRANCH  14  15
ENDBRANCH  11  14
ENDBRANCH   5  10
ENDBRANCH   3   5
ENDBRANCH   2   3
TORSDOF 13
ENDMDL
MODEL      137
REMARK 921   NORMALIZED FREE ENERGY PREDICTED BY IDOCK:   -3.53 KCAL/MOL
REMARK 922        TOTAL FREE ENERGY PREDICTED BY IDOCK:   -8.33 KCAL/MOL
REMARK 923 INTER-LIGAND FREE ENERGY PREDICTED BY IDOCK:   -6.99 KCAL/MOL
REMARK 924 INTRA-LIGAND FREE ENERGY PREDICTED BY IDOCK:   -1.33 KCAL/MOL
REMARK 927      BINDING AFFINITY PREDICTED BY RF-SCORE:    0.00 PKD
ROOT
HETATM    1  C   UNL     1     -12.921   9.218  72.181  1.00  0.00    -0.424 C  
HETATM    2  O   UNL     1     -11.609   9.570  71.746  1.00  0.00    -0.385 OA 
ENDROOT
BRANCH   2   3
HETATM    3  C   UNL     1     -10.996   8.660  70.937  1.00  0.00    -0.253 C  
HETATM    4  O   UNL     1     -10.768   7.492  71.227  1.00  0.00    -0.224 OA 
BRANCH   3   5
HETATM    5  C   UNL     1     -10.653   9.309  69.593  1.00  0.00    -0.229 C  
BRANCH   5   6
HETATM    6  C   UNL     1      -9.307   8.814  69.046  1.00  0.00    -0.145 C  
HETATM    7  C   UNL     1     -10.177   8.271  66.706  1.00  0.00    -0.375 C  
HETATM    8  C   UNL     1      -7.990   7.344  67.488  1.00  0.00    -0.113 C  
HETATM    9  C   UNL     1      -9.398   7.765  67.921  1.00  0.00    -0.148 C  
ENDBRANCH   5   6
BRANCH   5  10
HETATM   10  N   UNL     1     -10.615  10.762  69.762  1.00  0.00    -0.426 N  
HETATM   11  C   UNL     1     -11.312  11.591  68.916  1.00  0.00    -0.268 C  
HETATM   12  H   UNL     1     -10.064  11.165  70.520  1.00  0.00     0.000 HD 
HETATM   13  O   UNL     1     -12.003  11.190  67.986  1.00  0.00    -0.625 OA 
BRANCH  11  14
HETATM   14  C   UNL     1     -11.121  13.062  69.196  1.00  0.00    -0.245 C  
BRANCH  14  15
HETATM   15  C   UNL     1     -12.160  13.546  70.205  1.00  0.00    -0.425 C  
BRANCH  15  16
HETATM   16  C   UNL     1     -12.245  15.072  70.285  1.00  0.00    -0.390 C  
BRANCH  16  17
HETATM   17  C   UNL     1     -11.926  15.739  68.949  1.00  0.00    -0.268 C  
BRANCH  17  18
HETATM   18  C   UNL     1     -10.862  16.822  69.089  1.00  0.00    -0.287 C  
BRANCH  18  19
HETATM   19  C   UNL     1     -10.506  17.387  67.714  1.00  0.00    -0.376 C  
BRANCH  19  20
HETATM   20  C   UNL     1      -9.499  16.496  66.992  1.00  0.00    -0.249 C  
BRANCH  20  21
HETATM   21  C   UNL     1     -10.118  15.882  65.736  1.00  0.00    -0.389 C  
BRANCH  21  22
HETATM   22  C   UNL     1     -10.257  14.396  65.878  1.00  0.00    -0.341 C  
HETATM   23  C   UNL     1     -10.639  13.583  64.885  1.00  0.00    -0.409 C  
ENDBRANCH  21  22
ENDBRANCH  20  21
ENDBRANCH  19  20
ENDBRANCH  18  19
ENDBRANCH  17  18
ENDBRANCH  16  17
ENDBRANCH  15  16
ENDBRANCH  14  15
ENDBRANCH  11  14
ENDBRANCH   5  10
ENDBRANCH   3   5
ENDBRANCH   2   3
TORSDOF 13
ENDMDL
MODEL      138
REMARK 921   NORMALIZED FREE ENERGY PREDICTED BY IDOCK:   -3.52 KCAL/MOL
REMARK 922        TOTAL FREE ENERGY PREDICTED BY IDOCK:   -8.30 KCAL/MOL
REMARK 923 INTER-LIGAND FREE ENERGY PREDICTED BY IDOCK:   -7.52 KCAL/MOL
REMARK 924 INTRA-LIGAND FREE ENERGY PREDICTED BY IDOCK:   -0.78 KCAL/MOL
REMARK 927      BINDING AFFINITY PREDICTED BY RF-SCORE:    0.00 PKD
ROOT
HETATM    1  C   UNL     1     -10.194  17.863  68.726  1.00  0.00    -0.360 C  
HETATM    2  O   UNL     1     -10.994  16.683  68.753  1.00  0.00    -0.328 OA 
ENDROOT
BRANCH   2   3
HETATM    3  C   UNL     1     -10.527  15.676  69.545  1.00  0.00    -0.270 C  
HETATM    4  O   UNL     1      -9.348  15.376  69.691  1.00  0.00    -0.267 OA 
BRANCH   3   5
HETATM    5  C   UNL     1     -11.698  14.986  70.251  1.00  0.00    -0.294 C  
BRANCH   5   6
HETATM    6  C   UNL     1     -11.738  15.318  71.749  1.00  0.00    -0.487 C  
HETATM    7  C   UNL     1     -14.183  14.659  72.081  1.00  0.00    -0.608 C  
HETATM    8  C   UNL     1     -13.009  16.058  73.788  1.00  0.00    -0.621 C  
HETATM    9  C   UNL     1     -13.118  15.734  72.295  1.00  0.00    -0.524 C  
ENDBRANCH   5   6
BRANCH   5  10
HETATM   10  N   UNL     1     -11.577  13.540  70.067  1.00  0.00    -0.486 N  
HETATM   11  C   UNL     1     -11.875  12.953  68.860  1.00  0.00    -0.309 C  
HETATM   12  H   UNL     1     -11.267  12.958  70.846  1.00  0.00     0.000 HD 
HETATM   13  O   UNL     1     -12.246  13.577  67.872  1.00  0.00    -0.305 OA 
BRANCH  11  14
HETATM   14  C   UNL     1     -11.750  11.449  68.857  1.00  0.00    -0.409 C  
BRANCH  14  15
HETATM   15  C   UNL     1     -11.195  10.967  67.518  1.00  0.00    -0.372 C  
BRANCH  15  16
HETATM   16  C   UNL     1     -10.681   9.527  67.571  1.00  0.00    -0.311 C  
BRANCH  16  17
HETATM   17  C   UNL     1      -9.443   9.387  68.453  1.00  0.00    -0.148 C  
BRANCH  17  18
HETATM   18  C   UNL     1      -9.692   8.475  69.650  1.00  0.00    -0.179 C  
BRANCH  18  19
HETATM   19  C   UNL     1     -11.194   8.287  69.860  1.00  0.00    -0.031 C  
BRANCH  19  20
HETATM   20  C   UNL     1     -11.507   6.898  70.411  1.00  0.00    -0.387 C  
BRANCH  20  21
HETATM   21  C   UNL     1     -10.870   5.812  69.543  1.00  0.00    -0.410 C  
BRANCH  21  22
HETATM   22  C   UNL     1     -10.201   4.772  70.392  1.00  0.00    -0.261 C  
HETATM   23  C   UNL     1      -8.907   4.807  70.736  1.00  0.00    -0.153 C  
ENDBRANCH  21  22
ENDBRANCH  20  21
ENDBRANCH  19  20
ENDBRANCH  18  19
ENDBRANCH  17  18
ENDBRANCH  16  17
ENDBRANCH  15  16
ENDBRANCH  14  15
ENDBRANCH  11  14
ENDBRANCH   5  10
ENDBRANCH   3   5
ENDBRANCH   2   3
TORSDOF 13
ENDMDL
MODEL      139
REMARK 921   NORMALIZED FREE ENERGY PREDICTED BY IDOCK:   -3.50 KCAL/MOL
REMARK 922        TOTAL FREE ENERGY PREDICTED BY IDOCK:   -8.28 KCAL/MOL
REMARK 923 INTER-LIGAND FREE ENERGY PREDICTED BY IDOCK:   -7.35 KCAL/MOL
REMARK 924 INTRA-LIGAND FREE ENERGY PREDICTED BY IDOCK:   -0.93 KCAL/MOL
REMARK 927      BINDING AFFINITY PREDICTED BY RF-SCORE:    0.00 PKD
ROOT
HETATM    1  C   UNL     1     -10.455  11.201  64.178  1.00  0.00    -0.377 C  
HETATM    2  O   UNL     1     -10.112  12.469  64.735  1.00  0.00    -0.278 OA 
ENDROOT
BRANCH   2   3
HETATM    3  C   UNL     1      -9.579  12.432  65.989  1.00  0.00    -0.209 C  
HETATM    4  O   UNL     1      -8.847  11.551  66.424  1.00  0.00    -0.188 OA 
BRANCH   3   5
HETATM    5  C   UNL     1     -10.010  13.676  66.772  1.00  0.00    -0.270 C  
BRANCH   5   6
HETATM    6  C   UNL     1      -8.897  14.730  66.829  1.00  0.00    -0.281 C  
HETATM    7  C   UNL     1     -10.455  16.744  66.632  1.00  0.00    -0.258 C  
HETATM    8  C   UNL     1      -8.003  16.998  66.213  1.00  0.00    -0.343 C  
HETATM    9  C   UNL     1      -9.201  16.051  66.097  1.00  0.00    -0.388 C  
ENDBRANCH   5   6
BRANCH   5  10
HETATM   10  N   UNL     1     -10.384  13.276  68.129  1.00  0.00    -0.238 N  
HETATM   11  C   UNL     1     -11.542  12.574  68.366  1.00  0.00    -0.322 C  
HETATM   12  H   UNL     1      -9.776  13.521  68.911  1.00  0.00     0.000 HD 
HETATM   13  O   UNL     1     -12.323  12.232  67.485  1.00  0.00    -0.330 OA 
BRANCH  11  14
HETATM   14  C   UNL     1     -11.805  12.289  69.824  1.00  0.00    -0.388 C  
BRANCH  14  15
HETATM   15  C   UNL     1     -11.996  10.790  70.044  1.00  0.00    -0.427 C  
BRANCH  15  16
HETATM   16  C   UNL     1     -12.643  10.464  71.391  1.00  0.00    -0.539 C  
BRANCH  16  17
HETATM   17  C   UNL     1     -12.199   9.107  71.933  1.00  0.00    -0.449 C  
BRANCH  17  18
HETATM   18  C   UNL     1     -10.681   8.965  71.950  1.00  0.00    -0.426 C  
BRANCH  18  19
HETATM   19  C   UNL     1     -10.259   7.759  71.112  1.00  0.00    -0.214 C  
BRANCH  19  20
HETATM   20  C   UNL     1     -11.459   6.891  70.745  1.00  0.00    -0.381 C  
BRANCH  20  21
HETATM   21  C   UNL     1     -11.266   6.247  69.372  1.00  0.00    -0.489 C  
BRANCH  21  22
HETATM   22  C   UNL     1      -9.959   5.515  69.302  1.00  0.00    -0.263 C  
HETATM   23  C   UNL     1      -9.714   4.361  69.935  1.00  0.00    -0.291 C  
ENDBRANCH  21  22
ENDBRANCH  20  21
ENDBRANCH  19  20
ENDBRANCH  18  19
ENDBRANCH  17  18
ENDBRANCH  16  17
ENDBRANCH  15  16
ENDBRANCH  14  15
ENDBRANCH  11  14
ENDBRANCH   5  10
ENDBRANCH   3   5
ENDBRANCH   2   3
TORSDOF 13
ENDMDL
MODEL      140
REMARK 921   NORMALIZED FREE ENERGY PREDICTED BY IDOCK:   -3.50 KCAL/MOL
REMARK 922        TOTAL FREE ENERGY PREDICTED BY IDOCK:   -8.27 KCAL/MOL
REMARK 923 INTER-LIGAND FREE ENERGY PREDICTED BY IDOCK:   -6.06 KCAL/MOL
REMARK 924 INTRA-LIGAND FREE ENERGY PREDICTED BY IDOCK:   -2.21 KCAL/MOL
REMARK 927      BINDING AFFINITY PREDICTED BY RF-SCORE:    0.00 PKD
ROOT
HETATM    1  C   UNL     1     -10.523  11.254  64.552  1.00  0.00    -0.334 C  
HETATM    2  O   UNL     1     -10.510  10.650  65.844  1.00  0.00    -0.236 OA 
ENDROOT
BRANCH   2   3
HETATM    3  C   UNL     1     -11.032  11.407  66.850  1.00  0.00    -0.299 C  
HETATM    4  O   UNL     1     -12.098  12.010  66.805  1.00  0.00    -0.613 OA 
BRANCH   3   5
HETATM    5  C   UNL     1     -10.098  11.374  68.063  1.00  0.00    -0.180 C  
BRANCH   5   6
HETATM    6  C   UNL     1     -10.877  11.260  69.381  1.00  0.00    -0.239 C  
HETATM    7  C   UNL     1      -9.469   9.353  70.334  1.00  0.00    -0.319 C  
HETATM    8  C   UNL     1     -11.707   9.884  71.315  1.00  0.00    -0.472 C  
HETATM    9  C   UNL     1     -10.878   9.861  70.026  1.00  0.00    -0.339 C  
ENDBRANCH   5   6
BRANCH   5  10
HETATM   10  N   UNL     1      -9.287  12.592  68.071  1.00  0.00    -0.200 N  
HETATM   11  C   UNL     1      -8.065  12.631  67.443  1.00  0.00    -0.182 C  
HETATM   12  H   UNL     1      -9.633  13.424  68.550  1.00  0.00     0.000 HD 
HETATM   13  O   UNL     1      -7.578  11.682  66.840  1.00  0.00    -0.150 OA 
BRANCH  11  14
HETATM   14  C   UNL     1      -7.335  13.944  67.594  1.00  0.00    -0.186 C  
BRANCH  14  15
HETATM   15  C   UNL     1      -7.660  14.577  68.945  1.00  0.00    -0.138 C  
BRANCH  15  16
HETATM   16  C   UNL     1      -7.319  16.068  69.000  1.00  0.00    -0.191 C  
BRANCH  16  17
HETATM   17  C   UNL     1      -7.016  16.643  67.618  1.00  0.00    -0.160 C  
BRANCH  17  18
HETATM   18  C   UNL     1      -8.050  17.680  67.191  1.00  0.00    -0.233 C  
BRANCH  18  19
HETATM   19  C   UNL     1      -9.203  17.714  68.193  1.00  0.00    -0.282 C  
BRANCH  19  20
HETATM   20  C   UNL     1     -10.530  17.372  67.522  1.00  0.00    -0.354 C  
BRANCH  20  21
HETATM   21  C   UNL     1     -10.889  15.902  67.740  1.00  0.00    -0.324 C  
BRANCH  21  22
HETATM   22  C   UNL     1     -11.170  15.220  66.434  1.00  0.00    -0.224 C  
HETATM   23  C   UNL     1     -10.241  14.981  65.500  1.00  0.00    -0.406 C  
ENDBRANCH  21  22
ENDBRANCH  20  21
ENDBRANCH  19  20
ENDBRANCH  18  19
ENDBRANCH  17  18
ENDBRANCH  16  17
ENDBRANCH  15  16
ENDBRANCH  14  15
ENDBRANCH  11  14
ENDBRANCH   5  10
ENDBRANCH   3   5
ENDBRANCH   2   3
TORSDOF 13
ENDMDL
MODEL      141
REMARK 921   NORMALIZED FREE ENERGY PREDICTED BY IDOCK:   -3.49 KCAL/MOL
REMARK 922        TOTAL FREE ENERGY PREDICTED BY IDOCK:   -8.25 KCAL/MOL
REMARK 923 INTER-LIGAND FREE ENERGY PREDICTED BY IDOCK:   -7.33 KCAL/MOL
REMARK 924 INTRA-LIGAND FREE ENERGY PREDICTED BY IDOCK:   -0.93 KCAL/MOL
REMARK 927      BINDING AFFINITY PREDICTED BY RF-SCORE:    0.00 PKD
ROOT
HETATM    1  C   UNL     1     -10.213   8.282  68.605  1.00  0.00    -0.204 C  
HETATM    2  O   UNL     1     -10.383   8.115  70.011  1.00  0.00    -0.206 OA 
ENDROOT
BRANCH   2   3
HETATM    3  C   UNL     1     -10.863   6.901  70.403  1.00  0.00    -0.261 C  
HETATM    4  O   UNL     1     -11.132   5.968  69.656  1.00  0.00    -0.369 OA 
BRANCH   3   5
HETATM    5  C   UNL     1     -10.996   6.864  71.928  1.00  0.00    -0.235 C  
BRANCH   5   6
HETATM    6  C   UNL     1     -11.607   5.544  72.417  1.00  0.00    -0.230 C  
HETATM    7  C   UNL     1     -10.187   5.385  74.535  1.00  0.00    -0.293 C  
HETATM    8  C   UNL     1     -11.403   3.376  73.674  1.00  0.00    -0.210 C  
HETATM    9  C   UNL     1     -10.678   4.666  73.277  1.00  0.00    -0.313 C  
ENDBRANCH   5   6
BRANCH   5  10
HETATM   10  N   UNL     1     -11.830   7.986  72.360  1.00  0.00    -0.397 N  
HETATM   11  C   UNL     1     -13.138   8.092  71.952  1.00  0.00    -0.327 C  
HETATM   12  H   UNL     1     -11.435   8.699  72.973  1.00  0.00     0.000 HD 
HETATM   13  O   UNL     1     -13.693   7.277  71.224  1.00  0.00    -0.361 OA 
BRANCH  11  14
HETATM   14  C   UNL     1     -13.839   9.336  72.443  1.00  0.00    -0.484 C  
BRANCH  14  15
HETATM   15  C   UNL     1     -13.076  10.582  72.000  1.00  0.00    -0.511 C  
BRANCH  15  16
HETATM   16  C   UNL     1     -12.970  10.705  70.479  1.00  0.00    -0.277 C  
BRANCH  16  17
HETATM   17  C   UNL     1     -11.710  11.452  70.045  1.00  0.00    -0.416 C  
BRANCH  17  18
HETATM   18  C   UNL     1     -11.732  11.799  68.560  1.00  0.00    -0.390 C  
BRANCH  18  19
HETATM   19  C   UNL     1     -11.916  13.305  68.378  1.00  0.00    -0.336 C  
BRANCH  19  20
HETATM   20  C   UNL     1     -11.231  14.086  69.496  1.00  0.00    -0.249 C  
BRANCH  20  21
HETATM   21  C   UNL     1     -12.003  15.367  69.817  1.00  0.00    -0.381 C  
BRANCH  21  22
HETATM   22  C   UNL     1     -13.094  15.099  70.810  1.00  0.00    -0.450 C  
HETATM   23  C   UNL     1     -12.937  14.350  71.909  1.00  0.00    -0.426 C  
ENDBRANCH  21  22
ENDBRANCH  20  21
ENDBRANCH  19  20
ENDBRANCH  18  19
ENDBRANCH  17  18
ENDBRANCH  16  17
ENDBRANCH  15  16
ENDBRANCH  14  15
ENDBRANCH  11  14
ENDBRANCH   5  10
ENDBRANCH   3   5
ENDBRANCH   2   3
TORSDOF 13
ENDMDL
MODEL      142
REMARK 921   NORMALIZED FREE ENERGY PREDICTED BY IDOCK:   -3.49 KCAL/MOL
REMARK 922        TOTAL FREE ENERGY PREDICTED BY IDOCK:   -8.25 KCAL/MOL
REMARK 923 INTER-LIGAND FREE ENERGY PREDICTED BY IDOCK:   -7.30 KCAL/MOL
REMARK 924 INTRA-LIGAND FREE ENERGY PREDICTED BY IDOCK:   -0.95 KCAL/MOL
REMARK 927      BINDING AFFINITY PREDICTED BY RF-SCORE:    0.00 PKD
ROOT
HETATM    1  C   UNL     1     -11.387   6.702  72.578  1.00  0.00    -0.253 C  
HETATM    2  O   UNL     1     -10.810   7.923  73.036  1.00  0.00    -0.383 OA 
ENDROOT
BRANCH   2   3
HETATM    3  C   UNL     1      -9.865   8.467  72.218  1.00  0.00    -0.313 C  
HETATM    4  O   UNL     1      -8.727   8.774  72.552  1.00  0.00    -0.406 OA 
BRANCH   3   5
HETATM    5  C   UNL     1     -10.428   8.615  70.801  1.00  0.00    -0.204 C  
BRANCH   5   6
HETATM    6  C   UNL     1      -9.447   8.099  69.739  1.00  0.00    -0.159 C  
HETATM    7  C   UNL     1     -10.937   6.185  68.937  1.00  0.00    -0.424 C  
HETATM    8  C   UNL     1      -8.501   6.212  68.373  1.00  0.00    -0.114 C  
HETATM    9  C   UNL     1      -9.547   6.594  69.426  1.00  0.00    -0.148 C  
ENDBRANCH   5   6
BRANCH   5  10
HETATM   10  N   UNL     1     -10.729  10.025  70.554  1.00  0.00    -0.329 N  
HETATM   11  C   UNL     1     -11.999  10.520  70.733  1.00  0.00    -0.370 C  
HETATM   12  H   UNL     1      -9.985  10.651  70.245  1.00  0.00     0.000 HD 
HETATM   13  O   UNL     1     -12.947   9.840  71.110  1.00  0.00    -0.350 OA 
BRANCH  11  14
HETATM   14  C   UNL     1     -12.149  11.980  70.383  1.00  0.00    -0.407 C  
BRANCH  14  15
HETATM   15  C   UNL     1     -11.312  12.316  69.150  1.00  0.00    -0.330 C  
BRANCH  15  16
HETATM   16  C   UNL     1     -11.820  13.553  68.406  1.00  0.00    -0.408 C  
BRANCH  16  17
HETATM   17  C   UNL     1     -11.905  13.325  66.899  1.00  0.00    -0.446 C  
BRANCH  17  18
HETATM   18  C   UNL     1     -10.629  13.755  66.181  1.00  0.00    -0.291 C  
BRANCH  18  19
HETATM   19  C   UNL     1     -10.864  15.071  65.441  1.00  0.00    -0.376 C  
BRANCH  19  20
HETATM   20  C   UNL     1      -9.887  16.149  65.903  1.00  0.00    -0.384 C  
BRANCH  20  21
HETATM   21  C   UNL     1     -10.552  17.526  65.895  1.00  0.00    -0.203 C  
BRANCH  21  22
HETATM   22  C   UNL     1     -10.535  18.137  67.264  1.00  0.00    -0.407 C  
HETATM   23  C   UNL     1     -10.580  19.455  67.495  1.00  0.00    -0.591 C  
ENDBRANCH  21  22
ENDBRANCH  20  21
ENDBRANCH  19  20
ENDBRANCH  18  19
ENDBRANCH  17  18
ENDBRANCH  16  17
ENDBRANCH  15  16
ENDBRANCH  14  15
ENDBRANCH  11  14
ENDBRANCH   5  10
ENDBRANCH   3   5
ENDBRANCH   2   3
TORSDOF 13
ENDMDL
MODEL      143
REMARK 921   NORMALIZED FREE ENERGY PREDICTED BY IDOCK:   -3.49 KCAL/MOL
REMARK 922        TOTAL FREE ENERGY PREDICTED BY IDOCK:   -8.24 KCAL/MOL
REMARK 923 INTER-LIGAND FREE ENERGY PREDICTED BY IDOCK:   -7.36 KCAL/MOL
REMARK 924 INTRA-LIGAND FREE ENERGY PREDICTED BY IDOCK:   -0.88 KCAL/MOL
REMARK 927      BINDING AFFINITY PREDICTED BY RF-SCORE:    0.00 PKD
ROOT
HETATM    1  C   UNL     1     -14.097   9.010  72.439  1.00  0.00    -0.404 C  
HETATM    2  O   UNL     1     -12.698   8.740  72.375  1.00  0.00    -0.386 OA 
ENDROOT
BRANCH   2   3
HETATM    3  C   UNL     1     -12.309   7.899  71.375  1.00  0.00    -0.312 C  
HETATM    4  O   UNL     1     -12.878   6.862  71.056  1.00  0.00    -0.333 OA 
BRANCH   3   5
HETATM    5  C   UNL     1     -11.060   8.457  70.685  1.00  0.00    -0.256 C  
BRANCH   5   6
HETATM    6  C   UNL     1      -9.968   8.833  71.696  1.00  0.00    -0.381 C  
HETATM    7  C   UNL     1      -8.820   6.552  71.678  1.00  0.00    -0.135 C  
HETATM    8  C   UNL     1      -8.359   8.184  73.516  1.00  0.00    -0.299 C  
HETATM    9  C   UNL     1      -9.419   7.666  72.538  1.00  0.00    -0.222 C  
ENDBRANCH   5   6
BRANCH   5  10
HETATM   10  N   UNL     1     -11.437   9.634  69.901  1.00  0.00    -0.413 N  
HETATM   11  C   UNL     1     -11.018   9.781  68.601  1.00  0.00    -0.147 C  
HETATM   12  H   UNL     1     -12.019  10.356  70.327  1.00  0.00     0.000 HD 
HETATM   13  O   UNL     1     -10.325   8.960  68.011  1.00  0.00    -0.204 OA 
BRANCH  11  14
HETATM   14  C   UNL     1     -11.449  11.076  67.955  1.00  0.00    -0.365 C  
BRANCH  14  15
HETATM   15  C   UNL     1     -11.920  12.065  69.019  1.00  0.00    -0.321 C  
BRANCH  15  16
HETATM   16  C   UNL     1     -11.866  13.519  68.545  1.00  0.00    -0.398 C  
BRANCH  16  17
HETATM   17  C   UNL     1     -11.171  13.660  67.193  1.00  0.00    -0.327 C  
BRANCH  17  18
HETATM   18  C   UNL     1     -11.035  15.119  66.768  1.00  0.00    -0.321 C  
BRANCH  18  19
HETATM   19  C   UNL     1      -9.899  15.785  67.542  1.00  0.00    -0.229 C  
BRANCH  19  20
HETATM   20  C   UNL     1     -10.232  17.237  67.877  1.00  0.00    -0.332 C  
BRANCH  20  21
HETATM   21  C   UNL     1     -10.363  18.073  66.604  1.00  0.00    -0.375 C  
BRANCH  21  22
HETATM   22  C   UNL     1     -10.618  19.513  66.933  1.00  0.00    -0.602 C  
HETATM   23  C   UNL     1      -9.664  20.373  67.313  1.00  0.00    -0.602 C  
ENDBRANCH  21  22
ENDBRANCH  20  21
ENDBRANCH  19  20
ENDBRANCH  18  19
ENDBRANCH  17  18
ENDBRANCH  16  17
ENDBRANCH  15  16
ENDBRANCH  14  15
ENDBRANCH  11  14
ENDBRANCH   5  10
ENDBRANCH   3   5
ENDBRANCH   2   3
TORSDOF 13
ENDMDL
MODEL      144
REMARK 921   NORMALIZED FREE ENERGY PREDICTED BY IDOCK:   -3.48 KCAL/MOL
REMARK 922        TOTAL FREE ENERGY PREDICTED BY IDOCK:   -8.24 KCAL/MOL
REMARK 923 INTER-LIGAND FREE ENERGY PREDICTED BY IDOCK:   -7.08 KCAL/MOL
REMARK 924 INTRA-LIGAND FREE ENERGY PREDICTED BY IDOCK:   -1.15 KCAL/MOL
REMARK 927      BINDING AFFINITY PREDICTED BY RF-SCORE:    0.00 PKD
ROOT
HETATM    1  C   UNL     1     -11.521  11.903  64.334  1.00  0.00    -0.320 C  
HETATM    2  O   UNL     1     -12.186  12.000  65.592  1.00  0.00    -0.503 OA 
ENDROOT
BRANCH   2   3
HETATM    3  C   UNL     1     -12.477  13.267  66.004  1.00  0.00    -0.321 C  
HETATM    4  O   UNL     1     -13.020  14.129  65.323  1.00  0.00    -0.725 OA 
BRANCH   3   5
HETATM    5  C   UNL     1     -12.047  13.450  67.463  1.00  0.00    -0.279 C  
BRANCH   5   6
HETATM    6  C   UNL     1     -10.909  14.471  67.599  1.00  0.00    -0.275 C  
HETATM    7  C   UNL     1     -12.002  15.806  69.483  1.00  0.00    -0.326 C  
HETATM    8  C   UNL     1     -10.108  16.784  68.176  1.00  0.00    -0.282 C  
HETATM    9  C   UNL     1     -11.330  15.862  68.110  1.00  0.00    -0.311 C  
ENDBRANCH   5   6
BRANCH   5  10
HETATM   10  N   UNL     1     -11.618  12.157  67.997  1.00  0.00    -0.330 N  
HETATM   11  C   UNL     1     -11.786  11.850  69.326  1.00  0.00    -0.328 C  
HETATM   12  H   UNL     1     -11.189  11.473  67.373  1.00  0.00     0.000 HD 
HETATM   13  O   UNL     1     -12.299  12.609  70.141  1.00  0.00    -0.250 OA 
BRANCH  11  14
HETATM   14  C   UNL     1     -11.241  10.500  69.723  1.00  0.00    -0.361 C  
BRANCH  14  15
HETATM   15  C   UNL     1     -11.517  10.232  71.201  1.00  0.00    -0.319 C  
BRANCH  15  16
HETATM   16  C   UNL     1     -10.852   8.950  71.707  1.00  0.00    -0.436 C  
BRANCH  16  17
HETATM   17  C   UNL     1     -10.580   7.956  70.580  1.00  0.00    -0.221 C  
BRANCH  17  18
HETATM   18  C   UNL     1      -9.098   7.617  70.460  1.00  0.00    -0.151 C  
BRANCH  18  19
HETATM   19  C   UNL     1      -8.924   6.126  70.177  1.00  0.00    -0.149 C  
BRANCH  19  20
HETATM   20  C   UNL     1     -10.231   5.366  70.382  1.00  0.00    -0.332 C  
BRANCH  20  21
HETATM   21  C   UNL     1     -10.004   4.109  71.223  1.00  0.00    -0.216 C  
BRANCH  21  22
HETATM   22  C   UNL     1     -10.190   4.400  72.682  1.00  0.00    -0.239 C  
HETATM   23  C   UNL     1     -11.275   4.998  73.193  1.00  0.00    -0.408 C  
ENDBRANCH  21  22
ENDBRANCH  20  21
ENDBRANCH  19  20
ENDBRANCH  18  19
ENDBRANCH  17  18
ENDBRANCH  16  17
ENDBRANCH  15  16
ENDBRANCH  14  15
ENDBRANCH  11  14
ENDBRANCH   5  10
ENDBRANCH   3   5
ENDBRANCH   2   3
TORSDOF 13
ENDMDL
MODEL      145
REMARK 921   NORMALIZED FREE ENERGY PREDICTED BY IDOCK:   -3.48 KCAL/MOL
REMARK 922        TOTAL FREE ENERGY PREDICTED BY IDOCK:   -8.22 KCAL/MOL
REMARK 923 INTER-LIGAND FREE ENERGY PREDICTED BY IDOCK:   -8.38 KCAL/MOL
REMARK 924 INTRA-LIGAND FREE ENERGY PREDICTED BY IDOCK:    0.15 KCAL/MOL
REMARK 927      BINDING AFFINITY PREDICTED BY RF-SCORE:    0.00 PKD
ROOT
HETATM    1  C   UNL     1     -12.707  11.968  63.490  1.00  0.00    -0.443 C  
HETATM    2  O   UNL     1     -12.426  13.366  63.510  1.00  0.00    -0.738 OA 
ENDROOT
BRANCH   2   3
HETATM    3  C   UNL     1     -12.176  13.896  64.741  1.00  0.00    -0.415 C  
HETATM    4  O   UNL     1     -13.000  14.032  65.637  1.00  0.00    -0.608 OA 
BRANCH   3   5
HETATM    5  C   UNL     1     -10.696  14.275  64.852  1.00  0.00    -0.432 C  
BRANCH   5   6
HETATM    6  C   UNL     1      -9.830  13.080  65.273  1.00  0.00    -0.102 C  
HETATM    7  C   UNL     1     -10.397  13.230  67.759  1.00  0.00    -0.233 C  
HETATM    8  C   UNL     1      -8.423  11.901  66.992  1.00  0.00    -0.177 C  
HETATM    9  C   UNL     1      -9.285  13.137  66.714  1.00  0.00    -0.232 C  
ENDBRANCH   5   6
BRANCH   5  10
HETATM   10  N   UNL     1     -10.555  15.358  65.826  1.00  0.00    -0.328 N  
HETATM   11  C   UNL     1     -10.842  16.658  65.485  1.00  0.00    -0.163 C  
HETATM   12  H   UNL     1     -10.239  15.144  66.772  1.00  0.00     0.000 HD 
HETATM   13  O   UNL     1     -11.235  17.000  64.375  1.00  0.00    -1.167 OA 
BRANCH  11  14
HETATM   14  C   UNL     1     -10.592  17.656  66.588  1.00  0.00    -0.211 C  
BRANCH  14  15
HETATM   15  C   UNL     1     -10.671  19.080  66.040  1.00  0.00    -0.417 C  
BRANCH  15  16
HETATM   16  C   UNL     1      -9.751  20.053  66.780  1.00  0.00    -0.563 C  
BRANCH  16  17
HETATM   17  C   UNL     1      -8.969  19.372  67.900  1.00  0.00    -0.369 C  
BRANCH  17  18
HETATM   18  C   UNL     1      -7.569  19.956  68.058  1.00  0.00    -0.332 C  
BRANCH  18  19
HETATM   19  C   UNL     1      -7.214  20.802  66.836  1.00  0.00    -0.337 C  
BRANCH  19  20
HETATM   20  C   UNL     1      -7.023  19.933  65.596  1.00  0.00    -0.331 C  
BRANCH  20  21
HETATM   21  C   UNL     1      -5.574  19.985  65.112  1.00  0.00    -0.203 C  
BRANCH  21  22
HETATM   22  C   UNL     1      -5.409  19.224  63.831  1.00  0.00    -0.304 C  
HETATM   23  C   UNL     1      -5.681  19.729  62.621  1.00  0.00    -0.274 C  
ENDBRANCH  21  22
ENDBRANCH  20  21
ENDBRANCH  19  20
ENDBRANCH  18  19
ENDBRANCH  17  18
ENDBRANCH  16  17
ENDBRANCH  15  16
ENDBRANCH  14  15
ENDBRANCH  11  14
ENDBRANCH   5  10
ENDBRANCH   3   5
ENDBRANCH   2   3
TORSDOF 13
ENDMDL
MODEL      146
REMARK 921   NORMALIZED FREE ENERGY PREDICTED BY IDOCK:   -3.47 KCAL/MOL
REMARK 922        TOTAL FREE ENERGY PREDICTED BY IDOCK:   -8.22 KCAL/MOL
REMARK 923 INTER-LIGAND FREE ENERGY PREDICTED BY IDOCK:   -6.95 KCAL/MOL
REMARK 924 INTRA-LIGAND FREE ENERGY PREDICTED BY IDOCK:   -1.27 KCAL/MOL
REMARK 927      BINDING AFFINITY PREDICTED BY RF-SCORE:    0.00 PKD
ROOT
HETATM    1  C   UNL     1     -11.192  15.093  67.290  1.00  0.00    -0.324 C  
HETATM    2  O   UNL     1     -12.215  14.127  67.525  1.00  0.00    -0.370 OA 
ENDROOT
BRANCH   2   3
HETATM    3  C   UNL     1     -11.832  12.825  67.392  1.00  0.00    -0.342 C  
HETATM    4  O   UNL     1     -12.131  12.088  66.460  1.00  0.00    -0.617 OA 
BRANCH   3   5
HETATM    5  C   UNL     1     -10.945  12.422  68.574  1.00  0.00    -0.245 C  
BRANCH   5   6
HETATM    6  C   UNL     1      -9.809  11.485  68.142  1.00  0.00    -0.197 C  
HETATM    7  C   UNL     1      -8.016  13.302  68.043  1.00  0.00    -0.152 C  
HETATM    8  C   UNL     1      -7.642  11.095  66.929  1.00  0.00    -0.145 C  
HETATM    9  C   UNL     1      -8.692  12.143  67.309  1.00  0.00    -0.182 C  
ENDBRANCH   5   6
BRANCH   5  10
HETATM   10  N   UNL     1     -11.773  11.764  69.585  1.00  0.00    -0.321 N  
HETATM   11  C   UNL     1     -12.335  12.481  70.615  1.00  0.00    -0.282 C  
HETATM   12  H   UNL     1     -11.935  10.759  69.526  1.00  0.00     0.000 HD 
HETATM   13  O   UNL     1     -12.198  13.691  70.756  1.00  0.00    -0.343 OA 
BRANCH  11  14
HETATM   14  C   UNL     1     -13.112  11.643  71.600  1.00  0.00    -0.456 C  
BRANCH  14  15
HETATM   15  C   UNL     1     -13.204  10.200  71.108  1.00  0.00    -0.438 C  
BRANCH  15  16
HETATM   16  C   UNL     1     -13.316   9.189  72.251  1.00  0.00    -0.540 C  
BRANCH  16  17
HETATM   17  C   UNL     1     -12.081   8.296  72.357  1.00  0.00    -0.430 C  
BRANCH  17  18
HETATM   18  C   UNL     1     -12.348   6.885  71.842  1.00  0.00    -0.364 C  
BRANCH  18  19
HETATM   19  C   UNL     1     -11.027   6.154  71.612  1.00  0.00    -0.320 C  
BRANCH  19  20
HETATM   20  C   UNL     1     -10.174   6.864  70.565  1.00  0.00    -0.209 C  
BRANCH  20  21
HETATM   21  C   UNL     1     -10.672   6.550  69.153  1.00  0.00    -0.323 C  
BRANCH  21  22
HETATM   22  C   UNL     1     -10.125   5.240  68.671  1.00  0.00    -0.238 C  
HETATM   23  C   UNL     1      -8.835   5.032  68.378  1.00  0.00    -0.111 C  
ENDBRANCH  21  22
ENDBRANCH  20  21
ENDBRANCH  19  20
ENDBRANCH  18  19
ENDBRANCH  17  18
ENDBRANCH  16  17
ENDBRANCH  15  16
ENDBRANCH  14  15
ENDBRANCH  11  14
ENDBRANCH   5  10
ENDBRANCH   3   5
ENDBRANCH   2   3
TORSDOF 13
ENDMDL
MODEL      147
REMARK 921   NORMALIZED FREE ENERGY PREDICTED BY IDOCK:   -3.47 KCAL/MOL
REMARK 922        TOTAL FREE ENERGY PREDICTED BY IDOCK:   -8.22 KCAL/MOL
REMARK 923 INTER-LIGAND FREE ENERGY PREDICTED BY IDOCK:   -7.30 KCAL/MOL
REMARK 924 INTRA-LIGAND FREE ENERGY PREDICTED BY IDOCK:   -0.91 KCAL/MOL
REMARK 927      BINDING AFFINITY PREDICTED BY RF-SCORE:    0.00 PKD
ROOT
HETATM    1  C   UNL     1     -10.377  16.125  67.578  1.00  0.00    -0.286 C  
HETATM    2  O   UNL     1     -10.767  14.986  66.814  1.00  0.00    -0.296 OA 
ENDROOT
BRANCH   2   3
HETATM    3  C   UNL     1      -9.993  13.876  66.981  1.00  0.00    -0.258 C  
HETATM    4  O   UNL     1      -8.787  13.876  67.193  1.00  0.00    -0.209 OA 
BRANCH   3   5
HETATM    5  C   UNL     1     -10.864  12.618  66.891  1.00  0.00    -0.254 C  
BRANCH   5   6
HETATM    6  C   UNL     1     -11.819  12.669  65.691  1.00  0.00    -0.488 C  
HETATM    7  C   UNL     1     -10.478  11.049  64.241  1.00  0.00    -0.427 C  
HETATM    8  C   UNL     1     -12.224  12.515  63.214  1.00  0.00    -0.512 C  
HETATM    9  C   UNL     1     -11.167  12.412  64.319  1.00  0.00    -0.408 C  
ENDBRANCH   5   6
BRANCH   5  10
HETATM   10  N   UNL     1     -11.631  12.482  68.129  1.00  0.00    -0.319 N  
HETATM   11  C   UNL     1     -11.225  11.622  69.122  1.00  0.00    -0.263 C  
HETATM   12  H   UNL     1     -12.479  13.034  68.259  1.00  0.00     0.000 HD 
HETATM   13  O   UNL     1     -10.216  10.929  69.052  1.00  0.00    -0.198 OA 
BRANCH  11  14
HETATM   14  C   UNL     1     -12.158  11.562  70.307  1.00  0.00    -0.444 C  
BRANCH  14  15
HETATM   15  C   UNL     1     -11.876  10.311  71.138  1.00  0.00    -0.455 C  
BRANCH  15  16
HETATM   16  C   UNL     1     -13.128   9.468  71.385  1.00  0.00    -0.449 C  
BRANCH  16  17
HETATM   17  C   UNL     1     -12.789   8.050  71.841  1.00  0.00    -0.343 C  
BRANCH  17  18
HETATM   18  C   UNL     1     -11.433   7.589  71.317  1.00  0.00    -0.298 C  
BRANCH  18  19
HETATM   19  C   UNL     1     -11.626   6.585  70.181  1.00  0.00    -0.466 C  
BRANCH  19  20
HETATM   20  C   UNL     1     -10.445   5.623  70.085  1.00  0.00    -0.366 C  
BRANCH  20  21
HETATM   21  C   UNL     1     -10.183   4.946  71.431  1.00  0.00    -0.257 C  
BRANCH  21  22
HETATM   22  C   UNL     1      -9.273   3.766  71.269  1.00  0.00    -0.197 C  
HETATM   23  C   UNL     1      -8.836   3.013  72.287  1.00  0.00    -0.112 C  
ENDBRANCH  21  22
ENDBRANCH  20  21
ENDBRANCH  19  20
ENDBRANCH  18  19
ENDBRANCH  17  18
ENDBRANCH  16  17
ENDBRANCH  15  16
ENDBRANCH  14  15
ENDBRANCH  11  14
ENDBRANCH   5  10
ENDBRANCH   3   5
ENDBRANCH   2   3
TORSDOF 13
ENDMDL
MODEL      148
REMARK 921   NORMALIZED FREE ENERGY PREDICTED BY IDOCK:   -3.47 KCAL/MOL
REMARK 922        TOTAL FREE ENERGY PREDICTED BY IDOCK:   -8.21 KCAL/MOL
REMARK 923 INTER-LIGAND FREE ENERGY PREDICTED BY IDOCK:   -6.50 KCAL/MOL
REMARK 924 INTRA-LIGAND FREE ENERGY PREDICTED BY IDOCK:   -1.72 KCAL/MOL
REMARK 927      BINDING AFFINITY PREDICTED BY RF-SCORE:    0.00 PKD
ROOT
HETATM    1  C   UNL     1      -7.454   7.319  69.004  1.00  0.00    -0.097 C  
HETATM    2  O   UNL     1      -8.297   6.259  68.558  1.00  0.00    -0.114 OA 
ENDROOT
BRANCH   2   3
HETATM    3  C   UNL     1      -9.485   6.646  68.013  1.00  0.00    -0.118 C  
HETATM    4  O   UNL     1      -9.938   6.254  66.944  1.00  0.00    -0.149 OA 
BRANCH   3   5
HETATM    5  C   UNL     1     -10.190   7.629  68.952  1.00  0.00    -0.210 C  
BRANCH   5   6
HETATM    6  C   UNL     1     -11.207   6.924  69.860  1.00  0.00    -0.334 C  
HETATM    7  C   UNL     1     -10.807   8.424  71.889  1.00  0.00    -0.372 C  
HETATM    8  C   UNL     1     -11.976   6.229  72.151  1.00  0.00    -0.338 C  
HETATM    9  C   UNL     1     -10.900   6.989  71.368  1.00  0.00    -0.253 C  
ENDBRANCH   5   6
BRANCH   5  10
HETATM   10  N   UNL     1     -10.866   8.650  68.150  1.00  0.00    -0.464 N  
HETATM   11  C   UNL     1     -10.432   9.954  68.152  1.00  0.00    -0.215 C  
HETATM   12  H   UNL     1     -11.672   8.389  67.580  1.00  0.00     0.000 HD 
HETATM   13  O   UNL     1      -9.469  10.350  68.800  1.00  0.00    -0.158 OA 
BRANCH  11  14
HETATM   14  C   UNL     1     -11.272  10.887  67.315  1.00  0.00    -0.307 C  
BRANCH  14  15
HETATM   15  C   UNL     1     -10.387  11.674  66.351  1.00  0.00    -0.266 C  
BRANCH  15  16
HETATM   16  C   UNL     1     -11.183  12.624  65.454  1.00  0.00    -0.334 C  
BRANCH  16  17
HETATM   17  C   UNL     1     -12.158  13.489  66.250  1.00  0.00    -0.476 C  
BRANCH  17  18
HETATM   18  C   UNL     1     -11.455  14.642  66.958  1.00  0.00    -0.379 C  
BRANCH  18  19
HETATM   19  C   UNL     1     -12.032  14.824  68.361  1.00  0.00    -0.270 C  
BRANCH  19  20
HETATM   20  C   UNL     1     -11.311  13.942  69.376  1.00  0.00    -0.311 C  
BRANCH  20  21
HETATM   21  C   UNL     1     -12.258  13.519  70.500  1.00  0.00    -0.433 C  
BRANCH  21  22
HETATM   22  C   UNL     1     -12.303  12.026  70.628  1.00  0.00    -0.394 C  
HETATM   23  C   UNL     1     -13.026  11.376  71.549  1.00  0.00    -0.505 C  
ENDBRANCH  21  22
ENDBRANCH  20  21
ENDBRANCH  19  20
ENDBRANCH  18  19
ENDBRANCH  17  18
ENDBRANCH  16  17
ENDBRANCH  15  16
ENDBRANCH  14  15
ENDBRANCH  11  14
ENDBRANCH   5  10
ENDBRANCH   3   5
ENDBRANCH   2   3
TORSDOF 13
ENDMDL
MODEL      149
REMARK 921   NORMALIZED FREE ENERGY PREDICTED BY IDOCK:   -3.47 KCAL/MOL
REMARK 922        TOTAL FREE ENERGY PREDICTED BY IDOCK:   -8.21 KCAL/MOL
REMARK 923 INTER-LIGAND FREE ENERGY PREDICTED BY IDOCK:   -6.38 KCAL/MOL
REMARK 924 INTRA-LIGAND FREE ENERGY PREDICTED BY IDOCK:   -1.84 KCAL/MOL
REMARK 927      BINDING AFFINITY PREDICTED BY RF-SCORE:    0.00 PKD
ROOT
HETATM    1  C   UNL     1     -10.373  18.549  66.179  1.00  0.00    -0.426 C  
HETATM    2  O   UNL     1     -10.619  17.295  65.544  1.00  0.00    -0.580 OA 
ENDROOT
BRANCH   2   3
HETATM    3  C   UNL     1     -10.529  16.202  66.354  1.00  0.00    -0.301 C  
HETATM    4  O   UNL     1     -11.027  16.099  67.468  1.00  0.00    -0.313 OA 
BRANCH   3   5
HETATM    5  C   UNL     1      -9.728  15.101  65.651  1.00  0.00    -0.316 C  
BRANCH   5   6
HETATM    6  C   UNL     1     -10.580  14.342  64.624  1.00  0.00    -0.364 C  
HETATM    7  C   UNL     1     -11.795  12.890  66.339  1.00  0.00    -0.478 C  
HETATM    8  C   UNL     1     -11.814  12.269  63.917  1.00  0.00    -0.553 C  
HETATM    9  C   UNL     1     -10.993  12.916  65.037  1.00  0.00    -0.324 C  
ENDBRANCH   5   6
BRANCH   5  10
HETATM   10  N   UNL     1      -9.217  14.170  66.657  1.00  0.00    -0.343 N  
HETATM   11  C   UNL     1      -7.971  14.341  67.211  1.00  0.00    -0.168 C  
HETATM   12  H   UNL     1      -9.794  13.382  66.952  1.00  0.00     0.000 HD 
HETATM   13  O   UNL     1      -7.217  15.263  66.920  1.00  0.00    -0.161 OA 
BRANCH  11  14
HETATM   14  C   UNL     1      -7.576  13.263  68.190  1.00  0.00    -0.141 C  
BRANCH  14  15
HETATM   15  C   UNL     1      -8.564  12.100  68.122  1.00  0.00    -0.177 C  
BRANCH  15  16
HETATM   16  C   UNL     1      -8.047  10.839  68.817  1.00  0.00    -0.143 C  
BRANCH  16  17
HETATM   17  C   UNL     1      -9.181   9.955  69.329  1.00  0.00    -0.207 C  
BRANCH  17  18
HETATM   18  C   UNL     1     -10.404  10.006  68.419  1.00  0.00    -0.218 C  
BRANCH  18  19
HETATM   19  C   UNL     1     -10.744   8.602  67.920  1.00  0.00    -0.158 C  
BRANCH  19  20
HETATM   20  C   UNL     1      -9.999   8.276  66.629  1.00  0.00    -0.348 C  
BRANCH  20  21
HETATM   21  C   UNL     1      -9.943   9.497  65.709  1.00  0.00    -0.316 C  
BRANCH  21  22
HETATM   22  C   UNL     1      -8.714   9.465  64.851  1.00  0.00    -0.220 C  
HETATM   23  C   UNL     1      -7.632  10.223  65.066  1.00  0.00    -0.124 C  
ENDBRANCH  21  22
ENDBRANCH  20  21
ENDBRANCH  19  20
ENDBRANCH  18  19
ENDBRANCH  17  18
ENDBRANCH  16  17
ENDBRANCH  15  16
ENDBRANCH  14  15
ENDBRANCH  11  14
ENDBRANCH   5  10
ENDBRANCH   3   5
ENDBRANCH   2   3
TORSDOF 13
ENDMDL
MODEL      150
REMARK 921   NORMALIZED FREE ENERGY PREDICTED BY IDOCK:   -3.47 KCAL/MOL
REMARK 922        TOTAL FREE ENERGY PREDICTED BY IDOCK:   -8.21 KCAL/MOL
REMARK 923 INTER-LIGAND FREE ENERGY PREDICTED BY IDOCK:   -7.26 KCAL/MOL
REMARK 924 INTRA-LIGAND FREE ENERGY PREDICTED BY IDOCK:   -0.96 KCAL/MOL
REMARK 927      BINDING AFFINITY PREDICTED BY RF-SCORE:    0.00 PKD
ROOT
HETATM    1  C   UNL     1     -10.849  10.669  67.292  1.00  0.00    -0.287 C  
HETATM    2  O   UNL     1     -12.054  11.405  67.495  1.00  0.00    -0.592 OA 
ENDROOT
BRANCH   2   3
HETATM    3  C   UNL     1     -11.890  12.716  67.830  1.00  0.00    -0.323 C  
HETATM    4  O   UNL     1     -12.273  13.673  67.167  1.00  0.00    -0.372 OA 
BRANCH   3   5
HETATM    5  C   UNL     1     -11.174  12.821  69.180  1.00  0.00    -0.237 C  
BRANCH   5   6
HETATM    6  C   UNL     1     -12.160  12.766  70.355  1.00  0.00    -0.382 C  
HETATM    7  C   UNL     1     -12.764  15.246  70.287  1.00  0.00    -0.353 C  
HETATM    8  C   UNL     1     -13.296  13.872  72.306  1.00  0.00    -0.599 C  
HETATM    9  C   UNL     1     -12.306  14.074  71.155  1.00  0.00    -0.443 C  
ENDBRANCH   5   6
BRANCH   5  10
HETATM   10  N   UNL     1     -10.422  14.075  69.223  1.00  0.00    -0.431 N  
HETATM   11  C   UNL     1      -9.173  14.170  68.658  1.00  0.00    -0.146 C  
HETATM   12  H   UNL     1     -10.831  14.891  69.678  1.00  0.00     0.000 HD 
HETATM   13  O   UNL     1      -8.612  13.243  68.085  1.00  0.00    -0.166 OA 
BRANCH  11  14
HETATM   14  C   UNL     1      -8.513  15.516  68.838  1.00  0.00    -0.207 C  
BRANCH  14  15
HETATM   15  C   UNL     1      -7.687  15.869  67.603  1.00  0.00    -0.169 C  
BRANCH  15  16
HETATM   16  C   UNL     1      -6.620  16.929  67.885  1.00  0.00    -0.152 C  
BRANCH  16  17
HETATM   17  C   UNL     1      -6.880  17.677  69.190  1.00  0.00    -0.229 C  
BRANCH  17  18
HETATM   18  C   UNL     1      -7.206  19.148  68.952  1.00  0.00    -0.376 C  
BRANCH  18  19
HETATM   19  C   UNL     1      -8.693  19.309  68.640  1.00  0.00    -0.402 C  
BRANCH  19  20
HETATM   20  C   UNL     1      -8.912  20.240  67.451  1.00  0.00    -0.457 C  
BRANCH  20  21
HETATM   21  C   UNL     1      -8.473  19.572  66.148  1.00  0.00    -0.329 C  
BRANCH  21  22
HETATM   22  C   UNL     1      -7.211  20.192  65.627  1.00  0.00    -0.303 C  
HETATM   23  C   UNL     1      -6.203  19.496  65.087  1.00  0.00    -0.300 C  
ENDBRANCH  21  22
ENDBRANCH  20  21
ENDBRANCH  19  20
ENDBRANCH  18  19
ENDBRANCH  17  18
ENDBRANCH  16  17
ENDBRANCH  15  16
ENDBRANCH  14  15
ENDBRANCH  11  14
ENDBRANCH   5  10
ENDBRANCH   3   5
ENDBRANCH   2   3
TORSDOF 13
ENDMDL
MODEL      151
REMARK 921   NORMALIZED FREE ENERGY PREDICTED BY IDOCK:   -3.47 KCAL/MOL
REMARK 922        TOTAL FREE ENERGY PREDICTED BY IDOCK:   -8.21 KCAL/MOL
REMARK 923 INTER-LIGAND FREE ENERGY PREDICTED BY IDOCK:   -6.59 KCAL/MOL
REMARK 924 INTRA-LIGAND FREE ENERGY PREDICTED BY IDOCK:   -1.62 KCAL/MOL
REMARK 927      BINDING AFFINITY PREDICTED BY RF-SCORE:    0.00 PKD
ROOT
HETATM    1  C   UNL     1      -6.469   9.640  70.634  1.00  0.00    -0.105 C  
HETATM    2  O   UNL     1      -7.787   9.336  70.181  1.00  0.00    -0.092 OA 
ENDROOT
BRANCH   2   3
HETATM    3  C   UNL     1      -8.700   9.084  71.162  1.00  0.00    -0.203 C  
HETATM    4  O   UNL     1      -8.436   8.864  72.338  1.00  0.00    -0.396 OA 
BRANCH   3   5
HETATM    5  C   UNL     1     -10.116   9.142  70.581  1.00  0.00    -0.247 C  
BRANCH   5   6
HETATM    6  C   UNL     1     -10.395   7.964  69.638  1.00  0.00    -0.216 C  
HETATM    7  C   UNL     1     -11.143   6.352  71.473  1.00  0.00    -0.322 C  
HETATM    8  C   UNL     1     -10.516   5.489  69.211  1.00  0.00    -0.336 C  
HETATM    9  C   UNL     1     -10.231   6.565  70.264  1.00  0.00    -0.227 C  
ENDBRANCH   5   6
BRANCH   5  10
HETATM   10  N   UNL     1     -10.282  10.404  69.860  1.00  0.00    -0.415 N  
HETATM   11  C   UNL     1     -11.422  11.157  70.006  1.00  0.00    -0.292 C  
HETATM   12  H   UNL     1      -9.540  10.730  69.239  1.00  0.00     0.000 HD 
HETATM   13  O   UNL     1     -12.356  10.845  70.736  1.00  0.00    -0.326 OA 
BRANCH  11  14
HETATM   14  C   UNL     1     -11.456  12.401  69.151  1.00  0.00    -0.358 C  
BRANCH  14  15
HETATM   15  C   UNL     1     -10.291  12.393  68.162  1.00  0.00    -0.231 C  
BRANCH  15  16
HETATM   16  C   UNL     1     -10.738  12.151  66.720  1.00  0.00    -0.269 C  
BRANCH  16  17
HETATM   17  C   UNL     1     -12.129  12.718  66.442  1.00  0.00    -0.370 C  
BRANCH  17  18
HETATM   18  C   UNL     1     -12.201  13.422  65.091  1.00  0.00    -0.473 C  
BRANCH  18  19
HETATM   19  C   UNL     1     -10.891  14.158  64.813  1.00  0.00    -0.426 C  
BRANCH  19  20
HETATM   20  C   UNL     1     -11.116  15.662  64.682  1.00  0.00    -0.387 C  
BRANCH  20  21
HETATM   21  C   UNL     1     -10.232  16.432  65.663  1.00  0.00    -0.349 C  
BRANCH  21  22
HETATM   22  C   UNL     1      -9.120  15.567  66.175  1.00  0.00    -0.359 C  
HETATM   23  C   UNL     1      -8.607  15.661  67.409  1.00  0.00    -0.192 C  
ENDBRANCH  21  22
ENDBRANCH  20  21
ENDBRANCH  19  20
ENDBRANCH  18  19
ENDBRANCH  17  18
ENDBRANCH  16  17
ENDBRANCH  15  16
ENDBRANCH  14  15
ENDBRANCH  11  14
ENDBRANCH   5  10
ENDBRANCH   3   5
ENDBRANCH   2   3
TORSDOF 13
ENDMDL
MODEL      152
REMARK 921   NORMALIZED FREE ENERGY PREDICTED BY IDOCK:   -3.46 KCAL/MOL
REMARK 922        TOTAL FREE ENERGY PREDICTED BY IDOCK:   -8.20 KCAL/MOL
REMARK 923 INTER-LIGAND FREE ENERGY PREDICTED BY IDOCK:   -7.39 KCAL/MOL
REMARK 924 INTRA-LIGAND FREE ENERGY PREDICTED BY IDOCK:   -0.81 KCAL/MOL
REMARK 927      BINDING AFFINITY PREDICTED BY RF-SCORE:    0.00 PKD
ROOT
HETATM    1  C   UNL     1      -9.741   9.213  66.300  1.00  0.00    -0.274 C  
HETATM    2  O   UNL     1     -10.725   9.281  67.329  1.00  0.00    -0.268 OA 
ENDROOT
BRANCH   2   3
HETATM    3  C   UNL     1     -11.095  10.539  67.704  1.00  0.00    -0.309 C  
HETATM    4  O   UNL     1     -11.860  11.269  67.086  1.00  0.00    -0.524 OA 
BRANCH   3   5
HETATM    5  C   UNL     1     -10.428  10.899  69.035  1.00  0.00    -0.219 C  
BRANCH   5   6
HETATM    6  C   UNL     1     -11.460  11.125  70.149  1.00  0.00    -0.361 C  
HETATM    7  C   UNL     1     -10.753   9.111  71.552  1.00  0.00    -0.437 C  
HETATM    8  C   UNL     1     -12.958  10.221  71.955  1.00  0.00    -0.554 C  
HETATM    9  C   UNL     1     -11.916   9.855  70.893  1.00  0.00    -0.434 C  
ENDBRANCH   5   6
BRANCH   5  10
HETATM   10  N   UNL     1      -9.625  12.108  68.852  1.00  0.00    -0.413 N  
HETATM   11  C   UNL     1      -8.312  12.032  68.454  1.00  0.00    -0.151 C  
HETATM   12  H   UNL     1     -10.046  13.022  69.022  1.00  0.00     0.000 HD 
HETATM   13  O   UNL     1      -7.731  10.977  68.222  1.00  0.00    -0.102 OA 
BRANCH  11  14
HETATM   14  C   UNL     1      -7.613  13.366  68.366  1.00  0.00    -0.133 C  
BRANCH  14  15
HETATM   15  C   UNL     1      -8.126  14.153  67.162  1.00  0.00    -0.139 C  
BRANCH  15  16
HETATM   16  C   UNL     1      -9.104  15.263  67.550  1.00  0.00    -0.189 C  
BRANCH  16  17
HETATM   17  C   UNL     1      -9.182  16.361  66.491  1.00  0.00    -0.306 C  
BRANCH  17  18
HETATM   18  C   UNL     1     -10.477  16.293  65.689  1.00  0.00    -0.386 C  
BRANCH  18  19
HETATM   19  C   UNL     1     -10.551  14.972  64.925  1.00  0.00    -0.400 C  
BRANCH  19  20
HETATM   20  C   UNL     1     -11.858  14.238  65.210  1.00  0.00    -0.374 C  
BRANCH  20  21
HETATM   21  C   UNL     1     -12.458  13.674  63.922  1.00  0.00    -0.276 C  
BRANCH  21  22
HETATM   22  C   UNL     1     -11.943  12.293  63.651  1.00  0.00    -0.633 C  
HETATM   23  C   UNL     1     -10.643  11.984  63.561  1.00  0.00    -0.514 C  
ENDBRANCH  21  22
ENDBRANCH  20  21
ENDBRANCH  19  20
ENDBRANCH  18  19
ENDBRANCH  17  18
ENDBRANCH  16  17
ENDBRANCH  15  16
ENDBRANCH  14  15
ENDBRANCH  11  14
ENDBRANCH   5  10
ENDBRANCH   3   5
ENDBRANCH   2   3
TORSDOF 13
ENDMDL
MODEL      153
REMARK 921   NORMALIZED FREE ENERGY PREDICTED BY IDOCK:   -3.46 KCAL/MOL
REMARK 922        TOTAL FREE ENERGY PREDICTED BY IDOCK:   -8.19 KCAL/MOL
REMARK 923 INTER-LIGAND FREE ENERGY PREDICTED BY IDOCK:   -6.51 KCAL/MOL
REMARK 924 INTRA-LIGAND FREE ENERGY PREDICTED BY IDOCK:   -1.68 KCAL/MOL
REMARK 927      BINDING AFFINITY PREDICTED BY RF-SCORE:    0.00 PKD
ROOT
HETATM    1  C   UNL     1      -8.613   7.729  73.159  1.00  0.00    -0.177 C  
HETATM    2  O   UNL     1      -9.813   8.407  72.794  1.00  0.00    -0.274 OA 
ENDROOT
BRANCH   2   3
HETATM    3  C   UNL     1      -9.829   8.933  71.537  1.00  0.00    -0.314 C  
HETATM    4  O   UNL     1      -8.901   8.894  70.738  1.00  0.00    -0.168 OA 
BRANCH   3   5
HETATM    5  C   UNL     1     -11.196   9.564  71.256  1.00  0.00    -0.382 C  
BRANCH   5   6
HETATM    6  C   UNL     1     -12.250   8.509  70.897  1.00  0.00    -0.110 C  
HETATM    7  C   UNL     1     -14.008   9.342  72.552  1.00  0.00    -0.398 C  
HETATM    8  C   UNL     1     -14.201   7.061  71.545  1.00  0.00    -0.413 C  
HETATM    9  C   UNL     1     -13.224   8.136  72.031  1.00  0.00    -0.306 C  
ENDBRANCH   5   6
BRANCH   5  10
HETATM   10  N   UNL     1     -11.060  10.523  70.158  1.00  0.00    -0.332 N  
HETATM   11  C   UNL     1     -11.811  11.673  70.127  1.00  0.00    -0.344 C  
HETATM   12  H   UNL     1     -10.398  10.334  69.405  1.00  0.00     0.000 HD 
HETATM   13  O   UNL     1     -12.623  11.981  70.993  1.00  0.00    -0.364 OA 
BRANCH  11  14
HETATM   14  C   UNL     1     -11.589  12.524  68.900  1.00  0.00    -0.364 C  
BRANCH  14  15
HETATM   15  C   UNL     1     -11.616  11.655  67.644  1.00  0.00    -0.349 C  
BRANCH  15  16
HETATM   16  C   UNL     1     -10.239  11.510  66.992  1.00  0.00    -0.244 C  
BRANCH  16  17
HETATM   17  C   UNL     1     -10.208  10.396  65.948  1.00  0.00    -0.302 C  
BRANCH  17  18
HETATM   18  C   UNL     1      -9.316   9.235  66.375  1.00  0.00    -0.247 C  
BRANCH  18  19
HETATM   19  C   UNL     1     -10.146   7.958  66.505  1.00  0.00    -0.246 C  
BRANCH  19  20
HETATM   20  C   UNL     1     -10.592   7.731  67.947  1.00  0.00    -0.221 C  
BRANCH  20  21
HETATM   21  C   UNL     1     -10.796   6.241  68.225  1.00  0.00    -0.397 C  
BRANCH  21  22
HETATM   22  C   UNL     1      -9.865   5.764  69.299  1.00  0.00    -0.220 C  
HETATM   23  C   UNL     1     -10.271   5.303  70.489  1.00  0.00    -0.334 C  
ENDBRANCH  21  22
ENDBRANCH  20  21
ENDBRANCH  19  20
ENDBRANCH  18  19
ENDBRANCH  17  18
ENDBRANCH  16  17
ENDBRANCH  15  16
ENDBRANCH  14  15
ENDBRANCH  11  14
ENDBRANCH   5  10
ENDBRANCH   3   5
ENDBRANCH   2   3
TORSDOF 13
ENDMDL
MODEL      154
REMARK 921   NORMALIZED FREE ENERGY PREDICTED BY IDOCK:   -3.44 KCAL/MOL
REMARK 922        TOTAL FREE ENERGY PREDICTED BY IDOCK:   -8.16 KCAL/MOL
REMARK 923 INTER-LIGAND FREE ENERGY PREDICTED BY IDOCK:   -6.99 KCAL/MOL
REMARK 924 INTRA-LIGAND FREE ENERGY PREDICTED BY IDOCK:   -1.17 KCAL/MOL
REMARK 927      BINDING AFFINITY PREDICTED BY RF-SCORE:    0.00 PKD
ROOT
HETATM    1  C   UNL     1      -8.747   5.213  68.917  1.00  0.00    -0.089 C  
HETATM    2  O   UNL     1     -10.150   5.302  68.677  1.00  0.00    -0.168 OA 
ENDROOT
BRANCH   2   3
HETATM    3  C   UNL     1     -10.667   6.563  68.687  1.00  0.00    -0.271 C  
HETATM    4  O   UNL     1     -11.024   7.193  67.699  1.00  0.00    -0.218 OA 
BRANCH   3   5
HETATM    5  C   UNL     1     -10.762   7.072  70.129  1.00  0.00    -0.240 C  
BRANCH   5   6
HETATM    6  C   UNL     1     -11.393   6.031  71.063  1.00  0.00    -0.299 C  
HETATM    7  C   UNL     1     -10.373   6.973  73.207  1.00  0.00    -0.343 C  
HETATM    8  C   UNL     1     -11.326   4.661  73.170  1.00  0.00    -0.355 C  
HETATM    9  C   UNL     1     -10.597   5.729  72.347  1.00  0.00    -0.264 C  
ENDBRANCH   5   6
BRANCH   5  10
HETATM   10  N   UNL     1     -11.556   8.301  70.147  1.00  0.00    -0.466 N  
HETATM   11  C   UNL     1     -11.011   9.490  70.569  1.00  0.00    -0.288 C  
HETATM   12  H   UNL     1     -12.529   8.275  69.841  1.00  0.00     0.000 HD 
HETATM   13  O   UNL     1      -9.850   9.612  70.944  1.00  0.00    -0.245 OA 
BRANCH  11  14
HETATM   14  C   UNL     1     -11.980  10.647  70.577  1.00  0.00    -0.446 C  
BRANCH  14  15
HETATM   15  C   UNL     1     -11.479  11.762  69.661  1.00  0.00    -0.341 C  
BRANCH  15  16
HETATM   16  C   UNL     1     -11.771  11.493  68.183  1.00  0.00    -0.357 C  
BRANCH  16  17
HETATM   17  C   UNL     1     -10.786  12.207  67.261  1.00  0.00    -0.286 C  
BRANCH  17  18
HETATM   18  C   UNL     1     -10.301  13.527  67.851  1.00  0.00    -0.249 C  
BRANCH  18  19
HETATM   19  C   UNL     1     -11.172  14.677  67.346  1.00  0.00    -0.351 C  
BRANCH  19  20
HETATM   20  C   UNL     1     -11.325  15.764  68.407  1.00  0.00    -0.372 C  
BRANCH  20  21
HETATM   21  C   UNL     1     -12.054  15.224  69.638  1.00  0.00    -0.342 C  
BRANCH  21  22
HETATM   22  C   UNL     1     -11.596  15.926  70.882  1.00  0.00    -0.456 C  
HETATM   23  C   UNL     1     -12.187  15.794  72.076  1.00  0.00    -0.548 C  
ENDBRANCH  21  22
ENDBRANCH  20  21
ENDBRANCH  19  20
ENDBRANCH  18  19
ENDBRANCH  17  18
ENDBRANCH  16  17
ENDBRANCH  15  16
ENDBRANCH  14  15
ENDBRANCH  11  14
ENDBRANCH   5  10
ENDBRANCH   3   5
ENDBRANCH   2   3
TORSDOF 13
ENDMDL
MODEL      155
REMARK 921   NORMALIZED FREE ENERGY PREDICTED BY IDOCK:   -3.44 KCAL/MOL
REMARK 922        TOTAL FREE ENERGY PREDICTED BY IDOCK:   -8.16 KCAL/MOL
REMARK 923 INTER-LIGAND FREE ENERGY PREDICTED BY IDOCK:   -7.12 KCAL/MOL
REMARK 924 INTRA-LIGAND FREE ENERGY PREDICTED BY IDOCK:   -1.04 KCAL/MOL
REMARK 927      BINDING AFFINITY PREDICTED BY RF-SCORE:    0.00 PKD
ROOT
HETATM    1  C   UNL     1     -12.548  13.774  65.373  1.00  0.00    -0.497 C  
HETATM    2  O   UNL     1     -12.330  12.724  66.314  1.00  0.00    -0.521 OA 
ENDROOT
BRANCH   2   3
HETATM    3  C   UNL     1     -11.717  13.095  67.473  1.00  0.00    -0.366 C  
HETATM    4  O   UNL     1     -12.093  13.988  68.223  1.00  0.00    -0.355 OA 
BRANCH   3   5
HETATM    5  C   UNL     1     -10.493  12.207  67.719  1.00  0.00    -0.205 C  
BRANCH   5   6
HETATM    6  C   UNL     1     -10.441  11.022  66.745  1.00  0.00    -0.300 C  
HETATM    7  C   UNL     1      -7.914  11.111  66.383  1.00  0.00    -0.147 C  
HETATM    8  C   UNL     1      -9.374   9.837  64.801  1.00  0.00    -0.327 C  
HETATM    9  C   UNL     1      -9.292  11.060  65.720  1.00  0.00    -0.236 C  
ENDBRANCH   5   6
BRANCH   5  10
HETATM   10  N   UNL     1     -10.531  11.716  69.096  1.00  0.00    -0.405 N  
HETATM   11  C   UNL     1     -11.564  10.922  69.535  1.00  0.00    -0.313 C  
HETATM   12  H   UNL     1      -9.780  11.965  69.740  1.00  0.00     0.000 HD 
HETATM   13  O   UNL     1     -12.501  10.569  68.827  1.00  0.00    -0.161 OA 
BRANCH  11  14
HETATM   14  C   UNL     1     -11.479  10.548  70.995  1.00  0.00    -0.207 C  
BRANCH  14  15
HETATM   15  C   UNL     1     -12.880  10.366  71.576  1.00  0.00    -0.569 C  
BRANCH  15  16
HETATM   16  C   UNL     1     -13.018   9.088  72.406  1.00  0.00    -0.471 C  
BRANCH  16  17
HETATM   17  C   UNL     1     -13.669   7.955  71.616  1.00  0.00    -0.422 C  
BRANCH  17  18
HETATM   18  C   UNL     1     -12.640   6.963  71.083  1.00  0.00    -0.366 C  
BRANCH  18  19
HETATM   19  C   UNL     1     -12.104   6.101  72.225  1.00  0.00    -0.237 C  
BRANCH  19  20
HETATM   20  C   UNL     1     -10.586   5.960  72.148  1.00  0.00    -0.264 C  
BRANCH  20  21
HETATM   21  C   UNL     1      -9.989   7.006  71.205  1.00  0.00    -0.196 C  
BRANCH  21  22
HETATM   22  C   UNL     1      -9.127   7.975  71.957  1.00  0.00    -0.217 C  
HETATM   23  C   UNL     1      -9.008   7.991  73.291  1.00  0.00    -0.338 C  
ENDBRANCH  21  22
ENDBRANCH  20  21
ENDBRANCH  19  20
ENDBRANCH  18  19
ENDBRANCH  17  18
ENDBRANCH  16  17
ENDBRANCH  15  16
ENDBRANCH  14  15
ENDBRANCH  11  14
ENDBRANCH   5  10
ENDBRANCH   3   5
ENDBRANCH   2   3
TORSDOF 13
ENDMDL
MODEL      156
REMARK 921   NORMALIZED FREE ENERGY PREDICTED BY IDOCK:   -3.43 KCAL/MOL
REMARK 922        TOTAL FREE ENERGY PREDICTED BY IDOCK:   -8.14 KCAL/MOL
REMARK 923 INTER-LIGAND FREE ENERGY PREDICTED BY IDOCK:   -7.10 KCAL/MOL
REMARK 924 INTRA-LIGAND FREE ENERGY PREDICTED BY IDOCK:   -1.04 KCAL/MOL
REMARK 927      BINDING AFFINITY PREDICTED BY RF-SCORE:    0.00 PKD
ROOT
HETATM    1  C   UNL     1      -7.969  14.511  68.316  1.00  0.00    -0.137 C  
HETATM    2  O   UNL     1      -9.134  13.701  68.464  1.00  0.00    -0.183 OA 
ENDROOT
BRANCH   2   3
HETATM    3  C   UNL     1      -9.187  12.601  67.661  1.00  0.00    -0.191 C  
HETATM    4  O   UNL     1      -8.298  12.229  66.904  1.00  0.00    -0.181 OA 
BRANCH   3   5
HETATM    5  C   UNL     1     -10.521  11.875  67.862  1.00  0.00    -0.204 C  
BRANCH   5   6
HETATM    6  C   UNL     1     -11.248  11.636  66.533  1.00  0.00    -0.356 C  
HETATM    7  C   UNL     1     -11.095  14.055  65.729  1.00  0.00    -0.305 C  
HETATM    8  C   UNL     1     -12.703  12.468  64.658  1.00  0.00    -0.434 C  
HETATM    9  C   UNL     1     -12.008  12.852  65.968  1.00  0.00    -0.505 C  
ENDBRANCH   5   6
BRANCH   5  10
HETATM   10  N   UNL     1     -11.365  12.673  68.752  1.00  0.00    -0.268 N  
HETATM   11  C   UNL     1     -11.827  12.158  69.940  1.00  0.00    -0.319 C  
HETATM   12  H   UNL     1     -11.615  13.626  68.487  1.00  0.00     0.000 HD 
HETATM   13  O   UNL     1     -11.569  11.027  70.338  1.00  0.00    -0.308 OA 
BRANCH  11  14
HETATM   14  C   UNL     1     -12.728  13.091  70.710  1.00  0.00    -0.243 C  
BRANCH  14  15
HETATM   15  C   UNL     1     -11.930  14.284  71.233  1.00  0.00    -0.315 C  
BRANCH  15  16
HETATM   16  C   UNL     1     -12.325  15.602  70.565  1.00  0.00    -0.443 C  
BRANCH  16  17
HETATM   17  C   UNL     1     -11.137  16.292  69.901  1.00  0.00    -0.347 C  
BRANCH  17  18
HETATM   18  C   UNL     1     -11.333  16.450  68.396  1.00  0.00    -0.268 C  
BRANCH  18  19
HETATM   19  C   UNL     1     -10.226  17.327  67.814  1.00  0.00    -0.332 C  
BRANCH  19  20
HETATM   20  C   UNL     1     -10.758  18.701  67.416  1.00  0.00    -0.456 C  
BRANCH  20  21
HETATM   21  C   UNL     1      -9.961  19.812  68.099  1.00  0.00    -0.557 C  
BRANCH  21  22
HETATM   22  C   UNL     1      -8.640  19.300  68.591  1.00  0.00    -0.401 C  
HETATM   23  C   UNL     1      -7.460  19.835  68.254  1.00  0.00    -0.346 C  
ENDBRANCH  21  22
ENDBRANCH  20  21
ENDBRANCH  19  20
ENDBRANCH  18  19
ENDBRANCH  17  18
ENDBRANCH  16  17
ENDBRANCH  15  16
ENDBRANCH  14  15
ENDBRANCH  11  14
ENDBRANCH   5  10
ENDBRANCH   3   5
ENDBRANCH   2   3
TORSDOF 13
ENDMDL
MODEL      157
REMARK 921   NORMALIZED FREE ENERGY PREDICTED BY IDOCK:   -3.40 KCAL/MOL
REMARK 922        TOTAL FREE ENERGY PREDICTED BY IDOCK:   -8.09 KCAL/MOL
REMARK 923 INTER-LIGAND FREE ENERGY PREDICTED BY IDOCK:   -7.09 KCAL/MOL
REMARK 924 INTRA-LIGAND FREE ENERGY PREDICTED BY IDOCK:   -1.01 KCAL/MOL
REMARK 927      BINDING AFFINITY PREDICTED BY RF-SCORE:    0.00 PKD
ROOT
HETATM    1  C   UNL     1     -13.905   8.518  71.806  1.00  0.00    -0.413 C  
HETATM    2  O   UNL     1     -13.139   7.431  71.292  1.00  0.00    -0.349 OA 
ENDROOT
BRANCH   2   3
HETATM    3  C   UNL     1     -11.838   7.388  71.698  1.00  0.00    -0.291 C  
HETATM    4  O   UNL     1     -11.438   7.638  72.829  1.00  0.00    -0.355 OA 
BRANCH   3   5
HETATM    5  C   UNL     1     -10.945   6.951  70.533  1.00  0.00    -0.273 C  
BRANCH   5   6
HETATM    6  C   UNL     1      -9.593   6.412  71.021  1.00  0.00    -0.188 C  
HETATM    7  C   UNL     1      -9.629   4.309  69.571  1.00  0.00    -0.274 C  
HETATM    8  C   UNL     1      -8.060   4.480  71.510  1.00  0.00    -0.100 C  
HETATM    9  C   UNL     1      -9.439   4.880  70.977  1.00  0.00    -0.225 C  
ENDBRANCH   5   6
BRANCH   5  10
HETATM   10  N   UNL     1     -10.732   8.093  69.644  1.00  0.00    -0.294 N  
HETATM   11  C   UNL     1     -10.780   7.945  68.278  1.00  0.00    -0.031 C  
HETATM   12  H   UNL     1     -10.545   9.013  70.044  1.00  0.00     0.000 HD 
HETATM   13  O   UNL     1     -11.006   6.879  67.717  1.00  0.00    -0.241 OA 
BRANCH  11  14
HETATM   14  C   UNL     1     -10.484   9.209  67.509  1.00  0.00    -0.335 C  
BRANCH  14  15
HETATM   15  C   UNL     1     -10.240  10.369  68.471  1.00  0.00    -0.191 C  
BRANCH  15  16
HETATM   16  C   UNL     1     -11.480  11.240  68.680  1.00  0.00    -0.362 C  
BRANCH  16  17
HETATM   17  C   UNL     1     -11.982  11.195  70.122  1.00  0.00    -0.449 C  
BRANCH  17  18
HETATM   18  C   UNL     1     -12.480  12.556  70.597  1.00  0.00    -0.323 C  
BRANCH  18  19
HETATM   19  C   UNL     1     -11.742  13.671  69.857  1.00  0.00    -0.346 C  
BRANCH  19  20
HETATM   20  C   UNL     1     -12.333  15.039  70.185  1.00  0.00    -0.380 C  
BRANCH  20  21
HETATM   21  C   UNL     1     -11.720  15.604  71.467  1.00  0.00    -0.504 C  
BRANCH  21  22
HETATM   22  C   UNL     1     -12.697  15.537  72.602  1.00  0.00    -0.510 C  
HETATM   23  C   UNL     1     -14.027  15.514  72.444  1.00  0.00    -0.653 C  
ENDBRANCH  21  22
ENDBRANCH  20  21
ENDBRANCH  19  20
ENDBRANCH  18  19
ENDBRANCH  17  18
ENDBRANCH  16  17
ENDBRANCH  15  16
ENDBRANCH  14  15
ENDBRANCH  11  14
ENDBRANCH   5  10
ENDBRANCH   3   5
ENDBRANCH   2   3
TORSDOF 13
ENDMDL
MODEL      158
REMARK 921   NORMALIZED FREE ENERGY PREDICTED BY IDOCK:   -3.40 KCAL/MOL
REMARK 922        TOTAL FREE ENERGY PREDICTED BY IDOCK:   -8.09 KCAL/MOL
REMARK 923 INTER-LIGAND FREE ENERGY PREDICTED BY IDOCK:   -6.11 KCAL/MOL
REMARK 924 INTRA-LIGAND FREE ENERGY PREDICTED BY IDOCK:   -1.97 KCAL/MOL
REMARK 927      BINDING AFFINITY PREDICTED BY RF-SCORE:    0.00 PKD
ROOT
HETATM    1  C   UNL     1     -10.307   9.394  67.224  1.00  0.00    -0.260 C  
HETATM    2  O   UNL     1     -10.262   9.512  65.804  1.00  0.00    -0.255 OA 
ENDROOT
BRANCH   2   3
HETATM    3  C   UNL     1      -9.496  10.534  65.325  1.00  0.00    -0.229 C  
HETATM    4  O   UNL     1      -8.913  10.541  64.248  1.00  0.00    -0.194 OA 
BRANCH   3   5
HETATM    5  C   UNL     1      -9.493  11.692  66.327  1.00  0.00    -0.218 C  
BRANCH   5   6
HETATM    6  C   UNL     1     -10.397  12.846  65.872  1.00  0.00    -0.297 C  
HETATM    7  C   UNL     1     -11.946  12.760  67.900  1.00  0.00    -0.320 C  
HETATM    8  C   UNL     1     -12.644  13.973  65.828  1.00  0.00    -0.512 C  
HETATM    9  C   UNL     1     -11.852  12.781  66.374  1.00  0.00    -0.472 C  
ENDBRANCH   5   6
BRANCH   5  10
HETATM   10  N   UNL     1      -8.121  12.174  66.492  1.00  0.00    -0.397 N  
HETATM   11  C   UNL     1      -7.473  12.067  67.700  1.00  0.00    -0.132 C  
HETATM   12  H   UNL     1      -7.637  12.594  65.698  1.00  0.00     0.000 HD 
HETATM   13  O   UNL     1      -7.977  11.569  68.700  1.00  0.00    -0.140 OA 
BRANCH  11  14
HETATM   14  C   UNL     1      -6.086  12.661  67.712  1.00  0.00    -0.127 C  
BRANCH  14  15
HETATM   15  C   UNL     1      -6.164  14.186  67.719  1.00  0.00    -0.153 C  
BRANCH  15  16
HETATM   16  C   UNL     1      -6.356  14.765  69.122  1.00  0.00    -0.108 C  
BRANCH  16  17
HETATM   17  C   UNL     1      -7.616  15.621  69.227  1.00  0.00    -0.222 C  
BRANCH  17  18
HETATM   18  C   UNL     1      -8.427  15.607  67.935  1.00  0.00    -0.153 C  
BRANCH  18  19
HETATM   19  C   UNL     1      -9.920  15.656  68.255  1.00  0.00    -0.213 C  
BRANCH  19  20
HETATM   20  C   UNL     1     -10.576  16.898  67.657  1.00  0.00    -0.325 C  
BRANCH  20  21
HETATM   21  C   UNL     1      -9.594  17.654  66.761  1.00  0.00    -0.297 C  
BRANCH  21  22
HETATM   22  C   UNL     1     -10.168  18.969  66.327  1.00  0.00    -0.510 C  
HETATM   23  C   UNL     1     -10.194  20.064  67.096  1.00  0.00    -0.580 C  
ENDBRANCH  21  22
ENDBRANCH  20  21
ENDBRANCH  19  20
ENDBRANCH  18  19
ENDBRANCH  17  18
ENDBRANCH  16  17
ENDBRANCH  15  16
ENDBRANCH  14  15
ENDBRANCH  11  14
ENDBRANCH   5  10
ENDBRANCH   3   5
ENDBRANCH   2   3
TORSDOF 13
ENDMDL
MODEL      159
REMARK 921   NORMALIZED FREE ENERGY PREDICTED BY IDOCK:   -3.39 KCAL/MOL
REMARK 922        TOTAL FREE ENERGY PREDICTED BY IDOCK:   -8.08 KCAL/MOL
REMARK 923 INTER-LIGAND FREE ENERGY PREDICTED BY IDOCK:   -7.16 KCAL/MOL
REMARK 924 INTRA-LIGAND FREE ENERGY PREDICTED BY IDOCK:   -0.92 KCAL/MOL
REMARK 927      BINDING AFFINITY PREDICTED BY RF-SCORE:    0.00 PKD
ROOT
HETATM    1  C   UNL     1      -9.788   6.681  73.011  1.00  0.00    -0.168 C  
HETATM    2  O   UNL     1     -10.133   8.064  72.986  1.00  0.00    -0.294 OA 
ENDROOT
BRANCH   2   3
HETATM    3  C   UNL     1      -9.806   8.728  71.841  1.00  0.00    -0.324 C  
HETATM    4  O   UNL     1      -8.681   9.100  71.531  1.00  0.00    -0.334 OA 
BRANCH   3   5
HETATM    5  C   UNL     1     -11.057   8.921  70.978  1.00  0.00    -0.276 C  
BRANCH   5   6
HETATM    6  C   UNL     1     -10.748   8.770  69.482  1.00  0.00    -0.196 C  
HETATM    7  C   UNL     1     -11.452   6.320  69.331  1.00  0.00    -0.348 C  
HETATM    8  C   UNL     1     -10.060   7.348  67.526  1.00  0.00    -0.250 C  
HETATM    9  C   UNL     1     -10.363   7.349  69.028  1.00  0.00    -0.214 C  
ENDBRANCH   5   6
BRANCH   5  10
HETATM   10  N   UNL     1     -11.613  10.249  71.238  1.00  0.00    -0.309 N  
HETATM   11  C   UNL     1     -12.896  10.399  71.709  1.00  0.00    -0.456 C  
HETATM   12  H   UNL     1     -11.041  11.076  71.067  1.00  0.00     0.000 HD 
HETATM   13  O   UNL     1     -13.647   9.460  71.949  1.00  0.00    -0.393 OA 
BRANCH  11  14
HETATM   14  C   UNL     1     -13.331  11.835  71.871  1.00  0.00    -0.401 C  
BRANCH  14  15
HETATM   15  C   UNL     1     -12.427  12.756  71.054  1.00  0.00    -0.369 C  
BRANCH  15  16
HETATM   16  C   UNL     1     -12.293  14.152  71.665  1.00  0.00    -0.349 C  
BRANCH  16  17
HETATM   17  C   UNL     1     -12.453  15.257  70.623  1.00  0.00    -0.458 C  
BRANCH  17  18
HETATM   18  C   UNL     1     -11.154  15.527  69.871  1.00  0.00    -0.318 C  
BRANCH  18  19
HETATM   19  C   UNL     1     -11.401  15.472  68.364  1.00  0.00    -0.357 C  
BRANCH  19  20
HETATM   20  C   UNL     1     -10.360  16.286  67.601  1.00  0.00    -0.284 C  
BRANCH  20  21
HETATM   21  C   UNL     1     -10.705  17.775  67.629  1.00  0.00    -0.330 C  
BRANCH  21  22
HETATM   22  C   UNL     1      -9.480  18.605  67.868  1.00  0.00    -0.331 C  
HETATM   23  C   UNL     1      -9.090  19.610  67.072  1.00  0.00    -0.402 C  
ENDBRANCH  21  22
ENDBRANCH  20  21
ENDBRANCH  19  20
ENDBRANCH  18  19
ENDBRANCH  17  18
ENDBRANCH  16  17
ENDBRANCH  15  16
ENDBRANCH  14  15
ENDBRANCH  11  14
ENDBRANCH   5  10
ENDBRANCH   3   5
ENDBRANCH   2   3
TORSDOF 13
ENDMDL
MODEL      160
REMARK 921   NORMALIZED FREE ENERGY PREDICTED BY IDOCK:   -3.38 KCAL/MOL
REMARK 922        TOTAL FREE ENERGY PREDICTED BY IDOCK:   -8.06 KCAL/MOL
REMARK 923 INTER-LIGAND FREE ENERGY PREDICTED BY IDOCK:   -7.27 KCAL/MOL
REMARK 924 INTRA-LIGAND FREE ENERGY PREDICTED BY IDOCK:   -0.79 KCAL/MOL
REMARK 927      BINDING AFFINITY PREDICTED BY RF-SCORE:    0.00 PKD
ROOT
HETATM    1  C   UNL     1     -10.790   6.561  67.186  1.00  0.00    -0.401 C  
HETATM    2  O   UNL     1     -10.180   7.177  68.319  1.00  0.00    -0.171 OA 
ENDROOT
BRANCH   2   3
HETATM    3  C   UNL     1     -10.647   6.763  69.531  1.00  0.00    -0.232 C  
HETATM    4  O   UNL     1     -11.039   5.633  69.794  1.00  0.00    -0.328 OA 
BRANCH   3   5
HETATM    5  C   UNL     1     -10.584   7.920  70.533  1.00  0.00    -0.223 C  
BRANCH   5   6
HETATM    6  C   UNL     1     -10.951   7.468  71.953  1.00  0.00    -0.272 C  
HETATM    7  C   UNL     1      -8.800   8.308  73.043  1.00  0.00    -0.302 C  
HETATM    8  C   UNL     1     -10.266   6.672  74.237  1.00  0.00    -0.354 C  
HETATM    9  C   UNL     1      -9.757   7.129  72.866  1.00  0.00    -0.200 C  
ENDBRANCH   5   6
BRANCH   5  10
HETATM   10  N   UNL     1     -11.499   8.976  70.097  1.00  0.00    -0.446 N  
HETATM   11  C   UNL     1     -11.021  10.163  69.597  1.00  0.00    -0.264 C  
HETATM   12  H   UNL     1     -12.506   8.828  70.166  1.00  0.00     0.000 HD 
HETATM   13  O   UNL     1      -9.829  10.420  69.473  1.00  0.00    -0.222 OA 
BRANCH  11  14
HETATM   14  C   UNL     1     -12.096  11.163  69.246  1.00  0.00    -0.377 C  
BRANCH  14  15
HETATM   15  C   UNL     1     -11.631  12.579  69.581  1.00  0.00    -0.323 C  
BRANCH  15  16
HETATM   16  C   UNL     1     -11.973  13.592  68.487  1.00  0.00    -0.379 C  
BRANCH  16  17
HETATM   17  C   UNL     1     -11.900  15.032  68.989  1.00  0.00    -0.330 C  
BRANCH  17  18
HETATM   18  C   UNL     1     -10.585  15.705  68.610  1.00  0.00    -0.243 C  
BRANCH  18  19
HETATM   19  C   UNL     1     -10.407  15.688  67.092  1.00  0.00    -0.285 C  
BRANCH  19  20
HETATM   20  C   UNL     1     -10.237  17.100  66.539  1.00  0.00    -0.322 C  
BRANCH  20  21
HETATM   21  C   UNL     1     -10.441  18.144  67.637  1.00  0.00    -0.432 C  
BRANCH  21  22
HETATM   22  C   UNL     1     -10.439  19.531  67.066  1.00  0.00    -0.587 C  
HETATM   23  C   UNL     1      -9.596  20.497  67.451  1.00  0.00    -0.578 C  
ENDBRANCH  21  22
ENDBRANCH  20  21
ENDBRANCH  19  20
ENDBRANCH  18  19
ENDBRANCH  17  18
ENDBRANCH  16  17
ENDBRANCH  15  16
ENDBRANCH  14  15
ENDBRANCH  11  14
ENDBRANCH   5  10
ENDBRANCH   3   5
ENDBRANCH   2   3
TORSDOF 13
ENDMDL
MODEL      161
REMARK 921   NORMALIZED FREE ENERGY PREDICTED BY IDOCK:   -3.36 KCAL/MOL
REMARK 922        TOTAL FREE ENERGY PREDICTED BY IDOCK:   -8.03 KCAL/MOL
REMARK 923 INTER-LIGAND FREE ENERGY PREDICTED BY IDOCK:   -6.60 KCAL/MOL
REMARK 924 INTRA-LIGAND FREE ENERGY PREDICTED BY IDOCK:   -1.43 KCAL/MOL
REMARK 927      BINDING AFFINITY PREDICTED BY RF-SCORE:    0.00 PKD
ROOT
HETATM    1  C   UNL     1     -13.309  15.496  71.335  1.00  0.00    -0.511 C  
HETATM    2  O   UNL     1     -12.184  14.638  71.161  1.00  0.00    -0.302 OA 
ENDROOT
BRANCH   2   3
HETATM    3  C   UNL     1     -11.595  14.687  69.932  1.00  0.00    -0.285 C  
HETATM    4  O   UNL     1     -11.206  15.704  69.370  1.00  0.00    -0.267 OA 
BRANCH   3   5
HETATM    5  C   UNL     1     -11.465  13.271  69.363  1.00  0.00    -0.263 C  
BRANCH   5   6
HETATM    6  C   UNL     1     -12.189  13.127  68.017  1.00  0.00    -0.091 C  
HETATM    7  C   UNL     1     -10.094  12.566  66.668  1.00  0.00    -0.241 C  
HETATM    8  C   UNL     1     -12.188  13.287  65.508  1.00  0.00    -0.506 C  
HETATM    9  C   UNL     1     -11.339  13.448  66.773  1.00  0.00    -0.353 C  
ENDBRANCH   5   6
BRANCH   5  10
HETATM   10  N   UNL     1     -12.016  12.319  70.327  1.00  0.00    -0.472 N  
HETATM   11  C   UNL     1     -11.617  11.003  70.329  1.00  0.00    -0.322 C  
HETATM   12  H   UNL     1     -12.707  12.636  71.007  1.00  0.00     0.000 HD 
HETATM   13  O   UNL     1     -10.788  10.542  69.554  1.00  0.00    -0.223 OA 
BRANCH  11  14
HETATM   14  C   UNL     1     -12.323  10.145  71.351  1.00  0.00    -0.515 C  
BRANCH  14  15
HETATM   15  C   UNL     1     -11.902   8.685  71.196  1.00  0.00    -0.331 C  
BRANCH  15  16
HETATM   16  C   UNL     1     -11.504   8.037  72.523  1.00  0.00    -0.471 C  
BRANCH  16  17
HETATM   17  C   UNL     1     -10.010   8.174  72.808  1.00  0.00    -0.361 C  
BRANCH  17  18
HETATM   18  C   UNL     1      -9.169   8.019  71.545  1.00  0.00    -0.188 C  
BRANCH  18  19
HETATM   19  C   UNL     1      -7.885   7.254  71.862  1.00  0.00    -0.091 C  
BRANCH  19  20
HETATM   20  C   UNL     1      -7.957   5.816  71.357  1.00  0.00    -0.113 C  
BRANCH  20  21
HETATM   21  C   UNL     1      -9.296   5.547  70.669  1.00  0.00    -0.195 C  
BRANCH  21  22
HETATM   22  C   UNL     1     -10.030   4.428  71.344  1.00  0.00    -0.248 C  
HETATM   23  C   UNL     1     -10.401   4.446  72.631  1.00  0.00    -0.248 C  
ENDBRANCH  21  22
ENDBRANCH  20  21
ENDBRANCH  19  20
ENDBRANCH  18  19
ENDBRANCH  17  18
ENDBRANCH  16  17
ENDBRANCH  15  16
ENDBRANCH  14  15
ENDBRANCH  11  14
ENDBRANCH   5  10
ENDBRANCH   3   5
ENDBRANCH   2   3
TORSDOF 13
ENDMDL
MODEL      162
REMARK 921   NORMALIZED FREE ENERGY PREDICTED BY IDOCK:   -3.36 KCAL/MOL
REMARK 922        TOTAL FREE ENERGY PREDICTED BY IDOCK:   -8.02 KCAL/MOL
REMARK 923 INTER-LIGAND FREE ENERGY PREDICTED BY IDOCK:   -6.50 KCAL/MOL
REMARK 924 INTRA-LIGAND FREE ENERGY PREDICTED BY IDOCK:   -1.51 KCAL/MOL
REMARK 927      BINDING AFFINITY PREDICTED BY RF-SCORE:    0.00 PKD
ROOT
HETATM    1  C   UNL     1     -12.502  12.007  63.615  1.00  0.00    -0.525 C  
HETATM    2  O   UNL     1     -11.601  13.021  64.053  1.00  0.00    -0.379 OA 
ENDROOT
BRANCH   2   3
HETATM    3  C   UNL     1     -12.077  13.845  65.029  1.00  0.00    -0.406 C  
HETATM    4  O   UNL     1     -13.233  14.239  65.126  1.00  0.00    -0.686 OA 
BRANCH   3   5
HETATM    5  C   UNL     1     -10.952  14.191  66.009  1.00  0.00    -0.304 C  
BRANCH   5   6
HETATM    6  C   UNL     1     -10.277  15.524  65.659  1.00  0.00    -0.403 C  
HETATM    7  C   UNL     1      -9.773  16.187  68.073  1.00  0.00    -0.229 C  
HETATM    8  C   UNL     1      -9.690  17.896  66.250  1.00  0.00    -0.278 C  
HETATM    9  C   UNL     1     -10.380  16.619  66.738  1.00  0.00    -0.295 C  
ENDBRANCH   5   6
BRANCH   5  10
HETATM   10  N   UNL     1      -9.960  13.115  65.993  1.00  0.00    -0.282 N  
HETATM   11  C   UNL     1      -9.855  12.235  67.043  1.00  0.00    -0.205 C  
HETATM   12  H   UNL     1      -9.339  13.016  65.190  1.00  0.00     0.000 HD 
HETATM   13  O   UNL     1     -10.565  12.277  68.041  1.00  0.00    -0.204 OA 
BRANCH  11  14
HETATM   14  C   UNL     1      -8.746  11.222  66.892  1.00  0.00    -0.157 C  
BRANCH  14  15
HETATM   15  C   UNL     1      -8.924  10.089  67.901  1.00  0.00    -0.131 C  
BRANCH  15  16
HETATM   16  C   UNL     1      -7.955   8.929  67.670  1.00  0.00    -0.102 C  
BRANCH  16  17
HETATM   17  C   UNL     1      -7.725   8.106  68.935  1.00  0.00    -0.103 C  
BRANCH  17  18
HETATM   18  C   UNL     1      -8.553   8.618  70.110  1.00  0.00    -0.138 C  
BRANCH  18  19
HETATM   19  C   UNL     1      -9.471   7.510  70.625  1.00  0.00    -0.164 C  
BRANCH  19  20
HETATM   20  C   UNL     1     -10.912   7.728  70.171  1.00  0.00    -0.246 C  
BRANCH  20  21
HETATM   21  C   UNL     1     -11.497   6.444  69.582  1.00  0.00    -0.446 C  
BRANCH  21  22
HETATM   22  C   UNL     1     -10.708   5.992  68.390  1.00  0.00    -0.351 C  
HETATM   23  C   UNL     1     -10.808   6.545  67.175  1.00  0.00    -0.472 C  
ENDBRANCH  21  22
ENDBRANCH  20  21
ENDBRANCH  19  20
ENDBRANCH  18  19
ENDBRANCH  17  18
ENDBRANCH  16  17
ENDBRANCH  15  16
ENDBRANCH  14  15
ENDBRANCH  11  14
ENDBRANCH   5  10
ENDBRANCH   3   5
ENDBRANCH   2   3
TORSDOF 13
ENDMDL
MODEL      163
REMARK 921   NORMALIZED FREE ENERGY PREDICTED BY IDOCK:   -3.35 KCAL/MOL
REMARK 922        TOTAL FREE ENERGY PREDICTED BY IDOCK:   -8.01 KCAL/MOL
REMARK 923 INTER-LIGAND FREE ENERGY PREDICTED BY IDOCK:   -7.67 KCAL/MOL
REMARK 924 INTRA-LIGAND FREE ENERGY PREDICTED BY IDOCK:   -0.34 KCAL/MOL
REMARK 927      BINDING AFFINITY PREDICTED BY RF-SCORE:    0.00 PKD
ROOT
HETATM    1  C   UNL     1     -10.089  16.089  65.728  1.00  0.00    -0.366 C  
HETATM    2  O   UNL     1     -11.111  15.676  66.633  1.00  0.00    -0.270 OA 
ENDROOT
BRANCH   2   3
HETATM    3  C   UNL     1     -10.798  15.780  67.956  1.00  0.00    -0.309 C  
HETATM    4  O   UNL     1      -9.807  16.339  68.410  1.00  0.00    -0.220 OA 
BRANCH   3   5
HETATM    5  C   UNL     1     -11.889  15.115  68.800  1.00  0.00    -0.303 C  
BRANCH   5   6
HETATM    6  C   UNL     1     -11.478  14.996  70.274  1.00  0.00    -0.308 C  
HETATM    7  C   UNL     1     -13.850  15.172  71.206  1.00  0.00    -0.553 C  
HETATM    8  C   UNL     1     -11.875  15.517  72.701  1.00  0.00    -0.575 C  
HETATM    9  C   UNL     1     -12.414  15.695  71.278  1.00  0.00    -0.503 C  
ENDBRANCH   5   6
BRANCH   5  10
HETATM   10  N   UNL     1     -12.168  13.786  68.255  1.00  0.00    -0.444 N  
HETATM   11  C   UNL     1     -11.174  12.842  68.148  1.00  0.00    -0.270 C  
HETATM   12  H   UNL     1     -13.114  13.557  67.949  1.00  0.00     0.000 HD 
HETATM   13  O   UNL     1     -10.015  13.032  68.499  1.00  0.00    -0.227 OA 
BRANCH  11  14
HETATM   14  C   UNL     1     -11.618  11.546  67.515  1.00  0.00    -0.322 C  
BRANCH  14  15
HETATM   15  C   UNL     1     -11.228  10.365  68.401  1.00  0.00    -0.318 C  
BRANCH  15  16
HETATM   16  C   UNL     1     -10.087   9.532  67.814  1.00  0.00    -0.244 C  
BRANCH  16  17
HETATM   17  C   UNL     1     -10.593   8.281  67.100  1.00  0.00    -0.340 C  
BRANCH  17  18
HETATM   18  C   UNL     1     -10.185   7.003  67.826  1.00  0.00    -0.227 C  
BRANCH  18  19
HETATM   19  C   UNL     1     -11.278   6.587  68.808  1.00  0.00    -0.319 C  
BRANCH  19  20
HETATM   20  C   UNL     1     -10.849   6.830  70.252  1.00  0.00    -0.314 C  
BRANCH  20  21
HETATM   21  C   UNL     1     -12.046   7.226  71.117  1.00  0.00    -0.376 C  
BRANCH  21  22
HETATM   22  C   UNL     1     -11.595   7.877  72.391  1.00  0.00    -0.436 C  
HETATM   23  C   UNL     1     -10.713   7.331  73.237  1.00  0.00    -0.428 C  
ENDBRANCH  21  22
ENDBRANCH  20  21
ENDBRANCH  19  20
ENDBRANCH  18  19
ENDBRANCH  17  18
ENDBRANCH  16  17
ENDBRANCH  15  16
ENDBRANCH  14  15
ENDBRANCH  11  14
ENDBRANCH   5  10
ENDBRANCH   3   5
ENDBRANCH   2   3
TORSDOF 13
ENDMDL
MODEL      164
REMARK 921   NORMALIZED FREE ENERGY PREDICTED BY IDOCK:   -3.35 KCAL/MOL
REMARK 922        TOTAL FREE ENERGY PREDICTED BY IDOCK:   -7.99 KCAL/MOL
REMARK 923 INTER-LIGAND FREE ENERGY PREDICTED BY IDOCK:   -6.90 KCAL/MOL
REMARK 924 INTRA-LIGAND FREE ENERGY PREDICTED BY IDOCK:   -1.09 KCAL/MOL
REMARK 927      BINDING AFFINITY PREDICTED BY RF-SCORE:    0.00 PKD
ROOT
HETATM    1  C   UNL     1      -8.218  10.181  64.122  1.00  0.00    -0.165 C  
HETATM    2  O   UNL     1      -8.337   9.761  65.480  1.00  0.00    -0.128 OA 
ENDROOT
BRANCH   2   3
HETATM    3  C   UNL     1      -8.543  10.759  66.386  1.00  0.00    -0.158 C  
HETATM    4  O   UNL     1      -7.706  11.581  66.740  1.00  0.00    -0.151 OA 
BRANCH   3   5
HETATM    5  C   UNL     1      -9.992  10.720  66.881  1.00  0.00    -0.200 C  
BRANCH   5   6
HETATM    6  C   UNL     1     -10.639   9.349  66.645  1.00  0.00    -0.170 C  
HETATM    7  C   UNL     1     -10.467   8.574  69.073  1.00  0.00    -0.216 C  
HETATM    8  C   UNL     1     -10.892   6.920  67.246  1.00  0.00    -0.426 C  
HETATM    9  C   UNL     1     -10.190   8.233  67.608  1.00  0.00    -0.294 C  
ENDBRANCH   5   6
BRANCH   5  10
HETATM   10  N   UNL     1     -10.758  11.756  66.188  1.00  0.00    -0.267 N  
HETATM   11  C   UNL     1     -11.714  12.490  66.850  1.00  0.00    -0.377 C  
HETATM   12  H   UNL     1     -10.581  11.936  65.200  1.00  0.00     0.000 HD 
HETATM   13  O   UNL     1     -11.984  12.344  68.037  1.00  0.00    -0.371 OA 
BRANCH  11  14
HETATM   14  C   UNL     1     -12.449  13.477  65.977  1.00  0.00    -0.456 C  
BRANCH  14  15
HETATM   15  C   UNL     1     -11.466  14.467  65.355  1.00  0.00    -0.344 C  
BRANCH  15  16
HETATM   16  C   UNL     1     -10.759  15.336  66.397  1.00  0.00    -0.318 C  
BRANCH  16  17
HETATM   17  C   UNL     1      -9.241  15.174  66.351  1.00  0.00    -0.334 C  
BRANCH  17  18
HETATM   18  C   UNL     1      -8.520  16.331  67.035  1.00  0.00    -0.232 C  
BRANCH  18  19
HETATM   19  C   UNL     1      -9.445  16.994  68.054  1.00  0.00    -0.256 C  
BRANCH  19  20
HETATM   20  C   UNL     1      -8.861  18.311  68.558  1.00  0.00    -0.322 C  
BRANCH  20  21
HETATM   21  C   UNL     1      -9.869  19.450  68.398  1.00  0.00    -0.513 C  
BRANCH  21  22
HETATM   22  C   UNL     1     -10.741  19.229  67.198  1.00  0.00    -0.584 C  
HETATM   23  C   UNL     1     -10.462  19.697  65.975  1.00  0.00    -0.622 C  
ENDBRANCH  21  22
ENDBRANCH  20  21
ENDBRANCH  19  20
ENDBRANCH  18  19
ENDBRANCH  17  18
ENDBRANCH  16  17
ENDBRANCH  15  16
ENDBRANCH  14  15
ENDBRANCH  11  14
ENDBRANCH   5  10
ENDBRANCH   3   5
ENDBRANCH   2   3
TORSDOF 13
ENDMDL
MODEL      165
REMARK 921   NORMALIZED FREE ENERGY PREDICTED BY IDOCK:   -3.34 KCAL/MOL
REMARK 922        TOTAL FREE ENERGY PREDICTED BY IDOCK:   -7.99 KCAL/MOL
REMARK 923 INTER-LIGAND FREE ENERGY PREDICTED BY IDOCK:   -6.67 KCAL/MOL
REMARK 924 INTRA-LIGAND FREE ENERGY PREDICTED BY IDOCK:   -1.32 KCAL/MOL
REMARK 927      BINDING AFFINITY PREDICTED BY RF-SCORE:    0.00 PKD
ROOT
HETATM    1  C   UNL     1      -7.352   7.888  72.770  1.00  0.00    -0.101 C  
HETATM    2  O   UNL     1      -8.467   8.766  72.911  1.00  0.00    -0.409 OA 
ENDROOT
BRANCH   2   3
HETATM    3  C   UNL     1      -9.690   8.163  72.914  1.00  0.00    -0.270 C  
HETATM    4  O   UNL     1     -10.086   7.364  73.754  1.00  0.00    -0.327 OA 
BRANCH   3   5
HETATM    5  C   UNL     1     -10.513   8.654  71.719  1.00  0.00    -0.324 C  
BRANCH   5   6
HETATM    6  C   UNL     1     -11.977   8.205  71.810  1.00  0.00    -0.348 C  
HETATM    7  C   UNL     1     -12.962  10.405  70.963  1.00  0.00    -0.490 C  
HETATM    8  C   UNL     1     -14.410   8.745  72.147  1.00  0.00    -0.481 C  
HETATM    9  C   UNL     1     -12.999   9.333  72.054  1.00  0.00    -0.504 C  
ENDBRANCH   5   6
BRANCH   5  10
HETATM   10  N   UNL     1      -9.914   8.141  70.487  1.00  0.00    -0.186 N  
HETATM   11  C   UNL     1      -9.311   8.988  69.587  1.00  0.00    -0.167 C  
HETATM   12  H   UNL     1      -9.943   7.139  70.293  1.00  0.00     0.000 HD 
HETATM   13  O   UNL     1      -9.225  10.200  69.745  1.00  0.00    -0.208 OA 
BRANCH  11  14
HETATM   14  C   UNL     1      -8.794   8.303  68.345  1.00  0.00    -0.137 C  
BRANCH  14  15
HETATM   15  C   UNL     1      -8.769   9.283  67.174  1.00  0.00    -0.134 C  
BRANCH  15  16
HETATM   16  C   UNL     1     -10.143   9.475  66.530  1.00  0.00    -0.326 C  
BRANCH  16  17
HETATM   17  C   UNL     1     -10.290  10.849  65.880  1.00  0.00    -0.310 C  
BRANCH  17  18
HETATM   18  C   UNL     1     -11.140  11.794  66.722  1.00  0.00    -0.360 C  
BRANCH  18  19
HETATM   19  C   UNL     1     -10.241  12.676  67.587  1.00  0.00    -0.217 C  
BRANCH  19  20
HETATM   20  C   UNL     1     -10.541  14.156  67.371  1.00  0.00    -0.279 C  
BRANCH  20  21
HETATM   21  C   UNL     1     -11.835  14.559  68.080  1.00  0.00    -0.348 C  
BRANCH  21  22
HETATM   22  C   UNL     1     -11.648  14.571  69.568  1.00  0.00    -0.350 C  
HETATM   23  C   UNL     1     -12.575  14.159  70.441  1.00  0.00    -0.397 C  
ENDBRANCH  21  22
ENDBRANCH  20  21
ENDBRANCH  19  20
ENDBRANCH  18  19
ENDBRANCH  17  18
ENDBRANCH  16  17
ENDBRANCH  15  16
ENDBRANCH  14  15
ENDBRANCH  11  14
ENDBRANCH   5  10
ENDBRANCH   3   5
ENDBRANCH   2   3
TORSDOF 13
ENDMDL
MODEL      166
REMARK 921   NORMALIZED FREE ENERGY PREDICTED BY IDOCK:   -3.34 KCAL/MOL
REMARK 922        TOTAL FREE ENERGY PREDICTED BY IDOCK:   -7.99 KCAL/MOL
REMARK 923 INTER-LIGAND FREE ENERGY PREDICTED BY IDOCK:   -7.34 KCAL/MOL
REMARK 924 INTRA-LIGAND FREE ENERGY PREDICTED BY IDOCK:   -0.65 KCAL/MOL
REMARK 927      BINDING AFFINITY PREDICTED BY RF-SCORE:    0.00 PKD
ROOT
HETATM    1  C   UNL     1     -13.587  13.472  72.202  1.00  0.00    -0.557 C  
HETATM    2  O   UNL     1     -12.410  13.864  71.499  1.00  0.00    -0.323 OA 
ENDROOT
BRANCH   2   3
HETATM    3  C   UNL     1     -12.538  14.974  70.717  1.00  0.00    -0.370 C  
HETATM    4  O   UNL     1     -13.553  15.651  70.605  1.00  0.00    -0.448 OA 
BRANCH   3   5
HETATM    5  C   UNL     1     -11.210  15.268  70.014  1.00  0.00    -0.287 C  
BRANCH   5   6
HETATM    6  C   UNL     1     -11.402  16.158  68.778  1.00  0.00    -0.359 C  
HETATM    7  C   UNL     1      -8.991  16.998  68.702  1.00  0.00    -0.267 C  
HETATM    8  C   UNL     1     -10.786  18.191  67.433  1.00  0.00    -0.355 C  
HETATM    9  C   UNL     1     -10.471  17.383  68.696  1.00  0.00    -0.355 C  
ENDBRANCH   5   6
BRANCH   5  10
HETATM   10  N   UNL     1     -10.590  14.002  69.621  1.00  0.00    -0.443 N  
HETATM   11  C   UNL     1     -11.098  13.258  68.583  1.00  0.00    -0.268 C  
HETATM   12  H   UNL     1      -9.769  13.667  70.125  1.00  0.00     0.000 HD 
HETATM   13  O   UNL     1     -12.074  13.590  67.920  1.00  0.00    -0.346 OA 
BRANCH  11  14
HETATM   14  C   UNL     1     -10.374  11.955  68.344  1.00  0.00    -0.216 C  
BRANCH  14  15
HETATM   15  C   UNL     1     -11.327  10.778  68.542  1.00  0.00    -0.360 C  
BRANCH  15  16
HETATM   16  C   UNL     1     -10.966   9.568  67.678  1.00  0.00    -0.150 C  
BRANCH  16  17
HETATM   17  C   UNL     1      -9.687   8.881  68.151  1.00  0.00    -0.180 C  
BRANCH  17  18
HETATM   18  C   UNL     1      -9.871   8.193  69.499  1.00  0.00    -0.181 C  
BRANCH  18  19
HETATM   19  C   UNL     1     -10.779   6.974  69.344  1.00  0.00    -0.259 C  
BRANCH  19  20
HETATM   20  C   UNL     1     -11.771   6.871  70.500  1.00  0.00    -0.401 C  
BRANCH  20  21
HETATM   21  C   UNL     1     -11.184   7.473  71.777  1.00  0.00    -0.281 C  
BRANCH  21  22
HETATM   22  C   UNL     1     -12.137   8.450  72.397  1.00  0.00    -0.443 C  
HETATM   23  C   UNL     1     -12.694   9.473  71.736  1.00  0.00    -0.492 C  
ENDBRANCH  21  22
ENDBRANCH  20  21
ENDBRANCH  19  20
ENDBRANCH  18  19
ENDBRANCH  17  18
ENDBRANCH  16  17
ENDBRANCH  15  16
ENDBRANCH  14  15
ENDBRANCH  11  14
ENDBRANCH   5  10
ENDBRANCH   3   5
ENDBRANCH   2   3
TORSDOF 13
ENDMDL
MODEL      167
REMARK 921   NORMALIZED FREE ENERGY PREDICTED BY IDOCK:   -3.34 KCAL/MOL
REMARK 922        TOTAL FREE ENERGY PREDICTED BY IDOCK:   -7.99 KCAL/MOL
REMARK 923 INTER-LIGAND FREE ENERGY PREDICTED BY IDOCK:   -6.99 KCAL/MOL
REMARK 924 INTRA-LIGAND FREE ENERGY PREDICTED BY IDOCK:   -0.99 KCAL/MOL
REMARK 927      BINDING AFFINITY PREDICTED BY RF-SCORE:    0.00 PKD
ROOT
HETATM    1  C   UNL     1     -12.410  14.594  64.441  1.00  0.00    -0.398 C  
HETATM    2  O   UNL     1     -11.159  14.212  65.007  1.00  0.00    -0.334 OA 
ENDROOT
BRANCH   2   3
HETATM    3  C   UNL     1     -11.230  13.329  66.043  1.00  0.00    -0.297 C  
HETATM    4  O   UNL     1     -12.192  13.183  66.788  1.00  0.00    -0.354 OA 
BRANCH   3   5
HETATM    5  C   UNL     1      -9.931  12.521  66.126  1.00  0.00    -0.255 C  
BRANCH   5   6
HETATM    6  C   UNL     1      -9.938  11.549  67.314  1.00  0.00    -0.212 C  
HETATM    7  C   UNL     1      -9.724   9.432  65.901  1.00  0.00    -0.355 C  
HETATM    8  C   UNL     1     -10.464   9.291  68.285  1.00  0.00    -0.260 C  
HETATM    9  C   UNL     1     -10.494  10.145  67.013  1.00  0.00    -0.302 C  
ENDBRANCH   5   6
BRANCH   5  10
HETATM   10  N   UNL     1      -8.804  13.446  66.249  1.00  0.00    -0.433 N  
HETATM   11  C   UNL     1      -8.564  14.116  67.424  1.00  0.00    -0.210 C  
HETATM   12  H   UNL     1      -8.187  13.595  65.450  1.00  0.00     0.000 HD 
HETATM   13  O   UNL     1      -9.249  13.990  68.433  1.00  0.00    -0.196 OA 
BRANCH  11  14
HETATM   14  C   UNL     1      -7.396  15.071  67.364  1.00  0.00    -0.231 C  
BRANCH  14  15
HETATM   15  C   UNL     1      -7.740  16.272  66.485  1.00  0.00    -0.260 C  
BRANCH  15  16
HETATM   16  C   UNL     1      -6.634  17.328  66.462  1.00  0.00    -0.283 C  
BRANCH  16  17
HETATM   17  C   UNL     1      -6.901  18.466  67.444  1.00  0.00    -0.205 C  
BRANCH  17  18
HETATM   18  C   UNL     1      -7.432  19.713  66.745  1.00  0.00    -0.264 C  
BRANCH  18  19
HETATM   19  C   UNL     1      -8.747  20.152  67.387  1.00  0.00    -0.425 C  
BRANCH  19  20
HETATM   20  C   UNL     1      -9.895  20.114  66.381  1.00  0.00    -0.560 C  
BRANCH  20  21
HETATM   21  C   UNL     1     -10.524  18.721  66.326  1.00  0.00    -0.489 C  
BRANCH  21  22
HETATM   22  C   UNL     1     -10.653  18.137  67.700  1.00  0.00    -0.424 C  
HETATM   23  C   UNL     1     -11.030  16.875  67.944  1.00  0.00    -0.251 C  
ENDBRANCH  21  22
ENDBRANCH  20  21
ENDBRANCH  19  20
ENDBRANCH  18  19
ENDBRANCH  17  18
ENDBRANCH  16  17
ENDBRANCH  15  16
ENDBRANCH  14  15
ENDBRANCH  11  14
ENDBRANCH   5  10
ENDBRANCH   3   5
ENDBRANCH   2   3
TORSDOF 13
ENDMDL
MODEL      168
REMARK 921   NORMALIZED FREE ENERGY PREDICTED BY IDOCK:   -3.33 KCAL/MOL
REMARK 922        TOTAL FREE ENERGY PREDICTED BY IDOCK:   -7.97 KCAL/MOL
REMARK 923 INTER-LIGAND FREE ENERGY PREDICTED BY IDOCK:   -7.05 KCAL/MOL
REMARK 924 INTRA-LIGAND FREE ENERGY PREDICTED BY IDOCK:   -0.92 KCAL/MOL
REMARK 927      BINDING AFFINITY PREDICTED BY RF-SCORE:    0.00 PKD
ROOT
HETATM    1  C   UNL     1      -7.166   8.267  71.395  1.00  0.00    -0.080 C  
HETATM    2  O   UNL     1      -8.328   9.056  71.146  1.00  0.00    -0.173 OA 
ENDROOT
BRANCH   2   3
HETATM    3  C   UNL     1      -9.430   8.722  71.876  1.00  0.00    -0.292 C  
HETATM    4  O   UNL     1      -9.431   8.023  72.882  1.00  0.00    -0.225 OA 
BRANCH   3   5
HETATM    5  C   UNL     1     -10.674   9.373  71.264  1.00  0.00    -0.350 C  
BRANCH   5   6
HETATM    6  C   UNL     1     -11.969   8.794  71.848  1.00  0.00    -0.435 C  
HETATM    7  C   UNL     1     -11.749   6.513  70.719  1.00  0.00    -0.427 C  
HETATM    8  C   UNL     1     -13.941   7.244  71.674  1.00  0.00    -0.488 C  
HETATM    9  C   UNL     1     -12.655   7.715  70.988  1.00  0.00    -0.177 C  
ENDBRANCH   5   6
BRANCH   5  10
HETATM   10  N   UNL     1     -10.650   9.173  69.815  1.00  0.00    -0.224 N  
HETATM   11  C   UNL     1     -10.748  10.239  68.952  1.00  0.00    -0.227 C  
HETATM   12  H   UNL     1     -10.560   8.229  69.439  1.00  0.00     0.000 HD 
HETATM   13  O   UNL     1     -10.852  11.404  69.318  1.00  0.00    -0.228 OA 
BRANCH  11  14
HETATM   14  C   UNL     1     -10.764   9.853  67.493  1.00  0.00    -0.333 C  
BRANCH  14  15
HETATM   15  C   UNL     1     -10.103  10.943  66.651  1.00  0.00    -0.264 C  
BRANCH  15  16
HETATM   16  C   UNL     1     -10.439  10.831  65.163  1.00  0.00    -0.299 C  
BRANCH  16  17
HETATM   17  C   UNL     1     -10.877  12.167  64.567  1.00  0.00    -0.356 C  
BRANCH  17  18
HETATM   18  C   UNL     1     -12.338  12.480  64.873  1.00  0.00    -0.539 C  
BRANCH  18  19
HETATM   19  C   UNL     1     -12.463  13.896  65.433  1.00  0.00    -0.528 C  
BRANCH  19  20
HETATM   20  C   UNL     1     -12.064  13.947  66.905  1.00  0.00    -0.467 C  
BRANCH  20  21
HETATM   21  C   UNL     1     -11.074  15.084  67.161  1.00  0.00    -0.332 C  
BRANCH  21  22
HETATM   22  C   UNL     1      -9.726  14.759  66.591  1.00  0.00    -0.281 C  
HETATM   23  C   UNL     1      -8.668  15.578  66.660  1.00  0.00    -0.326 C  
ENDBRANCH  21  22
ENDBRANCH  20  21
ENDBRANCH  19  20
ENDBRANCH  18  19
ENDBRANCH  17  18
ENDBRANCH  16  17
ENDBRANCH  15  16
ENDBRANCH  14  15
ENDBRANCH  11  14
ENDBRANCH   5  10
ENDBRANCH   3   5
ENDBRANCH   2   3
TORSDOF 13
ENDMDL
MODEL      169
REMARK 921   NORMALIZED FREE ENERGY PREDICTED BY IDOCK:   -3.32 KCAL/MOL
REMARK 922        TOTAL FREE ENERGY PREDICTED BY IDOCK:   -7.96 KCAL/MOL
REMARK 923 INTER-LIGAND FREE ENERGY PREDICTED BY IDOCK:   -7.47 KCAL/MOL
REMARK 924 INTRA-LIGAND FREE ENERGY PREDICTED BY IDOCK:   -0.49 KCAL/MOL
REMARK 927      BINDING AFFINITY PREDICTED BY RF-SCORE:    0.00 PKD
ROOT
HETATM    1  C   UNL     1      -9.297   5.933  72.788  1.00  0.00    -0.145 C  
HETATM    2  O   UNL     1     -10.158   5.460  71.755  1.00  0.00    -0.183 OA 
ENDROOT
BRANCH   2   3
HETATM    3  C   UNL     1     -11.300   6.182  71.569  1.00  0.00    -0.280 C  
HETATM    4  O   UNL     1     -12.147   6.406  72.426  1.00  0.00    -0.241 OA 
BRANCH   3   5
HETATM    5  C   UNL     1     -11.360   6.697  70.128  1.00  0.00    -0.382 C  
BRANCH   5   6
HETATM    6  C   UNL     1      -9.999   6.590  69.426  1.00  0.00    -0.178 C  
HETATM    7  C   UNL     1     -10.955   6.387  67.066  1.00  0.00    -0.463 C  
HETATM    8  C   UNL     1      -8.582   5.750  67.527  1.00  0.00    -0.105 C  
HETATM    9  C   UNL     1     -10.000   5.798  68.104  1.00  0.00    -0.181 C  
ENDBRANCH   5   6
BRANCH   5  10
HETATM   10  N   UNL     1     -11.803   8.091  70.140  1.00  0.00    -0.421 N  
HETATM   11  C   UNL     1     -10.995   9.086  70.638  1.00  0.00    -0.257 C  
HETATM   12  H   UNL     1     -12.725   8.329  69.774  1.00  0.00     0.000 HD 
HETATM   13  O   UNL     1      -9.872   8.889  71.089  1.00  0.00    -0.224 OA 
BRANCH  11  14
HETATM   14  C   UNL     1     -11.624  10.457  70.627  1.00  0.00    -0.440 C  
BRANCH  14  15
HETATM   15  C   UNL     1     -11.876  10.911  69.190  1.00  0.00    -0.389 C  
BRANCH  15  16
HETATM   16  C   UNL     1     -10.607  11.401  68.490  1.00  0.00    -0.225 C  
BRANCH  16  17
HETATM   17  C   UNL     1     -10.661  12.893  68.173  1.00  0.00    -0.258 C  
BRANCH  17  18
HETATM   18  C   UNL     1     -11.996  13.516  68.568  1.00  0.00    -0.379 C  
BRANCH  18  19
HETATM   19  C   UNL     1     -11.788  14.533  69.688  1.00  0.00    -0.367 C  
BRANCH  19  20
HETATM   20  C   UNL     1     -12.572  14.148  70.940  1.00  0.00    -0.433 C  
BRANCH  20  21
HETATM   21  C   UNL     1     -13.633  15.201  71.263  1.00  0.00    -0.559 C  
BRANCH  21  22
HETATM   22  C   UNL     1     -13.577  15.592  72.709  1.00  0.00    -0.678 C  
HETATM   23  C   UNL     1     -12.662  15.133  73.573  1.00  0.00    -0.678 C  
ENDBRANCH  21  22
ENDBRANCH  20  21
ENDBRANCH  19  20
ENDBRANCH  18  19
ENDBRANCH  17  18
ENDBRANCH  16  17
ENDBRANCH  15  16
ENDBRANCH  14  15
ENDBRANCH  11  14
ENDBRANCH   5  10
ENDBRANCH   3   5
ENDBRANCH   2   3
TORSDOF 13
ENDMDL
MODEL      170
REMARK 921   NORMALIZED FREE ENERGY PREDICTED BY IDOCK:   -3.31 KCAL/MOL
REMARK 922        TOTAL FREE ENERGY PREDICTED BY IDOCK:   -7.94 KCAL/MOL
REMARK 923 INTER-LIGAND FREE ENERGY PREDICTED BY IDOCK:   -6.27 KCAL/MOL
REMARK 924 INTRA-LIGAND FREE ENERGY PREDICTED BY IDOCK:   -1.66 KCAL/MOL
REMARK 927      BINDING AFFINITY PREDICTED BY RF-SCORE:    0.00 PKD
ROOT
HETATM    1  C   UNL     1     -12.008  14.500  66.239  1.00  0.00    -0.322 C  
HETATM    2  O   UNL     1     -12.179  13.896  67.520  1.00  0.00    -0.366 OA 
ENDROOT
BRANCH   2   3
HETATM    3  C   UNL     1     -11.996  14.724  68.587  1.00  0.00    -0.257 C  
HETATM    4  O   UNL     1     -11.765  15.926  68.523  1.00  0.00    -0.383 OA 
BRANCH   3   5
HETATM    5  C   UNL     1     -12.146  13.933  69.890  1.00  0.00    -0.344 C  
BRANCH   5   6
HETATM    6  C   UNL     1     -11.821  14.790  71.120  1.00  0.00    -0.387 C  
HETATM    7  C   UNL     1     -14.059  14.403  72.289  1.00  0.00    -0.609 C  
HETATM    8  C   UNL     1     -12.568  16.277  73.005  1.00  0.00    -0.480 C  
HETATM    9  C   UNL     1     -13.036  15.435  71.814  1.00  0.00    -0.529 C  
ENDBRANCH   5   6
BRANCH   5  10
HETATM   10  N   UNL     1     -11.257  12.772  69.846  1.00  0.00    -0.483 N  
HETATM   11  C   UNL     1     -11.754  11.495  69.956  1.00  0.00    -0.332 C  
HETATM   12  H   UNL     1     -10.253  12.912  69.731  1.00  0.00     0.000 HD 
HETATM   13  O   UNL     1     -12.945  11.237  70.088  1.00  0.00    -0.023 OA 
BRANCH  11  14
HETATM   14  C   UNL     1     -10.698  10.417  69.946  1.00  0.00    -0.331 C  
BRANCH  14  15
HETATM   15  C   UNL     1     -11.098   9.295  68.991  1.00  0.00     0.023 C  
BRANCH  15  16
HETATM   16  C   UNL     1     -10.350   7.988  69.264  1.00  0.00    -0.224 C  
BRANCH  16  17
HETATM   17  C   UNL     1      -9.892   7.305  67.977  1.00  0.00    -0.167 C  
BRANCH  17  18
HETATM   18  C   UNL     1     -10.001   8.228  66.768  1.00  0.00    -0.355 C  
BRANCH  18  19
HETATM   19  C   UNL     1      -8.616   8.478  66.174  1.00  0.00    -0.154 C  
BRANCH  19  20
HETATM   20  C   UNL     1      -7.924   9.656  66.856  1.00  0.00    -0.105 C  
BRANCH  20  21
HETATM   21  C   UNL     1      -8.498  10.984  66.363  1.00  0.00    -0.164 C  
BRANCH  21  22
HETATM   22  C   UNL     1      -8.382  12.043  67.418  1.00  0.00    -0.171 C  
HETATM   23  C   UNL     1      -7.492  12.006  68.419  1.00  0.00    -0.110 C  
ENDBRANCH  21  22
ENDBRANCH  20  21
ENDBRANCH  19  20
ENDBRANCH  18  19
ENDBRANCH  17  18
ENDBRANCH  16  17
ENDBRANCH  15  16
ENDBRANCH  14  15
ENDBRANCH  11  14
ENDBRANCH   5  10
ENDBRANCH   3   5
ENDBRANCH   2   3
TORSDOF 13
ENDMDL
MODEL      171
REMARK 921   NORMALIZED FREE ENERGY PREDICTED BY IDOCK:   -3.31 KCAL/MOL
REMARK 922        TOTAL FREE ENERGY PREDICTED BY IDOCK:   -7.93 KCAL/MOL
REMARK 923 INTER-LIGAND FREE ENERGY PREDICTED BY IDOCK:   -6.28 KCAL/MOL
REMARK 924 INTRA-LIGAND FREE ENERGY PREDICTED BY IDOCK:   -1.66 KCAL/MOL
REMARK 927      BINDING AFFINITY PREDICTED BY RF-SCORE:    0.00 PKD
ROOT
HETATM    1  C   UNL     1      -7.327   7.975  68.929  1.00  0.00    -0.081 C  
HETATM    2  O   UNL     1      -8.264   7.056  68.371  1.00  0.00    -0.122 OA 
ENDROOT
BRANCH   2   3
HETATM    3  C   UNL     1      -9.394   7.615  67.852  1.00  0.00    -0.139 C  
HETATM    4  O   UNL     1      -9.719   7.594  66.670  1.00  0.00    -0.202 OA 
BRANCH   3   5
HETATM    5  C   UNL     1     -10.218   8.256  68.973  1.00  0.00    -0.217 C  
BRANCH   5   6
HETATM    6  C   UNL     1     -11.035   7.214  69.748  1.00  0.00    -0.256 C  
HETATM    7  C   UNL     1     -11.681   8.782  71.659  1.00  0.00    -0.402 C  
HETATM    8  C   UNL     1     -11.916   6.306  71.921  1.00  0.00    -0.342 C  
HETATM    9  C   UNL     1     -11.092   7.424  71.274  1.00  0.00    -0.269 C  
ENDBRANCH   5   6
BRANCH   5  10
HETATM   10  N   UNL     1     -11.114   9.256  68.391  1.00  0.00    -0.474 N  
HETATM   11  C   UNL     1     -10.811  10.595  68.447  1.00  0.00    -0.237 C  
HETATM   12  H   UNL     1     -11.976   8.954  67.936  1.00  0.00     0.000 HD 
HETATM   13  O   UNL     1      -9.794  11.042  68.966  1.00  0.00    -0.200 OA 
BRANCH  11  14
HETATM   14  C   UNL     1     -11.866  11.494  67.850  1.00  0.00    -0.255 C  
BRANCH  14  15
HETATM   15  C   UNL     1     -11.219  12.535  66.939  1.00  0.00    -0.354 C  
BRANCH  15  16
HETATM   16  C   UNL     1     -12.228  13.236  66.027  1.00  0.00    -0.483 C  
BRANCH  16  17
HETATM   17  C   UNL     1     -11.637  13.566  64.658  1.00  0.00    -0.395 C  
BRANCH  17  18
HETATM   18  C   UNL     1     -11.725  12.386  63.696  1.00  0.00    -0.596 C  
BRANCH  18  19
HETATM   19  C   UNL     1     -10.322  11.900  63.335  1.00  0.00    -0.481 C  
BRANCH  19  20
HETATM   20  C   UNL     1     -10.053  10.509  63.902  1.00  0.00    -0.288 C  
BRANCH  20  21
HETATM   21  C   UNL     1      -8.578  10.347  64.269  1.00  0.00    -0.190 C  
BRANCH  21  22
HETATM   22  C   UNL     1      -8.343  10.693  65.709  1.00  0.00    -0.162 C  
HETATM   23  C   UNL     1      -7.162  10.564  66.326  1.00  0.00    -0.133 C  
ENDBRANCH  21  22
ENDBRANCH  20  21
ENDBRANCH  19  20
ENDBRANCH  18  19
ENDBRANCH  17  18
ENDBRANCH  16  17
ENDBRANCH  15  16
ENDBRANCH  14  15
ENDBRANCH  11  14
ENDBRANCH   5  10
ENDBRANCH   3   5
ENDBRANCH   2   3
TORSDOF 13
ENDMDL
MODEL      172
REMARK 921   NORMALIZED FREE ENERGY PREDICTED BY IDOCK:   -3.31 KCAL/MOL
REMARK 922        TOTAL FREE ENERGY PREDICTED BY IDOCK:   -7.92 KCAL/MOL
REMARK 923 INTER-LIGAND FREE ENERGY PREDICTED BY IDOCK:   -7.00 KCAL/MOL
REMARK 924 INTRA-LIGAND FREE ENERGY PREDICTED BY IDOCK:   -0.93 KCAL/MOL
REMARK 927      BINDING AFFINITY PREDICTED BY RF-SCORE:    0.00 PKD
ROOT
HETATM    1  C   UNL     1      -9.995   4.846  67.263  1.00  0.00    -0.184 C  
HETATM    2  O   UNL     1      -9.834   5.515  68.512  1.00  0.00    -0.130 OA 
ENDROOT
BRANCH   2   3
HETATM    3  C   UNL     1      -8.893   6.500  68.532  1.00  0.00    -0.121 C  
HETATM    4  O   UNL     1      -7.804   6.455  67.973  1.00  0.00    -0.102 OA 
BRANCH   3   5
HETATM    5  C   UNL     1      -9.410   7.695  69.340  1.00  0.00    -0.152 C  
BRANCH   5   6
HETATM    6  C   UNL     1     -10.882   7.522  69.737  1.00  0.00    -0.234 C  
HETATM    7  C   UNL     1     -10.592   8.366  72.130  1.00  0.00    -0.400 C  
HETATM    8  C   UNL     1     -12.635   7.079  71.484  1.00  0.00    -0.426 C  
HETATM    9  C   UNL     1     -11.134   7.253  71.233  1.00  0.00    -0.270 C  
ENDBRANCH   5   6
BRANCH   5  10
HETATM   10  N   UNL     1      -9.250   8.912  68.543  1.00  0.00    -0.137 N  
HETATM   11  C   UNL     1      -9.960   9.094  67.380  1.00  0.00    -0.206 C  
HETATM   12  H   UNL     1      -8.603   9.636  68.856  1.00  0.00     0.000 HD 
HETATM   13  O   UNL     1     -10.763   8.280  66.938  1.00  0.00    -0.299 OA 
BRANCH  11  14
HETATM   14  C   UNL     1      -9.638  10.377  66.654  1.00  0.00    -0.219 C  
BRANCH  14  15
HETATM   15  C   UNL     1      -9.948  11.579  67.542  1.00  0.00    -0.207 C  
BRANCH  15  16
HETATM   16  C   UNL     1     -11.429  11.679  67.911  1.00  0.00    -0.381 C  
BRANCH  16  17
HETATM   17  C   UNL     1     -11.636  12.141  69.352  1.00  0.00    -0.381 C  
BRANCH  17  18
HETATM   18  C   UNL     1     -12.234  11.044  70.225  1.00  0.00    -0.447 C  
BRANCH  18  19
HETATM   19  C   UNL     1     -12.897  11.659  71.457  1.00  0.00    -0.469 C  
BRANCH  19  20
HETATM   20  C   UNL     1     -12.789  13.181  71.444  1.00  0.00    -0.401 C  
BRANCH  20  21
HETATM   21  C   UNL     1     -13.863  13.811  72.331  1.00  0.00    -0.681 C  
BRANCH  21  22
HETATM   22  C   UNL     1     -13.375  15.095  72.932  1.00  0.00    -0.603 C  
HETATM   23  C   UNL     1     -12.101  15.324  73.275  1.00  0.00    -0.549 C  
ENDBRANCH  21  22
ENDBRANCH  20  21
ENDBRANCH  19  20
ENDBRANCH  18  19
ENDBRANCH  17  18
ENDBRANCH  16  17
ENDBRANCH  15  16
ENDBRANCH  14  15
ENDBRANCH  11  14
ENDBRANCH   5  10
ENDBRANCH   3   5
ENDBRANCH   2   3
TORSDOF 13
ENDMDL
MODEL      173
REMARK 921   NORMALIZED FREE ENERGY PREDICTED BY IDOCK:   -3.30 KCAL/MOL
REMARK 922        TOTAL FREE ENERGY PREDICTED BY IDOCK:   -7.92 KCAL/MOL
REMARK 923 INTER-LIGAND FREE ENERGY PREDICTED BY IDOCK:   -6.25 KCAL/MOL
REMARK 924 INTRA-LIGAND FREE ENERGY PREDICTED BY IDOCK:   -1.66 KCAL/MOL
REMARK 927      BINDING AFFINITY PREDICTED BY RF-SCORE:    0.00 PKD
ROOT
HETATM    1  C   UNL     1     -12.283  12.334  63.461  1.00  0.00    -0.568 C  
HETATM    2  O   UNL     1     -11.623  12.865  64.609  1.00  0.00    -0.319 OA 
ENDROOT
BRANCH   2   3
HETATM    3  C   UNL     1     -12.428  13.507  65.502  1.00  0.00    -0.491 C  
HETATM    4  O   UNL     1     -13.386  14.215  65.215  1.00  0.00    -0.715 OA 
BRANCH   3   5
HETATM    5  C   UNL     1     -11.973  13.192  66.930  1.00  0.00    -0.362 C  
BRANCH   5   6
HETATM    6  C   UNL     1     -11.044  14.280  67.487  1.00  0.00    -0.309 C  
HETATM    7  C   UNL     1     -12.218  14.471  69.748  1.00  0.00    -0.360 C  
HETATM    8  C   UNL     1     -10.656  16.266  68.979  1.00  0.00    -0.286 C  
HETATM    9  C   UNL     1     -11.681  15.220  68.528  1.00  0.00    -0.352 C  
ENDBRANCH   5   6
BRANCH   5  10
HETATM   10  N   UNL     1     -11.283  11.902  66.935  1.00  0.00    -0.308 N  
HETATM   11  C   UNL     1     -11.509  10.982  67.931  1.00  0.00    -0.282 C  
HETATM   12  H   UNL     1     -10.624  11.681  66.187  1.00  0.00     0.000 HD 
HETATM   13  O   UNL     1     -12.288  11.163  68.861  1.00  0.00    -0.512 OA 
BRANCH  11  14
HETATM   14  C   UNL     1     -10.677   9.728  67.816  1.00  0.00    -0.329 C  
BRANCH  14  15
HETATM   15  C   UNL     1      -9.283   9.965  68.392  1.00  0.00    -0.130 C  
BRANCH  15  16
HETATM   16  C   UNL     1      -8.253   8.950  67.892  1.00  0.00    -0.110 C  
BRANCH  16  17
HETATM   17  C   UNL     1      -7.129   9.611  67.097  1.00  0.00    -0.086 C  
BRANCH  17  18
HETATM   18  C   UNL     1      -7.515  11.002  66.606  1.00  0.00    -0.146 C  
BRANCH  18  19
HETATM   19  C   UNL     1      -6.508  12.034  67.112  1.00  0.00    -0.142 C  
BRANCH  19  20
HETATM   20  C   UNL     1      -6.809  12.444  68.551  1.00  0.00    -0.082 C  
BRANCH  20  21
HETATM   21  C   UNL     1      -7.488  13.814  68.596  1.00  0.00    -0.116 C  
BRANCH  21  22
HETATM   22  C   UNL     1      -6.509  14.908  68.294  1.00  0.00    -0.120 C  
HETATM   23  C   UNL     1      -6.830  16.206  68.244  1.00  0.00    -0.126 C  
ENDBRANCH  21  22
ENDBRANCH  20  21
ENDBRANCH  19  20
ENDBRANCH  18  19
ENDBRANCH  17  18
ENDBRANCH  16  17
ENDBRANCH  15  16
ENDBRANCH  14  15
ENDBRANCH  11  14
ENDBRANCH   5  10
ENDBRANCH   3   5
ENDBRANCH   2   3
TORSDOF 13
ENDMDL
MODEL      174
REMARK 921   NORMALIZED FREE ENERGY PREDICTED BY IDOCK:   -3.30 KCAL/MOL
REMARK 922        TOTAL FREE ENERGY PREDICTED BY IDOCK:   -7.91 KCAL/MOL
REMARK 923 INTER-LIGAND FREE ENERGY PREDICTED BY IDOCK:   -5.98 KCAL/MOL
REMARK 924 INTRA-LIGAND FREE ENERGY PREDICTED BY IDOCK:   -1.93 KCAL/MOL
REMARK 927      BINDING AFFINITY PREDICTED BY RF-SCORE:    0.00 PKD
ROOT
HETATM    1  C   UNL     1     -12.191  13.312  63.476  1.00  0.00    -0.441 C  
HETATM    2  O   UNL     1     -11.067  12.842  64.217  1.00  0.00    -0.327 OA 
ENDROOT
BRANCH   2   3
HETATM    3  C   UNL     1     -11.273  12.683  65.555  1.00  0.00    -0.302 C  
HETATM    4  O   UNL     1     -12.290  12.230  66.069  1.00  0.00    -0.609 OA 
BRANCH   3   5
HETATM    5  C   UNL     1     -10.030  13.132  66.329  1.00  0.00    -0.285 C  
BRANCH   5   6
HETATM    6  C   UNL     1      -9.668  14.593  66.031  1.00  0.00    -0.340 C  
HETATM    7  C   UNL     1     -11.026  15.580  67.957  1.00  0.00    -0.311 C  
HETATM    8  C   UNL     1     -10.245  17.040  66.083  1.00  0.00    -0.346 C  
HETATM    9  C   UNL     1     -10.721  15.633  66.459  1.00  0.00    -0.293 C  
ENDBRANCH   5   6
BRANCH   5  10
HETATM   10  N   UNL     1      -8.909  12.261  65.972  1.00  0.00    -0.415 N  
HETATM   11  C   UNL     1      -8.042  11.795  66.932  1.00  0.00    -0.160 C  
HETATM   12  H   UNL     1      -8.769  11.996  64.997  1.00  0.00     0.000 HD 
HETATM   13  O   UNL     1      -8.142  12.057  68.125  1.00  0.00    -0.143 OA 
BRANCH  11  14
HETATM   14  C   UNL     1      -6.912  10.955  66.389  1.00  0.00    -0.134 C  
BRANCH  14  15
HETATM   15  C   UNL     1      -7.425   9.574  65.987  1.00  0.00    -0.100 C  
BRANCH  15  16
HETATM   16  C   UNL     1      -7.634   8.646  67.185  1.00  0.00    -0.092 C  
BRANCH  16  17
HETATM   17  C   UNL     1      -8.955   7.885  67.104  1.00  0.00    -0.142 C  
BRANCH  17  18
HETATM   18  C   UNL     1     -10.118   8.794  66.724  1.00  0.00    -0.359 C  
BRANCH  18  19
HETATM   19  C   UNL     1     -10.648   9.511  67.964  1.00  0.00    -0.282 C  
BRANCH  19  20
HETATM   20  C   UNL     1     -10.649   8.589  69.181  1.00  0.00    -0.188 C  
BRANCH  20  21
HETATM   21  C   UNL     1     -10.248   9.353  70.443  1.00  0.00    -0.310 C  
BRANCH  21  22
HETATM   22  C   UNL     1      -8.801   9.131  70.767  1.00  0.00    -0.291 C  
HETATM   23  C   UNL     1      -8.226   7.923  70.830  1.00  0.00    -0.110 C  
ENDBRANCH  21  22
ENDBRANCH  20  21
ENDBRANCH  19  20
ENDBRANCH  18  19
ENDBRANCH  17  18
ENDBRANCH  16  17
ENDBRANCH  15  16
ENDBRANCH  14  15
ENDBRANCH  11  14
ENDBRANCH   5  10
ENDBRANCH   3   5
ENDBRANCH   2   3
TORSDOF 13
ENDMDL
MODEL      175
REMARK 921   NORMALIZED FREE ENERGY PREDICTED BY IDOCK:   -3.29 KCAL/MOL
REMARK 922        TOTAL FREE ENERGY PREDICTED BY IDOCK:   -7.89 KCAL/MOL
REMARK 923 INTER-LIGAND FREE ENERGY PREDICTED BY IDOCK:   -6.56 KCAL/MOL
REMARK 924 INTRA-LIGAND FREE ENERGY PREDICTED BY IDOCK:   -1.33 KCAL/MOL
REMARK 927      BINDING AFFINITY PREDICTED BY RF-SCORE:    0.00 PKD
ROOT
HETATM    1  C   UNL     1      -6.229  19.557  67.306  1.00  0.00    -0.186 C  
HETATM    2  O   UNL     1      -6.644  18.200  67.159  1.00  0.00    -0.177 OA 
ENDROOT
BRANCH   2   3
HETATM    3  C   UNL     1      -7.895  18.024  66.647  1.00  0.00    -0.243 C  
HETATM    4  O   UNL     1      -8.553  18.879  66.066  1.00  0.00    -0.467 OA 
BRANCH   3   5
HETATM    5  C   UNL     1      -8.352  16.581  66.882  1.00  0.00    -0.212 C  
BRANCH   5   6
HETATM    6  C   UNL     1      -7.166  15.611  66.961  1.00  0.00    -0.175 C  
HETATM    7  C   UNL     1      -8.339  13.908  68.461  1.00  0.00    -0.132 C  
HETATM    8  C   UNL     1      -5.853  13.863  68.204  1.00  0.00    -0.124 C  
HETATM    9  C   UNL     1      -7.091  14.765  68.247  1.00  0.00    -0.113 C  
ENDBRANCH   5   6
BRANCH   5  10
HETATM   10  N   UNL     1      -9.246  16.183  65.794  1.00  0.00    -0.243 N  
HETATM   11  C   UNL     1     -10.521  15.739  66.052  1.00  0.00    -0.338 C  
HETATM   12  H   UNL     1      -8.918  16.236  64.829  1.00  0.00     0.000 HD 
HETATM   13  O   UNL     1     -10.997  15.652  67.178  1.00  0.00    -0.319 OA 
BRANCH  11  14
HETATM   14  C   UNL     1     -11.289  15.317  64.823  1.00  0.00    -0.396 C  
BRANCH  14  15
HETATM   15  C   UNL     1     -11.723  13.858  64.946  1.00  0.00    -0.378 C  
BRANCH  15  16
HETATM   16  C   UNL     1     -10.540  12.887  64.975  1.00  0.00    -0.333 C  
BRANCH  16  17
HETATM   17  C   UNL     1     -10.866  11.601  65.730  1.00  0.00    -0.334 C  
BRANCH  17  18
HETATM   18  C   UNL     1     -11.672  11.869  66.997  1.00  0.00    -0.304 C  
BRANCH  18  19
HETATM   19  C   UNL     1     -10.948  11.289  68.210  1.00  0.00    -0.275 C  
BRANCH  19  20
HETATM   20  C   UNL     1     -11.935  10.726  69.230  1.00  0.00    -0.334 C  
BRANCH  20  21
HETATM   21  C   UNL     1     -11.942  11.571  70.504  1.00  0.00    -0.439 C  
BRANCH  21  22
HETATM   22  C   UNL     1     -12.991  11.089  71.460  1.00  0.00    -0.553 C  
HETATM   23  C   UNL     1     -13.351   9.806  71.591  1.00  0.00    -0.487 C  
ENDBRANCH  21  22
ENDBRANCH  20  21
ENDBRANCH  19  20
ENDBRANCH  18  19
ENDBRANCH  17  18
ENDBRANCH  16  17
ENDBRANCH  15  16
ENDBRANCH  14  15
ENDBRANCH  11  14
ENDBRANCH   5  10
ENDBRANCH   3   5
ENDBRANCH   2   3
TORSDOF 13
ENDMDL
MODEL      176
REMARK 921   NORMALIZED FREE ENERGY PREDICTED BY IDOCK:   -3.28 KCAL/MOL
REMARK 922        TOTAL FREE ENERGY PREDICTED BY IDOCK:   -7.88 KCAL/MOL
REMARK 923 INTER-LIGAND FREE ENERGY PREDICTED BY IDOCK:   -6.90 KCAL/MOL
REMARK 924 INTRA-LIGAND FREE ENERGY PREDICTED BY IDOCK:   -0.98 KCAL/MOL
REMARK 927      BINDING AFFINITY PREDICTED BY RF-SCORE:    0.00 PKD
ROOT
HETATM    1  C   UNL     1     -10.598  15.884  65.514  1.00  0.00    -0.401 C  
HETATM    2  O   UNL     1     -11.129  15.236  66.668  1.00  0.00    -0.324 OA 
ENDROOT
BRANCH   2   3
HETATM    3  C   UNL     1     -10.803  15.807  67.862  1.00  0.00    -0.314 C  
HETATM    4  O   UNL     1     -10.983  16.981  68.161  1.00  0.00    -0.367 OA 
BRANCH   3   5
HETATM    5  C   UNL     1     -10.197  14.752  68.793  1.00  0.00    -0.239 C  
BRANCH   5   6
HETATM    6  C   UNL     1      -9.321  13.750  68.029  1.00  0.00    -0.199 C  
HETATM    7  C   UNL     1     -11.209  12.104  67.529  1.00  0.00    -0.357 C  
HETATM    8  C   UNL     1      -8.822  11.395  67.303  1.00  0.00    -0.153 C  
HETATM    9  C   UNL     1      -9.795  12.285  68.083  1.00  0.00    -0.212 C  
ENDBRANCH   5   6
BRANCH   5  10
HETATM   10  N   UNL     1     -11.281  14.043  69.476  1.00  0.00    -0.360 N  
HETATM   11  C   UNL     1     -11.719  14.446  70.714  1.00  0.00    -0.236 C  
HETATM   12  H   UNL     1     -11.717  13.238  69.025  1.00  0.00     0.000 HD 
HETATM   13  O   UNL     1     -11.257  15.406  71.322  1.00  0.00    -0.354 OA 
BRANCH  11  14
HETATM   14  C   UNL     1     -12.804  13.575  71.300  1.00  0.00    -0.420 C  
BRANCH  14  15
HETATM   15  C   UNL     1     -12.441  12.100  71.139  1.00  0.00    -0.337 C  
BRANCH  15  16
HETATM   16  C   UNL     1     -13.293  11.179  72.014  1.00  0.00    -0.384 C  
BRANCH  16  17
HETATM   17  C   UNL     1     -13.302   9.741  71.502  1.00  0.00    -0.468 C  
BRANCH  17  18
HETATM   18  C   UNL     1     -12.426   8.825  72.350  1.00  0.00    -0.421 C  
BRANCH  18  19
HETATM   19  C   UNL     1     -12.310   7.452  71.689  1.00  0.00    -0.373 C  
BRANCH  19  20
HETATM   20  C   UNL     1     -10.861   7.126  71.337  1.00  0.00    -0.253 C  
BRANCH  20  21
HETATM   21  C   UNL     1     -10.571   7.449  69.871  1.00  0.00    -0.245 C  
BRANCH  21  22
HETATM   22  C   UNL     1      -9.704   8.667  69.752  1.00  0.00    -0.176 C  
HETATM   23  C   UNL     1      -9.067   9.234  70.784  1.00  0.00    -0.306 C  
ENDBRANCH  21  22
ENDBRANCH  20  21
ENDBRANCH  19  20
ENDBRANCH  18  19
ENDBRANCH  17  18
ENDBRANCH  16  17
ENDBRANCH  15  16
ENDBRANCH  14  15
ENDBRANCH  11  14
ENDBRANCH   5  10
ENDBRANCH   3   5
ENDBRANCH   2   3
TORSDOF 13
ENDMDL
MODEL      177
REMARK 921   NORMALIZED FREE ENERGY PREDICTED BY IDOCK:   -3.27 KCAL/MOL
REMARK 922        TOTAL FREE ENERGY PREDICTED BY IDOCK:   -7.86 KCAL/MOL
REMARK 923 INTER-LIGAND FREE ENERGY PREDICTED BY IDOCK:   -7.26 KCAL/MOL
REMARK 924 INTRA-LIGAND FREE ENERGY PREDICTED BY IDOCK:   -0.60 KCAL/MOL
REMARK 927      BINDING AFFINITY PREDICTED BY RF-SCORE:    0.00 PKD
ROOT
HETATM    1  C   UNL     1     -12.358  12.397  64.036  1.00  0.00    -0.488 C  
HETATM    2  O   UNL     1     -12.730  12.496  65.409  1.00  0.00    -0.624 OA 
ENDROOT
BRANCH   2   3
HETATM    3  C   UNL     1     -11.928  13.286  66.178  1.00  0.00    -0.418 C  
HETATM    4  O   UNL     1     -11.956  14.510  66.209  1.00  0.00    -0.382 OA 
BRANCH   3   5
HETATM    5  C   UNL     1     -10.997  12.412  67.024  1.00  0.00    -0.260 C  
BRANCH   5   6
HETATM    6  C   UNL     1     -11.769  11.607  68.077  1.00  0.00    -0.351 C  
HETATM    7  C   UNL     1     -12.069  13.553  69.704  1.00  0.00    -0.365 C  
HETATM    8  C   UNL     1     -12.416  11.199  70.473  1.00  0.00    -0.414 C  
HETATM    9  C   UNL     1     -11.617  12.103  69.528  1.00  0.00    -0.382 C  
ENDBRANCH   5   6
BRANCH   5  10
HETATM   10  N   UNL     1     -10.009  13.269  67.681  1.00  0.00    -0.225 N  
HETATM   11  C   UNL     1      -8.664  13.095  67.461  1.00  0.00    -0.201 C  
HETATM   12  H   UNL     1     -10.324  14.007  68.311  1.00  0.00     0.000 HD 
HETATM   13  O   UNL     1      -8.201  12.240  66.714  1.00  0.00    -0.152 OA 
BRANCH  11  14
HETATM   14  C   UNL     1      -7.781  14.025  68.257  1.00  0.00    -0.141 C  
BRANCH  14  15
HETATM   15  C   UNL     1      -8.093  15.478  67.906  1.00  0.00    -0.147 C  
BRANCH  15  16
HETATM   16  C   UNL     1      -8.929  16.182  68.977  1.00  0.00    -0.247 C  
BRANCH  16  17
HETATM   17  C   UNL     1      -9.325  17.598  68.564  1.00  0.00    -0.291 C  
BRANCH  17  18
HETATM   18  C   UNL     1     -10.685  17.634  67.876  1.00  0.00    -0.341 C  
BRANCH  18  19
HETATM   19  C   UNL     1     -10.594  18.436  66.578  1.00  0.00    -0.344 C  
BRANCH  19  20
HETATM   20  C   UNL     1     -10.015  19.826  66.824  1.00  0.00    -0.545 C  
BRANCH  20  21
HETATM   21  C   UNL     1      -8.763  20.052  65.975  1.00  0.00    -0.246 C  
BRANCH  21  22
HETATM   22  C   UNL     1      -7.521  19.897  66.800  1.00  0.00    -0.280 C  
HETATM   23  C   UNL     1      -6.680  20.900  67.082  1.00  0.00    -0.410 C  
ENDBRANCH  21  22
ENDBRANCH  20  21
ENDBRANCH  19  20
ENDBRANCH  18  19
ENDBRANCH  17  18
ENDBRANCH  16  17
ENDBRANCH  15  16
ENDBRANCH  14  15
ENDBRANCH  11  14
ENDBRANCH   5  10
ENDBRANCH   3   5
ENDBRANCH   2   3
TORSDOF 13
ENDMDL
MODEL      178
REMARK 921   NORMALIZED FREE ENERGY PREDICTED BY IDOCK:   -3.27 KCAL/MOL
REMARK 922        TOTAL FREE ENERGY PREDICTED BY IDOCK:   -7.86 KCAL/MOL
REMARK 923 INTER-LIGAND FREE ENERGY PREDICTED BY IDOCK:   -6.43 KCAL/MOL
REMARK 924 INTRA-LIGAND FREE ENERGY PREDICTED BY IDOCK:   -1.43 KCAL/MOL
REMARK 927      BINDING AFFINITY PREDICTED BY RF-SCORE:    0.00 PKD
ROOT
HETATM    1  C   UNL     1     -12.160   7.725  72.035  1.00  0.00    -0.311 C  
HETATM    2  O   UNL     1     -11.027   7.615  72.895  1.00  0.00    -0.341 OA 
ENDROOT
BRANCH   2   3
HETATM    3  C   UNL     1      -9.848   8.051  72.367  1.00  0.00    -0.247 C  
HETATM    4  O   UNL     1      -8.992   8.688  72.970  1.00  0.00    -0.326 OA 
BRANCH   3   5
HETATM    5  C   UNL     1      -9.736   7.604  70.907  1.00  0.00    -0.172 C  
BRANCH   5   6
HETATM    6  C   UNL     1      -8.595   6.599  70.703  1.00  0.00    -0.142 C  
HETATM    7  C   UNL     1     -10.110   4.596  70.236  1.00  0.00    -0.276 C  
HETATM    8  C   UNL     1      -7.704   4.251  70.824  1.00  0.00    -0.056 C  
HETATM    9  C   UNL     1      -8.933   5.137  71.050  1.00  0.00    -0.159 C  
ENDBRANCH   5   6
BRANCH   5  10
HETATM   10  N   UNL     1      -9.517   8.781  70.065  1.00  0.00    -0.164 N  
HETATM   11  C   UNL     1      -9.998   8.830  68.779  1.00  0.00    -0.185 C  
HETATM   12  H   UNL     1      -8.999   9.577  70.439  1.00  0.00     0.000 HD 
HETATM   13  O   UNL     1     -10.636   7.923  68.255  1.00  0.00    -0.188 OA 
BRANCH  11  14
HETATM   14  C   UNL     1      -9.638  10.091  68.031  1.00  0.00    -0.154 C  
BRANCH  14  15
HETATM   15  C   UNL     1     -10.898  10.885  67.696  1.00  0.00    -0.317 C  
BRANCH  15  16
HETATM   16  C   UNL     1     -11.619  11.408  68.940  1.00  0.00    -0.388 C  
BRANCH  16  17
HETATM   17  C   UNL     1     -11.800  12.924  68.908  1.00  0.00    -0.352 C  
BRANCH  17  18
HETATM   18  C   UNL     1     -10.958  13.579  67.818  1.00  0.00    -0.284 C  
BRANCH  18  19
HETATM   19  C   UNL     1     -11.860  14.341  66.848  1.00  0.00    -0.458 C  
BRANCH  19  20
HETATM   20  C   UNL     1     -11.553  13.973  65.399  1.00  0.00    -0.329 C  
BRANCH  20  21
HETATM   21  C   UNL     1     -12.508  12.889  64.899  1.00  0.00    -0.540 C  
BRANCH  21  22
HETATM   22  C   UNL     1     -11.864  12.062  63.827  1.00  0.00    -0.581 C  
HETATM   23  C   UNL     1     -10.665  11.479  63.951  1.00  0.00    -0.458 C  
ENDBRANCH  21  22
ENDBRANCH  20  21
ENDBRANCH  19  20
ENDBRANCH  18  19
ENDBRANCH  17  18
ENDBRANCH  16  17
ENDBRANCH  15  16
ENDBRANCH  14  15
ENDBRANCH  11  14
ENDBRANCH   5  10
ENDBRANCH   3   5
ENDBRANCH   2   3
TORSDOF 13
ENDMDL
MODEL      179
REMARK 921   NORMALIZED FREE ENERGY PREDICTED BY IDOCK:   -3.26 KCAL/MOL
REMARK 922        TOTAL FREE ENERGY PREDICTED BY IDOCK:   -7.85 KCAL/MOL
REMARK 923 INTER-LIGAND FREE ENERGY PREDICTED BY IDOCK:   -6.51 KCAL/MOL
REMARK 924 INTRA-LIGAND FREE ENERGY PREDICTED BY IDOCK:   -1.34 KCAL/MOL
REMARK 927      BINDING AFFINITY PREDICTED BY RF-SCORE:    0.00 PKD
ROOT
HETATM    1  C   UNL     1      -9.795   5.969  67.437  1.00  0.00    -0.131 C  
HETATM    2  O   UNL     1      -9.969   7.132  68.244  1.00  0.00    -0.148 OA 
ENDROOT
BRANCH   2   3
HETATM    3  C   UNL     1     -10.736   6.962  69.358  1.00  0.00    -0.246 C  
HETATM    4  O   UNL     1     -11.432   5.983  69.600  1.00  0.00    -0.394 OA 
BRANCH   3   5
HETATM    5  C   UNL     1     -10.579   8.171  70.285  1.00  0.00    -0.228 C  
BRANCH   5   6
HETATM    6  C   UNL     1     -10.840   7.805  71.752  1.00  0.00    -0.277 C  
HETATM    7  C   UNL     1      -8.495   8.396  72.575  1.00  0.00    -0.229 C  
HETATM    8  C   UNL     1     -10.010   6.988  73.980  1.00  0.00    -0.353 C  
HETATM    9  C   UNL     1      -9.603   7.343  72.546  1.00  0.00    -0.199 C  
ENDBRANCH   5   6
BRANCH   5  10
HETATM   10  N   UNL     1     -11.510   9.217  69.862  1.00  0.00    -0.437 N  
HETATM   11  C   UNL     1     -11.052  10.400  69.331  1.00  0.00    -0.254 C  
HETATM   12  H   UNL     1     -12.514   9.067  69.963  1.00  0.00     0.000 HD 
HETATM   13  O   UNL     1      -9.865  10.658  69.168  1.00  0.00    -0.207 OA 
BRANCH  11  14
HETATM   14  C   UNL     1     -12.141  11.391  68.998  1.00  0.00    -0.316 C  
BRANCH  14  15
HETATM   15  C   UNL     1     -11.893  12.711  69.725  1.00  0.00    -0.379 C  
BRANCH  15  16
HETATM   16  C   UNL     1     -12.027  13.928  68.808  1.00  0.00    -0.393 C  
BRANCH  16  17
HETATM   17  C   UNL     1     -11.156  15.096  69.266  1.00  0.00    -0.279 C  
BRANCH  17  18
HETATM   18  C   UNL     1     -10.813  16.040  68.118  1.00  0.00    -0.322 C  
BRANCH  18  19
HETATM   19  C   UNL     1      -9.333  15.911  67.760  1.00  0.00    -0.207 C  
BRANCH  19  20
HETATM   20  C   UNL     1      -9.145  15.636  66.270  1.00  0.00    -0.376 C  
BRANCH  20  21
HETATM   21  C   UNL     1     -10.496  15.497  65.567  1.00  0.00    -0.407 C  
BRANCH  21  22
HETATM   22  C   UNL     1     -10.697  14.098  65.066  1.00  0.00    -0.429 C  
HETATM   23  C   UNL     1     -10.258  13.005  65.703  1.00  0.00    -0.296 C  
ENDBRANCH  21  22
ENDBRANCH  20  21
ENDBRANCH  19  20
ENDBRANCH  18  19
ENDBRANCH  17  18
ENDBRANCH  16  17
ENDBRANCH  15  16
ENDBRANCH  14  15
ENDBRANCH  11  14
ENDBRANCH   5  10
ENDBRANCH   3   5
ENDBRANCH   2   3
TORSDOF 13
ENDMDL
MODEL      180
REMARK 921   NORMALIZED FREE ENERGY PREDICTED BY IDOCK:   -3.26 KCAL/MOL
REMARK 922        TOTAL FREE ENERGY PREDICTED BY IDOCK:   -7.84 KCAL/MOL
REMARK 923 INTER-LIGAND FREE ENERGY PREDICTED BY IDOCK:   -6.86 KCAL/MOL
REMARK 924 INTRA-LIGAND FREE ENERGY PREDICTED BY IDOCK:   -0.98 KCAL/MOL
REMARK 927      BINDING AFFINITY PREDICTED BY RF-SCORE:    0.00 PKD
ROOT
HETATM    1  C   UNL     1      -8.568  10.554  66.692  1.00  0.00    -0.131 C  
HETATM    2  O   UNL     1      -9.773  11.302  66.536  1.00  0.00    -0.194 OA 
ENDROOT
BRANCH   2   3
HETATM    3  C   UNL     1      -9.962  12.302  67.443  1.00  0.00    -0.201 C  
HETATM    4  O   UNL     1      -9.075  12.886  68.054  1.00  0.00    -0.197 OA 
BRANCH   3   5
HETATM    5  C   UNL     1     -11.458  12.609  67.571  1.00  0.00    -0.340 C  
BRANCH   5   6
HETATM    6  C   UNL     1     -11.864  13.828  66.731  1.00  0.00    -0.454 C  
HETATM    7  C   UNL     1     -12.494  12.492  64.647  1.00  0.00    -0.539 C  
HETATM    8  C   UNL     1     -12.110  14.958  64.499  1.00  0.00    -0.420 C  
HETATM    9  C   UNL     1     -11.692  13.667  65.209  1.00  0.00    -0.349 C  
ENDBRANCH   5   6
BRANCH   5  10
HETATM   10  N   UNL     1     -11.775  12.850  68.979  1.00  0.00    -0.311 N  
HETATM   11  C   UNL     1     -11.965  11.804  69.850  1.00  0.00    -0.332 C  
HETATM   12  H   UNL     1     -11.855  13.808  69.319  1.00  0.00     0.000 HD 
HETATM   13  O   UNL     1     -11.880  10.624  69.526  1.00  0.00    -0.286 OA 
BRANCH  11  14
HETATM   14  C   UNL     1     -12.338  12.225  71.250  1.00  0.00    -0.161 C  
BRANCH  14  15
HETATM   15  C   UNL     1     -12.960  13.620  71.234  1.00  0.00    -0.399 C  
BRANCH  15  16
HETATM   16  C   UNL     1     -12.618  14.437  72.481  1.00  0.00    -0.356 C  
BRANCH  16  17
HETATM   17  C   UNL     1     -11.466  15.410  72.236  1.00  0.00    -0.506 C  
BRANCH  17  18
HETATM   18  C   UNL     1     -10.954  15.343  70.801  1.00  0.00    -0.349 C  
BRANCH  18  19
HETATM   19  C   UNL     1     -11.112  16.704  70.125  1.00  0.00    -0.077 C  
BRANCH  19  20
HETATM   20  C   UNL     1     -10.510  16.700  68.723  1.00  0.00    -0.324 C  
BRANCH  20  21
HETATM   21  C   UNL     1      -9.110  17.315  68.730  1.00  0.00    -0.232 C  
BRANCH  21  22
HETATM   22  C   UNL     1      -9.168  18.782  68.426  1.00  0.00    -0.376 C  
HETATM   23  C   UNL     1      -8.514  19.362  67.412  1.00  0.00    -0.330 C  
ENDBRANCH  21  22
ENDBRANCH  20  21
ENDBRANCH  19  20
ENDBRANCH  18  19
ENDBRANCH  17  18
ENDBRANCH  16  17
ENDBRANCH  15  16
ENDBRANCH  14  15
ENDBRANCH  11  14
ENDBRANCH   5  10
ENDBRANCH   3   5
ENDBRANCH   2   3
TORSDOF 13
ENDMDL
MODEL      181
REMARK 921   NORMALIZED FREE ENERGY PREDICTED BY IDOCK:   -3.25 KCAL/MOL
REMARK 922        TOTAL FREE ENERGY PREDICTED BY IDOCK:   -7.83 KCAL/MOL
REMARK 923 INTER-LIGAND FREE ENERGY PREDICTED BY IDOCK:   -7.51 KCAL/MOL
REMARK 924 INTRA-LIGAND FREE ENERGY PREDICTED BY IDOCK:   -0.32 KCAL/MOL
REMARK 927      BINDING AFFINITY PREDICTED BY RF-SCORE:    0.00 PKD
ROOT
HETATM    1  C   UNL     1      -9.664  20.189  66.270  1.00  0.00    -0.397 C  
HETATM    2  O   UNL     1     -10.286  19.123  66.986  1.00  0.00    -0.359 OA 
ENDROOT
BRANCH   2   3
HETATM    3  C   UNL     1     -10.095  19.134  68.335  1.00  0.00    -0.418 C  
HETATM    4  O   UNL     1     -10.394  20.053  69.089  1.00  0.00    -0.350 OA 
BRANCH   3   5
HETATM    5  C   UNL     1      -9.470  17.809  68.781  1.00  0.00    -0.254 C  
BRANCH   5   6
HETATM    6  C   UNL     1      -7.941  17.823  68.644  1.00  0.00    -0.276 C  
HETATM    7  C   UNL     1      -7.901  16.929  66.251  1.00  0.00    -0.346 C  
HETATM    8  C   UNL     1      -5.829  16.888  67.650  1.00  0.00    -0.159 C  
HETATM    9  C   UNL     1      -7.357  16.779  67.673  1.00  0.00    -0.164 C  
ENDBRANCH   5   6
BRANCH   5  10
HETATM   10  N   UNL     1     -10.030  16.725  67.974  1.00  0.00    -0.263 N  
HETATM   11  C   UNL     1     -11.048  15.937  68.456  1.00  0.00    -0.340 C  
HETATM   12  H   UNL     1      -9.659  16.550  67.039  1.00  0.00     0.000 HD 
HETATM   13  O   UNL     1     -11.556  16.083  69.562  1.00  0.00    -0.330 OA 
BRANCH  11  14
HETATM   14  C   UNL     1     -11.471  14.832  67.520  1.00  0.00    -0.369 C  
BRANCH  14  15
HETATM   15  C   UNL     1     -12.142  13.705  68.302  1.00  0.00    -0.306 C  
BRANCH  15  16
HETATM   16  C   UNL     1     -11.147  12.662  68.813  1.00  0.00    -0.307 C  
BRANCH  16  17
HETATM   17  C   UNL     1     -11.810  11.312  69.081  1.00  0.00    -0.423 C  
BRANCH  17  18
HETATM   18  C   UNL     1     -11.672  10.885  70.539  1.00  0.00    -0.441 C  
BRANCH  18  19
HETATM   19  C   UNL     1     -13.053  10.776  71.184  1.00  0.00    -0.381 C  
BRANCH  19  20
HETATM   20  C   UNL     1     -13.128   9.586  72.137  1.00  0.00    -0.522 C  
BRANCH  20  21
HETATM   21  C   UNL     1     -11.776   8.877  72.230  1.00  0.00    -0.351 C  
BRANCH  21  22
HETATM   22  C   UNL     1     -11.933   7.398  72.043  1.00  0.00    -0.333 C  
HETATM   23  C   UNL     1     -12.074   6.806  70.851  1.00  0.00    -0.421 C  
ENDBRANCH  21  22
ENDBRANCH  20  21
ENDBRANCH  19  20
ENDBRANCH  18  19
ENDBRANCH  17  18
ENDBRANCH  16  17
ENDBRANCH  15  16
ENDBRANCH  14  15
ENDBRANCH  11  14
ENDBRANCH   5  10
ENDBRANCH   3   5
ENDBRANCH   2   3
TORSDOF 13
ENDMDL
MODEL      182
REMARK 921   NORMALIZED FREE ENERGY PREDICTED BY IDOCK:   -3.25 KCAL/MOL
REMARK 922        TOTAL FREE ENERGY PREDICTED BY IDOCK:   -7.83 KCAL/MOL
REMARK 923 INTER-LIGAND FREE ENERGY PREDICTED BY IDOCK:   -6.70 KCAL/MOL
REMARK 924 INTRA-LIGAND FREE ENERGY PREDICTED BY IDOCK:   -1.13 KCAL/MOL
REMARK 927      BINDING AFFINITY PREDICTED BY RF-SCORE:    0.00 PKD
ROOT
HETATM    1  C   UNL     1     -11.138  15.133  67.369  1.00  0.00    -0.325 C  
HETATM    2  O   UNL     1     -12.163  14.169  67.605  1.00  0.00    -0.351 OA 
ENDROOT
BRANCH   2   3
HETATM    3  C   UNL     1     -11.799  12.869  67.414  1.00  0.00    -0.360 C  
HETATM    4  O   UNL     1     -12.106  12.179  66.449  1.00  0.00    -0.630 OA 
BRANCH   3   5
HETATM    5  C   UNL     1     -10.922  12.399  68.578  1.00  0.00    -0.245 C  
BRANCH   5   6
HETATM    6  C   UNL     1      -9.864  11.385  68.124  1.00  0.00    -0.195 C  
HETATM    7  C   UNL     1      -8.007  13.105  67.777  1.00  0.00    -0.162 C  
HETATM    8  C   UNL     1      -7.815  10.820  66.780  1.00  0.00    -0.135 C  
HETATM    9  C   UNL     1      -8.787  11.938  67.170  1.00  0.00    -0.180 C  
ENDBRANCH   5   6
BRANCH   5  10
HETATM   10  N   UNL     1     -11.775  11.799  69.604  1.00  0.00    -0.321 N  
HETATM   11  C   UNL     1     -12.164  12.517  70.709  1.00  0.00    -0.240 C  
HETATM   12  H   UNL     1     -12.086  10.833  69.497  1.00  0.00     0.000 HD 
HETATM   13  O   UNL     1     -11.843  13.683  70.912  1.00  0.00    -0.227 OA 
BRANCH  11  14
HETATM   14  C   UNL     1     -12.996  11.733  71.695  1.00  0.00    -0.467 C  
BRANCH  14  15
HETATM   15  C   UNL     1     -13.118  10.279  71.243  1.00  0.00    -0.492 C  
BRANCH  15  16
HETATM   16  C   UNL     1     -13.155   9.295  72.414  1.00  0.00    -0.481 C  
BRANCH  16  17
HETATM   17  C   UNL     1     -11.949   8.358  72.419  1.00  0.00    -0.451 C  
BRANCH  17  18
HETATM   18  C   UNL     1     -12.353   6.903  72.203  1.00  0.00    -0.227 C  
BRANCH  18  19
HETATM   19  C   UNL     1     -11.122   6.063  71.864  1.00  0.00    -0.331 C  
BRANCH  19  20
HETATM   20  C   UNL     1     -10.956   4.902  72.840  1.00  0.00    -0.332 C  
BRANCH  20  21
HETATM   21  C   UNL     1     -10.379   5.388  74.171  1.00  0.00    -0.307 C  
BRANCH  21  22
HETATM   22  C   UNL     1      -9.057   6.064  73.967  1.00  0.00    -0.129 C  
HETATM   23  C   UNL     1      -7.930   5.418  73.640  1.00  0.00    -0.109 C  
ENDBRANCH  21  22
ENDBRANCH  20  21
ENDBRANCH  19  20
ENDBRANCH  18  19
ENDBRANCH  17  18
ENDBRANCH  16  17
ENDBRANCH  15  16
ENDBRANCH  14  15
ENDBRANCH  11  14
ENDBRANCH   5  10
ENDBRANCH   3   5
ENDBRANCH   2   3
TORSDOF 13
ENDMDL
MODEL      183
REMARK 921   NORMALIZED FREE ENERGY PREDICTED BY IDOCK:   -3.25 KCAL/MOL
REMARK 922        TOTAL FREE ENERGY PREDICTED BY IDOCK:   -7.83 KCAL/MOL
REMARK 923 INTER-LIGAND FREE ENERGY PREDICTED BY IDOCK:   -7.25 KCAL/MOL
REMARK 924 INTRA-LIGAND FREE ENERGY PREDICTED BY IDOCK:   -0.58 KCAL/MOL
REMARK 927      BINDING AFFINITY PREDICTED BY RF-SCORE:    0.00 PKD
ROOT
HETATM    1  C   UNL     1      -9.796  18.496  68.732  1.00  0.00    -0.376 C  
HETATM    2  O   UNL     1     -10.686  17.381  68.717  1.00  0.00    -0.309 OA 
ENDROOT
BRANCH   2   3
HETATM    3  C   UNL     1     -10.195  16.233  69.263  1.00  0.00    -0.269 C  
HETATM    4  O   UNL     1      -9.008  15.956  69.390  1.00  0.00    -0.248 OA 
BRANCH   3   5
HETATM    5  C   UNL     1     -11.352  15.341  69.723  1.00  0.00    -0.289 C  
BRANCH   5   6
HETATM    6  C   UNL     1     -11.345  15.135  71.244  1.00  0.00    -0.368 C  
HETATM    7  C   UNL     1     -13.877  15.316  71.529  1.00  0.00    -0.617 C  
HETATM    8  C   UNL     1     -12.365  15.537  73.507  1.00  0.00    -0.664 C  
HETATM    9  C   UNL     1     -12.508  15.802  72.005  1.00  0.00    -0.531 C  
ENDBRANCH   5   6
BRANCH   5  10
HETATM   10  N   UNL     1     -11.253  14.048  69.048  1.00  0.00    -0.265 N  
HETATM   11  C   UNL     1     -11.551  13.923  67.712  1.00  0.00    -0.347 C  
HETATM   12  H   UNL     1     -10.958  13.226  69.576  1.00  0.00     0.000 HD 
HETATM   13  O   UNL     1     -11.904  14.858  67.002  1.00  0.00    -0.327 OA 
BRANCH  11  14
HETATM   14  C   UNL     1     -11.450  12.512  67.185  1.00  0.00    -0.414 C  
BRANCH  14  15
HETATM   15  C   UNL     1     -10.908  12.518  65.757  1.00  0.00    -0.310 C  
BRANCH  15  16
HETATM   16  C   UNL     1     -10.651  11.112  65.213  1.00  0.00    -0.303 C  
BRANCH  16  17
HETATM   17  C   UNL     1      -9.789  10.276  66.156  1.00  0.00    -0.284 C  
BRANCH  17  18
HETATM   18  C   UNL     1     -10.611   9.239  66.914  1.00  0.00    -0.239 C  
BRANCH  18  19
HETATM   19  C   UNL     1      -9.702   8.415  67.825  1.00  0.00    -0.199 C  
BRANCH  19  20
HETATM   20  C   UNL     1     -10.358   7.094  68.216  1.00  0.00    -0.227 C  
BRANCH  20  21
HETATM   21  C   UNL     1     -10.646   6.242  66.978  1.00  0.00    -0.386 C  
BRANCH  21  22
HETATM   22  C   UNL     1      -9.372   5.845  66.294  1.00  0.00    -0.168 C  
HETATM   23  C   UNL     1      -8.419   5.096  66.864  1.00  0.00    -0.106 C  
ENDBRANCH  21  22
ENDBRANCH  20  21
ENDBRANCH  19  20
ENDBRANCH  18  19
ENDBRANCH  17  18
ENDBRANCH  16  17
ENDBRANCH  15  16
ENDBRANCH  14  15
ENDBRANCH  11  14
ENDBRANCH   5  10
ENDBRANCH   3   5
ENDBRANCH   2   3
TORSDOF 13
ENDMDL
MODEL      184
REMARK 921   NORMALIZED FREE ENERGY PREDICTED BY IDOCK:   -3.22 KCAL/MOL
REMARK 922        TOTAL FREE ENERGY PREDICTED BY IDOCK:   -7.78 KCAL/MOL
REMARK 923 INTER-LIGAND FREE ENERGY PREDICTED BY IDOCK:   -5.95 KCAL/MOL
REMARK 924 INTRA-LIGAND FREE ENERGY PREDICTED BY IDOCK:   -1.83 KCAL/MOL
REMARK 927      BINDING AFFINITY PREDICTED BY RF-SCORE:    0.00 PKD
ROOT
HETATM    1  C   UNL     1      -9.992   8.801  67.587  1.00  0.00    -0.193 C  
HETATM    2  O   UNL     1     -10.235   8.908  66.185  1.00  0.00    -0.259 OA 
ENDROOT
BRANCH   2   3
HETATM    3  C   UNL     1      -9.922  10.111  65.627  1.00  0.00    -0.279 C  
HETATM    4  O   UNL     1      -9.516  10.280  64.483  1.00  0.00    -0.249 OA 
BRANCH   3   5
HETATM    5  C   UNL     1     -10.178  11.234  66.637  1.00  0.00    -0.229 C  
BRANCH   5   6
HETATM    6  C   UNL     1     -11.489  11.977  66.345  1.00  0.00    -0.417 C  
HETATM    7  C   UNL     1     -10.499  13.542  64.586  1.00  0.00    -0.439 C  
HETATM    8  C   UNL     1     -12.709  14.058  65.636  1.00  0.00    -0.515 C  
HETATM    9  C   UNL     1     -11.329  13.432  65.866  1.00  0.00    -0.327 C  
ENDBRANCH   5   6
BRANCH   5  10
HETATM   10  N   UNL     1      -9.057  12.173  66.597  1.00  0.00    -0.205 N  
HETATM   11  C   UNL     1      -8.215  12.315  67.675  1.00  0.00    -0.166 C  
HETATM   12  H   UNL     1      -8.898  12.731  65.758  1.00  0.00     0.000 HD 
HETATM   13  O   UNL     1      -8.329  11.680  68.717  1.00  0.00    -0.128 OA 
BRANCH  11  14
HETATM   14  C   UNL     1      -7.145  13.364  67.489  1.00  0.00    -0.154 C  
BRANCH  14  15
HETATM   15  C   UNL     1      -7.779  14.747  67.360  1.00  0.00    -0.230 C  
BRANCH  15  16
HETATM   16  C   UNL     1      -7.083  15.802  68.223  1.00  0.00    -0.115 C  
BRANCH  16  17
HETATM   17  C   UNL     1      -7.741  17.175  68.100  1.00  0.00    -0.204 C  
BRANCH  17  18
HETATM   18  C   UNL     1      -9.055  17.114  67.328  1.00  0.00    -0.227 C  
BRANCH  18  19
HETATM   19  C   UNL     1     -10.221  17.457  68.254  1.00  0.00    -0.362 C  
BRANCH  19  20
HETATM   20  C   UNL     1     -11.132  16.251  68.469  1.00  0.00    -0.368 C  
BRANCH  20  21
HETATM   21  C   UNL     1     -10.554  15.315  69.531  1.00  0.00    -0.272 C  
BRANCH  21  22
HETATM   22  C   UNL     1     -11.183  13.956  69.447  1.00  0.00    -0.273 C  
HETATM   23  C   UNL     1     -12.378  13.652  69.970  1.00  0.00    -0.342 C  
ENDBRANCH  21  22
ENDBRANCH  20  21
ENDBRANCH  19  20
ENDBRANCH  18  19
ENDBRANCH  17  18
ENDBRANCH  16  17
ENDBRANCH  15  16
ENDBRANCH  14  15
ENDBRANCH  11  14
ENDBRANCH   5  10
ENDBRANCH   3   5
ENDBRANCH   2   3
TORSDOF 13
ENDMDL
MODEL      185
REMARK 921   NORMALIZED FREE ENERGY PREDICTED BY IDOCK:   -3.22 KCAL/MOL
REMARK 922        TOTAL FREE ENERGY PREDICTED BY IDOCK:   -7.77 KCAL/MOL
REMARK 923 INTER-LIGAND FREE ENERGY PREDICTED BY IDOCK:   -6.95 KCAL/MOL
REMARK 924 INTRA-LIGAND FREE ENERGY PREDICTED BY IDOCK:   -0.81 KCAL/MOL
REMARK 927      BINDING AFFINITY PREDICTED BY RF-SCORE:    0.00 PKD
ROOT
HETATM    1  C   UNL     1      -5.706  20.315  66.991  1.00  0.00    -0.166 C  
HETATM    2  O   UNL     1      -6.416  19.081  67.075  1.00  0.00    -0.193 OA 
ENDROOT
BRANCH   2   3
HETATM    3  C   UNL     1      -6.979  18.649  65.911  1.00  0.00    -0.270 C  
HETATM    4  O   UNL     1      -6.370  18.386  64.881  1.00  0.00    -0.397 OA 
BRANCH   3   5
HETATM    5  C   UNL     1      -8.495  18.515  66.087  1.00  0.00    -0.130 C  
BRANCH   5   6
HETATM    6  C   UNL     1      -9.038  19.495  67.136  1.00  0.00    -0.375 C  
HETATM    7  C   UNL     1      -8.578  17.986  69.145  1.00  0.00     0.121 C  
HETATM    8  C   UNL     1     -10.133  19.932  69.356  1.00  0.00    -0.186 C  
HETATM    9  C   UNL     1      -9.608  18.846  68.412  1.00  0.00    -0.420 C  
ENDBRANCH   5   6
BRANCH   5  10
HETATM   10  N   UNL     1      -8.807  17.142  66.484  1.00  0.00    -0.249 N  
HETATM   11  C   UNL     1      -9.814  16.438  65.867  1.00  0.00    -0.315 C  
HETATM   12  H   UNL     1      -8.269  16.699  67.230  1.00  0.00     0.000 HD 
HETATM   13  O   UNL     1     -10.502  16.890  64.958  1.00  0.00    -0.675 OA 
BRANCH  11  14
HETATM   14  C   UNL     1     -10.041  15.058  66.432  1.00  0.00    -0.289 C  
BRANCH  14  15
HETATM   15  C   UNL     1     -11.535  14.800  66.613  1.00  0.00    -0.339 C  
BRANCH  15  16
HETATM   16  C   UNL     1     -11.833  13.774  67.708  1.00  0.00    -0.404 C  
BRANCH  16  17
HETATM   17  C   UNL     1     -10.806  12.645  67.738  1.00  0.00    -0.248 C  
BRANCH  17  18
HETATM   18  C   UNL     1     -11.283  11.416  66.971  1.00  0.00    -0.350 C  
BRANCH  18  19
HETATM   19  C   UNL     1     -10.140  10.846  66.133  1.00  0.00    -0.291 C  
BRANCH  19  20
HETATM   20  C   UNL     1     -10.478  10.869  64.645  1.00  0.00    -0.384 C  
BRANCH  20  21
HETATM   21  C   UNL     1     -10.325  12.279  64.073  1.00  0.00    -0.423 C  
BRANCH  21  22
HETATM   22  C   UNL     1     -11.596  12.733  63.421  1.00  0.00    -0.506 C  
HETATM   23  C   UNL     1     -12.787  12.156  63.622  1.00  0.00    -0.464 C  
ENDBRANCH  21  22
ENDBRANCH  20  21
ENDBRANCH  19  20
ENDBRANCH  18  19
ENDBRANCH  17  18
ENDBRANCH  16  17
ENDBRANCH  15  16
ENDBRANCH  14  15
ENDBRANCH  11  14
ENDBRANCH   5  10
ENDBRANCH   3   5
ENDBRANCH   2   3
TORSDOF 13
ENDMDL
MODEL      186
REMARK 921   NORMALIZED FREE ENERGY PREDICTED BY IDOCK:   -3.21 KCAL/MOL
REMARK 922        TOTAL FREE ENERGY PREDICTED BY IDOCK:   -7.76 KCAL/MOL
REMARK 923 INTER-LIGAND FREE ENERGY PREDICTED BY IDOCK:   -5.96 KCAL/MOL
REMARK 924 INTRA-LIGAND FREE ENERGY PREDICTED BY IDOCK:   -1.80 KCAL/MOL
REMARK 927      BINDING AFFINITY PREDICTED BY RF-SCORE:    0.00 PKD
ROOT
HETATM    1  C   UNL     1     -12.035  15.621  64.216  1.00  0.00    -0.115 C  
HETATM    2  O   UNL     1     -11.386  14.447  64.700  1.00  0.00    -0.376 OA 
ENDROOT
BRANCH   2   3
HETATM    3  C   UNL     1     -12.206  13.514  65.263  1.00  0.00    -0.441 C  
HETATM    4  O   UNL     1     -13.227  13.067  64.756  1.00  0.00    -0.709 OA 
BRANCH   3   5
HETATM    5  C   UNL     1     -11.647  13.085  66.623  1.00  0.00    -0.359 C  
BRANCH   5   6
HETATM    6  C   UNL     1     -11.870  14.157  67.698  1.00  0.00    -0.427 C  
HETATM    7  C   UNL     1     -11.230  12.666  69.670  1.00  0.00    -0.077 C  
HETATM    8  C   UNL     1     -12.482  14.796  70.051  1.00  0.00    -0.327 C  
HETATM    9  C   UNL     1     -12.269  13.625  69.087  1.00  0.00    -0.265 C  
ENDBRANCH   5   6
BRANCH   5  10
HETATM   10  N   UNL     1     -10.216  12.814  66.483  1.00  0.00    -0.248 N  
HETATM   11  C   UNL     1      -9.741  11.524  66.436  1.00  0.00    -0.207 C  
HETATM   12  H   UNL     1      -9.560  13.593  66.419  1.00  0.00     0.000 HD 
HETATM   13  O   UNL     1     -10.458  10.532  66.498  1.00  0.00    -0.241 OA 
BRANCH  11  14
HETATM   14  C   UNL     1      -8.238  11.422  66.346  1.00  0.00    -0.124 C  
BRANCH  14  15
HETATM   15  C   UNL     1      -7.610  11.641  67.720  1.00  0.00    -0.121 C  
BRANCH  15  16
HETATM   16  C   UNL     1      -6.818  12.947  67.811  1.00  0.00    -0.138 C  
BRANCH  16  17
HETATM   17  C   UNL     1      -6.914  13.586  69.195  1.00  0.00    -0.055 C  
BRANCH  17  18
HETATM   18  C   UNL     1      -7.131  15.093  69.116  1.00  0.00    -0.154 C  
BRANCH  18  19
HETATM   19  C   UNL     1      -8.617  15.399  68.929  1.00  0.00    -0.207 C  
BRANCH  19  20
HETATM   20  C   UNL     1      -8.846  16.333  67.744  1.00  0.00    -0.188 C  
BRANCH  20  21
HETATM   21  C   UNL     1      -9.928  17.364  68.065  1.00  0.00    -0.302 C  
BRANCH  21  22
HETATM   22  C   UNL     1      -9.322  18.705  68.354  1.00  0.00    -0.369 C  
HETATM   23  C   UNL     1     -10.011  19.751  68.827  1.00  0.00    -0.510 C  
ENDBRANCH  21  22
ENDBRANCH  20  21
ENDBRANCH  19  20
ENDBRANCH  18  19
ENDBRANCH  17  18
ENDBRANCH  16  17
ENDBRANCH  15  16
ENDBRANCH  14  15
ENDBRANCH  11  14
ENDBRANCH   5  10
ENDBRANCH   3   5
ENDBRANCH   2   3
TORSDOF 13
ENDMDL
MODEL      187
REMARK 921   NORMALIZED FREE ENERGY PREDICTED BY IDOCK:   -3.20 KCAL/MOL
REMARK 922        TOTAL FREE ENERGY PREDICTED BY IDOCK:   -7.75 KCAL/MOL
REMARK 923 INTER-LIGAND FREE ENERGY PREDICTED BY IDOCK:   -6.54 KCAL/MOL
REMARK 924 INTRA-LIGAND FREE ENERGY PREDICTED BY IDOCK:   -1.21 KCAL/MOL
REMARK 927      BINDING AFFINITY PREDICTED BY RF-SCORE:    0.00 PKD
ROOT
HETATM    1  C   UNL     1      -8.430   9.883  64.789  1.00  0.00    -0.172 C  
HETATM    2  O   UNL     1      -9.147  11.088  65.051  1.00  0.00    -0.202 OA 
ENDROOT
BRANCH   2   3
HETATM    3  C   UNL     1      -9.009  11.590  66.310  1.00  0.00    -0.196 C  
HETATM    4  O   UNL     1      -8.018  11.466  67.020  1.00  0.00    -0.144 OA 
BRANCH   3   5
HETATM    5  C   UNL     1     -10.272  12.361  66.703  1.00  0.00    -0.224 C  
BRANCH   5   6
HETATM    6  C   UNL     1     -10.192  13.838  66.294  1.00  0.00    -0.298 C  
HETATM    7  C   UNL     1     -12.516  13.928  65.238  1.00  0.00    -0.504 C  
HETATM    8  C   UNL     1     -10.836  15.714  64.749  1.00  0.00    -0.377 C  
HETATM    9  C   UNL     1     -11.027  14.226  65.058  1.00  0.00    -0.394 C  
ENDBRANCH   5   6
BRANCH   5  10
HETATM   10  N   UNL     1     -10.460  12.258  68.151  1.00  0.00    -0.210 N  
HETATM   11  C   UNL     1     -11.520  11.559  68.678  1.00  0.00    -0.293 C  
HETATM   12  H   UNL     1      -9.795  12.711  68.778  1.00  0.00     0.000 HD 
HETATM   13  O   UNL     1     -12.359  10.979  67.999  1.00  0.00    -0.310 OA 
BRANCH  11  14
HETATM   14  C   UNL     1     -11.597  11.598  70.185  1.00  0.00    -0.303 C  
BRANCH  14  15
HETATM   15  C   UNL     1     -11.802  10.190  70.740  1.00  0.00    -0.443 C  
BRANCH  15  16
HETATM   16  C   UNL     1     -12.946  10.111  71.753  1.00  0.00    -0.567 C  
BRANCH  16  17
HETATM   17  C   UNL     1     -13.624   8.743  71.753  1.00  0.00    -0.453 C  
BRANCH  17  18
HETATM   18  C   UNL     1     -12.631   7.611  71.511  1.00  0.00    -0.369 C  
BRANCH  18  19
HETATM   19  C   UNL     1     -11.641   7.526  72.672  1.00  0.00    -0.331 C  
BRANCH  19  20
HETATM   20  C   UNL     1     -10.282   7.011  72.205  1.00  0.00    -0.206 C  
BRANCH  20  21
HETATM   21  C   UNL     1      -9.204   8.080  72.388  1.00  0.00    -0.264 C  
BRANCH  21  22
HETATM   22  C   UNL     1      -8.345   8.189  71.164  1.00  0.00    -0.134 C  
HETATM   23  C   UNL     1      -8.808   8.071  69.913  1.00  0.00    -0.144 C  
ENDBRANCH  21  22
ENDBRANCH  20  21
ENDBRANCH  19  20
ENDBRANCH  18  19
ENDBRANCH  17  18
ENDBRANCH  16  17
ENDBRANCH  15  16
ENDBRANCH  14  15
ENDBRANCH  11  14
ENDBRANCH   5  10
ENDBRANCH   3   5
ENDBRANCH   2   3
TORSDOF 13
ENDMDL
MODEL      188
REMARK 921   NORMALIZED FREE ENERGY PREDICTED BY IDOCK:   -3.20 KCAL/MOL
REMARK 922        TOTAL FREE ENERGY PREDICTED BY IDOCK:   -7.73 KCAL/MOL
REMARK 923 INTER-LIGAND FREE ENERGY PREDICTED BY IDOCK:   -6.31 KCAL/MOL
REMARK 924 INTRA-LIGAND FREE ENERGY PREDICTED BY IDOCK:   -1.42 KCAL/MOL
REMARK 927      BINDING AFFINITY PREDICTED BY RF-SCORE:    0.00 PKD
ROOT
HETATM    1  C   UNL     1      -9.677  12.501  68.004  1.00  0.00    -0.215 C  
HETATM    2  O   UNL     1      -9.894  11.179  67.514  1.00  0.00    -0.174 OA 
ENDROOT
BRANCH   2   3
HETATM    3  C   UNL     1     -11.041  10.578  67.940  1.00  0.00    -0.304 C  
HETATM    4  O   UNL     1     -12.143  11.111  68.002  1.00  0.00    -0.635 OA 
BRANCH   3   5
HETATM    5  C   UNL     1     -10.756   9.119  68.309  1.00  0.00    -0.122 C  
BRANCH   5   6
HETATM    6  C   UNL     1     -10.187   8.989  69.729  1.00  0.00    -0.214 C  
HETATM    7  C   UNL     1     -11.610   6.971  70.381  1.00  0.00    -0.341 C  
HETATM    8  C   UNL     1     -10.459   8.326  72.139  1.00  0.00    -0.371 C  
HETATM    9  C   UNL     1     -11.143   8.374  70.769  1.00  0.00    -0.286 C  
ENDBRANCH   5   6
BRANCH   5  10
HETATM   10  N   UNL     1      -9.809   8.561  67.343  1.00  0.00    -0.172 N  
HETATM   11  C   UNL     1     -10.007   7.316  66.797  1.00  0.00    -0.217 C  
HETATM   12  H   UNL     1      -8.990   9.105  67.071  1.00  0.00     0.000 HD 
HETATM   13  O   UNL     1     -10.967   6.601  67.062  1.00  0.00    -0.376 OA 
BRANCH  11  14
HETATM   14  C   UNL     1      -8.910   6.870  65.861  1.00  0.00    -0.125 C  
BRANCH  14  15
HETATM   15  C   UNL     1      -8.025   8.055  65.481  1.00  0.00    -0.117 C  
BRANCH  15  16
HETATM   16  C   UNL     1      -8.003   8.321  63.975  1.00  0.00    -0.147 C  
BRANCH  16  17
HETATM   17  C   UNL     1      -7.878   9.809  63.653  1.00  0.00    -0.142 C  
BRANCH  17  18
HETATM   18  C   UNL     1      -8.734  10.669  64.576  1.00  0.00    -0.154 C  
BRANCH  18  19
HETATM   19  C   UNL     1     -10.155  10.774  64.025  1.00  0.00    -0.410 C  
BRANCH  19  20
HETATM   20  C   UNL     1     -10.672  12.208  64.093  1.00  0.00    -0.405 C  
BRANCH  20  21
HETATM   21  C   UNL     1     -12.079  12.253  64.689  1.00  0.00    -0.449 C  
BRANCH  21  22
HETATM   22  C   UNL     1     -12.417  13.635  65.163  1.00  0.00    -0.488 C  
HETATM   23  C   UNL     1     -12.241  14.740  64.428  1.00  0.00    -0.447 C  
ENDBRANCH  21  22
ENDBRANCH  20  21
ENDBRANCH  19  20
ENDBRANCH  18  19
ENDBRANCH  17  18
ENDBRANCH  16  17
ENDBRANCH  15  16
ENDBRANCH  14  15
ENDBRANCH  11  14
ENDBRANCH   5  10
ENDBRANCH   3   5
ENDBRANCH   2   3
TORSDOF 13
ENDMDL
MODEL      189
REMARK 921   NORMALIZED FREE ENERGY PREDICTED BY IDOCK:   -3.19 KCAL/MOL
REMARK 922        TOTAL FREE ENERGY PREDICTED BY IDOCK:   -7.72 KCAL/MOL
REMARK 923 INTER-LIGAND FREE ENERGY PREDICTED BY IDOCK:   -6.68 KCAL/MOL
REMARK 924 INTRA-LIGAND FREE ENERGY PREDICTED BY IDOCK:   -1.04 KCAL/MOL
REMARK 927      BINDING AFFINITY PREDICTED BY RF-SCORE:    0.00 PKD
ROOT
HETATM    1  C   UNL     1     -12.838  12.048  63.215  1.00  0.00    -0.190 C  
HETATM    2  O   UNL     1     -12.404  13.164  63.988  1.00  0.00    -0.544 OA 
ENDROOT
BRANCH   2   3
HETATM    3  C   UNL     1     -11.745  12.857  65.142  1.00  0.00    -0.349 C  
HETATM    4  O   UNL     1     -12.267  12.439  66.169  1.00  0.00    -0.635 OA 
BRANCH   3   5
HETATM    5  C   UNL     1     -10.242  13.086  64.957  1.00  0.00    -0.269 C  
BRANCH   5   6
HETATM    6  C   UNL     1      -9.442  11.785  65.112  1.00  0.00    -0.109 C  
HETATM    7  C   UNL     1      -9.351  11.255  62.615  1.00  0.00    -0.313 C  
HETATM    8  C   UNL     1      -8.842   9.481  64.302  1.00  0.00    -0.247 C  
HETATM    9  C   UNL     1      -9.680  10.731  64.013  1.00  0.00    -0.367 C  
ENDBRANCH   5   6
BRANCH   5  10
HETATM   10  N   UNL     1      -9.787  14.067  65.943  1.00  0.00    -0.411 N  
HETATM   11  C   UNL     1     -10.061  15.405  65.788  1.00  0.00    -0.363 C  
HETATM   12  H   UNL     1      -9.259  13.753  66.758  1.00  0.00     0.000 HD 
HETATM   13  O   UNL     1     -10.695  15.865  64.845  1.00  0.00    -0.522 OA 
BRANCH  11  14
HETATM   14  C   UNL     1      -9.473  16.285  66.864  1.00  0.00    -0.245 C  
BRANCH  14  15
HETATM   15  C   UNL     1     -10.584  16.865  67.737  1.00  0.00    -0.340 C  
BRANCH  15  16
HETATM   16  C   UNL     1     -11.732  15.881  67.970  1.00  0.00    -0.065 C  
BRANCH  16  17
HETATM   17  C   UNL     1     -11.543  15.064  69.246  1.00  0.00    -0.338 C  
BRANCH  17  18
HETATM   18  C   UNL     1     -11.936  13.603  69.055  1.00  0.00    -0.392 C  
BRANCH  18  19
HETATM   19  C   UNL     1     -10.689  12.754  68.811  1.00  0.00    -0.246 C  
BRANCH  19  20
HETATM   20  C   UNL     1     -10.963  11.277  69.080  1.00  0.00    -0.292 C  
BRANCH  20  21
HETATM   21  C   UNL     1      -9.821  10.407  68.554  1.00  0.00    -0.176 C  
BRANCH  21  22
HETATM   22  C   UNL     1      -8.526  11.163  68.557  1.00  0.00    -0.156 C  
HETATM   23  C   UNL     1      -7.406  10.725  69.146  1.00  0.00    -0.115 C  
ENDBRANCH  21  22
ENDBRANCH  20  21
ENDBRANCH  19  20
ENDBRANCH  18  19
ENDBRANCH  17  18
ENDBRANCH  16  17
ENDBRANCH  15  16
ENDBRANCH  14  15
ENDBRANCH  11  14
ENDBRANCH   5  10
ENDBRANCH   3   5
ENDBRANCH   2   3
TORSDOF 13
ENDMDL
MODEL      190
REMARK 921   NORMALIZED FREE ENERGY PREDICTED BY IDOCK:   -3.18 KCAL/MOL
REMARK 922        TOTAL FREE ENERGY PREDICTED BY IDOCK:   -7.70 KCAL/MOL
REMARK 923 INTER-LIGAND FREE ENERGY PREDICTED BY IDOCK:   -7.37 KCAL/MOL
REMARK 924 INTRA-LIGAND FREE ENERGY PREDICTED BY IDOCK:   -0.33 KCAL/MOL
REMARK 927      BINDING AFFINITY PREDICTED BY RF-SCORE:    0.00 PKD
ROOT
HETATM    1  C   UNL     1      -6.338  16.062  68.696  1.00  0.00    -0.116 C  
HETATM    2  O   UNL     1      -7.681  16.192  69.158  1.00  0.00    -0.216 OA 
ENDROOT
BRANCH   2   3
HETATM    3  C   UNL     1      -8.571  15.304  68.630  1.00  0.00    -0.173 C  
HETATM    4  O   UNL     1      -8.427  14.087  68.600  1.00  0.00    -0.160 OA 
BRANCH   3   5
HETATM    5  C   UNL     1      -9.798  16.051  68.100  1.00  0.00    -0.222 C  
BRANCH   5   6
HETATM    6  C   UNL     1      -9.812  17.518  68.550  1.00  0.00    -0.330 C  
HETATM    7  C   UNL     1     -10.460  18.469  66.270  1.00  0.00    -0.441 C  
HETATM    8  C   UNL     1      -9.516  19.963  68.039  1.00  0.00    -0.458 C  
HETATM    9  C   UNL     1      -9.491  18.549  67.450  1.00  0.00    -0.294 C  
ENDBRANCH   5   6
BRANCH   5  10
HETATM   10  N   UNL     1     -11.006  15.376  68.574  1.00  0.00    -0.265 N  
HETATM   11  C   UNL     1     -11.270  15.257  69.917  1.00  0.00    -0.288 C  
HETATM   12  H   UNL     1     -11.664  14.989  67.896  1.00  0.00     0.000 HD 
HETATM   13  O   UNL     1     -10.539  15.701  70.796  1.00  0.00    -0.255 OA 
BRANCH  11  14
HETATM   14  C   UNL     1     -12.528  14.487  70.235  1.00  0.00    -0.405 C  
BRANCH  14  15
HETATM   15  C   UNL     1     -12.238  12.987  70.255  1.00  0.00    -0.368 C  
BRANCH  15  16
HETATM   16  C   UNL     1     -12.995  12.250  71.362  1.00  0.00    -0.354 C  
BRANCH  16  17
HETATM   17  C   UNL     1     -12.770  10.741  71.310  1.00  0.00    -0.546 C  
BRANCH  17  18
HETATM   18  C   UNL     1     -11.452  10.381  70.632  1.00  0.00    -0.438 C  
BRANCH  18  19
HETATM   19  C   UNL     1     -10.767   9.245  71.390  1.00  0.00    -0.432 C  
BRANCH  19  20
HETATM   20  C   UNL     1     -11.759   8.487  72.268  1.00  0.00    -0.443 C  
BRANCH  20  21
HETATM   21  C   UNL     1     -12.103   7.129  71.653  1.00  0.00    -0.371 C  
BRANCH  21  22
HETATM   22  C   UNL     1     -10.977   6.627  70.799  1.00  0.00    -0.318 C  
HETATM   23  C   UNL     1     -11.144   6.090  69.584  1.00  0.00    -0.474 C  
ENDBRANCH  21  22
ENDBRANCH  20  21
ENDBRANCH  19  20
ENDBRANCH  18  19
ENDBRANCH  17  18
ENDBRANCH  16  17
ENDBRANCH  15  16
ENDBRANCH  14  15
ENDBRANCH  11  14
ENDBRANCH   5  10
ENDBRANCH   3   5
ENDBRANCH   2   3
TORSDOF 13
ENDMDL
MODEL      191
REMARK 921   NORMALIZED FREE ENERGY PREDICTED BY IDOCK:   -3.17 KCAL/MOL
REMARK 922        TOTAL FREE ENERGY PREDICTED BY IDOCK:   -7.69 KCAL/MOL
REMARK 923 INTER-LIGAND FREE ENERGY PREDICTED BY IDOCK:   -6.52 KCAL/MOL
REMARK 924 INTRA-LIGAND FREE ENERGY PREDICTED BY IDOCK:   -1.18 KCAL/MOL
REMARK 927      BINDING AFFINITY PREDICTED BY RF-SCORE:    0.00 PKD
ROOT
HETATM    1  C   UNL     1     -12.620  13.842  65.006  1.00  0.00    -0.390 C  
HETATM    2  O   UNL     1     -12.430  14.043  66.405  1.00  0.00    -0.452 OA 
ENDROOT
BRANCH   2   3
HETATM    3  C   UNL     1     -12.005  12.951  67.101  1.00  0.00    -0.310 C  
HETATM    4  O   UNL     1     -11.883  11.820  66.645  1.00  0.00    -0.569 OA 
BRANCH   3   5
HETATM    5  C   UNL     1     -11.675  13.351  68.542  1.00  0.00    -0.357 C  
BRANCH   5   6
HETATM    6  C   UNL     1     -10.216  13.802  68.690  1.00  0.00    -0.209 C  
HETATM    7  C   UNL     1     -10.725  15.784  70.219  1.00  0.00    -0.342 C  
HETATM    8  C   UNL     1      -8.519  15.621  69.054  1.00  0.00    -0.231 C  
HETATM    9  C   UNL     1     -10.015  15.307  68.952  1.00  0.00    -0.225 C  
ENDBRANCH   5   6
BRANCH   5  10
HETATM   10  N   UNL     1     -11.933  12.211  69.422  1.00  0.00    -0.295 N  
HETATM   11  C   UNL     1     -12.523  12.385  70.651  1.00  0.00    -0.234 C  
HETATM   12  H   UNL     1     -11.671  11.272  69.119  1.00  0.00     0.000 HD 
HETATM   13  O   UNL     1     -12.877  13.474  71.089  1.00  0.00    -0.338 OA 
BRANCH  11  14
HETATM   14  C   UNL     1     -12.667  11.114  71.454  1.00  0.00    -0.524 C  
BRANCH  14  15
HETATM   15  C   UNL     1     -11.537  10.145  71.114  1.00  0.00    -0.430 C  
BRANCH  15  16
HETATM   16  C   UNL     1     -11.970   8.679  71.185  1.00  0.00    -0.320 C  
BRANCH  16  17
HETATM   17  C   UNL     1     -10.930   7.739  70.580  1.00  0.00    -0.255 C  
BRANCH  17  18
HETATM   18  C   UNL     1     -10.569   8.128  69.150  1.00  0.00    -0.179 C  
BRANCH  18  19
HETATM   19  C   UNL     1      -9.341   7.344  68.690  1.00  0.00    -0.139 C  
BRANCH  19  20
HETATM   20  C   UNL     1      -8.678   6.616  69.856  1.00  0.00    -0.141 C  
BRANCH  20  21
HETATM   21  C   UNL     1      -8.372   5.164  69.488  1.00  0.00    -0.093 C  
BRANCH  21  22
HETATM   22  C   UNL     1      -9.449   4.247  69.985  1.00  0.00    -0.254 C  
HETATM   23  C   UNL     1      -9.947   4.282  71.227  1.00  0.00    -0.230 C  
ENDBRANCH  21  22
ENDBRANCH  20  21
ENDBRANCH  19  20
ENDBRANCH  18  19
ENDBRANCH  17  18
ENDBRANCH  16  17
ENDBRANCH  15  16
ENDBRANCH  14  15
ENDBRANCH  11  14
ENDBRANCH   5  10
ENDBRANCH   3   5
ENDBRANCH   2   3
TORSDOF 13
ENDMDL
MODEL      192
REMARK 921   NORMALIZED FREE ENERGY PREDICTED BY IDOCK:   -3.17 KCAL/MOL
REMARK 922        TOTAL FREE ENERGY PREDICTED BY IDOCK:   -7.69 KCAL/MOL
REMARK 923 INTER-LIGAND FREE ENERGY PREDICTED BY IDOCK:   -6.27 KCAL/MOL
REMARK 924 INTRA-LIGAND FREE ENERGY PREDICTED BY IDOCK:   -1.42 KCAL/MOL
REMARK 927      BINDING AFFINITY PREDICTED BY RF-SCORE:    0.00 PKD
ROOT
HETATM    1  C   UNL     1     -11.042  14.875  65.044  1.00  0.00    -0.414 C  
HETATM    2  O   UNL     1     -10.697  13.580  65.532  1.00  0.00    -0.278 OA 
ENDROOT
BRANCH   2   3
HETATM    3  C   UNL     1     -11.751  12.780  65.862  1.00  0.00    -0.414 C  
HETATM    4  O   UNL     1     -12.788  12.670  65.219  1.00  0.00    -0.656 OA 
BRANCH   3   5
HETATM    5  C   UNL     1     -11.435  12.011  67.148  1.00  0.00    -0.335 C  
BRANCH   5   6
HETATM    6  C   UNL     1     -11.550  12.905  68.391  1.00  0.00    -0.369 C  
HETATM    7  C   UNL     1     -11.640  10.981  70.070  1.00  0.00    -0.427 C  
HETATM    8  C   UNL     1     -12.354  13.281  70.743  1.00  0.00    -0.425 C  
HETATM    9  C   UNL     1     -12.292  12.278  69.587  1.00  0.00    -0.050 C  
ENDBRANCH   5   6
BRANCH   5  10
HETATM   10  N   UNL     1     -10.081  11.464  67.055  1.00  0.00    -0.204 N  
HETATM   11  C   UNL     1      -9.874  10.126  66.821  1.00  0.00    -0.196 C  
HETATM   12  H   UNL     1      -9.280  12.085  67.165  1.00  0.00     0.000 HD 
HETATM   13  O   UNL     1     -10.779   9.312  66.669  1.00  0.00    -0.145 OA 
BRANCH  11  14
HETATM   14  C   UNL     1      -8.421   9.718  66.808  1.00  0.00    -0.125 C  
BRANCH  14  15
HETATM   15  C   UNL     1      -8.293   8.228  66.498  1.00  0.00    -0.112 C  
BRANCH  15  16
HETATM   16  C   UNL     1      -8.106   7.374  67.754  1.00  0.00    -0.119 C  
BRANCH  16  17
HETATM   17  C   UNL     1      -8.651   5.958  67.576  1.00  0.00    -0.102 C  
BRANCH  17  18
HETATM   18  C   UNL     1      -9.576   5.552  68.718  1.00  0.00    -0.175 C  
BRANCH  18  19
HETATM   19  C   UNL     1     -10.916   6.275  68.588  1.00  0.00    -0.423 C  
BRANCH  19  20
HETATM   20  C   UNL     1     -11.088   7.326  69.681  1.00  0.00    -0.161 C  
BRANCH  20  21
HETATM   21  C   UNL     1     -11.896   6.767  70.852  1.00  0.00    -0.438 C  
BRANCH  21  22
HETATM   22  C   UNL     1     -11.230   7.078  72.159  1.00  0.00    -0.291 C  
HETATM   23  C   UNL     1     -11.181   8.301  72.701  1.00  0.00    -0.410 C  
ENDBRANCH  21  22
ENDBRANCH  20  21
ENDBRANCH  19  20
ENDBRANCH  18  19
ENDBRANCH  17  18
ENDBRANCH  16  17
ENDBRANCH  15  16
ENDBRANCH  14  15
ENDBRANCH  11  14
ENDBRANCH   5  10
ENDBRANCH   3   5
ENDBRANCH   2   3
TORSDOF 13
ENDMDL
MODEL      193
REMARK 921   NORMALIZED FREE ENERGY PREDICTED BY IDOCK:   -3.17 KCAL/MOL
REMARK 922        TOTAL FREE ENERGY PREDICTED BY IDOCK:   -7.69 KCAL/MOL
REMARK 923 INTER-LIGAND FREE ENERGY PREDICTED BY IDOCK:   -6.43 KCAL/MOL
REMARK 924 INTRA-LIGAND FREE ENERGY PREDICTED BY IDOCK:   -1.25 KCAL/MOL
REMARK 927      BINDING AFFINITY PREDICTED BY RF-SCORE:    0.00 PKD
ROOT
HETATM    1  C   UNL     1      -7.632  10.274  63.882  1.00  0.00    -0.084 C  
HETATM    2  O   UNL     1      -8.040   9.629  65.087  1.00  0.00    -0.115 OA 
ENDROOT
BRANCH   2   3
HETATM    3  C   UNL     1      -8.138  10.439  66.180  1.00  0.00    -0.139 C  
HETATM    4  O   UNL     1      -7.213  11.059  66.691  1.00  0.00    -0.129 OA 
BRANCH   3   5
HETATM    5  C   UNL     1      -9.590  10.481  66.665  1.00  0.00    -0.172 C  
BRANCH   5   6
HETATM    6  C   UNL     1     -10.258   9.101  66.592  1.00  0.00    -0.328 C  
HETATM    7  C   UNL     1     -10.563   8.841  69.115  1.00  0.00    -0.200 C  
HETATM    8  C   UNL     1     -10.744   6.853  67.609  1.00  0.00    -0.344 C  
HETATM    9  C   UNL     1     -10.048   8.201  67.825  1.00  0.00    -0.260 C  
ENDBRANCH   5   6
BRANCH   5  10
HETATM   10  N   UNL     1     -10.337  11.436  65.847  1.00  0.00    -0.243 N  
HETATM   11  C   UNL     1     -11.471  12.046  66.329  1.00  0.00    -0.345 C  
HETATM   12  H   UNL     1     -10.011  11.654  64.905  1.00  0.00     0.000 HD 
HETATM   13  O   UNL     1     -11.927  11.849  67.449  1.00  0.00    -0.603 OA 
BRANCH  11  14
HETATM   14  C   UNL     1     -12.150  12.960  65.338  1.00  0.00    -0.501 C  
BRANCH  14  15
HETATM   15  C   UNL     1     -11.313  14.220  65.123  1.00  0.00    -0.345 C  
BRANCH  15  16
HETATM   16  C   UNL     1     -11.408  15.203  66.291  1.00  0.00    -0.219 C  
BRANCH  16  17
HETATM   17  C   UNL     1     -10.073  15.376  67.011  1.00  0.00    -0.249 C  
BRANCH  17  18
HETATM   18  C   UNL     1     -10.183  15.073  68.502  1.00  0.00    -0.227 C  
BRANCH  18  19
HETATM   19  C   UNL     1     -10.644  16.319  69.256  1.00  0.00    -0.293 C  
BRANCH  19  20
HETATM   20  C   UNL     1     -11.487  15.950  70.474  1.00  0.00    -0.412 C  
BRANCH  20  21
HETATM   21  C   UNL     1     -12.529  14.890  70.114  1.00  0.00    -0.353 C  
BRANCH  21  22
HETATM   22  C   UNL     1     -12.921  14.092  71.321  1.00  0.00    -0.426 C  
HETATM   23  C   UNL     1     -12.741  14.507  72.582  1.00  0.00    -0.444 C  
ENDBRANCH  21  22
ENDBRANCH  20  21
ENDBRANCH  19  20
ENDBRANCH  18  19
ENDBRANCH  17  18
ENDBRANCH  16  17
ENDBRANCH  15  16
ENDBRANCH  14  15
ENDBRANCH  11  14
ENDBRANCH   5  10
ENDBRANCH   3   5
ENDBRANCH   2   3
TORSDOF 13
ENDMDL
MODEL      194
REMARK 921   NORMALIZED FREE ENERGY PREDICTED BY IDOCK:   -3.16 KCAL/MOL
REMARK 922        TOTAL FREE ENERGY PREDICTED BY IDOCK:   -7.67 KCAL/MOL
REMARK 923 INTER-LIGAND FREE ENERGY PREDICTED BY IDOCK:   -6.51 KCAL/MOL
REMARK 924 INTRA-LIGAND FREE ENERGY PREDICTED BY IDOCK:   -1.16 KCAL/MOL
REMARK 927      BINDING AFFINITY PREDICTED BY RF-SCORE:    0.00 PKD
ROOT
HETATM    1  C   UNL     1      -8.603   7.441  74.233  1.00  0.00    -0.218 C  
HETATM    2  O   UNL     1      -8.898   8.673  73.579  1.00  0.00    -0.265 OA 
ENDROOT
BRANCH   2   3
HETATM    3  C   UNL     1      -9.034   8.599  72.225  1.00  0.00    -0.175 C  
HETATM    4  O   UNL     1      -8.132   8.753  71.410  1.00  0.00    -0.142 OA 
BRANCH   3   5
HETATM    5  C   UNL     1     -10.486   8.267  71.867  1.00  0.00    -0.274 C  
BRANCH   5   6
HETATM    6  C   UNL     1     -10.574   7.283  70.692  1.00  0.00    -0.240 C  
HETATM    7  C   UNL     1     -10.910   5.203  72.136  1.00  0.00    -0.218 C  
HETATM    8  C   UNL     1     -10.232   4.982  69.739  1.00  0.00    -0.336 C  
HETATM    9  C   UNL     1     -10.114   5.846  70.999  1.00  0.00    -0.252 C  
ENDBRANCH   5   6
BRANCH   5  10
HETATM   10  N   UNL     1     -11.188   9.506  71.530  1.00  0.00    -0.383 N  
HETATM   11  C   UNL     1     -12.523   9.662  71.814  1.00  0.00    -0.402 C  
HETATM   12  H   UNL     1     -10.678  10.265  71.078  1.00  0.00     0.000 HD 
HETATM   13  O   UNL     1     -13.208   8.805  72.362  1.00  0.00    -0.396 OA 
BRANCH  11  14
HETATM   14  C   UNL     1     -13.104  10.976  71.352  1.00  0.00    -0.441 C  
BRANCH  14  15
HETATM   15  C   UNL     1     -12.078  11.744  70.521  1.00  0.00    -0.439 C  
BRANCH  15  16
HETATM   16  C   UNL     1     -12.283  13.259  70.575  1.00  0.00    -0.416 C  
BRANCH  16  17
HETATM   17  C   UNL     1     -12.152  13.910  69.200  1.00  0.00    -0.377 C  
BRANCH  17  18
HETATM   18  C   UNL     1     -10.942  14.835  69.117  1.00  0.00    -0.277 C  
BRANCH  18  19
HETATM   19  C   UNL     1     -10.122  14.513  67.868  1.00  0.00    -0.227 C  
BRANCH  19  20
HETATM   20  C   UNL     1      -9.635  13.066  67.882  1.00  0.00    -0.215 C  
BRANCH  20  21
HETATM   21  C   UNL     1     -10.316  12.252  66.781  1.00  0.00    -0.238 C  
BRANCH  21  22
HETATM   22  C   UNL     1      -9.482  11.067  66.398  1.00  0.00    -0.218 C  
HETATM   23  C   UNL     1      -9.901  10.089  65.585  1.00  0.00    -0.363 C  
ENDBRANCH  21  22
ENDBRANCH  20  21
ENDBRANCH  19  20
ENDBRANCH  18  19
ENDBRANCH  17  18
ENDBRANCH  16  17
ENDBRANCH  15  16
ENDBRANCH  14  15
ENDBRANCH  11  14
ENDBRANCH   5  10
ENDBRANCH   3   5
ENDBRANCH   2   3
TORSDOF 13
ENDMDL
MODEL      195
REMARK 921   NORMALIZED FREE ENERGY PREDICTED BY IDOCK:   -3.16 KCAL/MOL
REMARK 922        TOTAL FREE ENERGY PREDICTED BY IDOCK:   -7.66 KCAL/MOL
REMARK 923 INTER-LIGAND FREE ENERGY PREDICTED BY IDOCK:   -6.11 KCAL/MOL
REMARK 924 INTRA-LIGAND FREE ENERGY PREDICTED BY IDOCK:   -1.55 KCAL/MOL
REMARK 927      BINDING AFFINITY PREDICTED BY RF-SCORE:    0.00 PKD
ROOT
HETATM    1  C   UNL     1     -11.470  13.525  65.972  1.00  0.00    -0.325 C  
HETATM    2  O   UNL     1     -11.931  12.179  66.069  1.00  0.00    -0.578 OA 
ENDROOT
BRANCH   2   3
HETATM    3  C   UNL     1     -11.532  11.502  67.183  1.00  0.00    -0.237 C  
HETATM    4  O   UNL     1     -12.194  11.360  68.204  1.00  0.00    -0.602 OA 
BRANCH   3   5
HETATM    5  C   UNL     1     -10.133  10.918  66.961  1.00  0.00    -0.205 C  
BRANCH   5   6
HETATM    6  C   UNL     1     -10.037  10.153  65.634  1.00  0.00    -0.324 C  
HETATM    7  C   UNL     1      -7.498  10.338  65.428  1.00  0.00    -0.145 C  
HETATM    8  C   UNL     1      -8.885   9.722  63.441  1.00  0.00    -0.258 C  
HETATM    9  C   UNL     1      -8.846  10.540  64.736  1.00  0.00    -0.211 C  
ENDBRANCH   5   6
BRANCH   5  10
HETATM   10  N   UNL     1      -9.811  10.023  68.073  1.00  0.00    -0.140 N  
HETATM   11  C   UNL     1      -8.842  10.354  68.990  1.00  0.00    -0.172 C  
HETATM   12  H   UNL     1     -10.314   9.140  68.170  1.00  0.00     0.000 HD 
HETATM   13  O   UNL     1      -8.197  11.396  68.952  1.00  0.00    -0.133 OA 
BRANCH  11  14
HETATM   14  C   UNL     1      -8.596   9.298  70.039  1.00  0.00    -0.193 C  
BRANCH  14  15
HETATM   15  C   UNL     1      -7.762   8.159  69.457  1.00  0.00    -0.102 C  
BRANCH  15  16
HETATM   16  C   UNL     1      -8.551   6.856  69.316  1.00  0.00    -0.132 C  
BRANCH  16  17
HETATM   17  C   UNL     1      -8.482   5.998  70.578  1.00  0.00    -0.132 C  
BRANCH  17  18
HETATM   18  C   UNL     1      -9.749   6.114  71.419  1.00  0.00    -0.187 C  
BRANCH  18  19
HETATM   19  C   UNL     1     -10.982   5.938  70.535  1.00  0.00    -0.362 C  
BRANCH  19  20
HETATM   20  C   UNL     1     -11.994   7.057  70.764  1.00  0.00    -0.392 C  
BRANCH  20  21
HETATM   21  C   UNL     1     -11.882   7.609  72.186  1.00  0.00    -0.352 C  
BRANCH  21  22
HETATM   22  C   UNL     1     -12.609   8.915  72.312  1.00  0.00    -0.455 C  
HETATM   23  C   UNL     1     -12.867   9.729  71.281  1.00  0.00    -0.472 C  
ENDBRANCH  21  22
ENDBRANCH  20  21
ENDBRANCH  19  20
ENDBRANCH  18  19
ENDBRANCH  17  18
ENDBRANCH  16  17
ENDBRANCH  15  16
ENDBRANCH  14  15
ENDBRANCH  11  14
ENDBRANCH   5  10
ENDBRANCH   3   5
ENDBRANCH   2   3
TORSDOF 13
ENDMDL
MODEL      196
REMARK 921   NORMALIZED FREE ENERGY PREDICTED BY IDOCK:   -3.15 KCAL/MOL
REMARK 922        TOTAL FREE ENERGY PREDICTED BY IDOCK:   -7.65 KCAL/MOL
REMARK 923 INTER-LIGAND FREE ENERGY PREDICTED BY IDOCK:   -5.70 KCAL/MOL
REMARK 924 INTRA-LIGAND FREE ENERGY PREDICTED BY IDOCK:   -1.95 KCAL/MOL
REMARK 927      BINDING AFFINITY PREDICTED BY RF-SCORE:    0.00 PKD
ROOT
HETATM    1  C   UNL     1      -9.276  10.248  63.028  1.00  0.00    -0.291 C  
HETATM    2  O   UNL     1      -9.953  11.417  63.485  1.00  0.00    -0.311 OA 
ENDROOT
BRANCH   2   3
HETATM    3  C   UNL     1     -10.582  11.297  64.689  1.00  0.00    -0.327 C  
HETATM    4  O   UNL     1     -11.688  11.748  64.962  1.00  0.00    -0.234 OA 
BRANCH   3   5
HETATM    5  C   UNL     1      -9.708  10.486  65.651  1.00  0.00    -0.234 C  
BRANCH   5   6
HETATM    6  C   UNL     1     -10.511   9.394  66.370  1.00  0.00    -0.165 C  
HETATM    7  C   UNL     1      -8.483   7.978  67.010  1.00  0.00    -0.120 C  
HETATM    8  C   UNL     1     -10.783   7.001  67.092  1.00  0.00    -0.433 C  
HETATM    9  C   UNL     1      -9.870   7.993  66.365  1.00  0.00    -0.237 C  
ENDBRANCH   5   6
BRANCH   5  10
HETATM   10  N   UNL     1      -9.115  11.393  66.634  1.00  0.00    -0.176 N  
HETATM   11  C   UNL     1      -7.754  11.566  66.707  1.00  0.00    -0.136 C  
HETATM   12  H   UNL     1      -9.722  11.907  67.274  1.00  0.00     0.000 HD 
HETATM   13  O   UNL     1      -6.955  10.996  65.972  1.00  0.00    -0.107 OA 
BRANCH  11  14
HETATM   14  C   UNL     1      -7.306  12.493  67.810  1.00  0.00    -0.124 C  
BRANCH  14  15
HETATM   15  C   UNL     1      -8.349  13.586  68.037  1.00  0.00    -0.168 C  
BRANCH  15  16
HETATM   16  C   UNL     1      -8.218  14.747  67.050  1.00  0.00    -0.211 C  
BRANCH  16  17
HETATM   17  C   UNL     1      -9.478  14.936  66.209  1.00  0.00    -0.339 C  
BRANCH  17  18
HETATM   18  C   UNL     1     -10.296  16.140  66.665  1.00  0.00    -0.297 C  
BRANCH  18  19
HETATM   19  C   UNL     1     -11.216  15.741  67.818  1.00  0.00    -0.286 C  
BRANCH  19  20
HETATM   20  C   UNL     1     -11.879  14.391  67.557  1.00  0.00    -0.418 C  
BRANCH  20  21
HETATM   21  C   UNL     1     -12.035  13.601  68.857  1.00  0.00    -0.392 C  
BRANCH  21  22
HETATM   22  C   UNL     1     -11.875  12.130  68.612  1.00  0.00    -0.358 C  
HETATM   23  C   UNL     1     -11.258  11.294  69.457  1.00  0.00    -0.337 C  
ENDBRANCH  21  22
ENDBRANCH  20  21
ENDBRANCH  19  20
ENDBRANCH  18  19
ENDBRANCH  17  18
ENDBRANCH  16  17
ENDBRANCH  15  16
ENDBRANCH  14  15
ENDBRANCH  11  14
ENDBRANCH   5  10
ENDBRANCH   3   5
ENDBRANCH   2   3
TORSDOF 13
ENDMDL
MODEL      197
REMARK 921   NORMALIZED FREE ENERGY PREDICTED BY IDOCK:   -3.14 KCAL/MOL
REMARK 922        TOTAL FREE ENERGY PREDICTED BY IDOCK:   -7.64 KCAL/MOL
REMARK 923 INTER-LIGAND FREE ENERGY PREDICTED BY IDOCK:   -7.48 KCAL/MOL
REMARK 924 INTRA-LIGAND FREE ENERGY PREDICTED BY IDOCK:   -0.16 KCAL/MOL
REMARK 927      BINDING AFFINITY PREDICTED BY RF-SCORE:    0.00 PKD
ROOT
HETATM    1  C   UNL     1     -10.532   6.167  69.128  1.00  0.00    -0.251 C  
HETATM    2  O   UNL     1     -11.707   6.126  69.935  1.00  0.00    -0.339 OA 
ENDROOT
BRANCH   2   3
HETATM    3  C   UNL     1     -11.542   6.518  71.230  1.00  0.00    -0.327 C  
HETATM    4  O   UNL     1     -12.051   5.979  72.206  1.00  0.00    -0.301 OA 
BRANCH   3   5
HETATM    5  C   UNL     1     -10.600   7.724  71.291  1.00  0.00    -0.218 C  
BRANCH   5   6
HETATM    6  C   UNL     1     -10.076   7.968  72.713  1.00  0.00    -0.378 C  
HETATM    7  C   UNL     1      -7.646   8.339  72.019  1.00  0.00    -0.145 C  
HETATM    8  C   UNL     1      -8.220   7.859  74.405  1.00  0.00    -0.288 C  
HETATM    9  C   UNL     1      -8.602   7.587  72.947  1.00  0.00    -0.172 C  
ENDBRANCH   5   6
BRANCH   5  10
HETATM   10  N   UNL     1     -11.315   8.909  70.816  1.00  0.00    -0.273 N  
HETATM   11  C   UNL     1     -12.373   9.428  71.523  1.00  0.00    -0.370 C  
HETATM   12  H   UNL     1     -11.022   9.357  69.947  1.00  0.00     0.000 HD 
HETATM   13  O   UNL     1     -12.783   8.957  72.578  1.00  0.00    -0.390 OA 
BRANCH  11  14
HETATM   14  C   UNL     1     -13.032  10.617  70.867  1.00  0.00    -0.429 C  
BRANCH  14  15
HETATM   15  C   UNL     1     -13.264  11.724  71.892  1.00  0.00    -0.468 C  
BRANCH  15  16
HETATM   16  C   UNL     1     -12.888  13.110  71.365  1.00  0.00    -0.401 C  
BRANCH  16  17
HETATM   17  C   UNL     1     -12.099  13.038  70.060  1.00  0.00    -0.367 C  
BRANCH  17  18
HETATM   18  C   UNL     1     -11.476  14.381  69.692  1.00  0.00    -0.331 C  
BRANCH  18  19
HETATM   19  C   UNL     1     -11.117  14.401  68.207  1.00  0.00    -0.275 C  
BRANCH  19  20
HETATM   20  C   UNL     1     -12.215  13.761  67.362  1.00  0.00    -0.290 C  
BRANCH  20  21
HETATM   21  C   UNL     1     -11.623  12.766  66.363  1.00  0.00    -0.435 C  
BRANCH  21  22
HETATM   22  C   UNL     1     -12.380  12.792  65.069  1.00  0.00    -0.559 C  
HETATM   23  C   UNL     1     -12.115  13.638  64.065  1.00  0.00    -0.474 C  
ENDBRANCH  21  22
ENDBRANCH  20  21
ENDBRANCH  19  20
ENDBRANCH  18  19
ENDBRANCH  17  18
ENDBRANCH  16  17
ENDBRANCH  15  16
ENDBRANCH  14  15
ENDBRANCH  11  14
ENDBRANCH   5  10
ENDBRANCH   3   5
ENDBRANCH   2   3
TORSDOF 13
ENDMDL
MODEL      198
REMARK 921   NORMALIZED FREE ENERGY PREDICTED BY IDOCK:   -3.13 KCAL/MOL
REMARK 922        TOTAL FREE ENERGY PREDICTED BY IDOCK:   -7.62 KCAL/MOL
REMARK 923 INTER-LIGAND FREE ENERGY PREDICTED BY IDOCK:   -7.21 KCAL/MOL
REMARK 924 INTRA-LIGAND FREE ENERGY PREDICTED BY IDOCK:   -0.41 KCAL/MOL
REMARK 927      BINDING AFFINITY PREDICTED BY RF-SCORE:    0.00 PKD
ROOT
HETATM    1  C   UNL     1      -6.383  16.192  69.642  1.00  0.00    -0.192 C  
HETATM    2  O   UNL     1      -7.581  16.310  68.876  1.00  0.00    -0.186 OA 
ENDROOT
BRANCH   2   3
HETATM    3  C   UNL     1      -7.463  15.994  67.555  1.00  0.00    -0.160 C  
HETATM    4  O   UNL     1      -6.638  15.225  67.078  1.00  0.00    -0.253 OA 
BRANCH   3   5
HETATM    5  C   UNL     1      -8.540  16.728  66.749  1.00  0.00    -0.232 C  
BRANCH   5   6
HETATM    6  C   UNL     1      -9.497  17.513  67.656  1.00  0.00    -0.256 C  
HETATM    7  C   UNL     1      -9.702  19.534  66.107  1.00  0.00    -0.461 C  
HETATM    8  C   UNL     1     -10.404  19.701  68.501  1.00  0.00    -0.459 C  
HETATM    9  C   UNL     1      -9.418  19.046  67.529  1.00  0.00    -0.351 C  
ENDBRANCH   5   6
BRANCH   5  10
HETATM   10  N   UNL     1      -9.293  15.751  65.963  1.00  0.00    -0.342 N  
HETATM   11  C   UNL     1     -10.155  14.868  66.568  1.00  0.00    -0.271 C  
HETATM   12  H   UNL     1      -9.176  15.724  64.949  1.00  0.00     0.000 HD 
HETATM   13  O   UNL     1     -10.361  14.837  67.776  1.00  0.00    -0.241 OA 
BRANCH  11  14
HETATM   14  C   UNL     1     -10.809  13.893  65.620  1.00  0.00    -0.292 C  
BRANCH  14  15
HETATM   15  C   UNL     1     -11.437  12.739  66.399  1.00  0.00    -0.409 C  
BRANCH  15  16
HETATM   16  C   UNL     1     -10.693  11.417  66.206  1.00  0.00    -0.322 C  
BRANCH  16  17
HETATM   17  C   UNL     1     -10.456  10.689  67.527  1.00  0.00    -0.272 C  
BRANCH  17  18
HETATM   18  C   UNL     1     -11.651  10.803  68.467  1.00  0.00    -0.325 C  
BRANCH  18  19
HETATM   19  C   UNL     1     -11.214  11.417  69.796  1.00  0.00    -0.266 C  
BRANCH  19  20
HETATM   20  C   UNL     1     -12.416  11.758  70.672  1.00  0.00    -0.364 C  
BRANCH  20  21
HETATM   21  C   UNL     1     -12.494  13.263  70.929  1.00  0.00    -0.424 C  
BRANCH  21  22
HETATM   22  C   UNL     1     -13.232  13.552  72.201  1.00  0.00    -0.551 C  
HETATM   23  C   UNL     1     -14.265  14.400  72.290  1.00  0.00    -0.580 C  
ENDBRANCH  21  22
ENDBRANCH  20  21
ENDBRANCH  19  20
ENDBRANCH  18  19
ENDBRANCH  17  18
ENDBRANCH  16  17
ENDBRANCH  15  16
ENDBRANCH  14  15
ENDBRANCH  11  14
ENDBRANCH   5  10
ENDBRANCH   3   5
ENDBRANCH   2   3
TORSDOF 13
ENDMDL
MODEL      199
REMARK 921   NORMALIZED FREE ENERGY PREDICTED BY IDOCK:   -3.13 KCAL/MOL
REMARK 922        TOTAL FREE ENERGY PREDICTED BY IDOCK:   -7.62 KCAL/MOL
REMARK 923 INTER-LIGAND FREE ENERGY PREDICTED BY IDOCK:   -6.39 KCAL/MOL
REMARK 924 INTRA-LIGAND FREE ENERGY PREDICTED BY IDOCK:   -1.23 KCAL/MOL
REMARK 927      BINDING AFFINITY PREDICTED BY RF-SCORE:    0.00 PKD
ROOT
HETATM    1  C   UNL     1     -11.680   7.562  72.347  1.00  0.00    -0.290 C  
HETATM    2  O   UNL     1     -10.430   8.112  72.760  1.00  0.00    -0.322 OA 
ENDROOT
BRANCH   2   3
HETATM    3  C   UNL     1      -9.506   8.274  71.771  1.00  0.00    -0.209 C  
HETATM    4  O   UNL     1      -8.720   9.208  71.679  1.00  0.00    -0.343 OA 
BRANCH   3   5
HETATM    5  C   UNL     1      -9.578   7.094  70.796  1.00  0.00    -0.168 C  
BRANCH   5   6
HETATM    6  C   UNL     1      -8.382   6.146  70.957  1.00  0.00    -0.124 C  
HETATM    7  C   UNL     1      -9.782   4.038  71.303  1.00  0.00    -0.255 C  
HETATM    8  C   UNL     1      -7.361   4.063  71.926  1.00  0.00    -0.059 C  
HETATM    9  C   UNL     1      -8.638   4.904  71.831  1.00  0.00    -0.132 C  
ENDBRANCH   5   6
BRANCH   5  10
HETATM   10  N   UNL     1      -9.621   7.610  69.428  1.00  0.00    -0.159 N  
HETATM   11  C   UNL     1     -10.502   7.098  68.506  1.00  0.00    -0.204 C  
HETATM   12  H   UNL     1      -8.988   8.362  69.154  1.00  0.00     0.000 HD 
HETATM   13  O   UNL     1     -11.301   6.201  68.752  1.00  0.00    -0.344 OA 
BRANCH  11  14
HETATM   14  C   UNL     1     -10.378   7.704  67.129  1.00  0.00    -0.385 C  
BRANCH  14  15
HETATM   15  C   UNL     1     -10.452   9.227  67.214  1.00  0.00    -0.334 C  
BRANCH  15  16
HETATM   16  C   UNL     1     -10.115   9.913  65.889  1.00  0.00    -0.316 C  
BRANCH  16  17
HETATM   17  C   UNL     1      -9.852  11.407  66.062  1.00  0.00    -0.256 C  
BRANCH  17  18
HETATM   18  C   UNL     1     -11.002  12.113  66.772  1.00  0.00    -0.325 C  
BRANCH  18  19
HETATM   19  C   UNL     1     -12.149  12.359  65.792  1.00  0.00    -0.381 C  
BRANCH  19  20
HETATM   20  C   UNL     1     -12.483  13.845  65.693  1.00  0.00    -0.538 C  
BRANCH  20  21
HETATM   21  C   UNL     1     -11.731  14.496  64.532  1.00  0.00    -0.421 C  
BRANCH  21  22
HETATM   22  C   UNL     1     -10.922  15.666  65.007  1.00  0.00    -0.445 C  
HETATM   23  C   UNL     1      -9.979  15.588  65.954  1.00  0.00    -0.377 C  
ENDBRANCH  21  22
ENDBRANCH  20  21
ENDBRANCH  19  20
ENDBRANCH  18  19
ENDBRANCH  17  18
ENDBRANCH  16  17
ENDBRANCH  15  16
ENDBRANCH  14  15
ENDBRANCH  11  14
ENDBRANCH   5  10
ENDBRANCH   3   5
ENDBRANCH   2   3
TORSDOF 13
ENDMDL
MODEL      200
REMARK 921   NORMALIZED FREE ENERGY PREDICTED BY IDOCK:   -3.12 KCAL/MOL
REMARK 922        TOTAL FREE ENERGY PREDICTED BY IDOCK:   -7.60 KCAL/MOL
REMARK 923 INTER-LIGAND FREE ENERGY PREDICTED BY IDOCK:   -6.30 KCAL/MOL
REMARK 924 INTRA-LIGAND FREE ENERGY PREDICTED BY IDOCK:   -1.30 KCAL/MOL
REMARK 927      BINDING AFFINITY PREDICTED BY RF-SCORE:    0.00 PKD
ROOT
HETATM    1  C   UNL     1     -12.372  13.532  70.741  1.00  0.00    -0.363 C  
HETATM    2  O   UNL     1     -11.812  13.614  69.432  1.00  0.00    -0.297 OA 
ENDROOT
BRANCH   2   3
HETATM    3  C   UNL     1     -11.501  14.871  69.006  1.00  0.00    -0.301 C  
HETATM    4  O   UNL     1     -12.006  15.908  69.421  1.00  0.00    -0.354 OA 
BRANCH   3   5
HETATM    5  C   UNL     1     -10.401  14.801  67.943  1.00  0.00    -0.240 C  
BRANCH   5   6
HETATM    6  C   UNL     1     -10.768  15.602  66.687  1.00  0.00    -0.296 C  
HETATM    7  C   UNL     1     -12.430  13.890  65.778  1.00  0.00    -0.530 C  
HETATM    8  C   UNL     1     -11.523  15.682  64.290  1.00  0.00    -0.199 C  
HETATM    9  C   UNL     1     -11.212  14.762  65.474  1.00  0.00    -0.346 C  
ENDBRANCH   5   6
BRANCH   5  10
HETATM   10  N   UNL     1     -10.173  13.400  67.587  1.00  0.00    -0.226 N  
HETATM   11  C   UNL     1      -8.901  12.918  67.391  1.00  0.00    -0.199 C  
HETATM   12  H   UNL     1     -10.970  12.771  67.484  1.00  0.00     0.000 HD 
HETATM   13  O   UNL     1      -7.889  13.601  67.503  1.00  0.00    -0.158 OA 
BRANCH  11  14
HETATM   14  C   UNL     1      -8.846  11.467  66.977  1.00  0.00    -0.173 C  
BRANCH  14  15
HETATM   15  C   UNL     1     -10.259  10.916  66.798  1.00  0.00    -0.277 C  
BRANCH  15  16
HETATM   16  C   UNL     1     -10.573   9.765  67.756  1.00  0.00    -0.320 C  
BRANCH  16  17
HETATM   17  C   UNL     1     -11.372  10.227  68.972  1.00  0.00    -0.237 C  
BRANCH  17  18
HETATM   18  C   UNL     1     -10.588  10.062  70.270  1.00  0.00    -0.354 C  
BRANCH  18  19
HETATM   19  C   UNL     1      -9.477   9.030  70.081  1.00  0.00    -0.217 C  
BRANCH  19  20
HETATM   20  C   UNL     1      -9.750   7.767  70.893  1.00  0.00    -0.174 C  
BRANCH  20  21
HETATM   21  C   UNL     1     -10.552   6.756  70.072  1.00  0.00    -0.256 C  
BRANCH  21  22
HETATM   22  C   UNL     1     -11.954   6.637  70.590  1.00  0.00    -0.404 C  
HETATM   23  C   UNL     1     -12.278   6.688  71.889  1.00  0.00    -0.381 C  
ENDBRANCH  21  22
ENDBRANCH  20  21
ENDBRANCH  19  20
ENDBRANCH  18  19
ENDBRANCH  17  18
ENDBRANCH  16  17
ENDBRANCH  15  16
ENDBRANCH  14  15
ENDBRANCH  11  14
ENDBRANCH   5  10
ENDBRANCH   3   5
ENDBRANCH   2   3
TORSDOF 13
ENDMDL
MODEL      201
REMARK 921   NORMALIZED FREE ENERGY PREDICTED BY IDOCK:   -3.11 KCAL/MOL
REMARK 922        TOTAL FREE ENERGY PREDICTED BY IDOCK:   -7.59 KCAL/MOL
REMARK 923 INTER-LIGAND FREE ENERGY PREDICTED BY IDOCK:   -6.37 KCAL/MOL
REMARK 924 INTRA-LIGAND FREE ENERGY PREDICTED BY IDOCK:   -1.22 KCAL/MOL
REMARK 927      BINDING AFFINITY PREDICTED BY RF-SCORE:    0.00 PKD
ROOT
HETATM    1  C   UNL     1     -12.250  13.332  64.468  1.00  0.00    -0.400 C  
HETATM    2  O   UNL     1     -12.237  12.572  65.675  1.00  0.00    -0.554 OA 
ENDROOT
BRANCH   2   3
HETATM    3  C   UNL     1     -11.768  13.227  66.774  1.00  0.00    -0.385 C  
HETATM    4  O   UNL     1     -12.186  14.299  67.196  1.00  0.00    -0.410 OA 
BRANCH   3   5
HETATM    5  C   UNL     1     -10.649  12.409  67.427  1.00  0.00    -0.216 C  
BRANCH   5   6
HETATM    6  C   UNL     1     -10.544  11.002  66.825  1.00  0.00    -0.317 C  
HETATM    7  C   UNL     1      -8.040  11.128  66.337  1.00  0.00    -0.159 C  
HETATM    8  C   UNL     1      -9.452   9.377  65.247  1.00  0.00    -0.296 C  
HETATM    9  C   UNL     1      -9.428  10.813  65.779  1.00  0.00    -0.244 C  
ENDBRANCH   5   6
BRANCH   5  10
HETATM   10  N   UNL     1     -10.906  12.316  68.864  1.00  0.00    -0.300 N  
HETATM   11  C   UNL     1     -11.918  11.524  69.352  1.00  0.00    -0.325 C  
HETATM   12  H   UNL     1     -10.325  12.846  69.514  1.00  0.00     0.000 HD 
HETATM   13  O   UNL     1     -12.657  10.849  68.643  1.00  0.00    -0.255 OA 
BRANCH  11  14
HETATM   14  C   UNL     1     -12.082  11.583  70.851  1.00  0.00    -0.352 C  
BRANCH  14  15
HETATM   15  C   UNL     1     -12.556  10.233  71.385  1.00  0.00    -0.539 C  
BRANCH  15  16
HETATM   16  C   UNL     1     -11.403   9.265  71.657  1.00  0.00    -0.467 C  
BRANCH  16  17
HETATM   17  C   UNL     1     -11.378   8.103  70.667  1.00  0.00    -0.256 C  
BRANCH  17  18
HETATM   18  C   UNL     1     -10.424   8.360  69.505  1.00  0.00    -0.225 C  
BRANCH  18  19
HETATM   19  C   UNL     1      -9.212   7.436  69.608  1.00  0.00    -0.146 C  
BRANCH  19  20
HETATM   20  C   UNL     1      -7.976   8.193  70.087  1.00  0.00    -0.107 C  
BRANCH  20  21
HETATM   21  C   UNL     1      -8.123   9.693  69.831  1.00  0.00    -0.180 C  
BRANCH  21  22
HETATM   22  C   UNL     1      -6.793  10.381  69.900  1.00  0.00    -0.143 C  
HETATM   23  C   UNL     1      -6.605  11.676  69.617  1.00  0.00    -0.096 C  
ENDBRANCH  21  22
ENDBRANCH  20  21
ENDBRANCH  19  20
ENDBRANCH  18  19
ENDBRANCH  17  18
ENDBRANCH  16  17
ENDBRANCH  15  16
ENDBRANCH  14  15
ENDBRANCH  11  14
ENDBRANCH   5  10
ENDBRANCH   3   5
ENDBRANCH   2   3
TORSDOF 13
ENDMDL
MODEL      202
REMARK 921   NORMALIZED FREE ENERGY PREDICTED BY IDOCK:   -3.11 KCAL/MOL
REMARK 922        TOTAL FREE ENERGY PREDICTED BY IDOCK:   -7.59 KCAL/MOL
REMARK 923 INTER-LIGAND FREE ENERGY PREDICTED BY IDOCK:   -6.42 KCAL/MOL
REMARK 924 INTRA-LIGAND FREE ENERGY PREDICTED BY IDOCK:   -1.16 KCAL/MOL
REMARK 927      BINDING AFFINITY PREDICTED BY RF-SCORE:    0.00 PKD
ROOT
HETATM    1  C   UNL     1     -10.430  18.554  65.981  1.00  0.00    -0.400 C  
HETATM    2  O   UNL     1     -10.927  17.308  66.466  1.00  0.00    -0.020 OA 
ENDROOT
BRANCH   2   3
HETATM    3  C   UNL     1     -10.429  16.908  67.670  1.00  0.00    -0.332 C  
HETATM    4  O   UNL     1     -10.225  17.637  68.633  1.00  0.00    -0.346 OA 
BRANCH   3   5
HETATM    5  C   UNL     1     -10.183  15.396  67.653  1.00  0.00    -0.246 C  
BRANCH   5   6
HETATM    6  C   UNL     1      -9.940  14.873  66.231  1.00  0.00    -0.300 C  
HETATM    7  C   UNL     1     -12.339  14.086  65.844  1.00  0.00    -0.515 C  
HETATM    8  C   UNL     1     -10.491  13.278  64.366  1.00  0.00    -0.424 C  
HETATM    9  C   UNL     1     -10.856  13.716  65.788  1.00  0.00    -0.274 C  
ENDBRANCH   5   6
BRANCH   5  10
HETATM   10  N   UNL     1     -11.341  14.720  68.238  1.00  0.00    -0.287 N  
HETATM   11  C   UNL     1     -11.414  14.484  69.590  1.00  0.00    -0.288 C  
HETATM   12  H   UNL     1     -12.107  14.420  67.634  1.00  0.00     0.000 HD 
HETATM   13  O   UNL     1     -10.545  14.818  70.388  1.00  0.00    -0.027 OA 
BRANCH  11  14
HETATM   14  C   UNL     1     -12.648  13.729  70.021  1.00  0.00    -0.207 C  
BRANCH  14  15
HETATM   15  C   UNL     1     -12.655  13.550  71.538  1.00  0.00    -0.358 C  
BRANCH  15  16
HETATM   16  C   UNL     1     -13.142  12.165  71.970  1.00  0.00    -0.462 C  
BRANCH  16  17
HETATM   17  C   UNL     1     -12.932  11.113  70.884  1.00  0.00    -0.276 C  
BRANCH  17  18
HETATM   18  C   UNL     1     -11.739  10.211  71.183  1.00  0.00    -0.453 C  
BRANCH  18  19
HETATM   19  C   UNL     1     -11.150   9.674  69.879  1.00  0.00    -0.268 C  
BRANCH  19  20
HETATM   20  C   UNL     1      -9.808  10.329  69.565  1.00  0.00    -0.244 C  
BRANCH  20  21
HETATM   21  C   UNL     1      -9.935  11.288  68.380  1.00  0.00    -0.201 C  
BRANCH  21  22
HETATM   22  C   UNL     1      -9.326  10.696  67.144  1.00  0.00    -0.172 C  
HETATM   23  C   UNL     1     -10.025  10.048  66.204  1.00  0.00    -0.322 C  
ENDBRANCH  21  22
ENDBRANCH  20  21
ENDBRANCH  19  20
ENDBRANCH  18  19
ENDBRANCH  17  18
ENDBRANCH  16  17
ENDBRANCH  15  16
ENDBRANCH  14  15
ENDBRANCH  11  14
ENDBRANCH   5  10
ENDBRANCH   3   5
ENDBRANCH   2   3
TORSDOF 13
ENDMDL
MODEL      203
REMARK 921   NORMALIZED FREE ENERGY PREDICTED BY IDOCK:   -3.10 KCAL/MOL
REMARK 922        TOTAL FREE ENERGY PREDICTED BY IDOCK:   -7.57 KCAL/MOL
REMARK 923 INTER-LIGAND FREE ENERGY PREDICTED BY IDOCK:   -6.97 KCAL/MOL
REMARK 924 INTRA-LIGAND FREE ENERGY PREDICTED BY IDOCK:   -0.60 KCAL/MOL
REMARK 927      BINDING AFFINITY PREDICTED BY RF-SCORE:    0.00 PKD
ROOT
HETATM    1  C   UNL     1     -12.409  14.198  65.232  1.00  0.00    -0.460 C  
HETATM    2  O   UNL     1     -11.620  14.004  66.404  1.00  0.00    -0.339 OA 
ENDROOT
BRANCH   2   3
HETATM    3  C   UNL     1     -11.800  12.811  67.039  1.00  0.00    -0.361 C  
HETATM    4  O   UNL     1     -12.114  11.757  66.498  1.00  0.00    -0.498 OA 
BRANCH   3   5
HETATM    5  C   UNL     1     -11.524  12.975  68.537  1.00  0.00    -0.304 C  
BRANCH   5   6
HETATM    6  C   UNL     1     -10.805  14.295  68.845  1.00  0.00    -0.272 C  
HETATM    7  C   UNL     1     -12.507  15.106  70.568  1.00  0.00    -0.429 C  
HETATM    8  C   UNL     1     -10.875  16.706  69.554  1.00  0.00    -0.285 C  
HETATM    9  C   UNL     1     -11.715  15.450  69.306  1.00  0.00    -0.367 C  
ENDBRANCH   5   6
BRANCH   5  10
HETATM   10  N   UNL     1     -10.711  11.848  68.996  1.00  0.00    -0.350 N  
HETATM   11  C   UNL     1      -9.449  11.636  68.493  1.00  0.00    -0.173 C  
HETATM   12  H   UNL     1     -11.085  11.212  69.700  1.00  0.00     0.000 HD 
HETATM   13  O   UNL     1      -8.921  12.355  67.653  1.00  0.00    -0.167 OA 
BRANCH  11  14
HETATM   14  C   UNL     1      -8.769  10.401  69.032  1.00  0.00    -0.170 C  
BRANCH  14  15
HETATM   15  C   UNL     1      -8.366   9.477  67.885  1.00  0.00    -0.115 C  
BRANCH  15  16
HETATM   16  C   UNL     1      -9.538   9.121  66.968  1.00  0.00    -0.223 C  
BRANCH  16  17
HETATM   17  C   UNL     1     -10.596   8.282  67.681  1.00  0.00    -0.264 C  
BRANCH  17  18
HETATM   18  C   UNL     1      -9.978   7.136  68.476  1.00  0.00    -0.163 C  
BRANCH  18  19
HETATM   19  C   UNL     1     -11.069   6.171  68.936  1.00  0.00    -0.417 C  
BRANCH  19  20
HETATM   20  C   UNL     1     -11.113   6.068  70.458  1.00  0.00    -0.385 C  
BRANCH  20  21
HETATM   21  C   UNL     1     -12.225   6.947  71.032  1.00  0.00    -0.427 C  
BRANCH  21  22
HETATM   22  C   UNL     1     -11.677   7.919  72.033  1.00  0.00    -0.360 C  
HETATM   23  C   UNL     1     -10.928   8.981  71.710  1.00  0.00    -0.443 C  
ENDBRANCH  21  22
ENDBRANCH  20  21
ENDBRANCH  19  20
ENDBRANCH  18  19
ENDBRANCH  17  18
ENDBRANCH  16  17
ENDBRANCH  15  16
ENDBRANCH  14  15
ENDBRANCH  11  14
ENDBRANCH   5  10
ENDBRANCH   3   5
ENDBRANCH   2   3
TORSDOF 13
ENDMDL
MODEL      204
REMARK 921   NORMALIZED FREE ENERGY PREDICTED BY IDOCK:   -3.10 KCAL/MOL
REMARK 922        TOTAL FREE ENERGY PREDICTED BY IDOCK:   -7.57 KCAL/MOL
REMARK 923 INTER-LIGAND FREE ENERGY PREDICTED BY IDOCK:   -6.23 KCAL/MOL
REMARK 924 INTRA-LIGAND FREE ENERGY PREDICTED BY IDOCK:   -1.34 KCAL/MOL
REMARK 927      BINDING AFFINITY PREDICTED BY RF-SCORE:    0.00 PKD
ROOT
HETATM    1  C   UNL     1      -8.025  11.354  67.146  1.00  0.00    -0.156 C  
HETATM    2  O   UNL     1      -8.551  10.251  67.881  1.00  0.00    -0.118 OA 
ENDROOT
BRANCH   2   3
HETATM    3  C   UNL     1      -9.639   9.644  67.329  1.00  0.00    -0.164 C  
HETATM    4  O   UNL     1     -10.139   9.928  66.247  1.00  0.00    -0.237 OA 
BRANCH   3   5
HETATM    5  C   UNL     1     -10.137   8.530  68.255  1.00  0.00    -0.192 C  
BRANCH   5   6
HETATM    6  C   UNL     1     -10.753   7.366  67.467  1.00  0.00    -0.310 C  
HETATM    7  C   UNL     1      -9.090   5.608  68.283  1.00  0.00    -0.112 C  
HETATM    8  C   UNL     1     -10.513   5.165  66.275  1.00  0.00    -0.341 C  
HETATM    9  C   UNL     1      -9.773   6.244  67.072  1.00  0.00    -0.173 C  
ENDBRANCH   5   6
BRANCH   5  10
HETATM   10  N   UNL     1     -11.128   9.085  69.176  1.00  0.00    -0.439 N  
HETATM   11  C   UNL     1     -10.820   9.307  70.497  1.00  0.00    -0.263 C  
HETATM   12  H   UNL     1     -12.063   9.310  68.834  1.00  0.00     0.000 HD 
HETATM   13  O   UNL     1      -9.722   9.072  70.989  1.00  0.00    -0.229 OA 
BRANCH  11  14
HETATM   14  C   UNL     1     -11.971   9.831  71.321  1.00  0.00    -0.471 C  
BRANCH  14  15
HETATM   15  C   UNL     1     -12.796  10.823  70.505  1.00  0.00    -0.335 C  
BRANCH  15  16
HETATM   16  C   UNL     1     -12.621  12.269  70.973  1.00  0.00    -0.352 C  
BRANCH  16  17
HETATM   17  C   UNL     1     -11.976  13.148  69.903  1.00  0.00    -0.387 C  
BRANCH  17  18
HETATM   18  C   UNL     1     -11.741  12.388  68.602  1.00  0.00    -0.372 C  
BRANCH  18  19
HETATM   19  C   UNL     1     -11.404  13.367  67.478  1.00  0.00    -0.327 C  
BRANCH  19  20
HETATM   20  C   UNL     1     -10.746  14.632  68.023  1.00  0.00    -0.246 C  
BRANCH  20  21
HETATM   21  C   UNL     1     -10.548  15.664  66.913  1.00  0.00    -0.311 C  
BRANCH  21  22
HETATM   22  C   UNL     1     -10.928  15.096  65.579  1.00  0.00    -0.370 C  
HETATM   23  C   UNL     1     -11.338  15.835  64.540  1.00  0.00    -0.324 C  
ENDBRANCH  21  22
ENDBRANCH  20  21
ENDBRANCH  19  20
ENDBRANCH  18  19
ENDBRANCH  17  18
ENDBRANCH  16  17
ENDBRANCH  15  16
ENDBRANCH  14  15
ENDBRANCH  11  14
ENDBRANCH   5  10
ENDBRANCH   3   5
ENDBRANCH   2   3
TORSDOF 13
ENDMDL
MODEL      205
REMARK 921   NORMALIZED FREE ENERGY PREDICTED BY IDOCK:   -3.09 KCAL/MOL
REMARK 922        TOTAL FREE ENERGY PREDICTED BY IDOCK:   -7.54 KCAL/MOL
REMARK 923 INTER-LIGAND FREE ENERGY PREDICTED BY IDOCK:   -6.25 KCAL/MOL
REMARK 924 INTRA-LIGAND FREE ENERGY PREDICTED BY IDOCK:   -1.29 KCAL/MOL
REMARK 927      BINDING AFFINITY PREDICTED BY RF-SCORE:    0.00 PKD
ROOT
HETATM    1  C   UNL     1     -12.550   8.874  71.989  1.00  0.00    -0.394 C  
HETATM    2  O   UNL     1     -11.857   8.253  70.909  1.00  0.00    -0.284 OA 
ENDROOT
BRANCH   2   3
HETATM    3  C   UNL     1     -11.623   6.918  71.054  1.00  0.00    -0.328 C  
HETATM    4  O   UNL     1     -12.033   6.220  71.974  1.00  0.00    -0.330 OA 
BRANCH   3   5
HETATM    5  C   UNL     1     -10.789   6.406  69.875  1.00  0.00    -0.310 C  
BRANCH   5   6
HETATM    6  C   UNL     1      -9.539   5.651  70.346  1.00  0.00    -0.217 C  
HETATM    7  C   UNL     1      -9.643   3.851  68.536  1.00  0.00    -0.179 C  
HETATM    8  C   UNL     1      -8.236   3.512  70.575  1.00  0.00    -0.071 C  
HETATM    9  C   UNL     1      -9.523   4.142  70.032  1.00  0.00    -0.260 C  
ENDBRANCH   5   6
BRANCH   5  10
HETATM   10  N   UNL     1     -10.397   7.544  69.042  1.00  0.00    -0.209 N  
HETATM   11  C   UNL     1     -10.630   7.542  67.688  1.00  0.00    -0.233 C  
HETATM   12  H   UNL     1      -9.944   8.350  69.474  1.00  0.00     0.000 HD 
HETATM   13  O   UNL     1     -11.174   6.619  67.092  1.00  0.00    -0.392 OA 
BRANCH  11  14
HETATM   14  C   UNL     1     -10.115   8.766  66.970  1.00  0.00    -0.335 C  
BRANCH  14  15
HETATM   15  C   UNL     1      -9.602   9.792  67.978  1.00  0.00    -0.160 C  
BRANCH  15  16
HETATM   16  C   UNL     1      -9.988  11.227  67.614  1.00  0.00    -0.197 C  
BRANCH  16  17
HETATM   17  C   UNL     1     -11.304  11.294  66.844  1.00  0.00    -0.231 C  
BRANCH  17  18
HETATM   18  C   UNL     1     -11.267  12.339  65.734  1.00  0.00    -0.378 C  
BRANCH  18  19
HETATM   19  C   UNL     1     -12.222  13.486  66.062  1.00  0.00    -0.493 C  
BRANCH  19  20
HETATM   20  C   UNL     1     -11.516  14.590  66.844  1.00  0.00    -0.375 C  
BRANCH  20  21
HETATM   21  C   UNL     1     -11.987  14.615  68.299  1.00  0.00    -0.282 C  
BRANCH  21  22
HETATM   22  C   UNL     1     -10.820  14.609  69.240  1.00  0.00    -0.272 C  
HETATM   23  C   UNL     1     -10.729  15.393  70.322  1.00  0.00    -0.320 C  
ENDBRANCH  21  22
ENDBRANCH  20  21
ENDBRANCH  19  20
ENDBRANCH  18  19
ENDBRANCH  17  18
ENDBRANCH  16  17
ENDBRANCH  15  16
ENDBRANCH  14  15
ENDBRANCH  11  14
ENDBRANCH   5  10
ENDBRANCH   3   5
ENDBRANCH   2   3
TORSDOF 13
ENDMDL
MODEL      206
REMARK 921   NORMALIZED FREE ENERGY PREDICTED BY IDOCK:   -3.09 KCAL/MOL
REMARK 922        TOTAL FREE ENERGY PREDICTED BY IDOCK:   -7.54 KCAL/MOL
REMARK 923 INTER-LIGAND FREE ENERGY PREDICTED BY IDOCK:   -6.55 KCAL/MOL
REMARK 924 INTRA-LIGAND FREE ENERGY PREDICTED BY IDOCK:   -0.99 KCAL/MOL
REMARK 927      BINDING AFFINITY PREDICTED BY RF-SCORE:    0.00 PKD
ROOT
HETATM    1  C   UNL     1      -7.908   9.116  64.908  1.00  0.00    -0.117 C  
HETATM    2  O   UNL     1      -8.128   8.803  66.282  1.00  0.00    -0.103 OA 
ENDROOT
BRANCH   2   3
HETATM    3  C   UNL     1      -9.173   7.962  66.530  1.00  0.00    -0.191 C  
HETATM    4  O   UNL     1      -9.261   6.804  66.142  1.00  0.00    -0.154 OA 
BRANCH   3   5
HETATM    5  C   UNL     1     -10.218   8.675  67.395  1.00  0.00    -0.262 C  
BRANCH   5   6
HETATM    6  C   UNL     1      -9.647   9.936  68.057  1.00  0.00    -0.155 C  
HETATM    7  C   UNL     1     -11.512  11.494  67.269  1.00  0.00    -0.338 C  
HETATM    8  C   UNL     1      -9.353  12.433  68.111  1.00  0.00    -0.209 C  
HETATM    9  C   UNL     1     -10.003  11.265  67.363  1.00  0.00    -0.206 C  
ENDBRANCH   5   6
BRANCH   5  10
HETATM   10  N   UNL     1     -10.696   7.749  68.421  1.00  0.00    -0.402 N  
HETATM   11  C   UNL     1      -9.890   7.379  69.471  1.00  0.00    -0.165 C  
HETATM   12  H   UNL     1     -11.642   7.373  68.357  1.00  0.00     0.000 HD 
HETATM   13  O   UNL     1      -8.745   7.789  69.628  1.00  0.00    -0.134 OA 
BRANCH  11  14
HETATM   14  C   UNL     1     -10.517   6.376  70.409  1.00  0.00    -0.269 C  
BRANCH  14  15
HETATM   15  C   UNL     1     -11.996   6.698  70.613  1.00  0.00    -0.404 C  
BRANCH  15  16
HETATM   16  C   UNL     1     -12.333   7.052  72.063  1.00  0.00    -0.302 C  
BRANCH  16  17
HETATM   17  C   UNL     1     -12.386   8.560  72.292  1.00  0.00    -0.450 C  
BRANCH  17  18
HETATM   18  C   UNL     1     -12.737   9.322  71.019  1.00  0.00    -0.226 C  
BRANCH  18  19
HETATM   19  C   UNL     1     -11.758  10.477  70.813  1.00  0.00    -0.454 C  
BRANCH  19  20
HETATM   20  C   UNL     1     -12.492  11.809  70.679  1.00  0.00    -0.364 C  
BRANCH  20  21
HETATM   21  C   UNL     1     -13.102  12.231  72.016  1.00  0.00    -0.461 C  
BRANCH  21  22
HETATM   22  C   UNL     1     -13.433  13.693  72.015  1.00  0.00    -0.573 C  
HETATM   23  C   UNL     1     -13.072  14.542  72.986  1.00  0.00    -0.611 C  
ENDBRANCH  21  22
ENDBRANCH  20  21
ENDBRANCH  19  20
ENDBRANCH  18  19
ENDBRANCH  17  18
ENDBRANCH  16  17
ENDBRANCH  15  16
ENDBRANCH  14  15
ENDBRANCH  11  14
ENDBRANCH   5  10
ENDBRANCH   3   5
ENDBRANCH   2   3
TORSDOF 13
ENDMDL
MODEL      207
REMARK 921   NORMALIZED FREE ENERGY PREDICTED BY IDOCK:   -3.09 KCAL/MOL
REMARK 922        TOTAL FREE ENERGY PREDICTED BY IDOCK:   -7.54 KCAL/MOL
REMARK 923 INTER-LIGAND FREE ENERGY PREDICTED BY IDOCK:   -5.32 KCAL/MOL
REMARK 924 INTRA-LIGAND FREE ENERGY PREDICTED BY IDOCK:   -2.22 KCAL/MOL
REMARK 927      BINDING AFFINITY PREDICTED BY RF-SCORE:    0.00 PKD
ROOT
HETATM    1  C   UNL     1      -9.382  13.460  67.153  1.00  0.00    -0.240 C  
HETATM    2  O   UNL     1      -8.802  12.178  66.917  1.00  0.00    -0.192 OA 
ENDROOT
BRANCH   2   3
HETATM    3  C   UNL     1      -8.372  11.517  68.029  1.00  0.00    -0.146 C  
HETATM    4  O   UNL     1      -7.632  11.979  68.890  1.00  0.00    -0.099 OA 
BRANCH   3   5
HETATM    5  C   UNL     1      -8.974  10.109  68.061  1.00  0.00    -0.125 C  
BRANCH   5   6
HETATM    6  C   UNL     1      -9.218   9.560  66.649  1.00  0.00    -0.190 C  
HETATM    7  C   UNL     1      -7.281   7.896  66.693  1.00  0.00    -0.084 C  
HETATM    8  C   UNL     1      -8.350   8.533  64.524  1.00  0.00    -0.138 C  
HETATM    9  C   UNL     1      -7.968   9.025  65.924  1.00  0.00    -0.103 C  
ENDBRANCH   5   6
BRANCH   5  10
HETATM   10  N   UNL     1     -10.235  10.149  68.802  1.00  0.00    -0.177 N  
HETATM   11  C   UNL     1     -10.290   9.775  70.124  1.00  0.00    -0.282 C  
HETATM   12  H   UNL     1     -11.085  10.458  68.331  1.00  0.00     0.000 HD 
HETATM   13  O   UNL     1      -9.317   9.399  70.767  1.00  0.00    -0.253 OA 
BRANCH  11  14
HETATM   14  C   UNL     1     -11.675   9.822  70.722  1.00  0.00    -0.407 C  
BRANCH  14  15
HETATM   15  C   UNL     1     -11.795   8.808  71.857  1.00  0.00    -0.437 C  
BRANCH  15  16
HETATM   16  C   UNL     1     -12.542   7.538  71.444  1.00  0.00    -0.382 C  
BRANCH  16  17
HETATM   17  C   UNL     1     -11.796   6.270  71.852  1.00  0.00    -0.359 C  
BRANCH  17  18
HETATM   18  C   UNL     1     -10.506   6.084  71.060  1.00  0.00    -0.285 C  
BRANCH  18  19
HETATM   19  C   UNL     1     -10.823   5.580  69.653  1.00  0.00    -0.279 C  
BRANCH  19  20
HETATM   20  C   UNL     1     -10.208   6.484  68.588  1.00  0.00    -0.192 C  
BRANCH  20  21
HETATM   21  C   UNL     1     -10.963   6.357  67.265  1.00  0.00    -0.474 C  
BRANCH  21  22
HETATM   22  C   UNL     1     -10.459   5.190  66.470  1.00  0.00    -0.346 C  
HETATM   23  C   UNL     1      -9.409   5.247  65.642  1.00  0.00    -0.126 C  
ENDBRANCH  21  22
ENDBRANCH  20  21
ENDBRANCH  19  20
ENDBRANCH  18  19
ENDBRANCH  17  18
ENDBRANCH  16  17
ENDBRANCH  15  16
ENDBRANCH  14  15
ENDBRANCH  11  14
ENDBRANCH   5  10
ENDBRANCH   3   5
ENDBRANCH   2   3
TORSDOF 13
ENDMDL
MODEL      208
REMARK 921   NORMALIZED FREE ENERGY PREDICTED BY IDOCK:   -3.08 KCAL/MOL
REMARK 922        TOTAL FREE ENERGY PREDICTED BY IDOCK:   -7.53 KCAL/MOL
REMARK 923 INTER-LIGAND FREE ENERGY PREDICTED BY IDOCK:   -6.38 KCAL/MOL
REMARK 924 INTRA-LIGAND FREE ENERGY PREDICTED BY IDOCK:   -1.16 KCAL/MOL
REMARK 927      BINDING AFFINITY PREDICTED BY RF-SCORE:    0.00 PKD
ROOT
HETATM    1  C   UNL     1     -12.195   9.786  71.568  1.00  0.00    -0.406 C  
HETATM    2  O   UNL     1     -11.339   8.781  72.107  1.00  0.00    -0.351 OA 
ENDROOT
BRANCH   2   3
HETATM    3  C   UNL     1     -10.044   8.827  71.682  1.00  0.00    -0.319 C  
HETATM    4  O   UNL     1      -9.056   8.776  72.405  1.00  0.00    -0.366 OA 
BRANCH   3   5
HETATM    5  C   UNL     1     -10.003   8.924  70.154  1.00  0.00    -0.185 C  
BRANCH   5   6
HETATM    6  C   UNL     1      -9.315   7.707  69.522  1.00  0.00    -0.153 C  
HETATM    7  C   UNL     1     -11.391   6.218  69.532  1.00  0.00    -0.475 C  
HETATM    8  C   UNL     1      -9.120   5.218  69.226  1.00  0.00    -0.138 C  
HETATM    9  C   UNL     1      -9.913   6.339  69.904  1.00  0.00    -0.206 C  
ENDBRANCH   5   6
BRANCH   5  10
HETATM   10  N   UNL     1      -9.294  10.146  69.775  1.00  0.00    -0.359 N  
HETATM   11  C   UNL     1      -9.530  10.756  68.566  1.00  0.00    -0.181 C  
HETATM   12  H   UNL     1      -8.614  10.553  70.418  1.00  0.00     0.000 HD 
HETATM   13  O   UNL     1     -10.334  10.340  67.739  1.00  0.00    -0.179 OA 
BRANCH  11  14
HETATM   14  C   UNL     1      -8.676  11.974  68.310  1.00  0.00    -0.178 C  
BRANCH  14  15
HETATM   15  C   UNL     1      -9.543  13.134  67.827  1.00  0.00    -0.208 C  
BRANCH  15  16
HETATM   16  C   UNL     1     -10.807  13.323  68.668  1.00  0.00    -0.285 C  
BRANCH  16  17
HETATM   17  C   UNL     1     -11.564  14.596  68.297  1.00  0.00    -0.353 C  
BRANCH  17  18
HETATM   18  C   UNL     1     -10.632  15.794  68.149  1.00  0.00    -0.275 C  
BRANCH  18  19
HETATM   19  C   UNL     1     -10.899  16.503  66.822  1.00  0.00    -0.070 C  
BRANCH  19  20
HETATM   20  C   UNL     1     -10.494  15.631  65.636  1.00  0.00    -0.402 C  
BRANCH  20  21
HETATM   21  C   UNL     1     -11.660  15.463  64.661  1.00  0.00    -0.311 C  
BRANCH  21  22
HETATM   22  C   UNL     1     -11.880  14.016  64.334  1.00  0.00    -0.453 C  
HETATM   23  C   UNL     1     -12.591  13.177  65.098  1.00  0.00    -0.525 C  
ENDBRANCH  21  22
ENDBRANCH  20  21
ENDBRANCH  19  20
ENDBRANCH  18  19
ENDBRANCH  17  18
ENDBRANCH  16  17
ENDBRANCH  15  16
ENDBRANCH  14  15
ENDBRANCH  11  14
ENDBRANCH   5  10
ENDBRANCH   3   5
ENDBRANCH   2   3
TORSDOF 13
ENDMDL
MODEL      209
REMARK 921   NORMALIZED FREE ENERGY PREDICTED BY IDOCK:   -3.07 KCAL/MOL
REMARK 922        TOTAL FREE ENERGY PREDICTED BY IDOCK:   -7.52 KCAL/MOL
REMARK 923 INTER-LIGAND FREE ENERGY PREDICTED BY IDOCK:   -5.66 KCAL/MOL
REMARK 924 INTRA-LIGAND FREE ENERGY PREDICTED BY IDOCK:   -1.86 KCAL/MOL
REMARK 927      BINDING AFFINITY PREDICTED BY RF-SCORE:    0.00 PKD
ROOT
HETATM    1  C   UNL     1     -12.028  13.595  69.683  1.00  0.00    -0.343 C  
HETATM    2  O   UNL     1     -11.120  12.653  69.115  1.00  0.00    -0.245 OA 
ENDROOT
BRANCH   2   3
HETATM    3  C   UNL     1     -11.354  11.349  69.435  1.00  0.00    -0.297 C  
HETATM    4  O   UNL     1     -12.375  10.916  69.956  1.00  0.00    -0.325 OA 
BRANCH   3   5
HETATM    5  C   UNL     1     -10.153  10.491  69.023  1.00  0.00    -0.217 C  
BRANCH   5   6
HETATM    6  C   UNL     1     -10.345   9.870  67.633  1.00  0.00    -0.275 C  
HETATM    7  C   UNL     1      -7.902  10.096  66.923  1.00  0.00    -0.107 C  
HETATM    8  C   UNL     1      -9.681   9.679  65.215  1.00  0.00    -0.330 C  
HETATM    9  C   UNL     1      -9.362  10.358  66.551  1.00  0.00    -0.193 C  
ENDBRANCH   5   6
BRANCH   5  10
HETATM   10  N   UNL     1      -9.962   9.434  70.016  1.00  0.00    -0.205 N  
HETATM   11  C   UNL     1      -8.765   9.293  70.677  1.00  0.00    -0.234 C  
HETATM   12  H   UNL     1     -10.728   8.791  70.220  1.00  0.00     0.000 HD 
HETATM   13  O   UNL     1      -7.798  10.024  70.499  1.00  0.00    -0.247 OA 
BRANCH  11  14
HETATM   14  C   UNL     1      -8.718   8.120  71.626  1.00  0.00    -0.188 C  
BRANCH  14  15
HETATM   15  C   UNL     1      -9.939   8.133  72.544  1.00  0.00    -0.372 C  
BRANCH  15  16
HETATM   16  C   UNL     1      -9.917   7.007  73.579  1.00  0.00    -0.321 C  
BRANCH  16  17
HETATM   17  C   UNL     1      -8.865   5.947  73.258  1.00  0.00    -0.127 C  
BRANCH  17  18
HETATM   18  C   UNL     1      -9.375   4.535  73.525  1.00  0.00    -0.125 C  
BRANCH  18  19
HETATM   19  C   UNL     1      -9.937   3.930  72.240  1.00  0.00    -0.236 C  
BRANCH  19  20
HETATM   20  C   UNL     1      -9.019   4.200  71.051  1.00  0.00    -0.163 C  
BRANCH  20  21
HETATM   21  C   UNL     1      -9.831   4.429  69.776  1.00  0.00    -0.284 C  
BRANCH  21  22
HETATM   22  C   UNL     1     -10.597   5.716  69.853  1.00  0.00    -0.399 C  
HETATM   23  C   UNL     1     -11.158   6.317  68.796  1.00  0.00    -0.424 C  
ENDBRANCH  21  22
ENDBRANCH  20  21
ENDBRANCH  19  20
ENDBRANCH  18  19
ENDBRANCH  17  18
ENDBRANCH  16  17
ENDBRANCH  15  16
ENDBRANCH  14  15
ENDBRANCH  11  14
ENDBRANCH   5  10
ENDBRANCH   3   5
ENDBRANCH   2   3
TORSDOF 13
ENDMDL
MODEL      210
REMARK 921   NORMALIZED FREE ENERGY PREDICTED BY IDOCK:   -3.07 KCAL/MOL
REMARK 922        TOTAL FREE ENERGY PREDICTED BY IDOCK:   -7.51 KCAL/MOL
REMARK 923 INTER-LIGAND FREE ENERGY PREDICTED BY IDOCK:   -6.38 KCAL/MOL
REMARK 924 INTRA-LIGAND FREE ENERGY PREDICTED BY IDOCK:   -1.13 KCAL/MOL
REMARK 927      BINDING AFFINITY PREDICTED BY RF-SCORE:    0.00 PKD
ROOT
HETATM    1  C   UNL     1     -12.566  14.963  64.380  1.00  0.00    -0.028 C  
HETATM    2  O   UNL     1     -12.598  13.897  63.433  1.00  0.00    -0.853 OA 
ENDROOT
BRANCH   2   3
HETATM    3  C   UNL     1     -12.590  12.642  63.965  1.00  0.00    -0.338 C  
HETATM    4  O   UNL     1     -13.563  11.903  64.060  1.00  0.00    -0.492 OA 
BRANCH   3   5
HETATM    5  C   UNL     1     -11.170  12.275  64.407  1.00  0.00    -0.334 C  
BRANCH   5   6
HETATM    6  C   UNL     1     -10.650  11.026  63.683  1.00  0.00    -0.338 C  
HETATM    7  C   UNL     1      -8.491  10.838  65.035  1.00  0.00    -0.080 C  
HETATM    8  C   UNL     1      -8.738   9.609  62.871  1.00  0.00    -0.227 C  
HETATM    9  C   UNL     1      -9.117  10.879  63.640  1.00  0.00    -0.196 C  
ENDBRANCH   5   6
BRANCH   5  10
HETATM   10  N   UNL     1     -11.166  12.048  65.852  1.00  0.00    -0.329 N  
HETATM   11  C   UNL     1     -10.584  12.951  66.709  1.00  0.00    -0.257 C  
HETATM   12  H   UNL     1     -11.602  11.206  66.230  1.00  0.00     0.000 HD 
HETATM   13  O   UNL     1     -10.047  13.990  66.342  1.00  0.00    -0.278 OA 
BRANCH  11  14
HETATM   14  C   UNL     1     -10.620  12.538  68.161  1.00  0.00    -0.239 C  
BRANCH  14  15
HETATM   15  C   UNL     1     -11.851  11.677  68.435  1.00  0.00    -0.346 C  
BRANCH  15  16
HETATM   16  C   UNL     1     -11.497  10.275  68.933  1.00  0.00    -0.190 C  
BRANCH  16  17
HETATM   17  C   UNL     1     -10.292   9.688  68.200  1.00  0.00    -0.250 C  
BRANCH  17  18
HETATM   18  C   UNL     1     -10.565   8.278  67.687  1.00  0.00    -0.264 C  
BRANCH  18  19
HETATM   19  C   UNL     1      -9.558   7.299  68.289  1.00  0.00    -0.150 C  
BRANCH  19  20
HETATM   20  C   UNL     1     -10.260   6.104  68.929  1.00  0.00    -0.232 C  
BRANCH  20  21
HETATM   21  C   UNL     1     -11.069   6.539  70.152  1.00  0.00    -0.410 C  
BRANCH  21  22
HETATM   22  C   UNL     1     -10.200   7.254  71.142  1.00  0.00    -0.197 C  
HETATM   23  C   UNL     1     -10.620   8.267  71.910  1.00  0.00    -0.350 C  
ENDBRANCH  21  22
ENDBRANCH  20  21
ENDBRANCH  19  20
ENDBRANCH  18  19
ENDBRANCH  17  18
ENDBRANCH  16  17
ENDBRANCH  15  16
ENDBRANCH  14  15
ENDBRANCH  11  14
ENDBRANCH   5  10
ENDBRANCH   3   5
ENDBRANCH   2   3
TORSDOF 13
ENDMDL
MODEL      211
REMARK 921   NORMALIZED FREE ENERGY PREDICTED BY IDOCK:   -3.07 KCAL/MOL
REMARK 922        TOTAL FREE ENERGY PREDICTED BY IDOCK:   -7.51 KCAL/MOL
REMARK 923 INTER-LIGAND FREE ENERGY PREDICTED BY IDOCK:   -6.70 KCAL/MOL
REMARK 924 INTRA-LIGAND FREE ENERGY PREDICTED BY IDOCK:   -0.80 KCAL/MOL
REMARK 927      BINDING AFFINITY PREDICTED BY RF-SCORE:    0.00 PKD
ROOT
HETATM    1  C   UNL     1     -11.061   6.623  73.215  1.00  0.00    -0.120 C  
HETATM    2  O   UNL     1     -11.500   6.024  71.997  1.00  0.00    -0.288 OA 
ENDROOT
BRANCH   2   3
HETATM    3  C   UNL     1     -11.775   6.893  70.983  1.00  0.00    -0.345 C  
HETATM    4  O   UNL     1     -12.348   7.969  71.105  1.00  0.00    -0.294 OA 
BRANCH   3   5
HETATM    5  C   UNL     1     -11.235   6.336  69.662  1.00  0.00    -0.437 C  
BRANCH   5   6
HETATM    6  C   UNL     1     -10.046   5.393  69.883  1.00  0.00    -0.322 C  
HETATM    7  C   UNL     1      -8.402   7.225  70.565  1.00  0.00    -0.133 C  
HETATM    8  C   UNL     1      -7.568   4.967  69.888  1.00  0.00    -0.056 C  
HETATM    9  C   UNL     1      -8.656   6.020  69.658  1.00  0.00    -0.126 C  
ENDBRANCH   5   6
BRANCH   5  10
HETATM   10  N   UNL     1     -10.831   7.452  68.806  1.00  0.00    -0.403 N  
HETATM   11  C   UNL     1     -10.856   7.339  67.437  1.00  0.00    -0.247 C  
HETATM   12  H   UNL     1     -10.526   8.328  69.233  1.00  0.00     0.000 HD 
HETATM   13  O   UNL     1     -11.215   6.328  66.844  1.00  0.00    -0.335 OA 
BRANCH  11  14
HETATM   14  C   UNL     1     -10.356   8.561  66.706  1.00  0.00    -0.346 C  
BRANCH  14  15
HETATM   15  C   UNL     1     -10.783   9.829  67.443  1.00  0.00    -0.314 C  
BRANCH  15  16
HETATM   16  C   UNL     1      -9.612  10.770  67.734  1.00  0.00    -0.176 C  
BRANCH  16  17
HETATM   17  C   UNL     1     -10.080  12.165  68.141  1.00  0.00    -0.206 C  
BRANCH  17  18
HETATM   18  C   UNL     1     -11.598  12.299  68.090  1.00  0.00    -0.396 C  
BRANCH  18  19
HETATM   19  C   UNL     1     -11.985  13.728  67.713  1.00  0.00    -0.391 C  
BRANCH  19  20
HETATM   20  C   UNL     1     -12.404  13.822  66.248  1.00  0.00    -0.479 C  
BRANCH  20  21
HETATM   21  C   UNL     1     -11.196  14.102  65.353  1.00  0.00    -0.325 C  
BRANCH  21  22
HETATM   22  C   UNL     1     -11.365  13.460  64.009  1.00  0.00    -0.356 C  
HETATM   23  C   UNL     1     -11.940  12.266  63.818  1.00  0.00    -0.609 C  
ENDBRANCH  21  22
ENDBRANCH  20  21
ENDBRANCH  19  20
ENDBRANCH  18  19
ENDBRANCH  17  18
ENDBRANCH  16  17
ENDBRANCH  15  16
ENDBRANCH  14  15
ENDBRANCH  11  14
ENDBRANCH   5  10
ENDBRANCH   3   5
ENDBRANCH   2   3
TORSDOF 13
ENDMDL
MODEL      212
REMARK 921   NORMALIZED FREE ENERGY PREDICTED BY IDOCK:   -3.06 KCAL/MOL
REMARK 922        TOTAL FREE ENERGY PREDICTED BY IDOCK:   -7.49 KCAL/MOL
REMARK 923 INTER-LIGAND FREE ENERGY PREDICTED BY IDOCK:   -6.55 KCAL/MOL
REMARK 924 INTRA-LIGAND FREE ENERGY PREDICTED BY IDOCK:   -0.94 KCAL/MOL
REMARK 927      BINDING AFFINITY PREDICTED BY RF-SCORE:    0.00 PKD
ROOT
HETATM    1  C   UNL     1     -12.594  11.970  63.300  1.00  0.00    -0.385 C  
HETATM    2  O   UNL     1     -11.949  13.212  63.573  1.00  0.00    -0.516 OA 
ENDROOT
BRANCH   2   3
HETATM    3  C   UNL     1     -12.085  13.675  64.848  1.00  0.00    -0.397 C  
HETATM    4  O   UNL     1     -13.146  13.947  65.396  1.00  0.00    -0.752 OA 
BRANCH   3   5
HETATM    5  C   UNL     1     -10.708  13.781  65.511  1.00  0.00    -0.302 C  
BRANCH   5   6
HETATM    6  C   UNL     1     -10.376  12.535  66.342  1.00  0.00    -0.261 C  
HETATM    7  C   UNL     1     -11.684  13.263  68.412  1.00  0.00    -0.389 C  
HETATM    8  C   UNL     1      -9.986  11.435  68.570  1.00  0.00    -0.203 C  
HETATM    9  C   UNL     1     -10.351  12.747  67.868  1.00  0.00    -0.228 C  
ENDBRANCH   5   6
BRANCH   5  10
HETATM   10  N   UNL     1     -10.683  14.968  66.366  1.00  0.00    -0.315 N  
HETATM   11  C   UNL     1     -10.631  16.230  65.823  1.00  0.00    -0.324 C  
HETATM   12  H   UNL     1     -10.705  14.858  67.380  1.00  0.00     0.000 HD 
HETATM   13  O   UNL     1     -10.609  16.452  64.618  1.00  0.00    -0.639 OA 
BRANCH  11  14
HETATM   14  C   UNL     1     -10.556  17.339  66.844  1.00  0.00    -0.213 C  
BRANCH  14  15
HETATM   15  C   UNL     1      -9.581  18.419  66.379  1.00  0.00    -0.312 C  
BRANCH  15  16
HETATM   16  C   UNL     1      -8.248  18.379  67.129  1.00  0.00    -0.248 C  
BRANCH  16  17
HETATM   17  C   UNL     1      -8.266  17.385  68.288  1.00  0.00    -0.247 C  
BRANCH  17  18
HETATM   18  C   UNL     1      -6.923  17.319  69.008  1.00  0.00    -0.235 C  
BRANCH  18  19
HETATM   19  C   UNL     1      -6.260  15.966  68.756  1.00  0.00    -0.109 C  
BRANCH  19  20
HETATM   20  C   UNL     1      -6.690  14.935  69.796  1.00  0.00    -0.179 C  
BRANCH  20  21
HETATM   21  C   UNL     1      -6.455  13.514  69.285  1.00  0.00    -0.111 C  
BRANCH  21  22
HETATM   22  C   UNL     1      -6.453  13.477  67.786  1.00  0.00    -0.175 C  
HETATM   23  C   UNL     1      -6.684  12.373  67.064  1.00  0.00    -0.005 C  
ENDBRANCH  21  22
ENDBRANCH  20  21
ENDBRANCH  19  20
ENDBRANCH  18  19
ENDBRANCH  17  18
ENDBRANCH  16  17
ENDBRANCH  15  16
ENDBRANCH  14  15
ENDBRANCH  11  14
ENDBRANCH   5  10
ENDBRANCH   3   5
ENDBRANCH   2   3
TORSDOF 13
ENDMDL
MODEL      213
REMARK 921   NORMALIZED FREE ENERGY PREDICTED BY IDOCK:   -3.04 KCAL/MOL
REMARK 922        TOTAL FREE ENERGY PREDICTED BY IDOCK:   -7.46 KCAL/MOL
REMARK 923 INTER-LIGAND FREE ENERGY PREDICTED BY IDOCK:   -5.81 KCAL/MOL
REMARK 924 INTRA-LIGAND FREE ENERGY PREDICTED BY IDOCK:   -1.66 KCAL/MOL
REMARK 927      BINDING AFFINITY PREDICTED BY RF-SCORE:    0.00 PKD
ROOT
HETATM    1  C   UNL     1     -12.161  13.938  65.602  1.00  0.00    -0.421 C  
HETATM    2  O   UNL     1     -12.354  12.771  66.398  1.00  0.00    -0.500 OA 
ENDROOT
BRANCH   2   3
HETATM    3  C   UNL     1     -11.689  12.757  67.588  1.00  0.00    -0.367 C  
HETATM    4  O   UNL     1     -12.057  13.315  68.614  1.00  0.00    -0.337 OA 
BRANCH   3   5
HETATM    5  C   UNL     1     -10.417  11.913  67.461  1.00  0.00    -0.209 C  
BRANCH   5   6
HETATM    6  C   UNL     1     -10.694  10.422  67.696  1.00  0.00    -0.335 C  
HETATM    7  C   UNL     1      -8.798   9.581  66.205  1.00  0.00    -0.172 C  
HETATM    8  C   UNL     1     -10.640   8.038  66.898  1.00  0.00    -0.324 C  
HETATM    9  C   UNL     1     -10.287   9.486  66.542  1.00  0.00    -0.263 C  
ENDBRANCH   5   6
BRANCH   5  10
HETATM   10  N   UNL     1      -9.431  12.392  68.430  1.00  0.00    -0.309 N  
HETATM   11  C   UNL     1      -8.192  12.826  68.023  1.00  0.00    -0.168 C  
HETATM   12  H   UNL     1      -9.667  12.405  69.423  1.00  0.00     0.000 HD 
HETATM   13  O   UNL     1      -7.831  12.852  66.852  1.00  0.00    -0.049 OA 
BRANCH  11  14
HETATM   14  C   UNL     1      -7.278  13.234  69.152  1.00  0.00     0.059 C  
BRANCH  14  15
HETATM   15  C   UNL     1      -6.234  12.149  69.405  1.00  0.00    -0.106 C  
BRANCH  15  16
HETATM   16  C   UNL     1      -6.759  10.741  69.121  1.00  0.00    -0.074 C  
BRANCH  16  17
HETATM   17  C   UNL     1      -7.058   9.966  70.402  1.00  0.00    -0.146 C  
BRANCH  17  18
HETATM   18  C   UNL     1      -8.091   8.867  70.179  1.00  0.00    -0.122 C  
BRANCH  18  19
HETATM   19  C   UNL     1      -9.449   9.306  70.726  1.00  0.00    -0.336 C  
BRANCH  19  20
HETATM   20  C   UNL     1      -9.715   8.701  72.102  1.00  0.00    -0.383 C  
BRANCH  20  21
HETATM   21  C   UNL     1     -11.161   8.217  72.213  1.00  0.00    -0.443 C  
BRANCH  21  22
HETATM   22  C   UNL     1     -12.015   8.832  71.146  1.00  0.00    -0.331 C  
HETATM   23  C   UNL     1     -13.061   9.631  71.392  1.00  0.00    -0.471 C  
ENDBRANCH  21  22
ENDBRANCH  20  21
ENDBRANCH  19  20
ENDBRANCH  18  19
ENDBRANCH  17  18
ENDBRANCH  16  17
ENDBRANCH  15  16
ENDBRANCH  14  15
ENDBRANCH  11  14
ENDBRANCH   5  10
ENDBRANCH   3   5
ENDBRANCH   2   3
TORSDOF 13
ENDMDL
MODEL      214
REMARK 921   NORMALIZED FREE ENERGY PREDICTED BY IDOCK:   -3.04 KCAL/MOL
REMARK 922        TOTAL FREE ENERGY PREDICTED BY IDOCK:   -7.46 KCAL/MOL
REMARK 923 INTER-LIGAND FREE ENERGY PREDICTED BY IDOCK:   -6.20 KCAL/MOL
REMARK 924 INTRA-LIGAND FREE ENERGY PREDICTED BY IDOCK:   -1.26 KCAL/MOL
REMARK 927      BINDING AFFINITY PREDICTED BY RF-SCORE:    0.00 PKD
ROOT
HETATM    1  C   UNL     1     -12.341  12.204  63.376  1.00  0.00    -0.538 C  
HETATM    2  O   UNL     1     -12.702  12.779  64.630  1.00  0.00    -0.649 OA 
ENDROOT
BRANCH   2   3
HETATM    3  C   UNL     1     -12.254  14.049  64.842  1.00  0.00    -0.437 C  
HETATM    4  O   UNL     1     -12.552  15.030  64.171  1.00  0.00    -0.770 OA 
BRANCH   3   5
HETATM    5  C   UNL     1     -11.336  14.077  66.068  1.00  0.00    -0.328 C  
BRANCH   5   6
HETATM    6  C   UNL     1      -9.972  14.703  65.747  1.00  0.00    -0.365 C  
HETATM    7  C   UNL     1     -10.027  16.404  67.651  1.00  0.00    -0.252 C  
HETATM    8  C   UNL     1      -8.420  16.681  65.756  1.00  0.00     0.227 C  
HETATM    9  C   UNL     1      -9.812  16.180  66.154  1.00  0.00    -0.358 C  
ENDBRANCH   5   6
BRANCH   5  10
HETATM   10  N   UNL     1     -11.151  12.709  66.554  1.00  0.00    -0.270 N  
HETATM   11  C   UNL     1     -11.600  12.334  67.798  1.00  0.00    -0.351 C  
HETATM   12  H   UNL     1     -10.683  12.024  65.961  1.00  0.00     0.000 HD 
HETATM   13  O   UNL     1     -12.178  13.091  68.570  1.00  0.00    -0.228 OA 
BRANCH  11  14
HETATM   14  C   UNL     1     -11.281  10.905  68.166  1.00  0.00    -0.363 C  
BRANCH  14  15
HETATM   15  C   UNL     1     -10.044  10.428  67.407  1.00  0.00    -0.237 C  
BRANCH  15  16
HETATM   16  C   UNL     1      -8.747  10.644  68.189  1.00  0.00    -0.130 C  
BRANCH  16  17
HETATM   17  C   UNL     1      -8.243   9.357  68.838  1.00  0.00    -0.111 C  
BRANCH  17  18
HETATM   18  C   UNL     1      -8.320   8.168  67.888  1.00  0.00    -0.129 C  
BRANCH  18  19
HETATM   19  C   UNL     1      -9.096   7.025  68.541  1.00  0.00    -0.131 C  
BRANCH  19  20
HETATM   20  C   UNL     1      -9.581   7.411  69.936  1.00  0.00    -0.163 C  
BRANCH  20  21
HETATM   21  C   UNL     1      -9.024   6.454  70.990  1.00  0.00    -0.146 C  
BRANCH  21  22
HETATM   22  C   UNL     1      -8.576   7.202  72.210  1.00  0.00    -0.128 C  
HETATM   23  C   UNL     1      -9.224   8.258  72.719  1.00  0.00    -0.336 C  
ENDBRANCH  21  22
ENDBRANCH  20  21
ENDBRANCH  19  20
ENDBRANCH  18  19
ENDBRANCH  17  18
ENDBRANCH  16  17
ENDBRANCH  15  16
ENDBRANCH  14  15
ENDBRANCH  11  14
ENDBRANCH   5  10
ENDBRANCH   3   5
ENDBRANCH   2   3
TORSDOF 13
ENDMDL
MODEL      215
REMARK 921   NORMALIZED FREE ENERGY PREDICTED BY IDOCK:   -3.03 KCAL/MOL
REMARK 922        TOTAL FREE ENERGY PREDICTED BY IDOCK:   -7.44 KCAL/MOL
REMARK 923 INTER-LIGAND FREE ENERGY PREDICTED BY IDOCK:   -6.39 KCAL/MOL
REMARK 924 INTRA-LIGAND FREE ENERGY PREDICTED BY IDOCK:   -1.04 KCAL/MOL
REMARK 927      BINDING AFFINITY PREDICTED BY RF-SCORE:    0.00 PKD
ROOT
HETATM    1  C   UNL     1      -5.702  21.197  66.729  1.00  0.00    -0.261 C  
HETATM    2  O   UNL     1      -6.074  19.850  67.013  1.00  0.00    -0.179 OA 
ENDROOT
BRANCH   2   3
HETATM    3  C   UNL     1      -6.569  19.144  65.956  1.00  0.00    -0.223 C  
HETATM    4  O   UNL     1      -6.132  19.178  64.812  1.00  0.00    -0.264 OA 
BRANCH   3   5
HETATM    5  C   UNL     1      -7.744  18.276  66.417  1.00  0.00    -0.257 C  
BRANCH   5   6
HETATM    6  C   UNL     1      -8.584  18.976  67.494  1.00  0.00    -0.311 C  
HETATM    7  C   UNL     1     -10.640  19.319  66.018  1.00  0.00    -0.550 C  
HETATM    8  C   UNL     1     -10.380  20.612  68.142  1.00  0.00     0.018 C  
HETATM    9  C   UNL     1      -9.634  19.972  66.967  1.00  0.00    -0.542 C  
ENDBRANCH   5   6
BRANCH   5  10
HETATM   10  N   UNL     1      -7.224  17.012  66.938  1.00  0.00    -0.186 N  
HETATM   11  C   UNL     1      -7.963  15.855  66.854  1.00  0.00    -0.252 C  
HETATM   12  H   UNL     1      -6.300  16.988  67.370  1.00  0.00     0.000 HD 
HETATM   13  O   UNL     1      -9.076  15.794  66.345  1.00  0.00    -0.264 OA 
BRANCH  11  14
HETATM   14  C   UNL     1      -7.304  14.654  67.487  1.00  0.00    -0.220 C  
BRANCH  14  15
HETATM   15  C   UNL     1      -8.345  13.802  68.211  1.00  0.00    -0.161 C  
BRANCH  15  16
HETATM   16  C   UNL     1      -7.975  12.318  68.250  1.00  0.00    -0.163 C  
BRANCH  16  17
HETATM   17  C   UNL     1      -7.939  11.695  66.856  1.00  0.00    -0.161 C  
BRANCH  17  18
HETATM   18  C   UNL     1      -9.332  11.327  66.356  1.00  0.00    -0.210 C  
BRANCH  18  19
HETATM   19  C   UNL     1      -9.245  10.745  64.946  1.00  0.00    -0.243 C  
BRANCH  19  20
HETATM   20  C   UNL     1     -10.517  11.025  64.151  1.00  0.00    -0.434 C  
BRANCH  20  21
HETATM   21  C   UNL     1     -10.573  12.488  63.710  1.00  0.00    -0.471 C  
BRANCH  21  22
HETATM   22  C   UNL     1     -11.928  13.075  63.972  1.00  0.00    -0.523 C  
HETATM   23  C   UNL     1     -12.507  13.109  65.179  1.00  0.00    -0.539 C  
ENDBRANCH  21  22
ENDBRANCH  20  21
ENDBRANCH  19  20
ENDBRANCH  18  19
ENDBRANCH  17  18
ENDBRANCH  16  17
ENDBRANCH  15  16
ENDBRANCH  14  15
ENDBRANCH  11  14
ENDBRANCH   5  10
ENDBRANCH   3   5
ENDBRANCH   2   3
TORSDOF 13
ENDMDL
MODEL      216
REMARK 921   NORMALIZED FREE ENERGY PREDICTED BY IDOCK:   -3.02 KCAL/MOL
REMARK 922        TOTAL FREE ENERGY PREDICTED BY IDOCK:   -7.43 KCAL/MOL
REMARK 923 INTER-LIGAND FREE ENERGY PREDICTED BY IDOCK:   -6.39 KCAL/MOL
REMARK 924 INTRA-LIGAND FREE ENERGY PREDICTED BY IDOCK:   -1.04 KCAL/MOL
REMARK 927      BINDING AFFINITY PREDICTED BY RF-SCORE:    0.00 PKD
ROOT
HETATM    1  C   UNL     1     -12.287  13.544  65.476  1.00  0.00    -0.481 C  
HETATM    2  O   UNL     1     -12.409  13.745  66.883  1.00  0.00    -0.392 OA 
ENDROOT
BRANCH   2   3
HETATM    3  C   UNL     1     -11.271  14.143  67.518  1.00  0.00    -0.306 C  
HETATM    4  O   UNL     1     -10.796  15.272  67.486  1.00  0.00    -0.289 OA 
BRANCH   3   5
HETATM    5  C   UNL     1     -10.680  12.970  68.306  1.00  0.00    -0.245 C  
BRANCH   5   6
HETATM    6  C   UNL     1     -11.575  12.563  69.484  1.00  0.00    -0.348 C  
HETATM    7  C   UNL     1     -10.485  10.282  69.847  1.00  0.00    -0.304 C  
HETATM    8  C   UNL     1     -12.721  10.786  70.845  1.00  0.00    -0.478 C  
HETATM    9  C   UNL     1     -11.794  11.048  69.653  1.00  0.00    -0.414 C  
ENDBRANCH   5   6
BRANCH   5  10
HETATM   10  N   UNL     1      -9.355  13.349  68.799  1.00  0.00    -0.397 N  
HETATM   11  C   UNL     1      -8.214  12.850  68.216  1.00  0.00    -0.153 C  
HETATM   12  H   UNL     1      -9.276  13.993  69.586  1.00  0.00     0.000 HD 
HETATM   13  O   UNL     1      -8.218  12.079  67.263  1.00  0.00    -0.157 OA 
BRANCH  11  14
HETATM   14  C   UNL     1      -6.934  13.297  68.880  1.00  0.00    -0.096 C  
BRANCH  14  15
HETATM   15  C   UNL     1      -6.844  14.822  68.878  1.00  0.00    -0.105 C  
BRANCH  15  16
HETATM   16  C   UNL     1      -5.601  15.343  68.155  1.00  0.00    -0.131 C  
BRANCH  16  17
HETATM   17  C   UNL     1      -5.679  16.843  67.879  1.00  0.00    -0.129 C  
BRANCH  17  18
HETATM   18  C   UNL     1      -6.337  17.603  69.026  1.00  0.00    -0.223 C  
BRANCH  18  19
HETATM   19  C   UNL     1      -7.069  18.832  68.487  1.00  0.00    -0.298 C  
BRANCH  19  20
HETATM   20  C   UNL     1      -7.036  18.872  66.961  1.00  0.00    -0.217 C  
BRANCH  20  21
HETATM   21  C   UNL     1      -7.593  20.196  66.439  1.00  0.00    -0.309 C  
BRANCH  21  22
HETATM   22  C   UNL     1      -8.721  20.680  67.301  1.00  0.00    -0.322 C  
HETATM   23  C   UNL     1      -9.995  20.296  67.150  1.00  0.00    -0.593 C  
ENDBRANCH  21  22
ENDBRANCH  20  21
ENDBRANCH  19  20
ENDBRANCH  18  19
ENDBRANCH  17  18
ENDBRANCH  16  17
ENDBRANCH  15  16
ENDBRANCH  14  15
ENDBRANCH  11  14
ENDBRANCH   5  10
ENDBRANCH   3   5
ENDBRANCH   2   3
TORSDOF 13
ENDMDL
MODEL      217
REMARK 921   NORMALIZED FREE ENERGY PREDICTED BY IDOCK:   -3.02 KCAL/MOL
REMARK 922        TOTAL FREE ENERGY PREDICTED BY IDOCK:   -7.41 KCAL/MOL
REMARK 923 INTER-LIGAND FREE ENERGY PREDICTED BY IDOCK:   -6.11 KCAL/MOL
REMARK 924 INTRA-LIGAND FREE ENERGY PREDICTED BY IDOCK:   -1.31 KCAL/MOL
REMARK 927      BINDING AFFINITY PREDICTED BY RF-SCORE:    0.00 PKD
ROOT
HETATM    1  C   UNL     1      -6.314  10.098  70.643  1.00  0.00    -0.093 C  
HETATM    2  O   UNL     1      -7.651   9.805  71.045  1.00  0.00    -0.311 OA 
ENDROOT
BRANCH   2   3
HETATM    3  C   UNL     1      -8.320   8.918  70.255  1.00  0.00    -0.147 C  
HETATM    4  O   UNL     1      -8.000   7.750  70.070  1.00  0.00    -0.108 OA 
BRANCH   3   5
HETATM    5  C   UNL     1      -9.553   9.593  69.648  1.00  0.00    -0.208 C  
BRANCH   5   6
HETATM    6  C   UNL     1     -10.823   8.757  69.858  1.00  0.00    -0.211 C  
HETATM    7  C   UNL     1     -12.133  10.596  71.052  1.00  0.00    -0.473 C  
HETATM    8  C   UNL     1     -12.886   8.216  71.189  1.00  0.00    -0.106 C  
HETATM    9  C   UNL     1     -11.668   9.140  71.088  1.00  0.00    -0.380 C  
ENDBRANCH   5   6
BRANCH   5  10
HETATM   10  N   UNL     1      -9.326   9.798  68.217  1.00  0.00    -0.129 N  
HETATM   11  C   UNL     1      -9.324  11.061  67.675  1.00  0.00    -0.157 C  
HETATM   12  H   UNL     1      -9.166   8.991  67.613  1.00  0.00     0.000 HD 
HETATM   13  O   UNL     1      -9.499  12.083  68.329  1.00  0.00    -0.194 OA 
BRANCH  11  14
HETATM   14  C   UNL     1      -9.130  11.091  66.178  1.00  0.00    -0.208 C  
BRANCH  14  15
HETATM   15  C   UNL     1     -10.315  10.431  65.478  1.00  0.00    -0.265 C  
BRANCH  15  16
HETATM   16  C   UNL     1     -10.470  10.877  64.023  1.00  0.00    -0.379 C  
BRANCH  16  17
HETATM   17  C   UNL     1     -10.472  12.397  63.882  1.00  0.00    -0.469 C  
BRANCH  17  18
HETATM   18  C   UNL     1     -11.877  12.953  63.676  1.00  0.00    -0.599 C  
BRANCH  18  19
HETATM   19  C   UNL     1     -12.133  14.101  64.651  1.00  0.00    -0.469 C  
BRANCH  19  20
HETATM   20  C   UNL     1     -11.461  13.847  65.997  1.00  0.00    -0.345 C  
BRANCH  20  21
HETATM   21  C   UNL     1     -11.997  14.803  67.063  1.00  0.00    -0.225 C  
BRANCH  21  22
HETATM   22  C   UNL     1     -10.876  15.531  67.742  1.00  0.00    -0.309 C  
HETATM   23  C   UNL     1     -10.997  16.161  68.917  1.00  0.00    -0.324 C  
ENDBRANCH  21  22
ENDBRANCH  20  21
ENDBRANCH  19  20
ENDBRANCH  18  19
ENDBRANCH  17  18
ENDBRANCH  16  17
ENDBRANCH  15  16
ENDBRANCH  14  15
ENDBRANCH  11  14
ENDBRANCH   5  10
ENDBRANCH   3   5
ENDBRANCH   2   3
TORSDOF 13
ENDMDL
MODEL      218
REMARK 921   NORMALIZED FREE ENERGY PREDICTED BY IDOCK:   -3.01 KCAL/MOL
REMARK 922        TOTAL FREE ENERGY PREDICTED BY IDOCK:   -7.41 KCAL/MOL
REMARK 923 INTER-LIGAND FREE ENERGY PREDICTED BY IDOCK:   -6.09 KCAL/MOL
REMARK 924 INTRA-LIGAND FREE ENERGY PREDICTED BY IDOCK:   -1.32 KCAL/MOL
REMARK 927      BINDING AFFINITY PREDICTED BY RF-SCORE:    0.00 PKD
ROOT
HETATM    1  C   UNL     1     -12.259   8.453  72.260  1.00  0.00    -0.387 C  
HETATM    2  O   UNL     1     -12.226   8.326  70.840  1.00  0.00    -0.228 OA 
ENDROOT
BRANCH   2   3
HETATM    3  C   UNL     1     -11.353   7.398  70.356  1.00  0.00    -0.249 C  
HETATM    4  O   UNL     1     -11.384   6.197  70.598  1.00  0.00    -0.325 OA 
BRANCH   3   5
HETATM    5  C   UNL     1     -10.332   8.076  69.436  1.00  0.00    -0.217 C  
BRANCH   5   6
HETATM    6  C   UNL     1      -9.048   8.452  70.187  1.00  0.00    -0.150 C  
HETATM    7  C   UNL     1      -7.470   7.196  68.618  1.00  0.00    -0.102 C  
HETATM    8  C   UNL     1      -6.689   7.923  70.879  1.00  0.00    -0.037 C  
HETATM    9  C   UNL     1      -7.894   7.437  70.067  1.00  0.00    -0.104 C  
ENDBRANCH   5   6
BRANCH   5  10
HETATM   10  N   UNL     1     -10.938   9.276  68.859  1.00  0.00    -0.431 N  
HETATM   11  C   UNL     1     -10.626   9.682  67.583  1.00  0.00    -0.275 C  
HETATM   12  H   UNL     1     -11.602   9.820  69.411  1.00  0.00     0.000 HD 
HETATM   13  O   UNL     1      -9.847   9.084  66.850  1.00  0.00    -0.185 OA 
BRANCH  11  14
HETATM   14  C   UNL     1     -11.296  10.968  67.162  1.00  0.00    -0.214 C  
BRANCH  14  15
HETATM   15  C   UNL     1     -10.445  11.689  66.118  1.00  0.00    -0.289 C  
BRANCH  15  16
HETATM   16  C   UNL     1     -10.989  11.530  64.697  1.00  0.00    -0.353 C  
BRANCH  16  17
HETATM   17  C   UNL     1     -12.292  12.297  64.487  1.00  0.00    -0.468 C  
BRANCH  17  18
HETATM   18  C   UNL     1     -12.375  13.539  65.368  1.00  0.00    -0.517 C  
BRANCH  18  19
HETATM   19  C   UNL     1     -12.105  14.790  64.533  1.00  0.00    -0.460 C  
BRANCH  19  20
HETATM   20  C   UNL     1     -10.703  15.336  64.788  1.00  0.00    -0.342 C  
BRANCH  20  21
HETATM   21  C   UNL     1     -10.636  16.058  66.135  1.00  0.00    -0.302 C  
BRANCH  21  22
HETATM   22  C   UNL     1      -9.531  15.506  66.984  1.00  0.00    -0.238 C  
HETATM   23  C   UNL     1      -9.729  14.728  68.056  1.00  0.00    -0.213 C  
ENDBRANCH  21  22
ENDBRANCH  20  21
ENDBRANCH  19  20
ENDBRANCH  18  19
ENDBRANCH  17  18
ENDBRANCH  16  17
ENDBRANCH  15  16
ENDBRANCH  14  15
ENDBRANCH  11  14
ENDBRANCH   5  10
ENDBRANCH   3   5
ENDBRANCH   2   3
TORSDOF 13
ENDMDL
MODEL      219
REMARK 921   NORMALIZED FREE ENERGY PREDICTED BY IDOCK:   -3.00 KCAL/MOL
REMARK 922        TOTAL FREE ENERGY PREDICTED BY IDOCK:   -7.40 KCAL/MOL
REMARK 923 INTER-LIGAND FREE ENERGY PREDICTED BY IDOCK:   -6.54 KCAL/MOL
REMARK 924 INTRA-LIGAND FREE ENERGY PREDICTED BY IDOCK:   -0.86 KCAL/MOL
REMARK 927      BINDING AFFINITY PREDICTED BY RF-SCORE:    0.00 PKD
ROOT
HETATM    1  C   UNL     1     -10.179  18.342  68.410  1.00  0.00    -0.378 C  
HETATM    2  O   UNL     1     -10.996  17.231  68.047  1.00  0.00    -0.350 OA 
ENDROOT
BRANCH   2   3
HETATM    3  C   UNL     1     -11.055  16.224  68.964  1.00  0.00    -0.331 C  
HETATM    4  O   UNL     1     -11.348  16.356  70.147  1.00  0.00    -0.329 OA 
BRANCH   3   5
HETATM    5  C   UNL     1     -10.725  14.889  68.290  1.00  0.00    -0.249 C  
BRANCH   5   6
HETATM    6  C   UNL     1      -9.261  14.485  68.508  1.00  0.00    -0.195 C  
HETATM    7  C   UNL     1      -8.340  15.825  66.538  1.00  0.00    -0.313 C  
HETATM    8  C   UNL     1      -6.963  14.026  67.596  1.00  0.00    -0.198 C  
HETATM    9  C   UNL     1      -8.386  14.467  67.240  1.00  0.00    -0.232 C  
ENDBRANCH   5   6
BRANCH   5  10
HETATM   10  N   UNL     1     -11.001  14.999  66.857  1.00  0.00    -0.320 N  
HETATM   11  C   UNL     1     -11.839  14.110  66.228  1.00  0.00    -0.411 C  
HETATM   12  H   UNL     1     -10.565  15.747  66.318  1.00  0.00     0.000 HD 
HETATM   13  O   UNL     1     -12.409  13.188  66.801  1.00  0.00    -0.316 OA 
BRANCH  11  14
HETATM   14  C   UNL     1     -11.971  14.332  64.741  1.00  0.00    -0.449 C  
BRANCH  14  15
HETATM   15  C   UNL     1     -12.778  13.200  64.107  1.00  0.00    -0.158 C  
BRANCH  15  16
HETATM   16  C   UNL     1     -11.894  12.109  63.499  1.00  0.00    -0.597 C  
BRANCH  16  17
HETATM   17  C   UNL     1     -10.418  12.499  63.490  1.00  0.00    -0.360 C  
BRANCH  17  18
HETATM   18  C   UNL     1      -9.509  11.309  63.781  1.00  0.00    -0.222 C  
BRANCH  18  19
HETATM   19  C   UNL     1      -9.106  11.308  65.255  1.00  0.00    -0.141 C  
BRANCH  19  20
HETATM   20  C   UNL     1     -10.276  10.909  66.150  1.00  0.00    -0.304 C  
BRANCH  20  21
HETATM   21  C   UNL     1      -9.776  10.346  67.481  1.00  0.00    -0.195 C  
BRANCH  21  22
HETATM   22  C   UNL     1      -9.978   8.862  67.545  1.00  0.00    -0.258 C  
HETATM   23  C   UNL     1      -9.351   7.987  66.749  1.00  0.00    -0.229 C  
ENDBRANCH  21  22
ENDBRANCH  20  21
ENDBRANCH  19  20
ENDBRANCH  18  19
ENDBRANCH  17  18
ENDBRANCH  16  17
ENDBRANCH  15  16
ENDBRANCH  14  15
ENDBRANCH  11  14
ENDBRANCH   5  10
ENDBRANCH   3   5
ENDBRANCH   2   3
TORSDOF 13
ENDMDL
MODEL      220
REMARK 921   NORMALIZED FREE ENERGY PREDICTED BY IDOCK:   -3.00 KCAL/MOL
REMARK 922        TOTAL FREE ENERGY PREDICTED BY IDOCK:   -7.39 KCAL/MOL
REMARK 923 INTER-LIGAND FREE ENERGY PREDICTED BY IDOCK:   -5.99 KCAL/MOL
REMARK 924 INTRA-LIGAND FREE ENERGY PREDICTED BY IDOCK:   -1.40 KCAL/MOL
REMARK 927      BINDING AFFINITY PREDICTED BY RF-SCORE:    0.00 PKD
ROOT
HETATM    1  C   UNL     1      -8.645  19.513  68.618  1.00  0.00    -0.325 C  
HETATM    2  O   UNL     1      -9.745  18.725  69.071  1.00  0.00    -0.350 OA 
ENDROOT
BRANCH   2   3
HETATM    3  C   UNL     1     -10.430  18.062  68.096  1.00  0.00    -0.361 C  
HETATM    4  O   UNL     1     -10.778  18.538  67.022  1.00  0.00    -0.395 OA 
BRANCH   3   5
HETATM    5  C   UNL     1     -10.682  16.615  68.532  1.00  0.00    -0.351 C  
BRANCH   5   6
HETATM    6  C   UNL     1     -11.245  16.538  69.958  1.00  0.00    -0.159 C  
HETATM    7  C   UNL     1     -12.056  14.123  69.771  1.00  0.00    -0.409 C  
HETATM    8  C   UNL     1     -12.895  15.599  71.606  1.00  0.00    -0.533 C  
HETATM    9  C   UNL     1     -12.419  15.559  70.151  1.00  0.00    -0.351 C  
ENDBRANCH   5   6
BRANCH   5  10
HETATM   10  N   UNL     1      -9.425  15.871  68.454  1.00  0.00    -0.197 N  
HETATM   11  C   UNL     1      -9.030  15.270  67.283  1.00  0.00    -0.195 C  
HETATM   12  H   UNL     1      -8.833  15.796  69.282  1.00  0.00     0.000 HD 
HETATM   13  O   UNL     1      -9.675  15.317  66.242  1.00  0.00    -0.259 OA 
BRANCH  11  14
HETATM   14  C   UNL     1      -7.737  14.498  67.389  1.00  0.00    -0.215 C  
BRANCH  14  15
HETATM   15  C   UNL     1      -8.013  12.997  67.328  1.00  0.00    -0.143 C  
BRANCH  15  16
HETATM   16  C   UNL     1      -9.219  12.579  68.172  1.00  0.00    -0.209 C  
BRANCH  16  17
HETATM   17  C   UNL     1      -9.952  11.378  67.578  1.00  0.00    -0.201 C  
BRANCH  17  18
HETATM   18  C   UNL     1     -10.442  11.650  66.160  1.00  0.00    -0.289 C  
BRANCH  18  19
HETATM   19  C   UNL     1     -10.126  10.456  65.260  1.00  0.00    -0.370 C  
BRANCH  19  20
HETATM   20  C   UNL     1      -8.709   9.943  65.496  1.00  0.00    -0.170 C  
BRANCH  20  21
HETATM   21  C   UNL     1      -8.660   8.417  65.405  1.00  0.00    -0.193 C  
BRANCH  21  22
HETATM   22  C   UNL     1      -9.053   7.790  66.709  1.00  0.00    -0.185 C  
HETATM   23  C   UNL     1      -8.432   8.028  67.871  1.00  0.00    -0.125 C  
ENDBRANCH  21  22
ENDBRANCH  20  21
ENDBRANCH  19  20
ENDBRANCH  18  19
ENDBRANCH  17  18
ENDBRANCH  16  17
ENDBRANCH  15  16
ENDBRANCH  14  15
ENDBRANCH  11  14
ENDBRANCH   5  10
ENDBRANCH   3   5
ENDBRANCH   2   3
TORSDOF 13
ENDMDL
MODEL      221
REMARK 921   NORMALIZED FREE ENERGY PREDICTED BY IDOCK:   -3.00 KCAL/MOL
REMARK 922        TOTAL FREE ENERGY PREDICTED BY IDOCK:   -7.38 KCAL/MOL
REMARK 923 INTER-LIGAND FREE ENERGY PREDICTED BY IDOCK:   -6.76 KCAL/MOL
REMARK 924 INTRA-LIGAND FREE ENERGY PREDICTED BY IDOCK:   -0.63 KCAL/MOL
REMARK 927      BINDING AFFINITY PREDICTED BY RF-SCORE:    0.00 PKD
ROOT
HETATM    1  C   UNL     1      -9.934  16.238  66.332  1.00  0.00    -0.300 C  
HETATM    2  O   UNL     1     -10.743  15.197  66.876  1.00  0.00    -0.296 OA 
ENDROOT
BRANCH   2   3
HETATM    3  C   UNL     1     -10.092  14.310  67.682  1.00  0.00    -0.229 C  
HETATM    4  O   UNL     1      -9.264  14.602  68.537  1.00  0.00    -0.184 OA 
BRANCH   3   5
HETATM    5  C   UNL     1     -10.570  12.887  67.380  1.00  0.00    -0.233 C  
BRANCH   5   6
HETATM    6  C   UNL     1     -11.719  12.874  66.362  1.00  0.00    -0.454 C  
HETATM    7  C   UNL     1     -10.758  10.989  64.931  1.00  0.00    -0.278 C  
HETATM    8  C   UNL     1     -12.567  12.462  64.031  1.00  0.00    -0.510 C  
HETATM    9  C   UNL     1     -11.339  12.403  64.945  1.00  0.00    -0.361 C  
ENDBRANCH   5   6
BRANCH   5  10
HETATM   10  N   UNL     1     -11.006  12.258  68.627  1.00  0.00    -0.228 N  
HETATM   11  C   UNL     1     -11.954  12.852  69.426  1.00  0.00    -0.269 C  
HETATM   12  H   UNL     1     -10.600  11.364  68.908  1.00  0.00     0.000 HD 
HETATM   13  O   UNL     1     -12.497  13.918  69.160  1.00  0.00    -0.231 OA 
BRANCH  11  14
HETATM   14  C   UNL     1     -12.248  12.099  70.700  1.00  0.00    -0.392 C  
BRANCH  14  15
HETATM   15  C   UNL     1     -12.335  10.600  70.420  1.00  0.00    -0.428 C  
BRANCH  15  16
HETATM   16  C   UNL     1     -11.409   9.773  71.314  1.00  0.00    -0.445 C  
BRANCH  16  17
HETATM   17  C   UNL     1     -10.088   9.438  70.625  1.00  0.00    -0.356 C  
BRANCH  17  18
HETATM   18  C   UNL     1     -10.301   8.848  69.235  1.00  0.00    -0.221 C  
BRANCH  18  19
HETATM   19  C   UNL     1      -9.088   8.012  68.830  1.00  0.00    -0.144 C  
BRANCH  19  20
HETATM   20  C   UNL     1      -9.274   6.545  69.207  1.00  0.00    -0.139 C  
BRANCH  20  21
HETATM   21  C   UNL     1     -10.735   6.252  69.550  1.00  0.00    -0.365 C  
BRANCH  21  22
HETATM   22  C   UNL     1     -10.862   5.722  70.947  1.00  0.00    -0.326 C  
HETATM   23  C   UNL     1     -11.648   6.266  71.884  1.00  0.00    -0.369 C  
ENDBRANCH  21  22
ENDBRANCH  20  21
ENDBRANCH  19  20
ENDBRANCH  18  19
ENDBRANCH  17  18
ENDBRANCH  16  17
ENDBRANCH  15  16
ENDBRANCH  14  15
ENDBRANCH  11  14
ENDBRANCH   5  10
ENDBRANCH   3   5
ENDBRANCH   2   3
TORSDOF 13
ENDMDL
MODEL      222
REMARK 921   NORMALIZED FREE ENERGY PREDICTED BY IDOCK:   -2.98 KCAL/MOL
REMARK 922        TOTAL FREE ENERGY PREDICTED BY IDOCK:   -7.35 KCAL/MOL
REMARK 923 INTER-LIGAND FREE ENERGY PREDICTED BY IDOCK:   -6.23 KCAL/MOL
REMARK 924 INTRA-LIGAND FREE ENERGY PREDICTED BY IDOCK:   -1.13 KCAL/MOL
REMARK 927      BINDING AFFINITY PREDICTED BY RF-SCORE:    0.00 PKD
ROOT
HETATM    1  C   UNL     1      -7.820   8.886  70.875  1.00  0.00    -0.133 C  
HETATM    2  O   UNL     1      -9.120   8.303  70.903  1.00  0.00    -0.141 OA 
ENDROOT
BRANCH   2   3
HETATM    3  C   UNL     1      -9.819   8.486  72.059  1.00  0.00    -0.312 C  
HETATM    4  O   UNL     1      -9.494   8.062  73.162  1.00  0.00    -0.262 OA 
BRANCH   3   5
HETATM    5  C   UNL     1     -11.069   9.328  71.782  1.00  0.00    -0.327 C  
BRANCH   5   6
HETATM    6  C   UNL     1     -12.348   8.624  72.253  1.00  0.00    -0.449 C  
HETATM    7  C   UNL     1     -12.102   6.604  70.710  1.00  0.00    -0.364 C  
HETATM    8  C   UNL     1     -14.296   7.100  71.801  1.00  0.00    -0.515 C  
HETATM    9  C   UNL     1     -13.025   7.717  71.208  1.00  0.00    -0.287 C  
ENDBRANCH   5   6
BRANCH   5  10
HETATM   10  N   UNL     1     -11.151   9.596  70.346  1.00  0.00    -0.268 N  
HETATM   11  C   UNL     1     -11.467  10.850  69.878  1.00  0.00    -0.323 C  
HETATM   12  H   UNL     1     -10.971   8.842  69.682  1.00  0.00     0.000 HD 
HETATM   13  O   UNL     1     -11.689  11.812  70.604  1.00  0.00    -0.215 OA 
BRANCH  11  14
HETATM   14  C   UNL     1     -11.563  10.942  68.374  1.00  0.00    -0.346 C  
BRANCH  14  15
HETATM   15  C   UNL     1     -11.605  12.404  67.937  1.00  0.00    -0.415 C  
BRANCH  15  16
HETATM   16  C   UNL     1     -10.443  12.783  67.017  1.00  0.00    -0.245 C  
BRANCH  16  17
HETATM   17  C   UNL     1      -9.088  12.623  67.702  1.00  0.00    -0.192 C  
BRANCH  17  18
HETATM   18  C   UNL     1      -8.183  13.830  67.472  1.00  0.00    -0.194 C  
BRANCH  18  19
HETATM   19  C   UNL     1      -7.812  14.467  68.810  1.00  0.00    -0.145 C  
BRANCH  19  20
HETATM   20  C   UNL     1      -8.141  15.958  68.825  1.00  0.00    -0.190 C  
BRANCH  20  21
HETATM   21  C   UNL     1      -9.639  16.187  68.626  1.00  0.00    -0.226 C  
BRANCH  21  22
HETATM   22  C   UNL     1     -10.420  15.669  69.796  1.00  0.00    -0.312 C  
HETATM   23  C   UNL     1     -11.756  15.581  69.824  1.00  0.00    -0.362 C  
ENDBRANCH  21  22
ENDBRANCH  20  21
ENDBRANCH  19  20
ENDBRANCH  18  19
ENDBRANCH  17  18
ENDBRANCH  16  17
ENDBRANCH  15  16
ENDBRANCH  14  15
ENDBRANCH  11  14
ENDBRANCH   5  10
ENDBRANCH   3   5
ENDBRANCH   2   3
TORSDOF 13
ENDMDL
MODEL      223
REMARK 921   NORMALIZED FREE ENERGY PREDICTED BY IDOCK:   -2.98 KCAL/MOL
REMARK 922        TOTAL FREE ENERGY PREDICTED BY IDOCK:   -7.35 KCAL/MOL
REMARK 923 INTER-LIGAND FREE ENERGY PREDICTED BY IDOCK:   -6.49 KCAL/MOL
REMARK 924 INTRA-LIGAND FREE ENERGY PREDICTED BY IDOCK:   -0.87 KCAL/MOL
REMARK 927      BINDING AFFINITY PREDICTED BY RF-SCORE:    0.00 PKD
ROOT
HETATM    1  C   UNL     1      -9.417   4.118  71.260  1.00  0.00    -0.160 C  
HETATM    2  O   UNL     1      -9.305   5.466  70.809  1.00  0.00    -0.152 OA 
ENDROOT
BRANCH   2   3
HETATM    3  C   UNL     1     -10.135   6.359  71.420  1.00  0.00    -0.189 C  
HETATM    4  O   UNL     1     -10.130   6.633  72.614  1.00  0.00    -0.171 OA 
BRANCH   3   5
HETATM    5  C   UNL     1     -11.067   6.994  70.383  1.00  0.00    -0.287 C  
BRANCH   5   6
HETATM    6  C   UNL     1     -11.263   6.088  69.160  1.00  0.00    -0.337 C  
HETATM    7  C   UNL     1      -9.236   6.965  67.876  1.00  0.00    -0.124 C  
HETATM    8  C   UNL     1     -11.014   5.664  66.694  1.00  0.00    -0.173 C  
HETATM    9  C   UNL     1     -10.733   6.654  67.828  1.00  0.00    -0.352 C  
ENDBRANCH   5   6
BRANCH   5  10
HETATM   10  N   UNL     1     -10.505   8.278  69.963  1.00  0.00    -0.226 N  
HETATM   11  C   UNL     1     -11.155   9.458  70.237  1.00  0.00    -0.257 C  
HETATM   12  H   UNL     1      -9.617   8.298  69.461  1.00  0.00     0.000 HD 
HETATM   13  O   UNL     1     -12.219   9.525  70.841  1.00  0.00    -0.292 OA 
BRANCH  11  14
HETATM   14  C   UNL     1     -10.468  10.684  69.687  1.00  0.00    -0.219 C  
BRANCH  14  15
HETATM   15  C   UNL     1     -10.861  10.900  68.227  1.00  0.00    -0.272 C  
BRANCH  15  16
HETATM   16  C   UNL     1      -9.739  10.543  67.251  1.00  0.00    -0.197 C  
BRANCH  16  17
HETATM   17  C   UNL     1     -10.222  10.511  65.802  1.00  0.00    -0.310 C  
BRANCH  17  18
HETATM   18  C   UNL     1      -9.683  11.686  64.993  1.00  0.00    -0.237 C  
BRANCH  18  19
HETATM   19  C   UNL     1     -10.282  11.671  63.587  1.00  0.00    -0.451 C  
BRANCH  19  20
HETATM   20  C   UNL     1     -11.775  11.988  63.617  1.00  0.00    -0.587 C  
BRANCH  20  21
HETATM   21  C   UNL     1     -12.018  13.425  64.080  1.00  0.00    -0.520 C  
BRANCH  21  22
HETATM   22  C   UNL     1     -12.668  13.450  65.430  1.00  0.00    -0.484 C  
HETATM   23  C   UNL     1     -12.116  14.007  66.516  1.00  0.00    -0.488 C  
ENDBRANCH  21  22
ENDBRANCH  20  21
ENDBRANCH  19  20
ENDBRANCH  18  19
ENDBRANCH  17  18
ENDBRANCH  16  17
ENDBRANCH  15  16
ENDBRANCH  14  15
ENDBRANCH  11  14
ENDBRANCH   5  10
ENDBRANCH   3   5
ENDBRANCH   2   3
TORSDOF 13
ENDMDL
MODEL      224
REMARK 921   NORMALIZED FREE ENERGY PREDICTED BY IDOCK:   -2.98 KCAL/MOL
REMARK 922        TOTAL FREE ENERGY PREDICTED BY IDOCK:   -7.35 KCAL/MOL
REMARK 923 INTER-LIGAND FREE ENERGY PREDICTED BY IDOCK:   -5.91 KCAL/MOL
REMARK 924 INTRA-LIGAND FREE ENERGY PREDICTED BY IDOCK:   -1.44 KCAL/MOL
REMARK 927      BINDING AFFINITY PREDICTED BY RF-SCORE:    0.00 PKD
ROOT
HETATM    1  C   UNL     1      -7.779   6.740  65.978  1.00  0.00    -0.093 C  
HETATM    2  O   UNL     1      -9.061   7.325  66.201  1.00  0.00    -0.166 OA 
ENDROOT
BRANCH   2   3
HETATM    3  C   UNL     1      -9.071   8.682  66.331  1.00  0.00    -0.174 C  
HETATM    4  O   UNL     1      -8.530   9.474  65.568  1.00  0.00    -0.129 OA 
BRANCH   3   5
HETATM    5  C   UNL     1      -9.885   9.078  67.567  1.00  0.00    -0.179 C  
BRANCH   5   6
HETATM    6  C   UNL     1     -10.605   7.874  68.187  1.00  0.00    -0.179 C  
HETATM    7  C   UNL     1     -10.946   8.945  70.481  1.00  0.00    -0.280 C  
HETATM    8  C   UNL     1     -11.189   6.473  70.192  1.00  0.00    -0.437 C  
HETATM    9  C   UNL     1     -10.444   7.722  69.712  1.00  0.00    -0.233 C  
ENDBRANCH   5   6
BRANCH   5  10
HETATM   10  N   UNL     1     -10.863  10.097  67.184  1.00  0.00    -0.229 N  
HETATM   11  C   UNL     1     -10.635  11.428  67.442  1.00  0.00    -0.218 C  
HETATM   12  H   UNL     1     -11.726   9.816  66.718  1.00  0.00     0.000 HD 
HETATM   13  O   UNL     1      -9.624  11.853  67.990  1.00  0.00    -0.180 OA 
BRANCH  11  14
HETATM   14  C   UNL     1     -11.767  12.339  67.033  1.00  0.00    -0.399 C  
BRANCH  14  15
HETATM   15  C   UNL     1     -11.823  12.461  65.512  1.00  0.00    -0.469 C  
BRANCH  15  16
HETATM   16  C   UNL     1     -10.928  13.577  64.971  1.00  0.00    -0.342 C  
BRANCH  16  17
HETATM   17  C   UNL     1     -11.369  14.957  65.453  1.00  0.00    -0.346 C  
BRANCH  17  18
HETATM   18  C   UNL     1     -10.211  15.950  65.487  1.00  0.00    -0.394 C  
BRANCH  18  19
HETATM   19  C   UNL     1      -9.260  15.604  66.631  1.00  0.00    -0.294 C  
BRANCH  19  20
HETATM   20  C   UNL     1      -9.144  16.758  67.624  1.00  0.00    -0.218 C  
BRANCH  20  21
HETATM   21  C   UNL     1      -9.507  16.299  69.037  1.00  0.00    -0.258 C  
BRANCH  21  22
HETATM   22  C   UNL     1     -10.969  16.496  69.305  1.00  0.00    -0.302 C  
HETATM   23  C   UNL     1     -11.860  15.499  69.356  1.00  0.00    -0.392 C  
ENDBRANCH  21  22
ENDBRANCH  20  21
ENDBRANCH  19  20
ENDBRANCH  18  19
ENDBRANCH  17  18
ENDBRANCH  16  17
ENDBRANCH  15  16
ENDBRANCH  14  15
ENDBRANCH  11  14
ENDBRANCH   5  10
ENDBRANCH   3   5
ENDBRANCH   2   3
TORSDOF 13
ENDMDL
MODEL      225
REMARK 921   NORMALIZED FREE ENERGY PREDICTED BY IDOCK:   -2.97 KCAL/MOL
REMARK 922        TOTAL FREE ENERGY PREDICTED BY IDOCK:   -7.34 KCAL/MOL
REMARK 923 INTER-LIGAND FREE ENERGY PREDICTED BY IDOCK:   -6.23 KCAL/MOL
REMARK 924 INTRA-LIGAND FREE ENERGY PREDICTED BY IDOCK:   -1.11 KCAL/MOL
REMARK 927      BINDING AFFINITY PREDICTED BY RF-SCORE:    0.00 PKD
ROOT
HETATM    1  C   UNL     1     -12.155  13.320  67.903  1.00  0.00    -0.228 C  
HETATM    2  O   UNL     1     -12.103  14.248  66.822  1.00  0.00    -0.430 OA 
ENDROOT
BRANCH   2   3
HETATM    3  C   UNL     1     -12.397  13.733  65.594  1.00  0.00    -0.482 C  
HETATM    4  O   UNL     1     -13.432  13.149  65.298  1.00  0.00    -0.428 OA 
BRANCH   3   5
HETATM    5  C   UNL     1     -11.247  14.017  64.623  1.00  0.00    -0.374 C  
BRANCH   5   6
HETATM    6  C   UNL     1     -10.947  12.811  63.723  1.00  0.00    -0.445 C  
HETATM    7  C   UNL     1     -10.204  11.268  65.619  1.00  0.00    -0.304 C  
HETATM    8  C   UNL     1      -9.648  10.712  63.245  1.00  0.00    -0.382 C  
HETATM    9  C   UNL     1      -9.862  11.851  64.247  1.00  0.00    -0.217 C  
ENDBRANCH   5   6
BRANCH   5  10
HETATM   10  N   UNL     1     -10.053  14.370  65.392  1.00  0.00    -0.423 N  
HETATM   11  C   UNL     1      -9.703  15.684  65.592  1.00  0.00    -0.313 C  
HETATM   12  H   UNL     1      -9.472  13.630  65.787  1.00  0.00     0.000 HD 
HETATM   13  O   UNL     1     -10.348  16.634  65.162  1.00  0.00    -0.630 OA 
BRANCH  11  14
HETATM   14  C   UNL     1      -8.417  15.872  66.359  1.00  0.00    -0.348 C  
BRANCH  14  15
HETATM   15  C   UNL     1      -8.716  16.260  67.805  1.00  0.00    -0.182 C  
BRANCH  15  16
HETATM   16  C   UNL     1      -8.933  15.048  68.713  1.00  0.00    -0.196 C  
BRANCH  16  17
HETATM   17  C   UNL     1      -8.240  13.796  68.182  1.00  0.00    -0.160 C  
BRANCH  17  18
HETATM   18  C   UNL     1      -6.906  13.541  68.876  1.00  0.00    -0.111 C  
BRANCH  18  19
HETATM   19  C   UNL     1      -6.299  12.231  68.376  1.00  0.00    -0.054 C  
BRANCH  19  20
HETATM   20  C   UNL     1      -6.780  11.898  66.967  1.00  0.00    -0.119 C  
BRANCH  20  21
HETATM   21  C   UNL     1      -5.769  11.009  66.242  1.00  0.00    -0.143 C  
BRANCH  21  22
HETATM   22  C   UNL     1      -6.450  10.143  65.224  1.00  0.00    -0.119 C  
HETATM   23  C   UNL     1      -6.105  10.097  63.931  1.00  0.00    -0.137 C  
ENDBRANCH  21  22
ENDBRANCH  20  21
ENDBRANCH  19  20
ENDBRANCH  18  19
ENDBRANCH  17  18
ENDBRANCH  16  17
ENDBRANCH  15  16
ENDBRANCH  14  15
ENDBRANCH  11  14
ENDBRANCH   5  10
ENDBRANCH   3   5
ENDBRANCH   2   3
TORSDOF 13
ENDMDL
MODEL      226
REMARK 921   NORMALIZED FREE ENERGY PREDICTED BY IDOCK:   -2.96 KCAL/MOL
REMARK 922        TOTAL FREE ENERGY PREDICTED BY IDOCK:   -7.32 KCAL/MOL
REMARK 923 INTER-LIGAND FREE ENERGY PREDICTED BY IDOCK:   -6.73 KCAL/MOL
REMARK 924 INTRA-LIGAND FREE ENERGY PREDICTED BY IDOCK:   -0.59 KCAL/MOL
REMARK 927      BINDING AFFINITY PREDICTED BY RF-SCORE:    0.00 PKD
ROOT
HETATM    1  C   UNL     1     -10.058  16.653  66.462  1.00  0.00    -0.305 C  
HETATM    2  O   UNL     1     -11.037  16.950  67.456  1.00  0.00    -0.182 OA 
ENDROOT
BRANCH   2   3
HETATM    3  C   UNL     1     -10.719  16.564  68.724  1.00  0.00    -0.339 C  
HETATM    4  O   UNL     1      -9.657  16.791  69.291  1.00  0.00    -0.219 OA 
BRANCH   3   5
HETATM    5  C   UNL     1     -11.903  15.822  69.352  1.00  0.00    -0.349 C  
BRANCH   5   6
HETATM    6  C   UNL     1     -11.587  15.343  70.775  1.00  0.00    -0.381 C  
HETATM    7  C   UNL     1     -14.019  15.267  71.554  1.00  0.00    -0.627 C  
HETATM    8  C   UNL     1     -12.156  15.243  73.222  1.00  0.00    -0.549 C  
HETATM    9  C   UNL     1     -12.604  15.765  71.853  1.00  0.00    -0.522 C  
ENDBRANCH   5   6
BRANCH   5  10
HETATM   10  N   UNL     1     -12.246  14.676  68.508  1.00  0.00    -0.602 N  
HETATM   11  C   UNL     1     -11.328  13.685  68.254  1.00  0.00    -0.289 C  
HETATM   12  H   UNL     1     -13.180  14.612  68.104  1.00  0.00     0.000 HD 
HETATM   13  O   UNL     1     -10.189  13.679  68.706  1.00  0.00    -0.223 OA 
BRANCH  11  14
HETATM   14  C   UNL     1     -11.825  12.606  67.323  1.00  0.00    -0.395 C  
BRANCH  14  15
HETATM   15  C   UNL     1     -11.520  11.226  67.902  1.00  0.00    -0.360 C  
BRANCH  15  16
HETATM   16  C   UNL     1     -10.248  10.607  67.321  1.00  0.00    -0.250 C  
BRANCH  16  17
HETATM   17  C   UNL     1     -10.205  10.695  65.797  1.00  0.00    -0.317 C  
BRANCH  17  18
HETATM   18  C   UNL     1      -9.409   9.550  65.179  1.00  0.00    -0.316 C  
BRANCH  18  19
HETATM   19  C   UNL     1      -8.717   8.742  66.276  1.00  0.00    -0.169 C  
BRANCH  19  20
HETATM   20  C   UNL     1      -7.279   8.405  65.893  1.00  0.00    -0.072 C  
BRANCH  20  21
HETATM   21  C   UNL     1      -6.314   8.776  67.019  1.00  0.00    -0.060 C  
BRANCH  21  22
HETATM   22  C   UNL     1      -6.170  10.264  67.133  1.00  0.00    -0.062 C  
HETATM   23  C   UNL     1      -5.720  11.049  66.146  1.00  0.00    -0.143 C  
ENDBRANCH  21  22
ENDBRANCH  20  21
ENDBRANCH  19  20
ENDBRANCH  18  19
ENDBRANCH  17  18
ENDBRANCH  16  17
ENDBRANCH  15  16
ENDBRANCH  14  15
ENDBRANCH  11  14
ENDBRANCH   5  10
ENDBRANCH   3   5
ENDBRANCH   2   3
TORSDOF 13
ENDMDL
MODEL      227
REMARK 921   NORMALIZED FREE ENERGY PREDICTED BY IDOCK:   -2.93 KCAL/MOL
REMARK 922        TOTAL FREE ENERGY PREDICTED BY IDOCK:   -7.27 KCAL/MOL
REMARK 923 INTER-LIGAND FREE ENERGY PREDICTED BY IDOCK:   -6.38 KCAL/MOL
REMARK 924 INTRA-LIGAND FREE ENERGY PREDICTED BY IDOCK:   -0.89 KCAL/MOL
REMARK 927      BINDING AFFINITY PREDICTED BY RF-SCORE:    0.00 PKD
ROOT
HETATM    1  C   UNL     1     -12.872  14.028  65.068  1.00  0.00    -0.258 C  
HETATM    2  O   UNL     1     -11.919  13.197  65.729  1.00  0.00    -0.377 OA 
ENDROOT
BRANCH   2   3
HETATM    3  C   UNL     1     -10.835  13.844  66.242  1.00  0.00    -0.290 C  
HETATM    4  O   UNL     1      -9.955  14.387  65.585  1.00  0.00    -0.332 OA 
BRANCH   3   5
HETATM    5  C   UNL     1     -10.890  13.814  67.772  1.00  0.00    -0.250 C  
BRANCH   5   6
HETATM    6  C   UNL     1      -9.591  14.336  68.401  1.00  0.00    -0.221 C  
HETATM    7  C   UNL     1     -10.682  16.284  69.641  1.00  0.00    -0.338 C  
HETATM    8  C   UNL     1      -8.206  16.234  69.297  1.00  0.00    -0.148 C  
HETATM    9  C   UNL     1      -9.562  15.848  68.696  1.00  0.00    -0.209 C  
ENDBRANCH   5   6
BRANCH   5  10
HETATM   10  N   UNL     1     -11.136  12.441  68.212  1.00  0.00    -0.226 N  
HETATM   11  C   UNL     1     -11.711  12.181  69.434  1.00  0.00    -0.329 C  
HETATM   12  H   UNL     1     -10.878  11.664  67.603  1.00  0.00     0.000 HD 
HETATM   13  O   UNL     1     -12.057  13.054  70.222  1.00  0.00    -0.348 OA 
BRANCH  11  14
HETATM   14  C   UNL     1     -11.844  10.713  69.755  1.00  0.00    -0.377 C  
BRANCH  14  15
HETATM   15  C   UNL     1     -12.638  10.524  71.046  1.00  0.00    -0.499 C  
BRANCH  15  16
HETATM   16  C   UNL     1     -12.935   9.055  71.353  1.00  0.00    -0.343 C  
BRANCH  16  17
HETATM   17  C   UNL     1     -12.153   8.548  72.562  1.00  0.00    -0.395 C  
BRANCH  17  18
HETATM   18  C   UNL     1     -10.669   8.375  72.254  1.00  0.00    -0.417 C  
BRANCH  18  19
HETATM   19  C   UNL     1     -10.218   6.965  72.632  1.00  0.00    -0.210 C  
BRANCH  19  20
HETATM   20  C   UNL     1     -11.122   5.906  72.009  1.00  0.00    -0.329 C  
BRANCH  20  21
HETATM   21  C   UNL     1     -10.295   4.827  71.308  1.00  0.00    -0.184 C  
BRANCH  21  22
HETATM   22  C   UNL     1      -9.437   5.424  70.233  1.00  0.00    -0.214 C  
HETATM   23  C   UNL     1      -8.178   5.043  69.984  1.00  0.00    -0.081 C  
ENDBRANCH  21  22
ENDBRANCH  20  21
ENDBRANCH  19  20
ENDBRANCH  18  19
ENDBRANCH  17  18
ENDBRANCH  16  17
ENDBRANCH  15  16
ENDBRANCH  14  15
ENDBRANCH  11  14
ENDBRANCH   5  10
ENDBRANCH   3   5
ENDBRANCH   2   3
TORSDOF 13
ENDMDL
MODEL      228
REMARK 921   NORMALIZED FREE ENERGY PREDICTED BY IDOCK:   -2.93 KCAL/MOL
REMARK 922        TOTAL FREE ENERGY PREDICTED BY IDOCK:   -7.26 KCAL/MOL
REMARK 923 INTER-LIGAND FREE ENERGY PREDICTED BY IDOCK:   -6.84 KCAL/MOL
REMARK 924 INTRA-LIGAND FREE ENERGY PREDICTED BY IDOCK:   -0.41 KCAL/MOL
REMARK 927      BINDING AFFINITY PREDICTED BY RF-SCORE:    0.00 PKD
ROOT
HETATM    1  C   UNL     1      -7.276  11.645  67.530  1.00  0.00    -0.119 C  
HETATM    2  O   UNL     1      -7.547  10.302  67.926  1.00  0.00    -0.088 OA 
ENDROOT
BRANCH   2   3
HETATM    3  C   UNL     1      -8.837   9.892  67.763  1.00  0.00    -0.129 C  
HETATM    4  O   UNL     1      -9.383   9.671  66.689  1.00  0.00    -0.146 OA 
BRANCH   3   5
HETATM    5  C   UNL     1      -9.503   9.722  69.132  1.00  0.00    -0.188 C  
BRANCH   5   6
HETATM    6  C   UNL     1     -10.528   8.581  69.131  1.00  0.00    -0.217 C  
HETATM    7  C   UNL     1     -10.800   8.491  71.669  1.00  0.00    -0.356 C  
HETATM    8  C   UNL     1     -11.580   6.588  70.247  1.00  0.00    -0.473 C  
HETATM    9  C   UNL     1     -10.531   7.695  70.392  1.00  0.00    -0.221 C  
ENDBRANCH   5   6
BRANCH   5  10
HETATM   10  N   UNL     1     -10.158  10.977  69.500  1.00  0.00    -0.441 N  
HETATM   11  C   UNL     1     -11.378  11.321  68.967  1.00  0.00    -0.278 C  
HETATM   12  H   UNL     1      -9.704  11.607  70.163  1.00  0.00     0.000 HD 
HETATM   13  O   UNL     1     -11.996  10.621  68.173  1.00  0.00    -0.460 OA 
BRANCH  11  14
HETATM   14  C   UNL     1     -11.887  12.671  69.409  1.00  0.00    -0.356 C  
BRANCH  14  15
HETATM   15  C   UNL     1     -12.499  12.574  70.805  1.00  0.00    -0.357 C  
BRANCH  15  16
HETATM   16  C   UNL     1     -12.708  13.941  71.459  1.00  0.00    -0.440 C  
BRANCH  16  17
HETATM   17  C   UNL     1     -12.601  15.085  70.454  1.00  0.00    -0.399 C  
BRANCH  17  18
HETATM   18  C   UNL     1     -11.494  16.068  70.820  1.00  0.00    -0.444 C  
BRANCH  18  19
HETATM   19  C   UNL     1     -10.653  16.392  69.586  1.00  0.00    -0.307 C  
BRANCH  19  20
HETATM   20  C   UNL     1     -11.382  16.007  68.302  1.00  0.00    -0.326 C  
BRANCH  20  21
HETATM   21  C   UNL     1     -10.425  15.343  67.311  1.00  0.00    -0.282 C  
BRANCH  21  22
HETATM   22  C   UNL     1     -10.352  16.122  66.032  1.00  0.00    -0.372 C  
HETATM   23  C   UNL     1     -10.922  15.732  64.885  1.00  0.00    -0.443 C  
ENDBRANCH  21  22
ENDBRANCH  20  21
ENDBRANCH  19  20
ENDBRANCH  18  19
ENDBRANCH  17  18
ENDBRANCH  16  17
ENDBRANCH  15  16
ENDBRANCH  14  15
ENDBRANCH  11  14
ENDBRANCH   5  10
ENDBRANCH   3   5
ENDBRANCH   2   3
TORSDOF 13
ENDMDL
MODEL      229
REMARK 921   NORMALIZED FREE ENERGY PREDICTED BY IDOCK:   -2.91 KCAL/MOL
REMARK 922        TOTAL FREE ENERGY PREDICTED BY IDOCK:   -7.23 KCAL/MOL
REMARK 923 INTER-LIGAND FREE ENERGY PREDICTED BY IDOCK:   -6.30 KCAL/MOL
REMARK 924 INTRA-LIGAND FREE ENERGY PREDICTED BY IDOCK:   -0.93 KCAL/MOL
REMARK 927      BINDING AFFINITY PREDICTED BY RF-SCORE:    0.00 PKD
ROOT
HETATM    1  C   UNL     1      -8.081  19.841  66.045  1.00  0.00    -0.322 C  
HETATM    2  O   UNL     1      -9.010  18.763  66.134  1.00  0.00    -0.449 OA 
ENDROOT
BRANCH   2   3
HETATM    3  C   UNL     1      -9.383  18.413  67.397  1.00  0.00    -0.272 C  
HETATM    4  O   UNL     1      -9.961  19.141  68.195  1.00  0.00    -0.343 OA 
BRANCH   3   5
HETATM    5  C   UNL     1      -8.993  16.957  67.668  1.00  0.00    -0.219 C  
BRANCH   5   6
HETATM    6  C   UNL     1      -7.473  16.783  67.784  1.00  0.00    -0.176 C  
HETATM    7  C   UNL     1      -7.574  14.593  69.095  1.00  0.00    -0.126 C  
HETATM    8  C   UNL     1      -5.460  15.928  69.024  1.00  0.00    -0.105 C  
HETATM    9  C   UNL     1      -6.990  16.005  69.023  1.00  0.00    -0.165 C  
ENDBRANCH   5   6
BRANCH   5  10
HETATM   10  N   UNL     1      -9.507  16.118  66.585  1.00  0.00    -0.232 N  
HETATM   11  C   UNL     1     -10.737  15.512  66.682  1.00  0.00    -0.306 C  
HETATM   12  H   UNL     1      -8.945  15.983  65.744  1.00  0.00     0.000 HD 
HETATM   13  O   UNL     1     -11.479  15.628  67.650  1.00  0.00    -0.284 OA 
BRANCH  11  14
HETATM   14  C   UNL     1     -11.091  14.639  65.502  1.00  0.00    -0.345 C  
BRANCH  14  15
HETATM   15  C   UNL     1     -12.258  13.721  65.856  1.00  0.00    -0.501 C  
BRANCH  15  16
HETATM   16  C   UNL     1     -11.811  12.303  66.215  1.00  0.00    -0.387 C  
BRANCH  16  17
HETATM   17  C   UNL     1     -11.369  12.188  67.672  1.00  0.00    -0.379 C  
BRANCH  17  18
HETATM   18  C   UNL     1     -11.644  10.802  68.247  1.00  0.00    -0.297 C  
BRANCH  18  19
HETATM   19  C   UNL     1     -10.448  10.332  69.073  1.00  0.00    -0.238 C  
BRANCH  19  20
HETATM   20  C   UNL     1     -10.161   8.851  68.841  1.00  0.00    -0.220 C  
BRANCH  20  21
HETATM   21  C   UNL     1      -9.573   8.621  67.449  1.00  0.00    -0.204 C  
BRANCH  21  22
HETATM   22  C   UNL     1      -9.980   7.283  66.909  1.00  0.00    -0.302 C  
HETATM   23  C   UNL     1     -11.156   6.698  67.169  1.00  0.00    -0.427 C  
ENDBRANCH  21  22
ENDBRANCH  20  21
ENDBRANCH  19  20
ENDBRANCH  18  19
ENDBRANCH  17  18
ENDBRANCH  16  17
ENDBRANCH  15  16
ENDBRANCH  14  15
ENDBRANCH  11  14
ENDBRANCH   5  10
ENDBRANCH   3   5
ENDBRANCH   2   3
TORSDOF 13
ENDMDL
MODEL      230
REMARK 921   NORMALIZED FREE ENERGY PREDICTED BY IDOCK:   -2.90 KCAL/MOL
REMARK 922        TOTAL FREE ENERGY PREDICTED BY IDOCK:   -7.21 KCAL/MOL
REMARK 923 INTER-LIGAND FREE ENERGY PREDICTED BY IDOCK:   -5.50 KCAL/MOL
REMARK 924 INTRA-LIGAND FREE ENERGY PREDICTED BY IDOCK:   -1.72 KCAL/MOL
REMARK 927      BINDING AFFINITY PREDICTED BY RF-SCORE:    0.00 PKD
ROOT
HETATM    1  C   UNL     1     -10.242   9.393  68.657  1.00  0.00    -0.201 C  
HETATM    2  O   UNL     1     -10.228  10.739  68.187  1.00  0.00    -0.163 OA 
ENDROOT
BRANCH   2   3
HETATM    3  C   UNL     1     -11.445  11.351  68.128  1.00  0.00    -0.305 C  
HETATM    4  O   UNL     1     -12.432  11.035  68.781  1.00  0.00    -0.468 OA 
BRANCH   3   5
HETATM    5  C   UNL     1     -11.391  12.517  67.136  1.00  0.00    -0.324 C  
BRANCH   5   6
HETATM    6  C   UNL     1     -11.400  12.030  65.681  1.00  0.00    -0.381 C  
HETATM    7  C   UNL     1     -12.406  14.169  64.712  1.00  0.00    -0.436 C  
HETATM    8  C   UNL     1     -12.403  12.056  63.375  1.00  0.00    -0.635 C  
HETATM    9  C   UNL     1     -12.494  12.644  64.787  1.00  0.00    -0.555 C  
ENDBRANCH   5   6
BRANCH   5  10
HETATM   10  N   UNL     1     -10.182  13.301  67.389  1.00  0.00    -0.228 N  
HETATM   11  C   UNL     1     -10.260  14.617  67.778  1.00  0.00    -0.229 C  
HETATM   12  H   UNL     1      -9.267  12.863  67.276  1.00  0.00     0.000 HD 
HETATM   13  O   UNL     1     -11.316  15.216  67.945  1.00  0.00    -0.318 OA 
BRANCH  11  14
HETATM   14  C   UNL     1      -8.921  15.293  67.944  1.00  0.00    -0.170 C  
BRANCH  14  15
HETATM   15  C   UNL     1      -7.792  14.279  67.771  1.00  0.00    -0.173 C  
BRANCH  15  16
HETATM   16  C   UNL     1      -7.000  14.047  69.059  1.00  0.00    -0.112 C  
BRANCH  16  17
HETATM   17  C   UNL     1      -5.887  13.017  68.876  1.00  0.00    -0.076 C  
BRANCH  17  18
HETATM   18  C   UNL     1      -6.437  11.606  68.694  1.00  0.00    -0.059 C  
BRANCH  18  19
HETATM   19  C   UNL     1      -5.536  10.811  67.751  1.00  0.00    -0.039 C  
BRANCH  19  20
HETATM   20  C   UNL     1      -6.037  10.883  66.311  1.00  0.00    -0.137 C  
BRANCH  20  21
HETATM   21  C   UNL     1      -7.566  10.899  66.267  1.00  0.00    -0.136 C  
BRANCH  21  22
HETATM   22  C   UNL     1      -8.082   9.926  65.250  1.00  0.00    -0.139 C  
HETATM   23  C   UNL     1      -8.679  10.285  64.107  1.00  0.00    -0.214 C  
ENDBRANCH  21  22
ENDBRANCH  20  21
ENDBRANCH  19  20
ENDBRANCH  18  19
ENDBRANCH  17  18
ENDBRANCH  16  17
ENDBRANCH  15  16
ENDBRANCH  14  15
ENDBRANCH  11  14
ENDBRANCH   5  10
ENDBRANCH   3   5
ENDBRANCH   2   3
TORSDOF 13
ENDMDL
MODEL      231
REMARK 921   NORMALIZED FREE ENERGY PREDICTED BY IDOCK:   -2.90 KCAL/MOL
REMARK 922        TOTAL FREE ENERGY PREDICTED BY IDOCK:   -7.21 KCAL/MOL
REMARK 923 INTER-LIGAND FREE ENERGY PREDICTED BY IDOCK:   -5.71 KCAL/MOL
REMARK 924 INTRA-LIGAND FREE ENERGY PREDICTED BY IDOCK:   -1.50 KCAL/MOL
REMARK 927      BINDING AFFINITY PREDICTED BY RF-SCORE:    0.00 PKD
ROOT
HETATM    1  C   UNL     1     -11.902  14.574  67.015  1.00  0.00    -0.385 C  
HETATM    2  O   UNL     1     -10.953  13.572  67.375  1.00  0.00    -0.265 OA 
ENDROOT
BRANCH   2   3
HETATM    3  C   UNL     1     -11.421  12.291  67.360  1.00  0.00    -0.352 C  
HETATM    4  O   UNL     1     -12.091  11.789  66.466  1.00  0.00    -0.498 OA 
BRANCH   3   5
HETATM    5  C   UNL     1     -10.961  11.556  68.623  1.00  0.00    -0.223 C  
BRANCH   5   6
HETATM    6  C   UNL     1     -11.882  11.839  69.817  1.00  0.00    -0.420 C  
HETATM    7  C   UNL     1     -11.193   9.776  71.155  1.00  0.00    -0.444 C  
HETATM    8  C   UNL     1     -13.282  11.019  71.738  1.00  0.00    -0.505 C  
HETATM    9  C   UNL     1     -12.355  10.596  70.594  1.00  0.00    -0.462 C  
ENDBRANCH   5   6
BRANCH   5  10
HETATM   10  N   UNL     1      -9.595  11.971  68.943  1.00  0.00    -0.416 N  
HETATM   11  C   UNL     1      -8.518  11.197  68.581  1.00  0.00    -0.153 C  
HETATM   12  H   UNL     1      -9.439  12.848  69.441  1.00  0.00     0.000 HD 
HETATM   13  O   UNL     1      -8.614  10.136  67.974  1.00  0.00    -0.117 OA 
BRANCH  11  14
HETATM   14  C   UNL     1      -7.185  11.742  69.034  1.00  0.00    -0.080 C  
BRANCH  14  15
HETATM   15  C   UNL     1      -6.209  10.597  69.299  1.00  0.00    -0.050 C  
BRANCH  15  16
HETATM   16  C   UNL     1      -5.910  10.403  70.787  1.00  0.00    -0.093 C  
BRANCH  16  17
HETATM   17  C   UNL     1      -6.226   8.985  71.259  1.00  0.00    -0.065 C  
BRANCH  17  18
HETATM   18  C   UNL     1      -7.722   8.690  71.226  1.00  0.00    -0.141 C  
BRANCH  18  19
HETATM   19  C   UNL     1      -8.187   8.193  72.594  1.00  0.00    -0.227 C  
BRANCH  19  20
HETATM   20  C   UNL     1      -8.121   6.670  72.683  1.00  0.00    -0.102 C  
BRANCH  20  21
HETATM   21  C   UNL     1      -9.523   6.071  72.809  1.00  0.00    -0.154 C  
BRANCH  21  22
HETATM   22  C   UNL     1     -10.195   5.995  71.471  1.00  0.00    -0.249 C  
HETATM   23  C   UNL     1     -11.504   6.203  71.279  1.00  0.00    -0.311 C  
ENDBRANCH  21  22
ENDBRANCH  20  21
ENDBRANCH  19  20
ENDBRANCH  18  19
ENDBRANCH  17  18
ENDBRANCH  16  17
ENDBRANCH  15  16
ENDBRANCH  14  15
ENDBRANCH  11  14
ENDBRANCH   5  10
ENDBRANCH   3   5
ENDBRANCH   2   3
TORSDOF 13
ENDMDL
MODEL      232
REMARK 921   NORMALIZED FREE ENERGY PREDICTED BY IDOCK:   -2.90 KCAL/MOL
REMARK 922        TOTAL FREE ENERGY PREDICTED BY IDOCK:   -7.21 KCAL/MOL
REMARK 923 INTER-LIGAND FREE ENERGY PREDICTED BY IDOCK:   -6.04 KCAL/MOL
REMARK 924 INTRA-LIGAND FREE ENERGY PREDICTED BY IDOCK:   -1.17 KCAL/MOL
REMARK 927      BINDING AFFINITY PREDICTED BY RF-SCORE:    0.00 PKD
ROOT
HETATM    1  C   UNL     1      -5.604  10.557  70.687  1.00  0.00    -0.093 C  
HETATM    2  O   UNL     1      -7.020  10.390  70.683  1.00  0.00    -0.324 OA 
ENDROOT
BRANCH   2   3
HETATM    3  C   UNL     1      -7.463   9.135  70.980  1.00  0.00    -0.097 C  
HETATM    4  O   UNL     1      -6.876   8.322  71.683  1.00  0.00    -0.057 OA 
BRANCH   3   5
HETATM    5  C   UNL     1      -8.825   8.897  70.321  1.00  0.00    -0.175 C  
BRANCH   5   6
HETATM    6  C   UNL     1      -9.083   7.406  70.064  1.00  0.00    -0.148 C  
HETATM    7  C   UNL     1     -11.563   7.476  70.670  1.00  0.00    -0.272 C  
HETATM    8  C   UNL     1     -10.352   5.292  70.556  1.00  0.00    -0.336 C  
HETATM    9  C   UNL     1     -10.220   6.781  70.894  1.00  0.00    -0.215 C  
ENDBRANCH   5   6
BRANCH   5  10
HETATM   10  N   UNL     1      -8.877   9.634  69.058  1.00  0.00    -0.140 N  
HETATM   11  C   UNL     1      -9.847  10.582  68.832  1.00  0.00    -0.201 C  
HETATM   12  H   UNL     1      -8.184   9.442  68.335  1.00  0.00     0.000 HD 
HETATM   13  O   UNL     1     -10.711  10.880  69.648  1.00  0.00    -0.238 OA 
BRANCH  11  14
HETATM   14  C   UNL     1      -9.791  11.208  67.460  1.00  0.00    -0.197 C  
BRANCH  14  15
HETATM   15  C   UNL     1     -11.192  11.281  66.855  1.00  0.00    -0.300 C  
BRANCH  15  16
HETATM   16  C   UNL     1     -11.249  12.138  65.589  1.00  0.00    -0.381 C  
BRANCH  16  17
HETATM   17  C   UNL     1     -11.414  13.623  65.904  1.00  0.00    -0.329 C  
BRANCH  17  18
HETATM   18  C   UNL     1     -12.379  13.859  67.061  1.00  0.00    -0.287 C  
BRANCH  18  19
HETATM   19  C   UNL     1     -11.664  14.586  68.199  1.00  0.00    -0.369 C  
BRANCH  19  20
HETATM   20  C   UNL     1     -12.078  14.031  69.559  1.00  0.00    -0.397 C  
BRANCH  20  21
HETATM   21  C   UNL     1     -12.634  15.140  70.453  1.00  0.00    -0.405 C  
BRANCH  21  22
HETATM   22  C   UNL     1     -12.665  14.707  71.888  1.00  0.00    -0.402 C  
HETATM   23  C   UNL     1     -13.603  13.905  72.407  1.00  0.00    -0.676 C  
ENDBRANCH  21  22
ENDBRANCH  20  21
ENDBRANCH  19  20
ENDBRANCH  18  19
ENDBRANCH  17  18
ENDBRANCH  16  17
ENDBRANCH  15  16
ENDBRANCH  14  15
ENDBRANCH  11  14
ENDBRANCH   5  10
ENDBRANCH   3   5
ENDBRANCH   2   3
TORSDOF 13
ENDMDL
MODEL      233
REMARK 921   NORMALIZED FREE ENERGY PREDICTED BY IDOCK:   -2.89 KCAL/MOL
REMARK 922        TOTAL FREE ENERGY PREDICTED BY IDOCK:   -7.19 KCAL/MOL
REMARK 923 INTER-LIGAND FREE ENERGY PREDICTED BY IDOCK:   -6.81 KCAL/MOL
REMARK 924 INTRA-LIGAND FREE ENERGY PREDICTED BY IDOCK:   -0.38 KCAL/MOL
REMARK 927      BINDING AFFINITY PREDICTED BY RF-SCORE:    0.00 PKD
ROOT
HETATM    1  C   UNL     1      -5.948  18.648  64.782  1.00  0.00    -0.174 C  
HETATM    2  O   UNL     1      -7.187  18.773  65.477  1.00  0.00    -0.493 OA 
ENDROOT
BRANCH   2   3
HETATM    3  C   UNL     1      -7.273  19.827  66.337  1.00  0.00    -0.255 C  
HETATM    4  O   UNL     1      -6.887  20.967  66.106  1.00  0.00    -0.195 OA 
BRANCH   3   5
HETATM    5  C   UNL     1      -7.951  19.382  67.637  1.00  0.00    -0.283 C  
BRANCH   5   6
HETATM    6  C   UNL     1      -7.023  19.541  68.849  1.00  0.00    -0.386 C  
HETATM    7  C   UNL     1      -5.502  17.578  68.255  1.00  0.00    -0.147 C  
HETATM    8  C   UNL     1      -5.475  18.544  70.561  1.00  0.00    -0.229 C  
HETATM    9  C   UNL     1      -6.349  18.245  69.338  1.00  0.00    -0.256 C  
ENDBRANCH   5   6
BRANCH   5  10
HETATM   10  N   UNL     1      -8.358  17.982  67.505  1.00  0.00    -0.231 N  
HETATM   11  C   UNL     1      -9.557  17.544  68.013  1.00  0.00    -0.282 C  
HETATM   12  H   UNL     1      -7.742  17.323  67.029  1.00  0.00     0.000 HD 
HETATM   13  O   UNL     1     -10.358  18.270  68.591  1.00  0.00    -0.367 OA 
BRANCH  11  14
HETATM   14  C   UNL     1      -9.798  16.064  67.840  1.00  0.00    -0.226 C  
BRANCH  14  15
HETATM   15  C   UNL     1     -11.206  15.700  68.305  1.00  0.00    -0.353 C  
BRANCH  15  16
HETATM   16  C   UNL     1     -11.210  14.814  69.552  1.00  0.00    -0.305 C  
BRANCH  16  17
HETATM   17  C   UNL     1     -11.981  13.514  69.335  1.00  0.00    -0.383 C  
BRANCH  17  18
HETATM   18  C   UNL     1     -11.067  12.369  68.912  1.00  0.00    -0.307 C  
BRANCH  18  19
HETATM   19  C   UNL     1     -11.829  11.046  68.958  1.00  0.00    -0.399 C  
BRANCH  19  20
HETATM   20  C   UNL     1     -12.459  10.817  70.329  1.00  0.00    -0.395 C  
BRANCH  20  21
HETATM   21  C   UNL     1     -11.631   9.827  71.150  1.00  0.00    -0.469 C  
BRANCH  21  22
HETATM   22  C   UNL     1     -12.329   8.504  71.256  1.00  0.00    -0.301 C  
HETATM   23  C   UNL     1     -13.455   8.306  71.953  1.00  0.00    -0.372 C  
ENDBRANCH  21  22
ENDBRANCH  20  21
ENDBRANCH  19  20
ENDBRANCH  18  19
ENDBRANCH  17  18
ENDBRANCH  16  17
ENDBRANCH  15  16
ENDBRANCH  14  15
ENDBRANCH  11  14
ENDBRANCH   5  10
ENDBRANCH   3   5
ENDBRANCH   2   3
TORSDOF 13
ENDMDL
MODEL      234
REMARK 921   NORMALIZED FREE ENERGY PREDICTED BY IDOCK:   -2.86 KCAL/MOL
REMARK 922        TOTAL FREE ENERGY PREDICTED BY IDOCK:   -7.14 KCAL/MOL
REMARK 923 INTER-LIGAND FREE ENERGY PREDICTED BY IDOCK:   -6.19 KCAL/MOL
REMARK 924 INTRA-LIGAND FREE ENERGY PREDICTED BY IDOCK:   -0.94 KCAL/MOL
REMARK 927      BINDING AFFINITY PREDICTED BY RF-SCORE:    0.00 PKD
ROOT
HETATM    1  C   UNL     1      -9.685   4.037  69.740  1.00  0.00    -0.184 C  
HETATM    2  O   UNL     1     -10.381   5.261  69.969  1.00  0.00    -0.267 OA 
ENDROOT
BRANCH   2   3
HETATM    3  C   UNL     1      -9.595   6.338  70.248  1.00  0.00    -0.164 C  
HETATM    4  O   UNL     1      -8.378   6.386  70.109  1.00  0.00    -0.129 OA 
BRANCH   3   5
HETATM    5  C   UNL     1     -10.463   7.500  70.740  1.00  0.00    -0.213 C  
BRANCH   5   6
HETATM    6  C   UNL     1     -11.960   7.201  70.585  1.00  0.00    -0.312 C  
HETATM    7  C   UNL     1     -12.756   9.208  71.950  1.00  0.00    -0.464 C  
HETATM    8  C   UNL     1     -14.313   7.312  71.466  1.00  0.00    -0.558 C  
HETATM    9  C   UNL     1     -12.855   7.697  71.738  1.00  0.00    -0.357 C  
ENDBRANCH   5   6
BRANCH   5  10
HETATM   10  N   UNL     1     -10.118   8.704  69.984  1.00  0.00    -0.185 N  
HETATM   11  C   UNL     1     -10.257   8.746  68.617  1.00  0.00    -0.194 C  
HETATM   12  H   UNL     1      -9.769   9.526  70.479  1.00  0.00     0.000 HD 
HETATM   13  O   UNL     1     -10.676   7.809  67.947  1.00  0.00    -0.187 OA 
BRANCH  11  14
HETATM   14  C   UNL     1      -9.806  10.041  67.989  1.00  0.00    -0.164 C  
BRANCH  14  15
HETATM   15  C   UNL     1     -10.455  10.218  66.617  1.00  0.00    -0.260 C  
BRANCH  15  16
HETATM   16  C   UNL     1      -9.739  11.255  65.750  1.00  0.00    -0.263 C  
BRANCH  16  17
HETATM   17  C   UNL     1     -10.698  12.306  65.195  1.00  0.00    -0.330 C  
BRANCH  17  18
HETATM   18  C   UNL     1     -11.975  12.409  66.023  1.00  0.00    -0.419 C  
BRANCH  18  19
HETATM   19  C   UNL     1     -12.125  13.824  66.579  1.00  0.00    -0.483 C  
BRANCH  19  20
HETATM   20  C   UNL     1     -11.983  13.841  68.099  1.00  0.00    -0.394 C  
BRANCH  20  21
HETATM   21  C   UNL     1     -10.798  14.709  68.526  1.00  0.00    -0.256 C  
BRANCH  21  22
HETATM   22  C   UNL     1      -9.511  13.946  68.423  1.00  0.00    -0.211 C  
HETATM   23  C   UNL     1      -8.560  14.204  67.516  1.00  0.00    -0.196 C  
ENDBRANCH  21  22
ENDBRANCH  20  21
ENDBRANCH  19  20
ENDBRANCH  18  19
ENDBRANCH  17  18
ENDBRANCH  16  17
ENDBRANCH  15  16
ENDBRANCH  14  15
ENDBRANCH  11  14
ENDBRANCH   5  10
ENDBRANCH   3   5
ENDBRANCH   2   3
TORSDOF 13
ENDMDL
MODEL      235
REMARK 921   NORMALIZED FREE ENERGY PREDICTED BY IDOCK:   -2.85 KCAL/MOL
REMARK 922        TOTAL FREE ENERGY PREDICTED BY IDOCK:   -7.12 KCAL/MOL
REMARK 923 INTER-LIGAND FREE ENERGY PREDICTED BY IDOCK:   -6.56 KCAL/MOL
REMARK 924 INTRA-LIGAND FREE ENERGY PREDICTED BY IDOCK:   -0.56 KCAL/MOL
REMARK 927      BINDING AFFINITY PREDICTED BY RF-SCORE:    0.00 PKD
ROOT
HETATM    1  C   UNL     1     -10.715   5.243  66.584  1.00  0.00    -0.200 C  
HETATM    2  O   UNL     1     -11.205   6.553  66.865  1.00  0.00    -0.387 OA 
ENDROOT
BRANCH   2   3
HETATM    3  C   UNL     1     -10.653   7.164  67.951  1.00  0.00    -0.208 C  
HETATM    4  O   UNL     1     -10.561   6.676  69.071  1.00  0.00    -0.203 OA 
BRANCH   3   5
HETATM    5  C   UNL     1     -10.138   8.552  67.559  1.00  0.00    -0.221 C  
BRANCH   5   6
HETATM    6  C   UNL     1      -8.767   8.850  68.182  1.00  0.00    -0.134 C  
HETATM    7  C   UNL     1      -7.914  10.265  66.233  1.00  0.00    -0.124 C  
HETATM    8  C   UNL     1      -6.317   9.355  67.928  1.00  0.00    -0.054 C  
HETATM    9  C   UNL     1      -7.626   9.096  67.176  1.00  0.00    -0.091 C  
ENDBRANCH   5   6
BRANCH   5  10
HETATM   10  N   UNL     1     -11.108   9.559  67.993  1.00  0.00    -0.514 N  
HETATM   11  C   UNL     1     -11.022  10.133  69.239  1.00  0.00    -0.240 C  
HETATM   12  H   UNL     1     -11.859   9.838  67.361  1.00  0.00     0.000 HD 
HETATM   13  O   UNL     1     -10.149   9.862  70.055  1.00  0.00    -0.240 OA 
BRANCH  11  14
HETATM   14  C   UNL     1     -12.131  11.110  69.547  1.00  0.00    -0.396 C  
BRANCH  14  15
HETATM   15  C   UNL     1     -11.648  12.542  69.331  1.00  0.00    -0.368 C  
BRANCH  15  16
HETATM   16  C   UNL     1     -11.582  12.932  67.853  1.00  0.00    -0.391 C  
BRANCH  16  17
HETATM   17  C   UNL     1     -10.149  12.967  67.327  1.00  0.00    -0.235 C  
BRANCH  17  18
HETATM   18  C   UNL     1      -9.780  14.335  66.762  1.00  0.00    -0.282 C  
BRANCH  18  19
HETATM   19  C   UNL     1     -11.042  15.080  66.330  1.00  0.00    -0.329 C  
BRANCH  19  20
HETATM   20  C   UNL     1     -11.069  15.296  64.819  1.00  0.00    -0.407 C  
BRANCH  20  21
HETATM   21  C   UNL     1     -12.228  14.531  64.181  1.00  0.00    -0.372 C  
BRANCH  21  22
HETATM   22  C   UNL     1     -11.787  13.171  63.727  1.00  0.00    -0.546 C  
HETATM   23  C   UNL     1     -12.608  12.120  63.607  1.00  0.00    -0.616 C  
ENDBRANCH  21  22
ENDBRANCH  20  21
ENDBRANCH  19  20
ENDBRANCH  18  19
ENDBRANCH  17  18
ENDBRANCH  16  17
ENDBRANCH  15  16
ENDBRANCH  14  15
ENDBRANCH  11  14
ENDBRANCH   5  10
ENDBRANCH   3   5
ENDBRANCH   2   3
TORSDOF 13
ENDMDL
MODEL      236
REMARK 921   NORMALIZED FREE ENERGY PREDICTED BY IDOCK:   -2.85 KCAL/MOL
REMARK 922        TOTAL FREE ENERGY PREDICTED BY IDOCK:   -7.11 KCAL/MOL
REMARK 923 INTER-LIGAND FREE ENERGY PREDICTED BY IDOCK:   -6.04 KCAL/MOL
REMARK 924 INTRA-LIGAND FREE ENERGY PREDICTED BY IDOCK:   -1.07 KCAL/MOL
REMARK 927      BINDING AFFINITY PREDICTED BY RF-SCORE:    0.00 PKD
ROOT
HETATM    1  C   UNL     1      -6.292  12.909  68.648  1.00  0.00    -0.075 C  
HETATM    2  O   UNL     1      -7.573  13.397  68.251  1.00  0.00    -0.116 OA 
ENDROOT
BRANCH   2   3
HETATM    3  C   UNL     1      -7.558  14.526  67.488  1.00  0.00    -0.190 C  
HETATM    4  O   UNL     1      -6.570  15.213  67.254  1.00  0.00    -0.293 OA 
BRANCH   3   5
HETATM    5  C   UNL     1      -8.962  14.801  66.940  1.00  0.00    -0.253 C  
BRANCH   5   6
HETATM    6  C   UNL     1      -9.746  15.769  67.836  1.00  0.00    -0.216 C  
HETATM    7  C   UNL     1      -9.943  17.619  66.086  1.00  0.00    -0.281 C  
HETATM    8  C   UNL     1     -10.367  18.113  68.501  1.00  0.00    -0.352 C  
HETATM    9  C   UNL     1      -9.550  17.264  67.521  1.00  0.00    -0.259 C  
ENDBRANCH   5   6
BRANCH   5  10
HETATM   10  N   UNL     1      -9.684  13.533  66.829  1.00  0.00    -0.263 N  
HETATM   11  C   UNL     1     -10.475  13.263  65.738  1.00  0.00    -0.284 C  
HETATM   12  H   UNL     1      -9.599  12.839  67.573  1.00  0.00     0.000 HD 
HETATM   13  O   UNL     1     -10.626  14.036  64.799  1.00  0.00    -0.397 OA 
BRANCH  11  14
HETATM   14  C   UNL     1     -11.191  11.936  65.807  1.00  0.00    -0.365 C  
BRANCH  14  15
HETATM   15  C   UNL     1     -10.233  10.800  65.455  1.00  0.00    -0.330 C  
BRANCH  15  16
HETATM   16  C   UNL     1      -9.883   9.924  66.660  1.00  0.00    -0.265 C  
BRANCH  16  17
HETATM   17  C   UNL     1      -8.826   8.874  66.323  1.00  0.00    -0.187 C  
BRANCH  17  18
HETATM   18  C   UNL     1      -9.382   7.456  66.397  1.00  0.00    -0.206 C  
BRANCH  18  19
HETATM   19  C   UNL     1     -10.753   7.467  67.071  1.00  0.00    -0.389 C  
BRANCH  19  20
HETATM   20  C   UNL     1     -11.030   6.147  67.787  1.00  0.00    -0.400 C  
BRANCH  20  21
HETATM   21  C   UNL     1     -10.038   5.930  68.930  1.00  0.00    -0.231 C  
BRANCH  21  22
HETATM   22  C   UNL     1     -10.522   6.583  70.190  1.00  0.00    -0.259 C  
HETATM   23  C   UNL     1     -11.813   6.687  70.530  1.00  0.00    -0.430 C  
ENDBRANCH  21  22
ENDBRANCH  20  21
ENDBRANCH  19  20
ENDBRANCH  18  19
ENDBRANCH  17  18
ENDBRANCH  16  17
ENDBRANCH  15  16
ENDBRANCH  14  15
ENDBRANCH  11  14
ENDBRANCH   5  10
ENDBRANCH   3   5
ENDBRANCH   2   3
TORSDOF 13
ENDMDL
MODEL      237
REMARK 921   NORMALIZED FREE ENERGY PREDICTED BY IDOCK:   -2.84 KCAL/MOL
REMARK 922        TOTAL FREE ENERGY PREDICTED BY IDOCK:   -7.11 KCAL/MOL
REMARK 923 INTER-LIGAND FREE ENERGY PREDICTED BY IDOCK:   -5.80 KCAL/MOL
REMARK 924 INTRA-LIGAND FREE ENERGY PREDICTED BY IDOCK:   -1.32 KCAL/MOL
REMARK 927      BINDING AFFINITY PREDICTED BY RF-SCORE:    0.00 PKD
ROOT
HETATM    1  C   UNL     1      -9.325   5.275  66.905  1.00  0.00    -0.127 C  
HETATM    2  O   UNL     1      -9.577   5.425  68.300  1.00  0.00    -0.115 OA 
ENDROOT
BRANCH   2   3
HETATM    3  C   UNL     1     -10.549   6.324  68.627  1.00  0.00    -0.264 C  
HETATM    4  O   UNL     1     -11.419   6.736  67.870  1.00  0.00    -0.056 OA 
BRANCH   3   5
HETATM    5  C   UNL     1     -10.408   6.728  70.098  1.00  0.00    -0.202 C  
BRANCH   5   6
HETATM    6  C   UNL     1     -10.894   5.622  71.044  1.00  0.00    -0.289 C  
HETATM    7  C   UNL     1      -9.312   6.222  72.957  1.00  0.00    -0.140 C  
HETATM    8  C   UNL     1     -10.456   3.999  72.914  1.00  0.00    -0.247 C  
HETATM    9  C   UNL     1      -9.848   5.111  72.053  1.00  0.00    -0.221 C  
ENDBRANCH   5   6
BRANCH   5  10
HETATM   10  N   UNL     1     -11.176   7.951  70.330  1.00  0.00    -0.380 N  
HETATM   11  C   UNL     1     -10.549   9.130  70.654  1.00  0.00    -0.246 C  
HETATM   12  H   UNL     1     -12.193   7.929  70.248  1.00  0.00     0.000 HD 
HETATM   13  O   UNL     1      -9.334   9.247  70.764  1.00  0.00    -0.241 OA 
BRANCH  11  14
HETATM   14  C   UNL     1     -11.491  10.281  70.914  1.00  0.00    -0.425 C  
BRANCH  14  15
HETATM   15  C   UNL     1     -12.398  10.503  69.705  1.00  0.00    -0.200 C  
BRANCH  15  16
HETATM   16  C   UNL     1     -11.622  10.868  68.439  1.00  0.00    -0.346 C  
BRANCH  16  17
HETATM   17  C   UNL     1     -11.061  12.287  68.493  1.00  0.00    -0.290 C  
BRANCH  17  18
HETATM   18  C   UNL     1      -9.560  12.321  68.225  1.00  0.00    -0.212 C  
BRANCH  18  19
HETATM   19  C   UNL     1      -9.239  13.389  67.181  1.00  0.00    -0.240 C  
BRANCH  19  20
HETATM   20  C   UNL     1      -9.853  13.044  65.827  1.00  0.00    -0.217 C  
BRANCH  20  21
HETATM   21  C   UNL     1     -10.366  14.302  65.126  1.00  0.00    -0.440 C  
BRANCH  21  22
HETATM   22  C   UNL     1     -11.789  14.129  64.688  1.00  0.00    -0.443 C  
HETATM   23  C   UNL     1     -12.827  14.063  65.532  1.00  0.00    -0.453 C  
ENDBRANCH  21  22
ENDBRANCH  20  21
ENDBRANCH  19  20
ENDBRANCH  18  19
ENDBRANCH  17  18
ENDBRANCH  16  17
ENDBRANCH  15  16
ENDBRANCH  14  15
ENDBRANCH  11  14
ENDBRANCH   5  10
ENDBRANCH   3   5
ENDBRANCH   2   3
TORSDOF 13
ENDMDL
MODEL      238
REMARK 921   NORMALIZED FREE ENERGY PREDICTED BY IDOCK:   -2.84 KCAL/MOL
REMARK 922        TOTAL FREE ENERGY PREDICTED BY IDOCK:   -7.11 KCAL/MOL
REMARK 923 INTER-LIGAND FREE ENERGY PREDICTED BY IDOCK:   -6.66 KCAL/MOL
REMARK 924 INTRA-LIGAND FREE ENERGY PREDICTED BY IDOCK:   -0.45 KCAL/MOL
REMARK 927      BINDING AFFINITY PREDICTED BY RF-SCORE:    0.00 PKD
ROOT
HETATM    1  C   UNL     1      -7.508   7.541  73.012  1.00  0.00    -0.084 C  
HETATM    2  O   UNL     1      -8.451   8.609  72.954  1.00  0.00    -0.403 OA 
ENDROOT
BRANCH   2   3
HETATM    3  C   UNL     1      -9.761   8.237  73.013  1.00  0.00    -0.206 C  
HETATM    4  O   UNL     1     -10.270   7.565  73.903  1.00  0.00    -0.280 OA 
BRANCH   3   5
HETATM    5  C   UNL     1     -10.517   8.806  71.808  1.00  0.00    -0.346 C  
BRANCH   5   6
HETATM    6  C   UNL     1     -12.027   8.890  72.068  1.00  0.00    -0.439 C  
HETATM    7  C   UNL     1     -12.469   6.392  71.767  1.00  0.00    -0.199 C  
HETATM    8  C   UNL     1     -14.359   8.027  71.695  1.00  0.00    -0.581 C  
HETATM    9  C   UNL     1     -12.877   7.811  71.370  1.00  0.00    -0.328 C  
ENDBRANCH   5   6
BRANCH   5  10
HETATM   10  N   UNL     1     -10.261   7.957  70.644  1.00  0.00    -0.195 N  
HETATM   11  C   UNL     1      -9.455   8.389  69.617  1.00  0.00    -0.166 C  
HETATM   12  H   UNL     1     -10.687   7.032  70.593  1.00  0.00     0.000 HD 
HETATM   13  O   UNL     1      -8.899   9.481  69.602  1.00  0.00    -0.156 OA 
BRANCH  11  14
HETATM   14  C   UNL     1      -9.341   7.415  68.470  1.00  0.00    -0.141 C  
BRANCH  14  15
HETATM   15  C   UNL     1      -8.695   8.094  67.263  1.00  0.00    -0.125 C  
BRANCH  15  16
HETATM   16  C   UNL     1      -9.721   8.618  66.256  1.00  0.00    -0.322 C  
BRANCH  16  17
HETATM   17  C   UNL     1      -9.537  10.105  65.964  1.00  0.00    -0.265 C  
BRANCH  17  18
HETATM   18  C   UNL     1      -8.746  10.344  64.682  1.00  0.00    -0.198 C  
BRANCH  18  19
HETATM   19  C   UNL     1      -9.702  10.523  63.504  1.00  0.00    -0.374 C  
BRANCH  19  20
HETATM   20  C   UNL     1     -10.974  11.252  63.927  1.00  0.00    -0.382 C  
BRANCH  20  21
HETATM   21  C   UNL     1     -10.748  12.764  63.963  1.00  0.00    -0.457 C  
BRANCH  21  22
HETATM   22  C   UNL     1     -12.027  13.490  64.255  1.00  0.00    -0.479 C  
HETATM   23  C   UNL     1     -12.655  13.453  65.437  1.00  0.00    -0.528 C  
ENDBRANCH  21  22
ENDBRANCH  20  21
ENDBRANCH  19  20
ENDBRANCH  18  19
ENDBRANCH  17  18
ENDBRANCH  16  17
ENDBRANCH  15  16
ENDBRANCH  14  15
ENDBRANCH  11  14
ENDBRANCH   5  10
ENDBRANCH   3   5
ENDBRANCH   2   3
TORSDOF 13
ENDMDL
MODEL      239
REMARK 921   NORMALIZED FREE ENERGY PREDICTED BY IDOCK:   -2.84 KCAL/MOL
REMARK 922        TOTAL FREE ENERGY PREDICTED BY IDOCK:   -7.10 KCAL/MOL
REMARK 923 INTER-LIGAND FREE ENERGY PREDICTED BY IDOCK:   -5.95 KCAL/MOL
REMARK 924 INTRA-LIGAND FREE ENERGY PREDICTED BY IDOCK:   -1.15 KCAL/MOL
REMARK 927      BINDING AFFINITY PREDICTED BY RF-SCORE:    0.00 PKD
ROOT
HETATM    1  C   UNL     1     -12.595  13.842  71.034  1.00  0.00    -0.371 C  
HETATM    2  O   UNL     1     -11.484  14.140  70.191  1.00  0.00    -0.242 OA 
ENDROOT
BRANCH   2   3
HETATM    3  C   UNL     1     -11.202  15.465  70.042  1.00  0.00    -0.300 C  
HETATM    4  O   UNL     1     -11.447  16.342  70.862  1.00  0.00    -0.406 OA 
BRANCH   3   5
HETATM    5  C   UNL     1     -10.503  15.698  68.699  1.00  0.00    -0.231 C  
BRANCH   5   6
HETATM    6  C   UNL     1     -10.899  17.042  68.073  1.00  0.00    -0.330 C  
HETATM    7  C   UNL     1      -8.532  18.001  68.028  1.00  0.00    -0.263 C  
HETATM    8  C   UNL     1     -10.511  19.507  67.765  1.00  0.00    -0.574 C  
HETATM    9  C   UNL     1      -9.989  18.231  68.434  1.00  0.00    -0.401 C  
ENDBRANCH   5   6
BRANCH   5  10
HETATM   10  N   UNL     1     -10.848  14.606  67.788  1.00  0.00    -0.262 N  
HETATM   11  C   UNL     1     -10.029  14.278  66.734  1.00  0.00    -0.265 C  
HETATM   12  H   UNL     1     -11.710  14.081  67.937  1.00  0.00     0.000 HD 
HETATM   13  O   UNL     1      -8.974  14.851  66.488  1.00  0.00    -0.268 OA 
BRANCH  11  14
HETATM   14  C   UNL     1     -10.559  13.166  65.862  1.00  0.00    -0.290 C  
BRANCH  14  15
HETATM   15  C   UNL     1     -11.654  12.395  66.596  1.00  0.00    -0.447 C  
BRANCH  15  16
HETATM   16  C   UNL     1     -11.209  10.997  67.030  1.00  0.00    -0.255 C  
BRANCH  16  17
HETATM   17  C   UNL     1      -9.795  10.994  67.607  1.00  0.00    -0.192 C  
BRANCH  17  18
HETATM   18  C   UNL     1      -8.902   9.960  66.930  1.00  0.00    -0.146 C  
BRANCH  18  19
HETATM   19  C   UNL     1      -8.111  10.612  65.798  1.00  0.00    -0.158 C  
BRANCH  19  20
HETATM   20  C   UNL     1      -8.620  10.158  64.432  1.00  0.00    -0.199 C  
BRANCH  20  21
HETATM   21  C   UNL     1      -7.582   9.286  63.726  1.00  0.00    -0.112 C  
BRANCH  21  22
HETATM   22  C   UNL     1      -8.018   7.851  63.696  1.00  0.00    -0.118 C  
HETATM   23  C   UNL     1      -7.927   7.021  64.743  1.00  0.00    -0.122 C  
ENDBRANCH  21  22
ENDBRANCH  20  21
ENDBRANCH  19  20
ENDBRANCH  18  19
ENDBRANCH  17  18
ENDBRANCH  16  17
ENDBRANCH  15  16
ENDBRANCH  14  15
ENDBRANCH  11  14
ENDBRANCH   5  10
ENDBRANCH   3   5
ENDBRANCH   2   3
TORSDOF 13
ENDMDL
MODEL      240
REMARK 921   NORMALIZED FREE ENERGY PREDICTED BY IDOCK:   -2.83 KCAL/MOL
REMARK 922        TOTAL FREE ENERGY PREDICTED BY IDOCK:   -7.09 KCAL/MOL
REMARK 923 INTER-LIGAND FREE ENERGY PREDICTED BY IDOCK:   -6.85 KCAL/MOL
REMARK 924 INTRA-LIGAND FREE ENERGY PREDICTED BY IDOCK:   -0.24 KCAL/MOL
REMARK 927      BINDING AFFINITY PREDICTED BY RF-SCORE:    0.00 PKD
ROOT
HETATM    1  C   UNL     1     -10.111   4.301  73.326  1.00  0.00    -0.145 C  
HETATM    2  O   UNL     1     -10.873   5.507  73.346  1.00  0.00    -0.258 OA 
ENDROOT
BRANCH   2   3
HETATM    3  C   UNL     1     -10.183   6.629  73.697  1.00  0.00    -0.302 C  
HETATM    4  O   UNL     1      -9.249   6.671  74.489  1.00  0.00    -0.183 OA 
BRANCH   3   5
HETATM    5  C   UNL     1     -10.733   7.837  72.933  1.00  0.00    -0.385 C  
BRANCH   5   6
HETATM    6  C   UNL     1     -12.088   7.531  72.280  1.00  0.00    -0.269 C  
HETATM    7  C   UNL     1     -12.559   9.934  71.554  1.00  0.00    -0.513 C  
HETATM    8  C   UNL     1     -14.405   8.249  71.617  1.00  0.00    -0.561 C  
HETATM    9  C   UNL     1     -13.096   8.697  72.274  1.00  0.00    -0.415 C  
ENDBRANCH   5   6
BRANCH   5  10
HETATM   10  N   UNL     1      -9.767   8.231  71.908  1.00  0.00    -0.207 N  
HETATM   11  C   UNL     1      -9.679   7.547  70.718  1.00  0.00    -0.174 C  
HETATM   12  H   UNL     1      -9.149   9.025  72.078  1.00  0.00     0.000 HD 
HETATM   13  O   UNL     1     -10.387   6.589  70.430  1.00  0.00    -0.190 OA 
BRANCH  11  14
HETATM   14  C   UNL     1      -8.594   8.048  69.796  1.00  0.00    -0.131 C  
BRANCH  14  15
HETATM   15  C   UNL     1      -9.206   8.840  68.642  1.00  0.00    -0.141 C  
BRANCH  15  16
HETATM   16  C   UNL     1      -9.702  10.223  69.067  1.00  0.00    -0.213 C  
BRANCH  16  17
HETATM   17  C   UNL     1     -10.551  10.889  67.987  1.00  0.00    -0.239 C  
BRANCH  17  18
HETATM   18  C   UNL     1     -11.159  12.204  68.465  1.00  0.00    -0.295 C  
BRANCH  18  19
HETATM   19  C   UNL     1     -11.909  12.881  67.319  1.00  0.00    -0.416 C  
BRANCH  19  20
HETATM   20  C   UNL     1     -11.543  12.261  65.973  1.00  0.00    -0.451 C  
BRANCH  20  21
HETATM   21  C   UNL     1     -12.388  12.862  64.849  1.00  0.00    -0.532 C  
BRANCH  21  22
HETATM   22  C   UNL     1     -12.280  14.357  64.839  1.00  0.00    -0.440 C  
HETATM   23  C   UNL     1     -11.123  15.022  64.727  1.00  0.00    -0.388 C  
ENDBRANCH  21  22
ENDBRANCH  20  21
ENDBRANCH  19  20
ENDBRANCH  18  19
ENDBRANCH  17  18
ENDBRANCH  16  17
ENDBRANCH  15  16
ENDBRANCH  14  15
ENDBRANCH  11  14
ENDBRANCH   5  10
ENDBRANCH   3   5
ENDBRANCH   2   3
TORSDOF 13
ENDMDL
MODEL      241
REMARK 921   NORMALIZED FREE ENERGY PREDICTED BY IDOCK:   -2.82 KCAL/MOL
REMARK 922        TOTAL FREE ENERGY PREDICTED BY IDOCK:   -7.07 KCAL/MOL
REMARK 923 INTER-LIGAND FREE ENERGY PREDICTED BY IDOCK:   -6.80 KCAL/MOL
REMARK 924 INTRA-LIGAND FREE ENERGY PREDICTED BY IDOCK:   -0.27 KCAL/MOL
REMARK 927      BINDING AFFINITY PREDICTED BY RF-SCORE:    0.00 PKD
ROOT
HETATM    1  C   UNL     1     -10.402   9.152  68.973  1.00  0.00    -0.215 C  
HETATM    2  O   UNL     1     -10.282  10.519  68.582  1.00  0.00    -0.167 OA 
ENDROOT
BRANCH   2   3
HETATM    3  C   UNL     1     -11.433  11.247  68.640  1.00  0.00    -0.297 C  
HETATM    4  O   UNL     1     -12.418  10.968  69.314  1.00  0.00    -0.400 OA 
BRANCH   3   5
HETATM    5  C   UNL     1     -11.305  12.490  67.754  1.00  0.00    -0.296 C  
BRANCH   5   6
HETATM    6  C   UNL     1     -11.302  12.130  66.262  1.00  0.00    -0.411 C  
HETATM    7  C   UNL     1     -11.847  14.485  65.439  1.00  0.00    -0.344 C  
HETATM    8  C   UNL     1     -12.127  12.520  63.919  1.00  0.00    -0.581 C  
HETATM    9  C   UNL     1     -12.208  13.001  65.371  1.00  0.00    -0.520 C  
ENDBRANCH   5   6
BRANCH   5  10
HETATM   10  N   UNL     1     -10.069  13.193  68.097  1.00  0.00    -0.232 N  
HETATM   11  C   UNL     1      -8.957  13.102  67.293  1.00  0.00    -0.216 C  
HETATM   12  H   UNL     1     -10.031  13.759  68.945  1.00  0.00     0.000 HD 
HETATM   13  O   UNL     1      -8.919  12.451  66.255  1.00  0.00    -0.158 OA 
BRANCH  11  14
HETATM   14  C   UNL     1      -7.752  13.842  67.819  1.00  0.00    -0.172 C  
BRANCH  14  15
HETATM   15  C   UNL     1      -8.190  14.984  68.733  1.00  0.00    -0.168 C  
BRANCH  15  16
HETATM   16  C   UNL     1      -8.449  16.287  67.973  1.00  0.00    -0.174 C  
BRANCH  16  17
HETATM   17  C   UNL     1      -9.486  17.166  68.669  1.00  0.00    -0.275 C  
BRANCH  17  18
HETATM   18  C   UNL     1     -10.835  16.467  68.798  1.00  0.00    -0.342 C  
BRANCH  18  19
HETATM   19  C   UNL     1     -11.247  16.392  70.267  1.00  0.00    -0.259 C  
BRANCH  19  20
HETATM   20  C   UNL     1     -11.405  14.944  70.725  1.00  0.00    -0.266 C  
BRANCH  20  21
HETATM   21  C   UNL     1     -12.842  14.463  70.522  1.00  0.00    -0.353 C  
BRANCH  21  22
HETATM   22  C   UNL     1     -13.346  13.753  71.743  1.00  0.00    -0.463 C  
HETATM   23  C   UNL     1     -13.457  14.324  72.949  1.00  0.00    -0.491 C  
ENDBRANCH  21  22
ENDBRANCH  20  21
ENDBRANCH  19  20
ENDBRANCH  18  19
ENDBRANCH  17  18
ENDBRANCH  16  17
ENDBRANCH  15  16
ENDBRANCH  14  15
ENDBRANCH  11  14
ENDBRANCH   5  10
ENDBRANCH   3   5
ENDBRANCH   2   3
TORSDOF 13
ENDMDL
MODEL      242
REMARK 921   NORMALIZED FREE ENERGY PREDICTED BY IDOCK:   -2.82 KCAL/MOL
REMARK 922        TOTAL FREE ENERGY PREDICTED BY IDOCK:   -7.07 KCAL/MOL
REMARK 923 INTER-LIGAND FREE ENERGY PREDICTED BY IDOCK:   -5.27 KCAL/MOL
REMARK 924 INTRA-LIGAND FREE ENERGY PREDICTED BY IDOCK:   -1.80 KCAL/MOL
REMARK 927      BINDING AFFINITY PREDICTED BY RF-SCORE:    0.00 PKD
ROOT
HETATM    1  C   UNL     1      -9.246  10.086  63.055  1.00  0.00    -0.286 C  
HETATM    2  O   UNL     1      -9.550  11.422  63.452  1.00  0.00    -0.296 OA 
ENDROOT
BRANCH   2   3
HETATM    3  C   UNL     1     -10.089  11.555  64.697  1.00  0.00    -0.271 C  
HETATM    4  O   UNL     1     -11.182  12.048  64.949  1.00  0.00    -0.314 OA 
BRANCH   3   5
HETATM    5  C   UNL     1      -9.133  10.970  65.741  1.00  0.00    -0.202 C  
BRANCH   5   6
HETATM    6  C   UNL     1      -9.867  10.080  66.753  1.00  0.00    -0.251 C  
HETATM    7  C   UNL     1      -8.664   7.923  66.101  1.00  0.00    -0.181 C  
HETATM    8  C   UNL     1     -10.780   7.837  67.429  1.00  0.00    -0.300 C  
HETATM    9  C   UNL     1     -10.012   8.601  66.346  1.00  0.00    -0.331 C  
ENDBRANCH   5   6
BRANCH   5  10
HETATM   10  N   UNL     1      -8.465  12.068  66.440  1.00  0.00    -0.383 N  
HETATM   11  C   UNL     1      -7.121  12.012  66.724  1.00  0.00     0.044 C  
HETATM   12  H   UNL     1      -9.004  12.887  66.722  1.00  0.00     0.000 HD 
HETATM   13  O   UNL     1      -6.398  11.071  66.415  1.00  0.00    -0.119 OA 
BRANCH  11  14
HETATM   14  C   UNL     1      -6.602  13.200  67.497  1.00  0.00    -0.159 C  
BRANCH  14  15
HETATM   15  C   UNL     1      -7.741  13.871  68.261  1.00  0.00    -0.136 C  
BRANCH  15  16
HETATM   16  C   UNL     1      -7.291  15.118  69.025  1.00  0.00    -0.155 C  
BRANCH  16  17
HETATM   17  C   UNL     1      -7.055  16.309  68.100  1.00  0.00    -0.141 C  
BRANCH  17  18
HETATM   18  C   UNL     1      -7.402  17.634  68.772  1.00  0.00    -0.261 C  
BRANCH  18  19
HETATM   19  C   UNL     1      -8.908  17.878  68.701  1.00  0.00    -0.267 C  
BRANCH  19  20
HETATM   20  C   UNL     1      -9.492  17.364  67.388  1.00  0.00    -0.246 C  
BRANCH  20  21
HETATM   21  C   UNL     1     -10.617  16.361  67.648  1.00  0.00    -0.313 C  
BRANCH  21  22
HETATM   22  C   UNL     1     -10.602  15.263  66.628  1.00  0.00    -0.304 C  
HETATM   23  C   UNL     1     -10.036  15.372  65.419  1.00  0.00    -0.394 C  
ENDBRANCH  21  22
ENDBRANCH  20  21
ENDBRANCH  19  20
ENDBRANCH  18  19
ENDBRANCH  17  18
ENDBRANCH  16  17
ENDBRANCH  15  16
ENDBRANCH  14  15
ENDBRANCH  11  14
ENDBRANCH   5  10
ENDBRANCH   3   5
ENDBRANCH   2   3
TORSDOF 13
ENDMDL
MODEL      243
REMARK 921   NORMALIZED FREE ENERGY PREDICTED BY IDOCK:   -2.81 KCAL/MOL
REMARK 922        TOTAL FREE ENERGY PREDICTED BY IDOCK:   -7.06 KCAL/MOL
REMARK 923 INTER-LIGAND FREE ENERGY PREDICTED BY IDOCK:   -5.83 KCAL/MOL
REMARK 924 INTRA-LIGAND FREE ENERGY PREDICTED BY IDOCK:   -1.23 KCAL/MOL
REMARK 927      BINDING AFFINITY PREDICTED BY RF-SCORE:    0.00 PKD
ROOT
HETATM    1  C   UNL     1      -5.362  10.586  70.560  1.00  0.00    -0.069 C  
HETATM    2  O   UNL     1      -6.698  11.016  70.306  1.00  0.00    -0.230 OA 
ENDROOT
BRANCH   2   3
HETATM    3  C   UNL     1      -7.622  10.020  70.193  1.00  0.00    -0.155 C  
HETATM    4  O   UNL     1      -7.790   9.111  70.998  1.00  0.00    -0.162 OA 
BRANCH   3   5
HETATM    5  C   UNL     1      -8.444  10.217  68.916  1.00  0.00    -0.138 C  
BRANCH   5   6
HETATM    6  C   UNL     1      -8.242   9.065  67.922  1.00  0.00    -0.110 C  
HETATM    7  C   UNL     1     -10.592   9.181  66.929  1.00  0.00    -0.237 C  
HETATM    8  C   UNL     1      -9.169   7.156  66.573  1.00  0.00    -0.199 C  
HETATM    9  C   UNL     1      -9.518   8.286  67.547  1.00  0.00    -0.182 C  
ENDBRANCH   5   6
BRANCH   5  10
HETATM   10  N   UNL     1      -8.056  11.483  68.292  1.00  0.00    -0.141 N  
HETATM   11  C   UNL     1      -8.978  12.481  68.084  1.00  0.00    -0.199 C  
HETATM   12  H   UNL     1      -7.087  11.627  68.008  1.00  0.00     0.000 HD 
HETATM   13  O   UNL     1     -10.159  12.394  68.402  1.00  0.00    -0.219 OA 
BRANCH  11  14
HETATM   14  C   UNL     1      -8.425  13.697  67.382  1.00  0.00    -0.206 C  
BRANCH  14  15
HETATM   15  C   UNL     1      -9.512  14.358  66.537  1.00  0.00    -0.309 C  
BRANCH  15  16
HETATM   16  C   UNL     1      -9.234  15.837  66.263  1.00  0.00    -0.368 C  
BRANCH  16  17
HETATM   17  C   UNL     1      -9.760  16.741  67.375  1.00  0.00    -0.245 C  
BRANCH  17  18
HETATM   18  C   UNL     1     -11.057  16.210  67.979  1.00  0.00    -0.317 C  
BRANCH  18  19
HETATM   19  C   UNL     1     -10.975  16.241  69.504  1.00  0.00    -0.339 C  
BRANCH  19  20
HETATM   20  C   UNL     1     -11.836  15.147  70.128  1.00  0.00    -0.351 C  
BRANCH  20  21
HETATM   21  C   UNL     1     -12.659  15.699  71.293  1.00  0.00    -0.523 C  
BRANCH  21  22
HETATM   22  C   UNL     1     -12.724  14.710  72.418  1.00  0.00    -0.429 C  
HETATM   23  C   UNL     1     -13.549  13.655  72.440  1.00  0.00    -0.703 C  
ENDBRANCH  21  22
ENDBRANCH  20  21
ENDBRANCH  19  20
ENDBRANCH  18  19
ENDBRANCH  17  18
ENDBRANCH  16  17
ENDBRANCH  15  16
ENDBRANCH  14  15
ENDBRANCH  11  14
ENDBRANCH   5  10
ENDBRANCH   3   5
ENDBRANCH   2   3
TORSDOF 13
ENDMDL
MODEL      244
REMARK 921   NORMALIZED FREE ENERGY PREDICTED BY IDOCK:   -2.81 KCAL/MOL
REMARK 922        TOTAL FREE ENERGY PREDICTED BY IDOCK:   -7.05 KCAL/MOL
REMARK 923 INTER-LIGAND FREE ENERGY PREDICTED BY IDOCK:   -6.14 KCAL/MOL
REMARK 924 INTRA-LIGAND FREE ENERGY PREDICTED BY IDOCK:   -0.90 KCAL/MOL
REMARK 927      BINDING AFFINITY PREDICTED BY RF-SCORE:    0.00 PKD
ROOT
HETATM    1  C   UNL     1     -11.335   5.719  72.786  1.00  0.00    -0.282 C  
HETATM    2  O   UNL     1     -11.843   6.189  71.539  1.00  0.00    -0.276 OA 
ENDROOT
BRANCH   2   3
HETATM    3  C   UNL     1     -11.912   7.545  71.409  1.00  0.00    -0.309 C  
HETATM    4  O   UNL     1     -12.468   8.306  72.191  1.00  0.00    -0.329 OA 
BRANCH   3   5
HETATM    5  C   UNL     1     -11.163   7.984  70.147  1.00  0.00    -0.144 C  
BRANCH   5   6
HETATM    6  C   UNL     1      -9.704   7.509  70.153  1.00  0.00    -0.172 C  
HETATM    7  C   UNL     1      -9.138   8.484  72.445  1.00  0.00    -0.308 C  
HETATM    8  C   UNL     1      -7.314   7.806  70.876  1.00  0.00    -0.065 C  
HETATM    9  C   UNL     1      -8.732   8.377  70.975  1.00  0.00    -0.185 C  
ENDBRANCH   5   6
BRANCH   5  10
HETATM   10  N   UNL     1     -11.209   9.443  70.050  1.00  0.00    -0.344 N  
HETATM   11  C   UNL     1     -11.083  10.076  68.837  1.00  0.00    -0.176 C  
HETATM   12  H   UNL     1     -11.338   9.999  70.896  1.00  0.00     0.000 HD 
HETATM   13  O   UNL     1     -10.933   9.486  67.773  1.00  0.00    -0.244 OA 
BRANCH  11  14
HETATM   14  C   UNL     1     -11.097  11.583  68.922  1.00  0.00    -0.288 C  
BRANCH  14  15
HETATM   15  C   UNL     1     -10.661  12.191  67.590  1.00  0.00    -0.252 C  
BRANCH  15  16
HETATM   16  C   UNL     1     -11.834  12.732  66.771  1.00  0.00    -0.452 C  
BRANCH  16  17
HETATM   17  C   UNL     1     -11.403  13.200  65.383  1.00  0.00    -0.323 C  
BRANCH  17  18
HETATM   18  C   UNL     1     -10.234  14.177  65.445  1.00  0.00    -0.380 C  
BRANCH  18  19
HETATM   19  C   UNL     1     -10.699  15.513  66.022  1.00  0.00    -0.331 C  
BRANCH  19  20
HETATM   20  C   UNL     1      -9.874  15.907  67.244  1.00  0.00    -0.234 C  
BRANCH  20  21
HETATM   21  C   UNL     1     -10.738  16.638  68.272  1.00  0.00    -0.351 C  
BRANCH  21  22
HETATM   22  C   UNL     1     -11.629  15.678  69.001  1.00  0.00    -0.396 C  
HETATM   23  C   UNL     1     -11.287  15.054  70.136  1.00  0.00    -0.303 C  
ENDBRANCH  21  22
ENDBRANCH  20  21
ENDBRANCH  19  20
ENDBRANCH  18  19
ENDBRANCH  17  18
ENDBRANCH  16  17
ENDBRANCH  15  16
ENDBRANCH  14  15
ENDBRANCH  11  14
ENDBRANCH   5  10
ENDBRANCH   3   5
ENDBRANCH   2   3
TORSDOF 13
ENDMDL
MODEL      245
REMARK 921   NORMALIZED FREE ENERGY PREDICTED BY IDOCK:   -2.79 KCAL/MOL
REMARK 922        TOTAL FREE ENERGY PREDICTED BY IDOCK:   -7.03 KCAL/MOL
REMARK 923 INTER-LIGAND FREE ENERGY PREDICTED BY IDOCK:   -5.70 KCAL/MOL
REMARK 924 INTRA-LIGAND FREE ENERGY PREDICTED BY IDOCK:   -1.32 KCAL/MOL
REMARK 927      BINDING AFFINITY PREDICTED BY RF-SCORE:    0.00 PKD
ROOT
HETATM    1  C   UNL     1     -10.145   4.871  66.656  1.00  0.00    -0.249 C  
HETATM    2  O   UNL     1      -9.387   5.751  67.484  1.00  0.00    -0.112 OA 
ENDROOT
BRANCH   2   3
HETATM    3  C   UNL     1      -8.568   6.617  66.823  1.00  0.00    -0.118 C  
HETATM    4  O   UNL     1      -8.123   6.453  65.693  1.00  0.00    -0.116 OA 
BRANCH   3   5
HETATM    5  C   UNL     1      -8.303   7.848  67.695  1.00  0.00    -0.124 C  
BRANCH   5   6
HETATM    6  C   UNL     1      -9.088   7.796  69.012  1.00  0.00    -0.144 C  
HETATM    7  C   UNL     1      -8.047   9.907  70.004  1.00  0.00    -0.193 C  
HETATM    8  C   UNL     1      -9.265   8.289  71.471  1.00  0.00    -0.231 C  
HETATM    9  C   UNL     1      -8.384   8.432  70.226  1.00  0.00    -0.124 C  
ENDBRANCH   5   6
BRANCH   5  10
HETATM   10  N   UNL     1      -8.671   9.049  66.945  1.00  0.00    -0.122 N  
HETATM   11  C   UNL     1      -9.978   9.292  66.598  1.00  0.00    -0.264 C  
HETATM   12  H   UNL     1      -7.947   9.716  66.677  1.00  0.00     0.000 HD 
HETATM   13  O   UNL     1     -10.910   8.549  66.886  1.00  0.00    -0.190 OA 
BRANCH  11  14
HETATM   14  C   UNL     1     -10.178  10.545  65.780  1.00  0.00    -0.310 C  
BRANCH  14  15
HETATM   15  C   UNL     1     -10.211  11.771  66.691  1.00  0.00    -0.240 C  
BRANCH  15  16
HETATM   16  C   UNL     1     -11.487  11.853  67.531  1.00  0.00    -0.396 C  
BRANCH  16  17
HETATM   17  C   UNL     1     -11.196  11.843  69.029  1.00  0.00    -0.316 C  
BRANCH  17  18
HETATM   18  C   UNL     1     -11.719  10.581  69.707  1.00  0.00    -0.354 C  
BRANCH  18  19
HETATM   19  C   UNL     1     -12.491  10.948  70.973  1.00  0.00    -0.514 C  
BRANCH  19  20
HETATM   20  C   UNL     1     -12.546   9.776  71.949  1.00  0.00    -0.479 C  
BRANCH  20  21
HETATM   21  C   UNL     1     -13.833   8.972  71.763  1.00  0.00    -0.453 C  
BRANCH  21  22
HETATM   22  C   UNL     1     -13.535   7.593  71.256  1.00  0.00    -0.283 C  
HETATM   23  C   UNL     1     -12.596   6.792  71.775  1.00  0.00    -0.370 C  
ENDBRANCH  21  22
ENDBRANCH  20  21
ENDBRANCH  19  20
ENDBRANCH  18  19
ENDBRANCH  17  18
ENDBRANCH  16  17
ENDBRANCH  15  16
ENDBRANCH  14  15
ENDBRANCH  11  14
ENDBRANCH   5  10
ENDBRANCH   3   5
ENDBRANCH   2   3
TORSDOF 13
ENDMDL
MODEL      246
REMARK 921   NORMALIZED FREE ENERGY PREDICTED BY IDOCK:   -2.79 KCAL/MOL
REMARK 922        TOTAL FREE ENERGY PREDICTED BY IDOCK:   -7.02 KCAL/MOL
REMARK 923 INTER-LIGAND FREE ENERGY PREDICTED BY IDOCK:   -5.70 KCAL/MOL
REMARK 924 INTRA-LIGAND FREE ENERGY PREDICTED BY IDOCK:   -1.32 KCAL/MOL
REMARK 927      BINDING AFFINITY PREDICTED BY RF-SCORE:    0.00 PKD
ROOT
HETATM    1  C   UNL     1      -6.148   8.190  72.819  1.00  0.00    -0.067 C  
HETATM    2  O   UNL     1      -7.227   7.673  72.042  1.00  0.00    -0.065 OA 
ENDROOT
BRANCH   2   3
HETATM    3  C   UNL     1      -8.467   8.114  72.398  1.00  0.00    -0.179 C  
HETATM    4  O   UNL     1      -8.772   8.572  73.493  1.00  0.00    -0.314 OA 
BRANCH   3   5
HETATM    5  C   UNL     1      -9.426   7.976  71.212  1.00  0.00    -0.157 C  
BRANCH   5   6
HETATM    6  C   UNL     1      -9.036   6.810  70.294  1.00  0.00    -0.152 C  
HETATM    7  C   UNL     1     -11.394   6.398  69.401  1.00  0.00    -0.443 C  
HETATM    8  C   UNL     1      -9.618   4.660  69.125  1.00  0.00    -0.245 C  
HETATM    9  C   UNL     1     -10.148   5.775  70.032  1.00  0.00    -0.279 C  
ENDBRANCH   5   6
BRANCH   5  10
HETATM   10  N   UNL     1      -9.425   9.226  70.452  1.00  0.00    -0.227 N  
HETATM   11  C   UNL     1     -10.595   9.902  70.200  1.00  0.00    -0.297 C  
HETATM   12  H   UNL     1      -8.543   9.602  70.105  1.00  0.00     0.000 HD 
HETATM   13  O   UNL     1     -11.696   9.525  70.587  1.00  0.00    -0.270 OA 
BRANCH  11  14
HETATM   14  C   UNL     1     -10.424  11.142  69.358  1.00  0.00    -0.132 C  
BRANCH  14  15
HETATM   15  C   UNL     1     -10.724  10.832  67.893  1.00  0.00    -0.282 C  
BRANCH  15  16
HETATM   16  C   UNL     1     -10.512  12.037  66.974  1.00  0.00    -0.248 C  
BRANCH  16  17
HETATM   17  C   UNL     1     -11.831  12.677  66.547  1.00  0.00    -0.463 C  
BRANCH  17  18
HETATM   18  C   UNL     1     -11.837  14.185  66.776  1.00  0.00    -0.449 C  
BRANCH  18  19
HETATM   19  C   UNL     1     -10.744  14.567  67.773  1.00  0.00    -0.256 C  
BRANCH  19  20
HETATM   20  C   UNL     1     -11.062  15.889  68.465  1.00  0.00    -0.340 C  
BRANCH  20  21
HETATM   21  C   UNL     1     -12.288  15.750  69.369  1.00  0.00    -0.034 C  
BRANCH  21  22
HETATM   22  C   UNL     1     -12.049  14.731  70.442  1.00  0.00    -0.381 C  
HETATM   23  C   UNL     1     -13.024  14.155  71.157  1.00  0.00    -0.419 C  
ENDBRANCH  21  22
ENDBRANCH  20  21
ENDBRANCH  19  20
ENDBRANCH  18  19
ENDBRANCH  17  18
ENDBRANCH  16  17
ENDBRANCH  15  16
ENDBRANCH  14  15
ENDBRANCH  11  14
ENDBRANCH   5  10
ENDBRANCH   3   5
ENDBRANCH   2   3
TORSDOF 13
ENDMDL
MODEL      247
REMARK 921   NORMALIZED FREE ENERGY PREDICTED BY IDOCK:   -2.79 KCAL/MOL
REMARK 922        TOTAL FREE ENERGY PREDICTED BY IDOCK:   -7.01 KCAL/MOL
REMARK 923 INTER-LIGAND FREE ENERGY PREDICTED BY IDOCK:   -7.12 KCAL/MOL
REMARK 924 INTRA-LIGAND FREE ENERGY PREDICTED BY IDOCK:    0.11 KCAL/MOL
REMARK 927      BINDING AFFINITY PREDICTED BY RF-SCORE:    0.00 PKD
ROOT
HETATM    1  C   UNL     1      -5.770  20.896  67.273  1.00  0.00    -0.234 C  
HETATM    2  O   UNL     1      -6.128  19.572  66.884  1.00  0.00    -0.177 OA 
ENDROOT
BRANCH   2   3
HETATM    3  C   UNL     1      -6.776  19.468  65.689  1.00  0.00    -0.275 C  
HETATM    4  O   UNL     1      -6.267  19.634  64.587  1.00  0.00    -0.265 OA 
BRANCH   3   5
HETATM    5  C   UNL     1      -8.240  19.084  65.925  1.00  0.00     0.009 C  
BRANCH   5   6
HETATM    6  C   UNL     1      -8.932  20.044  66.902  1.00  0.00    -0.449 C  
HETATM    7  C   UNL     1      -8.352  18.714  69.005  1.00  0.00    -0.119 C  
HETATM    8  C   UNL     1     -10.142  20.459  69.067  1.00  0.00     0.010 C  
HETATM    9  C   UNL     1      -9.457  19.398  68.199  1.00  0.00    -0.418 C  
ENDBRANCH   5   6
BRANCH   5  10
HETATM   10  N   UNL     1      -8.295  17.719  66.448  1.00  0.00    -0.260 N  
HETATM   11  C   UNL     1      -9.329  16.876  66.118  1.00  0.00    -0.236 C  
HETATM   12  H   UNL     1      -7.555  17.388  67.067  1.00  0.00     0.000 HD 
HETATM   13  O   UNL     1     -10.253  17.189  65.376  1.00  0.00    -0.605 OA 
BRANCH  11  14
HETATM   14  C   UNL     1      -9.262  15.524  66.786  1.00  0.00    -0.272 C  
BRANCH  14  15
HETATM   15  C   UNL     1     -10.493  15.307  67.663  1.00  0.00    -0.263 C  
BRANCH  15  16
HETATM   16  C   UNL     1     -10.515  13.928  68.326  1.00  0.00    -0.252 C  
BRANCH  16  17
HETATM   17  C   UNL     1     -11.868  13.612  68.960  1.00  0.00    -0.393 C  
BRANCH  17  18
HETATM   18  C   UNL     1     -11.904  13.970  70.442  1.00  0.00    -0.356 C  
BRANCH  18  19
HETATM   19  C   UNL     1     -13.276  13.640  71.026  1.00  0.00    -0.190 C  
BRANCH  19  20
HETATM   20  C   UNL     1     -13.729  14.708  72.018  1.00  0.00    -0.527 C  
BRANCH  20  21
HETATM   21  C   UNL     1     -12.766  15.896  72.016  1.00  0.00    -0.495 C  
BRANCH  21  22
HETATM   22  C   UNL     1     -12.271  16.187  73.401  1.00  0.00    -0.635 C  
HETATM   23  C   UNL     1     -12.467  15.377  74.450  1.00  0.00    -0.717 C  
ENDBRANCH  21  22
ENDBRANCH  20  21
ENDBRANCH  19  20
ENDBRANCH  18  19
ENDBRANCH  17  18
ENDBRANCH  16  17
ENDBRANCH  15  16
ENDBRANCH  14  15
ENDBRANCH  11  14
ENDBRANCH   5  10
ENDBRANCH   3   5
ENDBRANCH   2   3
TORSDOF 13
ENDMDL
MODEL      248
REMARK 921   NORMALIZED FREE ENERGY PREDICTED BY IDOCK:   -2.78 KCAL/MOL
REMARK 922        TOTAL FREE ENERGY PREDICTED BY IDOCK:   -7.00 KCAL/MOL
REMARK 923 INTER-LIGAND FREE ENERGY PREDICTED BY IDOCK:   -5.92 KCAL/MOL
REMARK 924 INTRA-LIGAND FREE ENERGY PREDICTED BY IDOCK:   -1.08 KCAL/MOL
REMARK 927      BINDING AFFINITY PREDICTED BY RF-SCORE:    0.00 PKD
ROOT
HETATM    1  C   UNL     1      -6.147  19.436  67.388  1.00  0.00    -0.190 C  
HETATM    2  O   UNL     1      -6.582  18.105  67.118  1.00  0.00    -0.177 OA 
ENDROOT
BRANCH   2   3
HETATM    3  C   UNL     1      -7.845  17.992  66.618  1.00  0.00    -0.243 C  
HETATM    4  O   UNL     1      -8.441  18.860  65.991  1.00  0.00    -0.468 OA 
BRANCH   3   5
HETATM    5  C   UNL     1      -8.405  16.601  66.932  1.00  0.00    -0.210 C  
BRANCH   5   6
HETATM    6  C   UNL     1      -7.289  15.575  67.169  1.00  0.00    -0.226 C  
HETATM    7  C   UNL     1      -8.716  13.973  68.554  1.00  0.00    -0.156 C  
HETATM    8  C   UNL     1      -6.223  13.797  68.590  1.00  0.00    -0.089 C  
HETATM    9  C   UNL     1      -7.408  14.760  68.471  1.00  0.00    -0.118 C  
ENDBRANCH   5   6
BRANCH   5  10
HETATM   10  N   UNL     1      -9.250  16.167  65.820  1.00  0.00    -0.243 N  
HETATM   11  C   UNL     1     -10.568  15.832  66.021  1.00  0.00    -0.326 C  
HETATM   12  H   UNL     1      -8.856  16.113  64.880  1.00  0.00     0.000 HD 
HETATM   13  O   UNL     1     -11.123  15.876  67.113  1.00  0.00    -0.270 OA 
BRANCH  11  14
HETATM   14  C   UNL     1     -11.281  15.353  64.780  1.00  0.00    -0.404 C  
BRANCH  14  15
HETATM   15  C   UNL     1     -11.675  13.885  64.930  1.00  0.00    -0.378 C  
BRANCH  15  16
HETATM   16  C   UNL     1     -12.260  13.293  63.646  1.00  0.00    -0.522 C  
BRANCH  16  17
HETATM   17  C   UNL     1     -12.052  11.783  63.560  1.00  0.00    -0.485 C  
BRANCH  17  18
HETATM   18  C   UNL     1     -10.733  11.348  64.191  1.00  0.00    -0.434 C  
BRANCH  18  19
HETATM   19  C   UNL     1      -9.743  10.938  63.102  1.00  0.00    -0.396 C  
BRANCH  19  20
HETATM   20  C   UNL     1      -9.025   9.641  63.464  1.00  0.00    -0.247 C  
BRANCH  20  21
HETATM   21  C   UNL     1      -7.573   9.913  63.857  1.00  0.00    -0.141 C  
BRANCH  21  22
HETATM   22  C   UNL     1      -7.244   9.273  65.172  1.00  0.00    -0.094 C  
HETATM   23  C   UNL     1      -7.973   8.300  65.733  1.00  0.00    -0.099 C  
ENDBRANCH  21  22
ENDBRANCH  20  21
ENDBRANCH  19  20
ENDBRANCH  18  19
ENDBRANCH  17  18
ENDBRANCH  16  17
ENDBRANCH  15  16
ENDBRANCH  14  15
ENDBRANCH  11  14
ENDBRANCH   5  10
ENDBRANCH   3   5
ENDBRANCH   2   3
TORSDOF 13
ENDMDL
MODEL      249
REMARK 921   NORMALIZED FREE ENERGY PREDICTED BY IDOCK:   -2.78 KCAL/MOL
REMARK 922        TOTAL FREE ENERGY PREDICTED BY IDOCK:   -7.00 KCAL/MOL
REMARK 923 INTER-LIGAND FREE ENERGY PREDICTED BY IDOCK:   -5.65 KCAL/MOL
REMARK 924 INTRA-LIGAND FREE ENERGY PREDICTED BY IDOCK:   -1.34 KCAL/MOL
REMARK 927      BINDING AFFINITY PREDICTED BY RF-SCORE:    0.00 PKD
ROOT
HETATM    1  C   UNL     1     -12.478  13.930  65.953  1.00  0.00    -0.481 C  
HETATM    2  O   UNL     1     -11.211  14.578  65.857  1.00  0.00    -0.321 OA 
ENDROOT
BRANCH   2   3
HETATM    3  C   UNL     1     -10.773  15.179  66.999  1.00  0.00    -0.307 C  
HETATM    4  O   UNL     1     -11.486  15.716  67.839  1.00  0.00    -0.329 OA 
BRANCH   3   5
HETATM    5  C   UNL     1      -9.248  15.063  67.094  1.00  0.00    -0.216 C  
BRANCH   5   6
HETATM    6  C   UNL     1      -8.540  16.165  66.296  1.00  0.00    -0.373 C  
HETATM    7  C   UNL     1      -6.422  16.182  67.723  1.00  0.00    -0.168 C  
HETATM    8  C   UNL     1      -6.925  18.090  66.188  1.00  0.00    -0.324 C  
HETATM    9  C   UNL     1      -7.537  17.019  67.096  1.00  0.00    -0.205 C  
ENDBRANCH   5   6
BRANCH   5  10
HETATM   10  N   UNL     1      -8.840  13.750  66.595  1.00  0.00    -0.438 N  
HETATM   11  C   UNL     1      -8.206  12.847  67.415  1.00  0.00    -0.187 C  
HETATM   12  H   UNL     1      -9.030  13.500  65.624  1.00  0.00     0.000 HD 
HETATM   13  O   UNL     1      -7.948  13.062  68.594  1.00  0.00    -0.116 OA 
BRANCH  11  14
HETATM   14  C   UNL     1      -7.805  11.564  66.729  1.00  0.00    -0.146 C  
BRANCH  14  15
HETATM   15  C   UNL     1      -7.966  10.382  67.683  1.00  0.00    -0.106 C  
BRANCH  15  16
HETATM   16  C   UNL     1      -8.074   9.041  66.955  1.00  0.00    -0.112 C  
BRANCH  16  17
HETATM   17  C   UNL     1      -7.601   7.874  67.819  1.00  0.00    -0.109 C  
BRANCH  17  18
HETATM   18  C   UNL     1      -7.991   8.050  69.283  1.00  0.00    -0.116 C  
BRANCH  18  19
HETATM   19  C   UNL     1      -8.841   6.866  69.743  1.00  0.00    -0.141 C  
BRANCH  19  20
HETATM   20  C   UNL     1     -10.325   7.220  69.755  1.00  0.00    -0.227 C  
BRANCH  20  21
HETATM   21  C   UNL     1     -11.136   6.192  68.965  1.00  0.00    -0.437 C  
BRANCH  21  22
HETATM   22  C   UNL     1     -11.019   6.436  67.490  1.00  0.00    -0.454 C  
HETATM   23  C   UNL     1     -10.418   5.595  66.639  1.00  0.00    -0.340 C  
ENDBRANCH  21  22
ENDBRANCH  20  21
ENDBRANCH  19  20
ENDBRANCH  18  19
ENDBRANCH  17  18
ENDBRANCH  16  17
ENDBRANCH  15  16
ENDBRANCH  14  15
ENDBRANCH  11  14
ENDBRANCH   5  10
ENDBRANCH   3   5
ENDBRANCH   2   3
TORSDOF 13
ENDMDL
MODEL      250
REMARK 921   NORMALIZED FREE ENERGY PREDICTED BY IDOCK:   -2.78 KCAL/MOL
REMARK 922        TOTAL FREE ENERGY PREDICTED BY IDOCK:   -6.99 KCAL/MOL
REMARK 923 INTER-LIGAND FREE ENERGY PREDICTED BY IDOCK:   -6.07 KCAL/MOL
REMARK 924 INTRA-LIGAND FREE ENERGY PREDICTED BY IDOCK:   -0.93 KCAL/MOL
REMARK 927      BINDING AFFINITY PREDICTED BY RF-SCORE:    0.00 PKD
ROOT
HETATM    1  C   UNL     1      -6.413  12.018  69.193  1.00  0.00    -0.099 C  
HETATM    2  O   UNL     1      -7.677  12.052  68.533  1.00  0.00    -0.125 OA 
ENDROOT
BRANCH   2   3
HETATM    3  C   UNL     1      -7.911  13.158  67.772  1.00  0.00    -0.162 C  
HETATM    4  O   UNL     1      -7.053  13.832  67.214  1.00  0.00    -0.132 OA 
BRANCH   3   5
HETATM    5  C   UNL     1      -9.418  13.423  67.692  1.00  0.00    -0.216 C  
BRANCH   5   6
HETATM    6  C   UNL     1      -9.757  14.888  68.002  1.00  0.00    -0.212 C  
HETATM    7  C   UNL     1     -10.983  15.326  65.804  1.00  0.00    -0.340 C  
HETATM    8  C   UNL     1     -10.215  17.235  67.225  1.00  0.00    -0.320 C  
HETATM    9  C   UNL     1      -9.901  15.805  66.772  1.00  0.00    -0.256 C  
ENDBRANCH   5   6
BRANCH   5  10
HETATM   10  N   UNL     1     -10.105  12.545  68.639  1.00  0.00    -0.378 N  
HETATM   11  C   UNL     1     -11.381  12.099  68.391  1.00  0.00    -0.286 C  
HETATM   12  H   UNL     1      -9.630  12.258  69.495  1.00  0.00     0.000 HD 
HETATM   13  O   UNL     1     -12.021  12.387  67.385  1.00  0.00    -0.498 OA 
BRANCH  11  14
HETATM   14  C   UNL     1     -11.964  11.247  69.492  1.00  0.00    -0.421 C  
BRANCH  14  15
HETATM   15  C   UNL     1     -11.016  10.096  69.827  1.00  0.00    -0.325 C  
BRANCH  15  16
HETATM   16  C   UNL     1     -11.390   9.377  71.124  1.00  0.00    -0.422 C  
BRANCH  16  17
HETATM   17  C   UNL     1     -10.162   8.882  71.885  1.00  0.00    -0.403 C  
BRANCH  17  18
HETATM   18  C   UNL     1     -10.147   7.363  72.024  1.00  0.00    -0.212 C  
BRANCH  18  19
HETATM   19  C   UNL     1     -11.403   6.892  72.755  1.00  0.00    -0.237 C  
BRANCH  19  20
HETATM   20  C   UNL     1     -11.528   5.371  72.719  1.00  0.00    -0.333 C  
BRANCH  20  21
HETATM   21  C   UNL     1     -10.440   4.715  73.570  1.00  0.00    -0.275 C  
BRANCH  21  22
HETATM   22  C   UNL     1      -9.548   3.854  72.727  1.00  0.00    -0.176 C  
HETATM   23  C   UNL     1      -9.718   3.662  71.413  1.00  0.00    -0.241 C  
ENDBRANCH  21  22
ENDBRANCH  20  21
ENDBRANCH  19  20
ENDBRANCH  18  19
ENDBRANCH  17  18
ENDBRANCH  16  17
ENDBRANCH  15  16
ENDBRANCH  14  15
ENDBRANCH  11  14
ENDBRANCH   5  10
ENDBRANCH   3   5
ENDBRANCH   2   3
TORSDOF 13
ENDMDL
MODEL      251
REMARK 921   NORMALIZED FREE ENERGY PREDICTED BY IDOCK:   -2.77 KCAL/MOL
REMARK 922        TOTAL FREE ENERGY PREDICTED BY IDOCK:   -6.99 KCAL/MOL
REMARK 923 INTER-LIGAND FREE ENERGY PREDICTED BY IDOCK:   -5.26 KCAL/MOL
REMARK 924 INTRA-LIGAND FREE ENERGY PREDICTED BY IDOCK:   -1.73 KCAL/MOL
REMARK 927      BINDING AFFINITY PREDICTED BY RF-SCORE:    0.00 PKD
ROOT
HETATM    1  C   UNL     1     -10.086   8.569  72.503  1.00  0.00    -0.249 C  
HETATM    2  O   UNL     1     -11.393   8.594  71.932  1.00  0.00    -0.301 OA 
ENDROOT
BRANCH   2   3
HETATM    3  C   UNL     1     -11.675   9.684  71.164  1.00  0.00    -0.372 C  
HETATM    4  O   UNL     1     -12.422  10.603  71.480  1.00  0.00    -0.377 OA 
BRANCH   3   5
HETATM    5  C   UNL     1     -10.897   9.606  69.847  1.00  0.00    -0.256 C  
BRANCH   5   6
HETATM    6  C   UNL     1     -11.159  10.826  68.955  1.00  0.00    -0.307 C  
HETATM    7  C   UNL     1      -9.125  10.472  67.450  1.00  0.00    -0.147 C  
HETATM    8  C   UNL     1     -10.308  12.675  67.477  1.00  0.00    -0.220 C  
HETATM    9  C   UNL     1      -9.906  11.459  68.318  1.00  0.00    -0.202 C  
ENDBRANCH   5   6
BRANCH   5  10
HETATM   10  N   UNL     1     -11.280   8.384  69.141  1.00  0.00    -0.359 N  
HETATM   11  C   UNL     1     -10.385   7.356  68.968  1.00  0.00    -0.210 C  
HETATM   12  H   UNL     1     -12.227   8.293  68.771  1.00  0.00     0.000 HD 
HETATM   13  O   UNL     1      -9.232   7.379  69.386  1.00  0.00    -0.146 OA 
BRANCH  11  14
HETATM   14  C   UNL     1     -10.924   6.193  68.171  1.00  0.00    -0.398 C  
BRANCH  14  15
HETATM   15  C   UNL     1     -10.357   6.216  66.753  1.00  0.00    -0.292 C  
BRANCH  15  16
HETATM   16  C   UNL     1     -10.106   4.816  66.190  1.00  0.00    -0.288 C  
BRANCH  16  17
HETATM   17  C   UNL     1      -9.616   3.842  67.259  1.00  0.00    -0.222 C  
BRANCH  17  18
HETATM   18  C   UNL     1      -8.195   4.159  67.715  1.00  0.00    -0.094 C  
BRANCH  18  19
HETATM   19  C   UNL     1      -8.047   3.864  69.207  1.00  0.00    -0.062 C  
BRANCH  19  20
HETATM   20  C   UNL     1      -8.808   2.601  69.601  1.00  0.00    -0.146 C  
BRANCH  20  21
HETATM   21  C   UNL     1      -9.780   2.887  70.747  1.00  0.00    -0.121 C  
BRANCH  21  22
HETATM   22  C   UNL     1      -9.583   4.273  71.283  1.00  0.00    -0.242 C  
HETATM   23  C   UNL     1     -10.492   4.925  72.020  1.00  0.00    -0.245 C  
ENDBRANCH  21  22
ENDBRANCH  20  21
ENDBRANCH  19  20
ENDBRANCH  18  19
ENDBRANCH  17  18
ENDBRANCH  16  17
ENDBRANCH  15  16
ENDBRANCH  14  15
ENDBRANCH  11  14
ENDBRANCH   5  10
ENDBRANCH   3   5
ENDBRANCH   2   3
TORSDOF 13
ENDMDL
MODEL      252
REMARK 921   NORMALIZED FREE ENERGY PREDICTED BY IDOCK:   -2.77 KCAL/MOL
REMARK 922        TOTAL FREE ENERGY PREDICTED BY IDOCK:   -6.98 KCAL/MOL
REMARK 923 INTER-LIGAND FREE ENERGY PREDICTED BY IDOCK:   -6.07 KCAL/MOL
REMARK 924 INTRA-LIGAND FREE ENERGY PREDICTED BY IDOCK:   -0.91 KCAL/MOL
REMARK 927      BINDING AFFINITY PREDICTED BY RF-SCORE:    0.00 PKD
ROOT
HETATM    1  C   UNL     1     -10.352  19.663  66.084  1.00  0.00    -0.530 C  
HETATM    2  O   UNL     1     -10.951  18.909  67.136  1.00  0.00    -0.410 OA 
ENDROOT
BRANCH   2   3
HETATM    3  C   UNL     1     -10.244  18.866  68.301  1.00  0.00    -0.380 C  
HETATM    4  O   UNL     1     -10.117  19.795  69.090  1.00  0.00    -0.438 OA 
BRANCH   3   5
HETATM    5  C   UNL     1      -9.648  17.468  68.494  1.00  0.00    -0.305 C  
BRANCH   5   6
HETATM    6  C   UNL     1      -8.157  17.428  68.135  1.00  0.00    -0.232 C  
HETATM    7  C   UNL     1      -7.630  15.336  69.503  1.00  0.00    -0.219 C  
HETATM    8  C   UNL     1      -5.785  16.830  68.718  1.00  0.00    -0.136 C  
HETATM    9  C   UNL     1      -7.241  16.782  69.192  1.00  0.00    -0.214 C  
ENDBRANCH   5   6
BRANCH   5  10
HETATM   10  N   UNL     1     -10.384  16.519  67.659  1.00  0.00    -0.284 N  
HETATM   11  C   UNL     1     -11.311  15.664  68.208  1.00  0.00    -0.356 C  
HETATM   12  H   UNL     1     -10.208  16.491  66.655  1.00  0.00     0.000 HD 
HETATM   13  O   UNL     1     -11.589  15.638  69.402  1.00  0.00    -0.321 OA 
BRANCH  11  14
HETATM   14  C   UNL     1     -11.938  14.714  67.218  1.00  0.00    -0.312 C  
BRANCH  14  15
HETATM   15  C   UNL     1     -12.094  13.328  67.842  1.00  0.00    -0.270 C  
BRANCH  15  16
HETATM   16  C   UNL     1     -10.815  12.492  67.757  1.00  0.00    -0.254 C  
BRANCH  16  17
HETATM   17  C   UNL     1     -11.066  11.019  68.073  1.00  0.00    -0.343 C  
BRANCH  17  18
HETATM   18  C   UNL     1     -10.737  10.116  66.889  1.00  0.00    -0.231 C  
BRANCH  18  19
HETATM   19  C   UNL     1      -9.408   9.402  67.130  1.00  0.00    -0.172 C  
BRANCH  19  20
HETATM   20  C   UNL     1      -9.191   8.278  66.121  1.00  0.00    -0.250 C  
BRANCH  20  21
HETATM   21  C   UNL     1      -8.564   8.815  64.834  1.00  0.00    -0.177 C  
BRANCH  21  22
HETATM   22  C   UNL     1      -7.629   9.950  65.127  1.00  0.00    -0.132 C  
HETATM   23  C   UNL     1      -6.300   9.884  64.971  1.00  0.00    -0.104 C  
ENDBRANCH  21  22
ENDBRANCH  20  21
ENDBRANCH  19  20
ENDBRANCH  18  19
ENDBRANCH  17  18
ENDBRANCH  16  17
ENDBRANCH  15  16
ENDBRANCH  14  15
ENDBRANCH  11  14
ENDBRANCH   5  10
ENDBRANCH   3   5
ENDBRANCH   2   3
TORSDOF 13
ENDMDL
MODEL      253
REMARK 921   NORMALIZED FREE ENERGY PREDICTED BY IDOCK:   -2.77 KCAL/MOL
REMARK 922        TOTAL FREE ENERGY PREDICTED BY IDOCK:   -6.98 KCAL/MOL
REMARK 923 INTER-LIGAND FREE ENERGY PREDICTED BY IDOCK:   -6.69 KCAL/MOL
REMARK 924 INTRA-LIGAND FREE ENERGY PREDICTED BY IDOCK:   -0.28 KCAL/MOL
REMARK 927      BINDING AFFINITY PREDICTED BY RF-SCORE:    0.00 PKD
ROOT
HETATM    1  C   UNL     1      -8.076   9.345  70.585  1.00  0.00    -0.161 C  
HETATM    2  O   UNL     1      -9.305   8.622  70.614  1.00  0.00    -0.163 OA 
ENDROOT
BRANCH   2   3
HETATM    3  C   UNL     1     -10.003   8.700  71.783  1.00  0.00    -0.301 C  
HETATM    4  O   UNL     1      -9.681   8.170  72.840  1.00  0.00    -0.262 OA 
BRANCH   3   5
HETATM    5  C   UNL     1     -11.244   9.576  71.588  1.00  0.00    -0.308 C  
BRANCH   5   6
HETATM    6  C   UNL     1     -12.524   8.864  72.049  1.00  0.00    -0.461 C  
HETATM    7  C   UNL     1     -12.133   6.745  70.678  1.00  0.00    -0.371 C  
HETATM    8  C   UNL     1     -14.396   7.242  71.619  1.00  0.00    -0.583 C  
HETATM    9  C   UNL     1     -13.116   7.858  71.044  1.00  0.00    -0.005 C  
ENDBRANCH   5   6
BRANCH   5  10
HETATM   10  N   UNL     1     -11.357   9.932  70.174  1.00  0.00    -0.266 N  
HETATM   11  C   UNL     1     -11.786  11.180  69.790  1.00  0.00    -0.349 C  
HETATM   12  H   UNL     1     -11.113   9.244  69.461  1.00  0.00     0.000 HD 
HETATM   13  O   UNL     1     -12.091  12.068  70.579  1.00  0.00    -0.366 OA 
BRANCH  11  14
HETATM   14  C   UNL     1     -11.898  11.364  68.296  1.00  0.00    -0.320 C  
BRANCH  14  15
HETATM   15  C   UNL     1     -11.674  12.829  67.926  1.00  0.00    -0.408 C  
BRANCH  15  16
HETATM   16  C   UNL     1     -10.204  13.245  68.011  1.00  0.00    -0.240 C  
BRANCH  16  17
HETATM   17  C   UNL     1     -10.014  14.535  68.806  1.00  0.00    -0.232 C  
BRANCH  17  18
HETATM   18  C   UNL     1      -8.628  15.137  68.598  1.00  0.00    -0.172 C  
BRANCH  18  19
HETATM   19  C   UNL     1      -8.747  16.629  68.292  1.00  0.00    -0.216 C  
BRANCH  19  20
HETATM   20  C   UNL     1      -8.241  16.949  66.888  1.00  0.00    -0.245 C  
BRANCH  20  21
HETATM   21  C   UNL     1      -8.386  18.441  66.583  1.00  0.00    -0.280 C  
BRANCH  21  22
HETATM   22  C   UNL     1      -9.828  18.853  66.601  1.00  0.00    -0.396 C  
HETATM   23  C   UNL     1     -10.283  20.003  66.088  1.00  0.00    -0.589 C  
ENDBRANCH  21  22
ENDBRANCH  20  21
ENDBRANCH  19  20
ENDBRANCH  18  19
ENDBRANCH  17  18
ENDBRANCH  16  17
ENDBRANCH  15  16
ENDBRANCH  14  15
ENDBRANCH  11  14
ENDBRANCH   5  10
ENDBRANCH   3   5
ENDBRANCH   2   3
TORSDOF 13
ENDMDL
MODEL      254
REMARK 921   NORMALIZED FREE ENERGY PREDICTED BY IDOCK:   -2.77 KCAL/MOL
REMARK 922        TOTAL FREE ENERGY PREDICTED BY IDOCK:   -6.98 KCAL/MOL
REMARK 923 INTER-LIGAND FREE ENERGY PREDICTED BY IDOCK:   -5.30 KCAL/MOL
REMARK 924 INTRA-LIGAND FREE ENERGY PREDICTED BY IDOCK:   -1.68 KCAL/MOL
REMARK 927      BINDING AFFINITY PREDICTED BY RF-SCORE:    0.00 PKD
ROOT
HETATM    1  C   UNL     1      -9.556  18.859  68.669  1.00  0.00    -0.391 C  
HETATM    2  O   UNL     1     -10.470  17.794  68.921  1.00  0.00    -0.342 OA 
ENDROOT
BRANCH   2   3
HETATM    3  C   UNL     1     -10.405  16.748  68.048  1.00  0.00    -0.317 C  
HETATM    4  O   UNL     1     -10.490  16.833  66.829  1.00  0.00    -0.301 OA 
BRANCH   3   5
HETATM    5  C   UNL     1     -10.182  15.443  68.819  1.00  0.00    -0.217 C  
BRANCH   5   6
HETATM    6  C   UNL     1     -10.739  15.520  70.247  1.00  0.00    -0.352 C  
HETATM    7  C   UNL     1     -11.982  13.290  70.146  1.00  0.00    -0.388 C  
HETATM    8  C   UNL     1     -12.523  14.959  71.928  1.00  0.00    -0.403 C  
HETATM    9  C   UNL     1     -12.072  14.781  70.474  1.00  0.00    -0.378 C  
ENDBRANCH   5   6
BRANCH   5  10
HETATM   10  N   UNL     1      -8.748  15.156  68.862  1.00  0.00    -0.193 N  
HETATM   11  C   UNL     1      -8.179  14.260  67.989  1.00  0.00    -0.153 C  
HETATM   12  H   UNL     1      -8.161  15.629  69.550  1.00  0.00     0.000 HD 
HETATM   13  O   UNL     1      -8.808  13.656  67.128  1.00  0.00    -0.215 OA 
BRANCH  11  14
HETATM   14  C   UNL     1      -6.701  14.040  68.204  1.00  0.00    -0.125 C  
BRANCH  14  15
HETATM   15  C   UNL     1      -6.404  12.547  68.338  1.00  0.00    -0.064 C  
BRANCH  15  16
HETATM   16  C   UNL     1      -7.355  11.836  69.302  1.00  0.00     0.060 C  
BRANCH  16  17
HETATM   17  C   UNL     1      -7.427  10.334  69.039  1.00  0.00    -0.097 C  
BRANCH  17  18
HETATM   18  C   UNL     1      -8.194  10.012  67.761  1.00  0.00    -0.113 C  
BRANCH  18  19
HETATM   19  C   UNL     1      -9.684  10.282  67.962  1.00  0.00    -0.167 C  
BRANCH  19  20
HETATM   20  C   UNL     1     -10.354   9.148  68.733  1.00  0.00    -0.235 C  
BRANCH  20  21
HETATM   21  C   UNL     1     -11.080   9.683  69.968  1.00  0.00    -0.293 C  
BRANCH  21  22
HETATM   22  C   UNL     1     -10.377   9.268  71.225  1.00  0.00    -0.397 C  
HETATM   23  C   UNL     1      -9.473   8.282  71.285  1.00  0.00    -0.219 C  
ENDBRANCH  21  22
ENDBRANCH  20  21
ENDBRANCH  19  20
ENDBRANCH  18  19
ENDBRANCH  17  18
ENDBRANCH  16  17
ENDBRANCH  15  16
ENDBRANCH  14  15
ENDBRANCH  11  14
ENDBRANCH   5  10
ENDBRANCH   3   5
ENDBRANCH   2   3
TORSDOF 13
ENDMDL
MODEL      255
REMARK 921   NORMALIZED FREE ENERGY PREDICTED BY IDOCK:   -2.76 KCAL/MOL
REMARK 922        TOTAL FREE ENERGY PREDICTED BY IDOCK:   -6.97 KCAL/MOL
REMARK 923 INTER-LIGAND FREE ENERGY PREDICTED BY IDOCK:   -6.57 KCAL/MOL
REMARK 924 INTRA-LIGAND FREE ENERGY PREDICTED BY IDOCK:   -0.40 KCAL/MOL
REMARK 927      BINDING AFFINITY PREDICTED BY RF-SCORE:    0.00 PKD
ROOT
HETATM    1  C   UNL     1      -8.723  12.329  67.914  1.00  0.00    -0.177 C  
HETATM    2  O   UNL     1      -8.773  13.545  67.171  1.00  0.00    -0.210 OA 
ENDROOT
BRANCH   2   3
HETATM    3  C   UNL     1      -8.837  14.685  67.916  1.00  0.00    -0.170 C  
HETATM    4  O   UNL     1      -8.443  14.802  69.071  1.00  0.00    -0.173 OA 
BRANCH   3   5
HETATM    5  C   UNL     1      -9.455  15.814  67.085  1.00  0.00    -0.213 C  
BRANCH   5   6
HETATM    6  C   UNL     1      -9.970  16.958  67.969  1.00  0.00    -0.279 C  
HETATM    7  C   UNL     1     -10.404  18.579  66.044  1.00  0.00    -0.423 C  
HETATM    8  C   UNL     1     -10.283  19.416  68.397  1.00  0.00    -0.516 C  
HETATM    9  C   UNL     1      -9.746  18.376  67.409  1.00  0.00    -0.307 C  
ENDBRANCH   5   6
BRANCH   5  10
HETATM   10  N   UNL     1     -10.554  15.270  66.288  1.00  0.00    -0.302 N  
HETATM   11  C   UNL     1     -11.692  14.786  66.889  1.00  0.00    -0.302 C  
HETATM   12  H   UNL     1     -10.476  15.250  65.271  1.00  0.00     0.000 HD 
HETATM   13  O   UNL     1     -11.871  14.779  68.102  1.00  0.00    -0.326 OA 
BRANCH  11  14
HETATM   14  C   UNL     1     -12.703  14.212  65.927  1.00  0.00    -0.387 C  
BRANCH  14  15
HETATM   15  C   UNL     1     -12.441  12.722  65.712  1.00  0.00    -0.253 C  
BRANCH  15  16
HETATM   16  C   UNL     1     -12.527  12.310  64.241  1.00  0.00    -0.508 C  
BRANCH  16  17
HETATM   17  C   UNL     1     -11.164  12.338  63.553  1.00  0.00    -0.535 C  
BRANCH  17  18
HETATM   18  C   UNL     1     -10.039  11.915  64.492  1.00  0.00    -0.302 C  
BRANCH  18  19
HETATM   19  C   UNL     1      -9.838  10.402  64.420  1.00  0.00    -0.395 C  
BRANCH  19  20
HETATM   20  C   UNL     1      -9.795   9.781  65.813  1.00  0.00    -0.360 C  
BRANCH  20  21
HETATM   21  C   UNL     1      -8.974   8.491  65.809  1.00  0.00    -0.229 C  
BRANCH  21  22
HETATM   22  C   UNL     1      -7.781   8.618  64.910  1.00  0.00    -0.106 C  
HETATM   23  C   UNL     1      -7.351   7.645  64.097  1.00  0.00    -0.094 C  
ENDBRANCH  21  22
ENDBRANCH  20  21
ENDBRANCH  19  20
ENDBRANCH  18  19
ENDBRANCH  17  18
ENDBRANCH  16  17
ENDBRANCH  15  16
ENDBRANCH  14  15
ENDBRANCH  11  14
ENDBRANCH   5  10
ENDBRANCH   3   5
ENDBRANCH   2   3
TORSDOF 13
ENDMDL
MODEL      256
REMARK 921   NORMALIZED FREE ENERGY PREDICTED BY IDOCK:   -2.76 KCAL/MOL
REMARK 922        TOTAL FREE ENERGY PREDICTED BY IDOCK:   -6.96 KCAL/MOL
REMARK 923 INTER-LIGAND FREE ENERGY PREDICTED BY IDOCK:   -6.85 KCAL/MOL
REMARK 924 INTRA-LIGAND FREE ENERGY PREDICTED BY IDOCK:   -0.10 KCAL/MOL
REMARK 927      BINDING AFFINITY PREDICTED BY RF-SCORE:    0.00 PKD
ROOT
HETATM    1  C   UNL     1      -7.807  13.394  67.998  1.00  0.00    -0.148 C  
HETATM    2  O   UNL     1      -8.174  14.394  67.050  1.00  0.00    -0.189 OA 
ENDROOT
BRANCH   2   3
HETATM    3  C   UNL     1      -8.945  15.407  67.536  1.00  0.00    -0.183 C  
HETATM    4  O   UNL     1      -9.240  15.575  68.714  1.00  0.00    -0.186 OA 
BRANCH   3   5
HETATM    5  C   UNL     1      -9.373  16.330  66.390  1.00  0.00    -0.292 C  
BRANCH   5   6
HETATM    6  C   UNL     1     -10.204  17.518  66.892  1.00  0.00    -0.329 C  
HETATM    7  C   UNL     1      -8.403  19.277  66.464  1.00  0.00    -0.329 C  
HETATM    8  C   UNL     1     -10.344  19.792  67.955  1.00  0.00    -0.569 C  
HETATM    9  C   UNL     1      -9.393  18.692  67.472  1.00  0.00    -0.301 C  
ENDBRANCH   5   6
BRANCH   5  10
HETATM   10  N   UNL     1     -10.150  15.555  65.422  1.00  0.00    -0.361 N  
HETATM   11  C   UNL     1     -11.310  14.918  65.794  1.00  0.00    -0.314 C  
HETATM   12  H   UNL     1      -9.826  15.487  64.457  1.00  0.00     0.000 HD 
HETATM   13  O   UNL     1     -11.774  14.955  66.928  1.00  0.00    -0.343 OA 
BRANCH  11  14
HETATM   14  C   UNL     1     -11.958  14.119  64.689  1.00  0.00    -0.459 C  
BRANCH  14  15
HETATM   15  C   UNL     1     -11.827  12.624  64.972  1.00  0.00    -0.439 C  
BRANCH  15  16
HETATM   16  C   UNL     1     -11.202  11.852  63.809  1.00  0.00    -0.519 C  
BRANCH  16  17
HETATM   17  C   UNL     1     -10.236  10.770  64.286  1.00  0.00    -0.422 C  
BRANCH  17  18
HETATM   18  C   UNL     1     -10.407  10.463  65.770  1.00  0.00    -0.257 C  
BRANCH  18  19
HETATM   19  C   UNL     1      -9.560   9.251  66.155  1.00  0.00    -0.327 C  
BRANCH  19  20
HETATM   20  C   UNL     1     -10.418   8.144  66.762  1.00  0.00    -0.316 C  
BRANCH  20  21
HETATM   21  C   UNL     1      -9.620   7.337  67.786  1.00  0.00    -0.158 C  
BRANCH  21  22
HETATM   22  C   UNL     1     -10.414   7.129  69.041  1.00  0.00    -0.221 C  
HETATM   23  C   UNL     1     -10.018   7.538  70.253  1.00  0.00    -0.192 C  
ENDBRANCH  21  22
ENDBRANCH  20  21
ENDBRANCH  19  20
ENDBRANCH  18  19
ENDBRANCH  17  18
ENDBRANCH  16  17
ENDBRANCH  15  16
ENDBRANCH  14  15
ENDBRANCH  11  14
ENDBRANCH   5  10
ENDBRANCH   3   5
ENDBRANCH   2   3
TORSDOF 13
ENDMDL
MODEL      257
REMARK 921   NORMALIZED FREE ENERGY PREDICTED BY IDOCK:   -2.75 KCAL/MOL
REMARK 922        TOTAL FREE ENERGY PREDICTED BY IDOCK:   -6.95 KCAL/MOL
REMARK 923 INTER-LIGAND FREE ENERGY PREDICTED BY IDOCK:   -5.74 KCAL/MOL
REMARK 924 INTRA-LIGAND FREE ENERGY PREDICTED BY IDOCK:   -1.22 KCAL/MOL
REMARK 927      BINDING AFFINITY PREDICTED BY RF-SCORE:    0.00 PKD
ROOT
HETATM    1  C   UNL     1      -8.677   9.805  65.505  1.00  0.00    -0.149 C  
HETATM    2  O   UNL     1      -8.907  10.116  66.878  1.00  0.00    -0.132 OA 
ENDROOT
BRANCH   2   3
HETATM    3  C   UNL     1     -10.108   9.707  67.377  1.00  0.00    -0.204 C  
HETATM    4  O   UNL     1     -10.706   8.691  67.047  1.00  0.00    -0.271 OA 
BRANCH   3   5
HETATM    5  C   UNL     1     -10.592  10.700  68.439  1.00  0.00    -0.199 C  
BRANCH   5   6
HETATM    6  C   UNL     1      -9.669  11.921  68.544  1.00  0.00    -0.173 C  
HETATM    7  C   UNL     1     -11.521  13.580  69.129  1.00  0.00    -0.345 C  
HETATM    8  C   UNL     1      -9.294  14.399  68.341  1.00  0.00    -0.206 C  
HETATM    9  C   UNL     1     -10.328  13.275  68.221  1.00  0.00    -0.252 C  
ENDBRANCH   5   6
BRANCH   5  10
HETATM   10  N   UNL     1     -10.659  10.017  69.731  1.00  0.00    -0.248 N  
HETATM   11  C   UNL     1     -11.807  10.042  70.486  1.00  0.00    -0.303 C  
HETATM   12  H   UNL     1      -9.841   9.514  70.077  1.00  0.00     0.000 HD 
HETATM   13  O   UNL     1     -12.836  10.613  70.143  1.00  0.00    -0.276 OA 
BRANCH  11  14
HETATM   14  C   UNL     1     -11.689   9.335  71.815  1.00  0.00    -0.456 C  
BRANCH  14  15
HETATM   15  C   UNL     1     -10.283   8.766  71.988  1.00  0.00    -0.401 C  
BRANCH  15  16
HETATM   16  C   UNL     1     -10.174   7.798  73.167  1.00  0.00    -0.398 C  
BRANCH  16  17
HETATM   17  C   UNL     1      -9.438   6.513  72.794  1.00  0.00    -0.150 C  
BRANCH  17  18
HETATM   18  C   UNL     1      -9.151   6.430  71.299  1.00  0.00    -0.148 C  
BRANCH  18  19
HETATM   19  C   UNL     1      -9.820   5.192  70.706  1.00  0.00    -0.270 C  
BRANCH  19  20
HETATM   20  C   UNL     1     -10.489   5.508  69.371  1.00  0.00    -0.360 C  
BRANCH  20  21
HETATM   21  C   UNL     1      -9.777   4.795  68.222  1.00  0.00    -0.200 C  
BRANCH  21  22
HETATM   22  C   UNL     1     -10.292   5.269  66.896  1.00  0.00    -0.303 C  
HETATM   23  C   UNL     1     -10.261   4.535  65.776  1.00  0.00    -0.289 C  
ENDBRANCH  21  22
ENDBRANCH  20  21
ENDBRANCH  19  20
ENDBRANCH  18  19
ENDBRANCH  17  18
ENDBRANCH  16  17
ENDBRANCH  15  16
ENDBRANCH  14  15
ENDBRANCH  11  14
ENDBRANCH   5  10
ENDBRANCH   3   5
ENDBRANCH   2   3
TORSDOF 13
ENDMDL
MODEL      258
REMARK 921   NORMALIZED FREE ENERGY PREDICTED BY IDOCK:   -2.75 KCAL/MOL
REMARK 922        TOTAL FREE ENERGY PREDICTED BY IDOCK:   -6.95 KCAL/MOL
REMARK 923 INTER-LIGAND FREE ENERGY PREDICTED BY IDOCK:   -5.92 KCAL/MOL
REMARK 924 INTRA-LIGAND FREE ENERGY PREDICTED BY IDOCK:   -1.03 KCAL/MOL
REMARK 927      BINDING AFFINITY PREDICTED BY RF-SCORE:    0.00 PKD
ROOT
HETATM    1  C   UNL     1      -6.520  12.179  68.888  1.00  0.00    -0.088 C  
HETATM    2  O   UNL     1      -7.737  12.848  68.562  1.00  0.00    -0.129 OA 
ENDROOT
BRANCH   2   3
HETATM    3  C   UNL     1      -7.594  14.036  67.909  1.00  0.00    -0.155 C  
HETATM    4  O   UNL     1      -6.580  14.413  67.332  1.00  0.00    -0.287 OA 
BRANCH   3   5
HETATM    5  C   UNL     1      -8.903  14.827  67.979  1.00  0.00    -0.169 C  
BRANCH   5   6
HETATM    6  C   UNL     1      -8.707  16.201  68.634  1.00  0.00    -0.214 C  
HETATM    7  C   UNL     1      -9.887  17.522  66.793  1.00  0.00    -0.306 C  
HETATM    8  C   UNL     1      -8.413  18.691  68.441  1.00  0.00    -0.366 C  
HETATM    9  C   UNL     1      -8.633  17.392  67.659  1.00  0.00    -0.217 C  
ENDBRANCH   5   6
BRANCH   5  10
HETATM   10  N   UNL     1      -9.886  14.053  68.737  1.00  0.00    -0.360 N  
HETATM   11  C   UNL     1     -11.200  13.992  68.337  1.00  0.00    -0.266 C  
HETATM   12  H   UNL     1      -9.592  13.549  69.574  1.00  0.00     0.000 HD 
HETATM   13  O   UNL     1     -11.636  14.559  67.341  1.00  0.00    -0.353 OA 
BRANCH  11  14
HETATM   14  C   UNL     1     -12.091  13.197  69.260  1.00  0.00    -0.270 C  
BRANCH  14  15
HETATM   15  C   UNL     1     -11.932  11.702  68.988  1.00  0.00    -0.368 C  
BRANCH  15  16
HETATM   16  C   UNL     1     -11.433  10.926  70.208  1.00  0.00    -0.391 C  
BRANCH  16  17
HETATM   17  C   UNL     1     -10.171  10.122  69.906  1.00  0.00    -0.284 C  
BRANCH  17  18
HETATM   18  C   UNL     1     -10.486   8.675  69.542  1.00  0.00    -0.222 C  
BRANCH  18  19
HETATM   19  C   UNL     1     -11.110   7.959  70.739  1.00  0.00    -0.264 C  
BRANCH  19  20
HETATM   20  C   UNL     1     -11.682   6.602  70.337  1.00  0.00    -0.446 C  
BRANCH  20  21
HETATM   21  C   UNL     1     -10.603   5.520  70.387  1.00  0.00    -0.350 C  
BRANCH  21  22
HETATM   22  C   UNL     1     -10.280   5.151  71.804  1.00  0.00    -0.271 C  
HETATM   23  C   UNL     1      -9.060   5.263  72.346  1.00  0.00    -0.143 C  
ENDBRANCH  21  22
ENDBRANCH  20  21
ENDBRANCH  19  20
ENDBRANCH  18  19
ENDBRANCH  17  18
ENDBRANCH  16  17
ENDBRANCH  15  16
ENDBRANCH  14  15
ENDBRANCH  11  14
ENDBRANCH   5  10
ENDBRANCH   3   5
ENDBRANCH   2   3
TORSDOF 13
ENDMDL
MODEL      259
REMARK 921   NORMALIZED FREE ENERGY PREDICTED BY IDOCK:   -2.75 KCAL/MOL
REMARK 922        TOTAL FREE ENERGY PREDICTED BY IDOCK:   -6.95 KCAL/MOL
REMARK 923 INTER-LIGAND FREE ENERGY PREDICTED BY IDOCK:   -5.31 KCAL/MOL
REMARK 924 INTRA-LIGAND FREE ENERGY PREDICTED BY IDOCK:   -1.64 KCAL/MOL
REMARK 927      BINDING AFFINITY PREDICTED BY RF-SCORE:    0.00 PKD
ROOT
HETATM    1  C   UNL     1     -10.101   9.665  69.452  1.00  0.00    -0.203 C  
HETATM    2  O   UNL     1     -10.093  11.034  69.054  1.00  0.00    -0.205 OA 
ENDROOT
BRANCH   2   3
HETATM    3  C   UNL     1      -8.904  11.497  68.573  1.00  0.00    -0.139 C  
HETATM    4  O   UNL     1      -7.832  11.454  69.164  1.00  0.00    -0.085 OA 
BRANCH   3   5
HETATM    5  C   UNL     1      -9.100  12.059  67.161  1.00  0.00    -0.186 C  
BRANCH   5   6
HETATM    6  C   UNL     1      -8.255  11.308  66.124  1.00  0.00    -0.088 C  
HETATM    7  C   UNL     1     -10.028   9.549  65.588  1.00  0.00    -0.269 C  
HETATM    8  C   UNL     1      -7.643   9.180  64.932  1.00  0.00    -0.107 C  
HETATM    9  C   UNL     1      -8.572   9.807  65.977  1.00  0.00    -0.146 C  
ENDBRANCH   5   6
BRANCH   5  10
HETATM   10  N   UNL     1      -8.740  13.477  67.161  1.00  0.00    -0.229 N  
HETATM   11  C   UNL     1      -9.429  14.382  66.390  1.00  0.00    -0.285 C  
HETATM   12  H   UNL     1      -7.965  13.799  67.743  1.00  0.00     0.000 HD 
HETATM   13  O   UNL     1     -10.376  14.082  65.671  1.00  0.00    -0.303 OA 
BRANCH  11  14
HETATM   14  C   UNL     1      -8.895  15.792  66.464  1.00  0.00    -0.345 C  
BRANCH  14  15
HETATM   15  C   UNL     1      -8.552  16.151  67.909  1.00  0.00    -0.169 C  
BRANCH  15  16
HETATM   16  C   UNL     1      -7.223  16.899  68.036  1.00  0.00    -0.168 C  
BRANCH  16  17
HETATM   17  C   UNL     1      -6.527  17.073  66.688  1.00  0.00    -0.262 C  
BRANCH  17  18
HETATM   18  C   UNL     1      -5.789  18.404  66.592  1.00  0.00    -0.175 C  
BRANCH  18  19
HETATM   19  C   UNL     1      -6.320  19.374  67.647  1.00  0.00    -0.225 C  
BRANCH  19  20
HETATM   20  C   UNL     1      -6.942  20.609  67.002  1.00  0.00    -0.365 C  
BRANCH  20  21
HETATM   21  C   UNL     1      -8.005  20.212  65.977  1.00  0.00    -0.236 C  
BRANCH  21  22
HETATM   22  C   UNL     1      -9.305  19.891  66.651  1.00  0.00    -0.500 C  
HETATM   23  C   UNL     1     -10.447  19.649  65.995  1.00  0.00    -0.622 C  
ENDBRANCH  21  22
ENDBRANCH  20  21
ENDBRANCH  19  20
ENDBRANCH  18  19
ENDBRANCH  17  18
ENDBRANCH  16  17
ENDBRANCH  15  16
ENDBRANCH  14  15
ENDBRANCH  11  14
ENDBRANCH   5  10
ENDBRANCH   3   5
ENDBRANCH   2   3
TORSDOF 13
ENDMDL
MODEL      260
REMARK 921   NORMALIZED FREE ENERGY PREDICTED BY IDOCK:   -2.75 KCAL/MOL
REMARK 922        TOTAL FREE ENERGY PREDICTED BY IDOCK:   -6.94 KCAL/MOL
REMARK 923 INTER-LIGAND FREE ENERGY PREDICTED BY IDOCK:   -5.58 KCAL/MOL
REMARK 924 INTRA-LIGAND FREE ENERGY PREDICTED BY IDOCK:   -1.36 KCAL/MOL
REMARK 927      BINDING AFFINITY PREDICTED BY RF-SCORE:    0.00 PKD
ROOT
HETATM    1  C   UNL     1      -9.645   5.507  67.777  1.00  0.00    -0.123 C  
HETATM    2  O   UNL     1      -9.973   6.820  68.227  1.00  0.00    -0.139 OA 
ENDROOT
BRANCH   2   3
HETATM    3  C   UNL     1     -10.749   6.879  69.346  1.00  0.00    -0.246 C  
HETATM    4  O   UNL     1     -11.535   6.013  69.713  1.00  0.00    -0.395 OA 
BRANCH   3   5
HETATM    5  C   UNL     1     -10.475   8.184  70.100  1.00  0.00    -0.225 C  
BRANCH   5   6
HETATM    6  C   UNL     1     -10.630   8.012  71.617  1.00  0.00    -0.280 C  
HETATM    7  C   UNL     1      -8.140   8.228  72.144  1.00  0.00    -0.195 C  
HETATM    8  C   UNL     1      -9.710   7.266  73.835  1.00  0.00    -0.323 C  
HETATM    9  C   UNL     1      -9.413   7.403  72.338  1.00  0.00    -0.189 C  
ENDBRANCH   5   6
BRANCH   5  10
HETATM   10  N   UNL     1     -11.401   9.212  69.621  1.00  0.00    -0.437 N  
HETATM   11  C   UNL     1     -10.935  10.405  69.120  1.00  0.00    -0.241 C  
HETATM   12  H   UNL     1     -12.406   9.041  69.659  1.00  0.00     0.000 HD 
HETATM   13  O   UNL     1      -9.746  10.688  69.031  1.00  0.00    -0.194 OA 
BRANCH  11  14
HETATM   14  C   UNL     1     -12.022  11.374  68.722  1.00  0.00    -0.353 C  
BRANCH  14  15
HETATM   15  C   UNL     1     -11.417  12.581  68.008  1.00  0.00    -0.368 C  
BRANCH  15  16
HETATM   16  C   UNL     1     -11.673  12.570  66.500  1.00  0.00    -0.454 C  
BRANCH  16  17
HETATM   17  C   UNL     1     -10.392  12.352  65.698  1.00  0.00    -0.284 C  
BRANCH  17  18
HETATM   18  C   UNL     1     -10.482  11.126  64.795  1.00  0.00    -0.388 C  
BRANCH  18  19
HETATM   19  C   UNL     1     -10.154   9.865  65.591  1.00  0.00    -0.307 C  
BRANCH  19  20
HETATM   20  C   UNL     1      -8.653   9.590  65.602  1.00  0.00    -0.154 C  
BRANCH  20  21
HETATM   21  C   UNL     1      -8.151   9.252  64.197  1.00  0.00    -0.145 C  
BRANCH  21  22
HETATM   22  C   UNL     1      -6.672   9.004  64.202  1.00  0.00    -0.083 C  
HETATM   23  C   UNL     1      -5.853   9.387  65.189  1.00  0.00    -0.060 C  
ENDBRANCH  21  22
ENDBRANCH  20  21
ENDBRANCH  19  20
ENDBRANCH  18  19
ENDBRANCH  17  18
ENDBRANCH  16  17
ENDBRANCH  15  16
ENDBRANCH  14  15
ENDBRANCH  11  14
ENDBRANCH   5  10
ENDBRANCH   3   5
ENDBRANCH   2   3
TORSDOF 13
ENDMDL
MODEL      261
REMARK 921   NORMALIZED FREE ENERGY PREDICTED BY IDOCK:   -2.75 KCAL/MOL
REMARK 922        TOTAL FREE ENERGY PREDICTED BY IDOCK:   -6.94 KCAL/MOL
REMARK 923 INTER-LIGAND FREE ENERGY PREDICTED BY IDOCK:   -5.29 KCAL/MOL
REMARK 924 INTRA-LIGAND FREE ENERGY PREDICTED BY IDOCK:   -1.65 KCAL/MOL
REMARK 927      BINDING AFFINITY PREDICTED BY RF-SCORE:    0.00 PKD
ROOT
HETATM    1  C   UNL     1     -11.677  13.075  66.063  1.00  0.00    -0.393 C  
HETATM    2  O   UNL     1     -11.966  11.797  66.627  1.00  0.00    -0.561 OA 
ENDROOT
BRANCH   2   3
HETATM    3  C   UNL     1     -11.410  11.556  67.848  1.00  0.00    -0.303 C  
HETATM    4  O   UNL     1     -11.802  12.022  68.911  1.00  0.00    -0.295 OA 
BRANCH   3   5
HETATM    5  C   UNL     1     -10.231  10.590  67.700  1.00  0.00    -0.197 C  
BRANCH   5   6
HETATM    6  C   UNL     1     -10.651   9.134  67.944  1.00  0.00    -0.272 C  
HETATM    7  C   UNL     1      -9.040   8.125  66.237  1.00  0.00    -0.231 C  
HETATM    8  C   UNL     1     -10.960   6.782  67.111  1.00  0.00    -0.458 C  
HETATM    9  C   UNL     1     -10.484   8.190  66.738  1.00  0.00    -0.316 C  
ENDBRANCH   5   6
BRANCH   5  10
HETATM   10  N   UNL     1      -9.185  10.969  68.650  1.00  0.00    -0.183 N  
HETATM   11  C   UNL     1      -7.902  11.221  68.226  1.00  0.00    -0.130 C  
HETATM   12  H   UNL     1      -9.410  11.048  69.642  1.00  0.00     0.000 HD 
HETATM   13  O   UNL     1      -7.547  11.158  67.054  1.00  0.00    -0.121 OA 
BRANCH  11  14
HETATM   14  C   UNL     1      -6.935  11.546  69.338  1.00  0.00    -0.071 C  
BRANCH  14  15
HETATM   15  C   UNL     1      -6.697  10.313  70.208  1.00  0.00    -0.143 C  
BRANCH  15  16
HETATM   16  C   UNL     1      -7.055   9.006  69.497  1.00  0.00    -0.059 C  
BRANCH  16  17
HETATM   17  C   UNL     1      -7.457   7.906  70.476  1.00  0.00    -0.073 C  
BRANCH  17  18
HETATM   18  C   UNL     1      -8.385   6.879  69.835  1.00  0.00    -0.139 C  
BRANCH  18  19
HETATM   19  C   UNL     1      -9.673   6.759  70.649  1.00  0.00    -0.180 C  
BRANCH  19  20
HETATM   20  C   UNL     1      -9.742   7.824  71.740  1.00  0.00    -0.206 C  
BRANCH  20  21
HETATM   21  C   UNL     1     -10.125   7.203  73.084  1.00  0.00    -0.292 C  
BRANCH  21  22
HETATM   22  C   UNL     1     -10.839   5.899  72.886  1.00  0.00    -0.293 C  
HETATM   23  C   UNL     1     -10.831   4.900  73.778  1.00  0.00    -0.376 C  
ENDBRANCH  21  22
ENDBRANCH  20  21
ENDBRANCH  19  20
ENDBRANCH  18  19
ENDBRANCH  17  18
ENDBRANCH  16  17
ENDBRANCH  15  16
ENDBRANCH  14  15
ENDBRANCH  11  14
ENDBRANCH   5  10
ENDBRANCH   3   5
ENDBRANCH   2   3
TORSDOF 13
ENDMDL
MODEL      262
REMARK 921   NORMALIZED FREE ENERGY PREDICTED BY IDOCK:   -2.74 KCAL/MOL
REMARK 922        TOTAL FREE ENERGY PREDICTED BY IDOCK:   -6.93 KCAL/MOL
REMARK 923 INTER-LIGAND FREE ENERGY PREDICTED BY IDOCK:   -6.83 KCAL/MOL
REMARK 924 INTRA-LIGAND FREE ENERGY PREDICTED BY IDOCK:   -0.10 KCAL/MOL
REMARK 927      BINDING AFFINITY PREDICTED BY RF-SCORE:    0.00 PKD
ROOT
HETATM    1  C   UNL     1      -8.036  15.389  67.230  1.00  0.00    -0.200 C  
HETATM    2  O   UNL     1      -9.109  14.454  67.312  1.00  0.00    -0.195 OA 
ENDROOT
BRANCH   2   3
HETATM    3  C   UNL     1      -8.777  13.223  67.796  1.00  0.00    -0.194 C  
HETATM    4  O   UNL     1      -7.759  12.957  68.422  1.00  0.00    -0.126 OA 
BRANCH   3   5
HETATM    5  C   UNL     1      -9.885  12.219  67.463  1.00  0.00    -0.193 C  
BRANCH   5   6
HETATM    6  C   UNL     1     -10.880  12.783  66.439  1.00  0.00    -0.294 C  
HETATM    7  C   UNL     1     -10.439  11.004  64.661  1.00  0.00    -0.398 C  
HETATM    8  C   UNL     1     -11.596  13.136  64.055  1.00  0.00    -0.481 C  
HETATM    9  C   UNL     1     -10.539  12.499  64.964  1.00  0.00    -0.329 C  
ENDBRANCH   5   6
BRANCH   5  10
HETATM   10  N   UNL     1     -10.590  11.864  68.695  1.00  0.00    -0.230 N  
HETATM   11  C   UNL     1     -11.599  12.657  69.186  1.00  0.00    -0.320 C  
HETATM   12  H   UNL     1     -10.329  11.014  69.196  1.00  0.00     0.000 HD 
HETATM   13  O   UNL     1     -11.981  13.687  68.643  1.00  0.00    -0.350 OA 
BRANCH  11  14
HETATM   14  C   UNL     1     -12.183  12.176  70.492  1.00  0.00    -0.392 C  
BRANCH  14  15
HETATM   15  C   UNL     1     -12.573  10.703  70.387  1.00  0.00    -0.395 C  
BRANCH  15  16
HETATM   16  C   UNL     1     -12.356   9.936  71.692  1.00  0.00    -0.496 C  
BRANCH  16  17
HETATM   17  C   UNL     1     -11.499   8.688  71.494  1.00  0.00    -0.363 C  
BRANCH  17  18
HETATM   18  C   UNL     1     -12.345   7.425  71.374  1.00  0.00    -0.394 C  
BRANCH  18  19
HETATM   19  C   UNL     1     -11.506   6.287  70.795  1.00  0.00    -0.383 C  
BRANCH  19  20
HETATM   20  C   UNL     1     -11.368   6.415  69.280  1.00  0.00    -0.405 C  
BRANCH  20  21
HETATM   21  C   UNL     1     -10.178   5.601  68.771  1.00  0.00    -0.269 C  
BRANCH  21  22
HETATM   22  C   UNL     1     -10.052   5.711  67.281  1.00  0.00    -0.210 C  
HETATM   23  C   UNL     1      -9.738   4.686  66.479  1.00  0.00    -0.212 C  
ENDBRANCH  21  22
ENDBRANCH  20  21
ENDBRANCH  19  20
ENDBRANCH  18  19
ENDBRANCH  17  18
ENDBRANCH  16  17
ENDBRANCH  15  16
ENDBRANCH  14  15
ENDBRANCH  11  14
ENDBRANCH   5  10
ENDBRANCH   3   5
ENDBRANCH   2   3
TORSDOF 13
ENDMDL
MODEL      263
REMARK 921   NORMALIZED FREE ENERGY PREDICTED BY IDOCK:   -2.74 KCAL/MOL
REMARK 922        TOTAL FREE ENERGY PREDICTED BY IDOCK:   -6.93 KCAL/MOL
REMARK 923 INTER-LIGAND FREE ENERGY PREDICTED BY IDOCK:   -5.61 KCAL/MOL
REMARK 924 INTRA-LIGAND FREE ENERGY PREDICTED BY IDOCK:   -1.32 KCAL/MOL
REMARK 927      BINDING AFFINITY PREDICTED BY RF-SCORE:    0.00 PKD
ROOT
HETATM    1  C   UNL     1     -12.095  14.640  64.451  1.00  0.00    -0.462 C  
HETATM    2  O   UNL     1     -12.472  14.355  65.797  1.00  0.00    -0.396 OA 
ENDROOT
BRANCH   2   3
HETATM    3  C   UNL     1     -12.269  13.070  66.202  1.00  0.00    -0.360 C  
HETATM    4  O   UNL     1     -12.213  12.092  65.466  1.00  0.00    -0.549 OA 
BRANCH   3   5
HETATM    5  C   UNL     1     -12.094  13.028  67.723  1.00  0.00    -0.193 C  
BRANCH   5   6
HETATM    6  C   UNL     1     -11.449  14.313  68.261  1.00  0.00    -0.334 C  
HETATM    7  C   UNL     1      -9.266  14.055  66.959  1.00  0.00    -0.262 C  
HETATM    8  C   UNL     1      -9.403  15.628  68.898  1.00  0.00    -0.223 C  
HETATM    9  C   UNL     1      -9.910  14.301  68.325  1.00  0.00    -0.235 C  
ENDBRANCH   5   6
BRANCH   5  10
HETATM   10  N   UNL     1     -11.265  11.874  68.074  1.00  0.00    -0.237 N  
HETATM   11  C   UNL     1     -11.625  11.030  69.098  1.00  0.00    -0.319 C  
HETATM   12  H   UNL     1     -10.408  11.692  67.551  1.00  0.00     0.000 HD 
HETATM   13  O   UNL     1     -12.640  11.170  69.771  1.00  0.00    -0.210 OA 
BRANCH  11  14
HETATM   14  C   UNL     1     -10.633   9.923  69.364  1.00  0.00    -0.250 C  
BRANCH  14  15
HETATM   15  C   UNL     1      -9.506   9.966  68.335  1.00  0.00    -0.142 C  
BRANCH  15  16
HETATM   16  C   UNL     1      -9.526   8.770  67.381  1.00  0.00    -0.183 C  
BRANCH  16  17
HETATM   17  C   UNL     1      -9.951   9.163  65.969  1.00  0.00    -0.293 C  
BRANCH  17  18
HETATM   18  C   UNL     1      -9.222  10.409  65.477  1.00  0.00    -0.223 C  
BRANCH  18  19
HETATM   19  C   UNL     1      -8.915  10.282  63.986  1.00  0.00    -0.261 C  
BRANCH  19  20
HETATM   20  C   UNL     1      -7.425  10.056  63.743  1.00  0.00    -0.141 C  
BRANCH  20  21
HETATM   21  C   UNL     1      -6.725   9.616  65.029  1.00  0.00    -0.096 C  
BRANCH  21  22
HETATM   22  C   UNL     1      -5.743  10.653  65.486  1.00  0.00    -0.136 C  
HETATM   23  C   UNL     1      -5.948  11.468  66.529  1.00  0.00    -0.101 C  
ENDBRANCH  21  22
ENDBRANCH  20  21
ENDBRANCH  19  20
ENDBRANCH  18  19
ENDBRANCH  17  18
ENDBRANCH  16  17
ENDBRANCH  15  16
ENDBRANCH  14  15
ENDBRANCH  11  14
ENDBRANCH   5  10
ENDBRANCH   3   5
ENDBRANCH   2   3
TORSDOF 13
ENDMDL
MODEL      264
REMARK 921   NORMALIZED FREE ENERGY PREDICTED BY IDOCK:   -2.74 KCAL/MOL
REMARK 922        TOTAL FREE ENERGY PREDICTED BY IDOCK:   -6.92 KCAL/MOL
REMARK 923 INTER-LIGAND FREE ENERGY PREDICTED BY IDOCK:   -5.63 KCAL/MOL
REMARK 924 INTRA-LIGAND FREE ENERGY PREDICTED BY IDOCK:   -1.30 KCAL/MOL
REMARK 927      BINDING AFFINITY PREDICTED BY RF-SCORE:    0.00 PKD
ROOT
HETATM    1  C   UNL     1      -5.916  10.578  69.214  1.00  0.00    -0.038 C  
HETATM    2  O   UNL     1      -7.271  10.296  69.559  1.00  0.00    -0.090 OA 
ENDROOT
BRANCH   2   3
HETATM    3  C   UNL     1      -7.918   9.431  68.727  1.00  0.00    -0.092 C  
HETATM    4  O   UNL     1      -7.442   8.403  68.260  1.00  0.00    -0.093 OA 
BRANCH   3   5
HETATM    5  C   UNL     1      -9.348   9.921  68.480  1.00  0.00    -0.143 C  
BRANCH   5   6
HETATM    6  C   UNL     1     -10.388   8.840  68.805  1.00  0.00    -0.234 C  
HETATM    7  C   UNL     1     -11.076   9.829  71.057  1.00  0.00    -0.431 C  
HETATM    8  C   UNL     1     -11.657   7.465  70.485  1.00  0.00    -0.256 C  
HETATM    9  C   UNL     1     -10.619   8.578  70.306  1.00  0.00    -0.238 C  
ENDBRANCH   5   6
BRANCH   5  10
HETATM   10  N   UNL     1      -9.476  10.326  67.080  1.00  0.00    -0.161 N  
HETATM   11  C   UNL     1      -9.244  11.625  66.695  1.00  0.00    -0.191 C  
HETATM   12  H   UNL     1      -9.740   9.634  66.378  1.00  0.00     0.000 HD 
HETATM   13  O   UNL     1      -8.915  12.516  67.470  1.00  0.00    -0.169 OA 
BRANCH  11  14
HETATM   14  C   UNL     1      -9.473  11.885  65.226  1.00  0.00    -0.089 C  
BRANCH  14  15
HETATM   15  C   UNL     1     -10.866  11.411  64.816  1.00  0.00    -0.339 C  
BRANCH  15  16
HETATM   16  C   UNL     1     -11.754  12.548  64.307  1.00  0.00    -0.450 C  
BRANCH  16  17
HETATM   17  C   UNL     1     -11.601  13.819  65.140  1.00  0.00    -0.341 C  
BRANCH  17  18
HETATM   18  C   UNL     1     -12.184  13.660  66.540  1.00  0.00    -0.454 C  
BRANCH  18  19
HETATM   19  C   UNL     1     -11.584  14.707  67.478  1.00  0.00    -0.396 C  
BRANCH  19  20
HETATM   20  C   UNL     1     -10.558  15.575  66.756  1.00  0.00    -0.307 C  
BRANCH  20  21
HETATM   21  C   UNL     1     -10.334  16.890  67.504  1.00  0.00    -0.318 C  
BRANCH  21  22
HETATM   22  C   UNL     1      -9.633  17.889  66.633  1.00  0.00    -0.311 C  
HETATM   23  C   UNL     1     -10.233  18.952  66.083  1.00  0.00    -0.485 C  
ENDBRANCH  21  22
ENDBRANCH  20  21
ENDBRANCH  19  20
ENDBRANCH  18  19
ENDBRANCH  17  18
ENDBRANCH  16  17
ENDBRANCH  15  16
ENDBRANCH  14  15
ENDBRANCH  11  14
ENDBRANCH   5  10
ENDBRANCH   3   5
ENDBRANCH   2   3
TORSDOF 13
ENDMDL
MODEL      265
REMARK 921   NORMALIZED FREE ENERGY PREDICTED BY IDOCK:   -2.73 KCAL/MOL
REMARK 922        TOTAL FREE ENERGY PREDICTED BY IDOCK:   -6.91 KCAL/MOL
REMARK 923 INTER-LIGAND FREE ENERGY PREDICTED BY IDOCK:   -6.70 KCAL/MOL
REMARK 924 INTRA-LIGAND FREE ENERGY PREDICTED BY IDOCK:   -0.21 KCAL/MOL
REMARK 927      BINDING AFFINITY PREDICTED BY RF-SCORE:    0.00 PKD
ROOT
HETATM    1  C   UNL     1      -8.179  11.588  66.695  1.00  0.00    -0.156 C  
HETATM    2  O   UNL     1      -9.128  10.862  67.476  1.00  0.00    -0.140 OA 
ENDROOT
BRANCH   2   3
HETATM    3  C   UNL     1      -8.734  10.565  68.747  1.00  0.00    -0.154 C  
HETATM    4  O   UNL     1      -7.683  10.919  69.267  1.00  0.00    -0.135 OA 
BRANCH   3   5
HETATM    5  C   UNL     1      -9.819   9.739  69.445  1.00  0.00    -0.205 C  
BRANCH   5   6
HETATM    6  C   UNL     1     -10.642   8.914  68.446  1.00  0.00    -0.190 C  
HETATM    7  C   UNL     1     -10.618   6.763  69.823  1.00  0.00    -0.263 C  
HETATM    8  C   UNL     1     -11.232   6.705  67.400  1.00  0.00    -0.294 C  
HETATM    9  C   UNL     1     -10.365   7.399  68.455  1.00  0.00    -0.221 C  
ENDBRANCH   5   6
BRANCH   5  10
HETATM   10  N   UNL     1     -10.700  10.641  70.186  1.00  0.00    -0.463 N  
HETATM   11  C   UNL     1     -11.810  11.192  69.592  1.00  0.00    -0.348 C  
HETATM   12  H   UNL     1     -10.487  10.865  71.159  1.00  0.00     0.000 HD 
HETATM   13  O   UNL     1     -12.143  10.971  68.434  1.00  0.00    -0.594 OA 
BRANCH  11  14
HETATM   14  C   UNL     1     -12.578  12.143  70.479  1.00  0.00    -0.184 C  
BRANCH  14  15
HETATM   15  C   UNL     1     -11.920  13.521  70.470  1.00  0.00    -0.344 C  
BRANCH  15  16
HETATM   16  C   UNL     1     -12.082  14.249  69.134  1.00  0.00    -0.337 C  
BRANCH  16  17
HETATM   17  C   UNL     1     -10.786  14.270  68.327  1.00  0.00    -0.256 C  
BRANCH  17  18
HETATM   18  C   UNL     1     -10.723  15.461  67.376  1.00  0.00    -0.296 C  
BRANCH  18  19
HETATM   19  C   UNL     1     -10.180  15.018  66.018  1.00  0.00    -0.318 C  
BRANCH  19  20
HETATM   20  C   UNL     1     -11.105  15.450  64.883  1.00  0.00    -0.435 C  
BRANCH  20  21
HETATM   21  C   UNL     1     -11.878  14.255  64.325  1.00  0.00    -0.401 C  
BRANCH  21  22
HETATM   22  C   UNL     1     -10.975  13.072  64.141  1.00  0.00    -0.438 C  
HETATM   23  C   UNL     1     -11.405  11.848  63.809  1.00  0.00    -0.532 C  
ENDBRANCH  21  22
ENDBRANCH  20  21
ENDBRANCH  19  20
ENDBRANCH  18  19
ENDBRANCH  17  18
ENDBRANCH  16  17
ENDBRANCH  15  16
ENDBRANCH  14  15
ENDBRANCH  11  14
ENDBRANCH   5  10
ENDBRANCH   3   5
ENDBRANCH   2   3
TORSDOF 13
ENDMDL
MODEL      266
REMARK 921   NORMALIZED FREE ENERGY PREDICTED BY IDOCK:   -2.72 KCAL/MOL
REMARK 922        TOTAL FREE ENERGY PREDICTED BY IDOCK:   -6.89 KCAL/MOL
REMARK 923 INTER-LIGAND FREE ENERGY PREDICTED BY IDOCK:   -6.16 KCAL/MOL
REMARK 924 INTRA-LIGAND FREE ENERGY PREDICTED BY IDOCK:   -0.73 KCAL/MOL
REMARK 927      BINDING AFFINITY PREDICTED BY RF-SCORE:    0.00 PKD
ROOT
HETATM    1  C   UNL     1      -8.676   9.527  62.985  1.00  0.00    -0.229 C  
HETATM    2  O   UNL     1      -8.810  10.816  63.579  1.00  0.00    -0.180 OA 
ENDROOT
BRANCH   2   3
HETATM    3  C   UNL     1      -8.919  10.826  64.938  1.00  0.00    -0.184 C  
HETATM    4  O   UNL     1      -7.981  10.856  65.726  1.00  0.00    -0.150 OA 
BRANCH   3   5
HETATM    5  C   UNL     1     -10.397  10.821  65.340  1.00  0.00    -0.247 C  
BRANCH   5   6
HETATM    6  C   UNL     1     -11.218  11.818  64.512  1.00  0.00    -0.368 C  
HETATM    7  C   UNL     1     -10.327  13.905  65.685  1.00  0.00    -0.337 C  
HETATM    8  C   UNL     1     -12.405  14.024  64.298  1.00  0.00    -0.393 C  
HETATM    9  C   UNL     1     -11.568  13.137  65.226  1.00  0.00    -0.350 C  
ENDBRANCH   5   6
BRANCH   5  10
HETATM   10  N   UNL     1     -10.504  11.151  66.761  1.00  0.00    -0.241 N  
HETATM   11  C   UNL     1     -10.694  10.168  67.703  1.00  0.00    -0.285 C  
HETATM   12  H   UNL     1     -10.436  12.125  67.058  1.00  0.00     0.000 HD 
HETATM   13  O   UNL     1     -10.778   8.975  67.435  1.00  0.00    -0.271 OA 
BRANCH  11  14
HETATM   14  C   UNL     1     -10.837  10.684  69.115  1.00  0.00    -0.279 C  
BRANCH  14  15
HETATM   15  C   UNL     1     -10.650   9.545  70.115  1.00  0.00    -0.298 C  
BRANCH  15  16
HETATM   16  C   UNL     1     -11.443   9.751  71.406  1.00  0.00    -0.435 C  
BRANCH  16  17
HETATM   17  C   UNL     1     -12.576   8.738  71.558  1.00  0.00    -0.372 C  
BRANCH  17  18
HETATM   18  C   UNL     1     -12.269   7.425  70.846  1.00  0.00    -0.265 C  
BRANCH  18  19
HETATM   19  C   UNL     1     -11.939   6.340  71.870  1.00  0.00    -0.342 C  
BRANCH  19  20
HETATM   20  C   UNL     1     -10.613   5.656  71.546  1.00  0.00    -0.306 C  
BRANCH  20  21
HETATM   21  C   UNL     1     -10.012   6.218  70.257  1.00  0.00    -0.210 C  
BRANCH  21  22
HETATM   22  C   UNL     1      -9.806   5.131  69.244  1.00  0.00    -0.260 C  
HETATM   23  C   UNL     1      -9.609   5.354  67.938  1.00  0.00    -0.152 C  
ENDBRANCH  21  22
ENDBRANCH  20  21
ENDBRANCH  19  20
ENDBRANCH  18  19
ENDBRANCH  17  18
ENDBRANCH  16  17
ENDBRANCH  15  16
ENDBRANCH  14  15
ENDBRANCH  11  14
ENDBRANCH   5  10
ENDBRANCH   3   5
ENDBRANCH   2   3
TORSDOF 13
ENDMDL
MODEL      267
REMARK 921   NORMALIZED FREE ENERGY PREDICTED BY IDOCK:   -2.72 KCAL/MOL
REMARK 922        TOTAL FREE ENERGY PREDICTED BY IDOCK:   -6.89 KCAL/MOL
REMARK 923 INTER-LIGAND FREE ENERGY PREDICTED BY IDOCK:   -5.27 KCAL/MOL
REMARK 924 INTRA-LIGAND FREE ENERGY PREDICTED BY IDOCK:   -1.62 KCAL/MOL
REMARK 927      BINDING AFFINITY PREDICTED BY RF-SCORE:    0.00 PKD
ROOT
HETATM    1  C   UNL     1      -6.043  21.030  66.609  1.00  0.00    -0.276 C  
HETATM    2  O   UNL     1      -5.840  19.619  66.580  1.00  0.00    -0.166 OA 
ENDROOT
BRANCH   2   3
HETATM    3  C   UNL     1      -6.511  18.951  65.599  1.00  0.00    -0.266 C  
HETATM    4  O   UNL     1      -6.398  19.152  64.396  1.00  0.00    -0.460 OA 
BRANCH   3   5
HETATM    5  C   UNL     1      -7.418  17.886  66.225  1.00  0.00    -0.286 C  
BRANCH   5   6
HETATM    6  C   UNL     1      -8.501  18.509  67.116  1.00  0.00    -0.268 C  
HETATM    7  C   UNL     1     -10.475  17.513  65.837  1.00  0.00    -0.251 C  
HETATM    8  C   UNL     1     -10.825  19.421  67.415  1.00  0.00    -0.555 C  
HETATM    9  C   UNL     1      -9.850  18.780  66.422  1.00  0.00    -0.403 C  
ENDBRANCH   5   6
BRANCH   5  10
HETATM   10  N   UNL     1      -6.596  16.967  67.013  1.00  0.00    -0.186 N  
HETATM   11  C   UNL     1      -6.988  15.665  67.215  1.00  0.00    -0.189 C  
HETATM   12  H   UNL     1      -5.720  17.297  67.418  1.00  0.00     0.000 HD 
HETATM   13  O   UNL     1      -8.019  15.185  66.758  1.00  0.00    -0.177 OA 
BRANCH  11  14
HETATM   14  C   UNL     1      -6.055  14.868  68.094  1.00  0.00    -0.145 C  
BRANCH  14  15
HETATM   15  C   UNL     1      -6.836  14.201  69.225  1.00  0.00    -0.118 C  
BRANCH  15  16
HETATM   16  C   UNL     1      -6.510  12.714  69.376  1.00  0.00    -0.099 C  
BRANCH  16  17
HETATM   17  C   UNL     1      -6.150  12.063  68.042  1.00  0.00    -0.058 C  
BRANCH  17  18
HETATM   18  C   UNL     1      -7.186  11.030  67.611  1.00  0.00    -0.093 C  
BRANCH  18  19
HETATM   19  C   UNL     1      -8.274  11.699  66.771  1.00  0.00    -0.161 C  
BRANCH  19  20
HETATM   20  C   UNL     1      -9.656  11.488  67.384  1.00  0.00    -0.177 C  
BRANCH  20  21
HETATM   21  C   UNL     1     -10.117  12.740  68.131  1.00  0.00    -0.239 C  
BRANCH  21  22
HETATM   22  C   UNL     1     -11.163  13.476  67.348  1.00  0.00    -0.317 C  
HETATM   23  C   UNL     1     -11.656  14.671  67.698  1.00  0.00    -0.383 C  
ENDBRANCH  21  22
ENDBRANCH  20  21
ENDBRANCH  19  20
ENDBRANCH  18  19
ENDBRANCH  17  18
ENDBRANCH  16  17
ENDBRANCH  15  16
ENDBRANCH  14  15
ENDBRANCH  11  14
ENDBRANCH   5  10
ENDBRANCH   3   5
ENDBRANCH   2   3
TORSDOF 13
ENDMDL
MODEL      268
REMARK 921   NORMALIZED FREE ENERGY PREDICTED BY IDOCK:   -2.72 KCAL/MOL
REMARK 922        TOTAL FREE ENERGY PREDICTED BY IDOCK:   -6.89 KCAL/MOL
REMARK 923 INTER-LIGAND FREE ENERGY PREDICTED BY IDOCK:   -5.73 KCAL/MOL
REMARK 924 INTRA-LIGAND FREE ENERGY PREDICTED BY IDOCK:   -1.15 KCAL/MOL
REMARK 927      BINDING AFFINITY PREDICTED BY RF-SCORE:    0.00 PKD
ROOT
HETATM    1  C   UNL     1      -6.316   9.859  70.951  1.00  0.00    -0.056 C  
HETATM    2  O   UNL     1      -7.459   9.378  71.656  1.00  0.00    -0.323 OA 
ENDROOT
BRANCH   2   3
HETATM    3  C   UNL     1      -8.129   8.353  71.057  1.00  0.00    -0.119 C  
HETATM    4  O   UNL     1      -7.862   7.164  71.176  1.00  0.00    -0.096 OA 
BRANCH   3   5
HETATM    5  C   UNL     1      -9.290   8.909  70.226  1.00  0.00    -0.185 C  
BRANCH   5   6
HETATM    6  C   UNL     1     -10.531   8.010  70.306  1.00  0.00    -0.222 C  
HETATM    7  C   UNL     1     -12.024   9.752  71.430  1.00  0.00    -0.493 C  
HETATM    8  C   UNL     1     -12.670   7.337  71.443  1.00  0.00    -0.427 C  
HETATM    9  C   UNL     1     -11.494   8.318  71.469  1.00  0.00    -0.325 C  
ENDBRANCH   5   6
BRANCH   5  10
HETATM   10  N   UNL     1      -8.859   9.036  68.833  1.00  0.00    -0.138 N  
HETATM   11  C   UNL     1      -8.790  10.266  68.224  1.00  0.00    -0.126 C  
HETATM   12  H   UNL     1      -8.606   8.199  68.307  1.00  0.00     0.000 HD 
HETATM   13  O   UNL     1      -9.067  11.320  68.784  1.00  0.00    -0.174 OA 
BRANCH  11  14
HETATM   14  C   UNL     1      -8.381  10.214  66.772  1.00  0.00    -0.122 C  
BRANCH  14  15
HETATM   15  C   UNL     1      -9.121   9.087  66.054  1.00  0.00    -0.257 C  
BRANCH  15  16
HETATM   16  C   UNL     1      -8.686   8.924  64.597  1.00  0.00    -0.138 C  
BRANCH  16  17
HETATM   17  C   UNL     1      -8.531  10.266  63.886  1.00  0.00    -0.179 C  
BRANCH  17  18
HETATM   18  C   UNL     1      -9.835  10.729  63.244  1.00  0.00    -0.394 C  
BRANCH  18  19
HETATM   19  C   UNL     1     -10.049  12.218  63.508  1.00  0.00    -0.344 C  
BRANCH  19  20
HETATM   20  C   UNL     1     -10.636  12.457  64.896  1.00  0.00    -0.326 C  
BRANCH  20  21
HETATM   21  C   UNL     1     -12.141  12.715  64.815  1.00  0.00    -0.495 C  
BRANCH  21  22
HETATM   22  C   UNL     1     -12.445  14.173  64.984  1.00  0.00    -0.434 C  
HETATM   23  C   UNL     1     -11.595  15.156  64.663  1.00  0.00    -0.357 C  
ENDBRANCH  21  22
ENDBRANCH  20  21
ENDBRANCH  19  20
ENDBRANCH  18  19
ENDBRANCH  17  18
ENDBRANCH  16  17
ENDBRANCH  15  16
ENDBRANCH  14  15
ENDBRANCH  11  14
ENDBRANCH   5  10
ENDBRANCH   3   5
ENDBRANCH   2   3
TORSDOF 13
ENDMDL
MODEL      269
REMARK 921   NORMALIZED FREE ENERGY PREDICTED BY IDOCK:   -2.71 KCAL/MOL
REMARK 922        TOTAL FREE ENERGY PREDICTED BY IDOCK:   -6.87 KCAL/MOL
REMARK 923 INTER-LIGAND FREE ENERGY PREDICTED BY IDOCK:   -5.69 KCAL/MOL
REMARK 924 INTRA-LIGAND FREE ENERGY PREDICTED BY IDOCK:   -1.18 KCAL/MOL
REMARK 927      BINDING AFFINITY PREDICTED BY RF-SCORE:    0.00 PKD
ROOT
HETATM    1  C   UNL     1     -11.017   9.701  70.050  1.00  0.00    -0.260 C  
HETATM    2  O   UNL     1     -11.165  10.135  68.700  1.00  0.00    -0.230 OA 
ENDROOT
BRANCH   2   3
HETATM    3  C   UNL     1     -10.512   9.383  67.769  1.00  0.00    -0.254 C  
HETATM    4  O   UNL     1     -10.229   8.197  67.884  1.00  0.00    -0.197 OA 
BRANCH   3   5
HETATM    5  C   UNL     1     -10.204  10.238  66.535  1.00  0.00    -0.226 C  
BRANCH   5   6
HETATM    6  C   UNL     1      -8.696  10.334  66.268  1.00  0.00    -0.157 C  
HETATM    7  C   UNL     1      -8.163  11.708  68.354  1.00  0.00    -0.155 C  
HETATM    8  C   UNL     1      -6.514  11.565  66.479  1.00  0.00    -0.037 C  
HETATM    9  C   UNL     1      -8.004  11.587  66.838  1.00  0.00    -0.164 C  
ENDBRANCH   5   6
BRANCH   5  10
HETATM   10  N   UNL     1     -10.758  11.577  66.736  1.00  0.00    -0.257 N  
HETATM   11  C   UNL     1     -11.465  12.207  65.740  1.00  0.00    -0.361 C  
HETATM   12  H   UNL     1     -10.617  12.051  67.629  1.00  0.00     0.000 HD 
HETATM   13  O   UNL     1     -11.687  11.707  64.642  1.00  0.00    -0.213 OA 
BRANCH  11  14
HETATM   14  C   UNL     1     -11.918  13.603  66.090  1.00  0.00    -0.453 C  
BRANCH  14  15
HETATM   15  C   UNL     1     -12.235  14.390  64.820  1.00  0.00    -0.458 C  
BRANCH  15  16
HETATM   16  C   UNL     1     -11.410  15.673  64.695  1.00  0.00    -0.355 C  
BRANCH  16  17
HETATM   17  C   UNL     1     -10.660  16.006  65.982  1.00  0.00    -0.324 C  
BRANCH  17  18
HETATM   18  C   UNL     1      -9.179  15.651  65.892  1.00  0.00    -0.330 C  
BRANCH  18  19
HETATM   19  C   UNL     1      -8.433  16.206  67.104  1.00  0.00    -0.218 C  
BRANCH  19  20
HETATM   20  C   UNL     1      -9.382  16.458  68.272  1.00  0.00    -0.210 C  
BRANCH  20  21
HETATM   21  C   UNL     1      -9.624  15.173  69.064  1.00  0.00    -0.229 C  
BRANCH  21  22
HETATM   22  C   UNL     1     -10.884  15.270  69.871  1.00  0.00    -0.295 C  
HETATM   23  C   UNL     1     -12.104  15.416  69.339  1.00  0.00    -0.308 C  
ENDBRANCH  21  22
ENDBRANCH  20  21
ENDBRANCH  19  20
ENDBRANCH  18  19
ENDBRANCH  17  18
ENDBRANCH  16  17
ENDBRANCH  15  16
ENDBRANCH  14  15
ENDBRANCH  11  14
ENDBRANCH   5  10
ENDBRANCH   3   5
ENDBRANCH   2   3
TORSDOF 13
ENDMDL
MODEL      270
REMARK 921   NORMALIZED FREE ENERGY PREDICTED BY IDOCK:   -2.71 KCAL/MOL
REMARK 922        TOTAL FREE ENERGY PREDICTED BY IDOCK:   -6.87 KCAL/MOL
REMARK 923 INTER-LIGAND FREE ENERGY PREDICTED BY IDOCK:   -6.09 KCAL/MOL
REMARK 924 INTRA-LIGAND FREE ENERGY PREDICTED BY IDOCK:   -0.78 KCAL/MOL
REMARK 927      BINDING AFFINITY PREDICTED BY RF-SCORE:    0.00 PKD
ROOT
HETATM    1  C   UNL     1     -10.785  15.029  65.154  1.00  0.00    -0.415 C  
HETATM    2  O   UNL     1     -12.011  14.301  65.172  1.00  0.00    -0.363 OA 
ENDROOT
BRANCH   2   3
HETATM    3  C   UNL     1     -12.055  13.208  64.359  1.00  0.00    -0.410 C  
HETATM    4  O   UNL     1     -12.804  13.064  63.400  1.00  0.00    -0.640 OA 
BRANCH   3   5
HETATM    5  C   UNL     1     -11.005  12.186  64.806  1.00  0.00    -0.310 C  
BRANCH   5   6
HETATM    6  C   UNL     1     -10.696  11.163  63.704  1.00  0.00    -0.381 C  
HETATM    7  C   UNL     1      -8.509  10.341  64.736  1.00  0.00    -0.179 C  
HETATM    8  C   UNL     1      -9.037   9.855  62.341  1.00  0.00    -0.308 C  
HETATM    9  C   UNL     1      -9.201  10.868  63.478  1.00  0.00    -0.258 C  
ENDBRANCH   5   6
BRANCH   5  10
HETATM   10  N   UNL     1     -11.492  11.495  66.000  1.00  0.00    -0.135 N  
HETATM   11  C   UNL     1     -10.865  11.651  67.213  1.00  0.00    -0.256 C  
HETATM   12  H   UNL     1     -12.310  10.890  65.932  1.00  0.00     0.000 HD 
HETATM   13  O   UNL     1      -9.883  12.365  67.385  1.00  0.00    -0.196 OA 
BRANCH  11  14
HETATM   14  C   UNL     1     -11.461  10.827  68.328  1.00  0.00    -0.353 C  
BRANCH  14  15
HETATM   15  C   UNL     1     -11.680  11.694  69.567  1.00  0.00    -0.410 C  
BRANCH  15  16
HETATM   16  C   UNL     1     -12.501  10.990  70.648  1.00  0.00    -0.465 C  
BRANCH  16  17
HETATM   17  C   UNL     1     -11.620  10.299  71.686  1.00  0.00     0.119 C  
BRANCH  17  18
HETATM   18  C   UNL     1     -10.747   9.213  71.065  1.00  0.00    -0.363 C  
BRANCH  18  19
HETATM   19  C   UNL     1      -9.894   8.548  72.144  1.00  0.00    -0.388 C  
BRANCH  19  20
HETATM   20  C   UNL     1      -8.409   8.822  71.925  1.00  0.00    -0.131 C  
BRANCH  20  21
HETATM   21  C   UNL     1      -7.879   8.025  70.733  1.00  0.00    -0.091 C  
BRANCH  21  22
HETATM   22  C   UNL     1      -7.510   6.630  71.142  1.00  0.00    -0.084 C  
HETATM   23  C   UNL     1      -6.882   6.328  72.285  1.00  0.00    -0.073 C  
ENDBRANCH  21  22
ENDBRANCH  20  21
ENDBRANCH  19  20
ENDBRANCH  18  19
ENDBRANCH  17  18
ENDBRANCH  16  17
ENDBRANCH  15  16
ENDBRANCH  14  15
ENDBRANCH  11  14
ENDBRANCH   5  10
ENDBRANCH   3   5
ENDBRANCH   2   3
TORSDOF 13
ENDMDL
MODEL      271
REMARK 921   NORMALIZED FREE ENERGY PREDICTED BY IDOCK:   -2.69 KCAL/MOL
REMARK 922        TOTAL FREE ENERGY PREDICTED BY IDOCK:   -6.84 KCAL/MOL
REMARK 923 INTER-LIGAND FREE ENERGY PREDICTED BY IDOCK:   -5.75 KCAL/MOL
REMARK 924 INTRA-LIGAND FREE ENERGY PREDICTED BY IDOCK:   -1.09 KCAL/MOL
REMARK 927      BINDING AFFINITY PREDICTED BY RF-SCORE:    0.00 PKD
ROOT
HETATM    1  C   UNL     1      -7.653  10.254  63.875  1.00  0.00    -0.084 C  
HETATM    2  O   UNL     1      -8.048   9.619  65.090  1.00  0.00    -0.115 OA 
ENDROOT
BRANCH   2   3
HETATM    3  C   UNL     1      -8.161  10.443  66.171  1.00  0.00    -0.139 C  
HETATM    4  O   UNL     1      -7.258  11.124  66.643  1.00  0.00    -0.137 OA 
BRANCH   3   5
HETATM    5  C   UNL     1      -9.598  10.411  66.699  1.00  0.00    -0.177 C  
BRANCH   5   6
HETATM    6  C   UNL     1     -10.180   8.991  66.689  1.00  0.00    -0.333 C  
HETATM    7  C   UNL     1     -10.422   8.806  69.225  1.00  0.00    -0.228 C  
HETATM    8  C   UNL     1     -10.507   6.757  67.794  1.00  0.00    -0.274 C  
HETATM    9  C   UNL     1      -9.892   8.152  67.948  1.00  0.00    -0.206 C  
ENDBRANCH   5   6
BRANCH   5  10
HETATM   10  N   UNL     1     -10.426  11.292  65.874  1.00  0.00    -0.255 N  
HETATM   11  C   UNL     1     -11.525  11.928  66.402  1.00  0.00    -0.304 C  
HETATM   12  H   UNL     1     -10.184  11.437  64.894  1.00  0.00     0.000 HD 
HETATM   13  O   UNL     1     -11.881  11.817  67.569  1.00  0.00    -0.577 OA 
BRANCH  11  14
HETATM   14  C   UNL     1     -12.299  12.755  65.404  1.00  0.00    -0.528 C  
BRANCH  14  15
HETATM   15  C   UNL     1     -11.452  13.931  64.923  1.00  0.00    -0.354 C  
BRANCH  15  16
HETATM   16  C   UNL     1     -11.296  15.024  65.982  1.00  0.00    -0.270 C  
BRANCH  16  17
HETATM   17  C   UNL     1     -10.723  16.315  65.401  1.00  0.00    -0.342 C  
BRANCH  17  18
HETATM   18  C   UNL     1      -9.437  16.738  66.105  1.00  0.00    -0.295 C  
BRANCH  18  19
HETATM   19  C   UNL     1      -9.767  17.589  67.330  1.00  0.00    -0.276 C  
BRANCH  19  20
HETATM   20  C   UNL     1      -8.647  17.530  68.365  1.00  0.00    -0.275 C  
BRANCH  20  21
HETATM   21  C   UNL     1      -8.177  16.090  68.577  1.00  0.00    -0.181 C  
BRANCH  21  22
HETATM   22  C   UNL     1      -6.740  16.053  69.001  1.00  0.00    -0.157 C  
HETATM   23  C   UNL     1      -6.082  17.103  69.508  1.00  0.00    -0.238 C  
ENDBRANCH  21  22
ENDBRANCH  20  21
ENDBRANCH  19  20
ENDBRANCH  18  19
ENDBRANCH  17  18
ENDBRANCH  16  17
ENDBRANCH  15  16
ENDBRANCH  14  15
ENDBRANCH  11  14
ENDBRANCH   5  10
ENDBRANCH   3   5
ENDBRANCH   2   3
TORSDOF 13
ENDMDL
MODEL      272
REMARK 921   NORMALIZED FREE ENERGY PREDICTED BY IDOCK:   -2.69 KCAL/MOL
REMARK 922        TOTAL FREE ENERGY PREDICTED BY IDOCK:   -6.84 KCAL/MOL
REMARK 923 INTER-LIGAND FREE ENERGY PREDICTED BY IDOCK:   -5.92 KCAL/MOL
REMARK 924 INTRA-LIGAND FREE ENERGY PREDICTED BY IDOCK:   -0.91 KCAL/MOL
REMARK 927      BINDING AFFINITY PREDICTED BY RF-SCORE:    0.00 PKD
ROOT
HETATM    1  C   UNL     1      -8.625   5.871  73.602  1.00  0.00    -0.122 C  
HETATM    2  O   UNL     1      -8.681   5.888  72.177  1.00  0.00    -0.135 OA 
ENDROOT
BRANCH   2   3
HETATM    3  C   UNL     1      -9.824   5.386  71.629  1.00  0.00    -0.172 C  
HETATM    4  O   UNL     1     -10.397   4.366  71.992  1.00  0.00    -0.181 OA 
BRANCH   3   5
HETATM    5  C   UNL     1     -10.306   6.305  70.503  1.00  0.00    -0.204 C  
BRANCH   5   6
HETATM    6  C   UNL     1      -9.618   7.676  70.549  1.00  0.00    -0.167 C  
HETATM    7  C   UNL     1     -10.374   8.410  68.222  1.00  0.00    -0.244 C  
HETATM    8  C   UNL     1      -8.504   9.602  69.377  1.00  0.00    -0.156 C  
HETATM    9  C   UNL     1      -9.195   8.248  69.182  1.00  0.00    -0.151 C  
ENDBRANCH   5   6
BRANCH   5  10
HETATM   10  N   UNL     1     -11.755   6.474  70.615  1.00  0.00    -0.390 N  
HETATM   11  C   UNL     1     -12.313   7.094  71.707  1.00  0.00    -0.350 C  
HETATM   12  H   UNL     1     -12.361   6.126  69.871  1.00  0.00     0.000 HD 
HETATM   13  O   UNL     1     -11.659   7.547  72.640  1.00  0.00    -0.317 OA 
BRANCH  11  14
HETATM   14  C   UNL     1     -13.821   7.136  71.691  1.00  0.00    -0.418 C  
BRANCH  14  15
HETATM   15  C   UNL     1     -14.317   8.494  72.184  1.00  0.00    -0.529 C  
BRANCH  15  16
HETATM   16  C   UNL     1     -14.062   9.620  71.181  1.00  0.00     0.145 C  
BRANCH  16  17
HETATM   17  C   UNL     1     -13.046  10.636  71.698  1.00  0.00    -0.555 C  
BRANCH  17  18
HETATM   18  C   UNL     1     -11.807  10.709  70.812  1.00  0.00    -0.459 C  
BRANCH  18  19
HETATM   19  C   UNL     1     -12.145  11.408  69.497  1.00  0.00    -0.370 C  
BRANCH  19  20
HETATM   20  C   UNL     1     -12.394  12.899  69.708  1.00  0.00    -0.118 C  
BRANCH  20  21
HETATM   21  C   UNL     1     -11.371  13.737  68.940  1.00  0.00    -0.328 C  
BRANCH  21  22
HETATM   22  C   UNL     1     -11.721  15.193  68.995  1.00  0.00    -0.358 C  
HETATM   23  C   UNL     1     -10.969  16.121  69.600  1.00  0.00    -0.346 C  
ENDBRANCH  21  22
ENDBRANCH  20  21
ENDBRANCH  19  20
ENDBRANCH  18  19
ENDBRANCH  17  18
ENDBRANCH  16  17
ENDBRANCH  15  16
ENDBRANCH  14  15
ENDBRANCH  11  14
ENDBRANCH   5  10
ENDBRANCH   3   5
ENDBRANCH   2   3
TORSDOF 13
ENDMDL
MODEL      273
REMARK 921   NORMALIZED FREE ENERGY PREDICTED BY IDOCK:   -2.69 KCAL/MOL
REMARK 922        TOTAL FREE ENERGY PREDICTED BY IDOCK:   -6.84 KCAL/MOL
REMARK 923 INTER-LIGAND FREE ENERGY PREDICTED BY IDOCK:   -6.53 KCAL/MOL
REMARK 924 INTRA-LIGAND FREE ENERGY PREDICTED BY IDOCK:   -0.31 KCAL/MOL
REMARK 927      BINDING AFFINITY PREDICTED BY RF-SCORE:    0.00 PKD
ROOT
HETATM    1  C   UNL     1     -10.577  16.310  66.648  1.00  0.00    -0.252 C  
HETATM    2  O   UNL     1     -11.421  16.653  67.744  1.00  0.00    -0.057 OA 
ENDROOT
BRANCH   2   3
HETATM    3  C   UNL     1     -10.994  16.229  68.967  1.00  0.00    -0.325 C  
HETATM    4  O   UNL     1      -9.897  16.465  69.459  1.00  0.00    -0.216 OA 
BRANCH   3   5
HETATM    5  C   UNL     1     -12.105  15.428  69.655  1.00  0.00    -0.327 C  
BRANCH   5   6
HETATM    6  C   UNL     1     -11.804  15.194  71.141  1.00  0.00    -0.393 C  
HETATM    7  C   UNL     1     -14.242  14.888  71.840  1.00  0.00    -0.640 C  
HETATM    8  C   UNL     1     -12.483  15.347  73.557  1.00  0.00    -0.666 C  
HETATM    9  C   UNL     1     -12.923  15.612  72.114  1.00  0.00    -0.527 C  
ENDBRANCH   5   6
BRANCH   5  10
HETATM   10  N   UNL     1     -12.256  14.143  68.971  1.00  0.00    -0.521 N  
HETATM   11  C   UNL     1     -11.161  13.369  68.670  1.00  0.00    -0.263 C  
HETATM   12  H   UNL     1     -13.188  13.816  68.715  1.00  0.00     0.000 HD 
HETATM   13  O   UNL     1     -10.008  13.681  68.948  1.00  0.00    -0.141 OA 
BRANCH  11  14
HETATM   14  C   UNL     1     -11.487  12.102  67.917  1.00  0.00    -0.392 C  
BRANCH  14  15
HETATM   15  C   UNL     1     -11.477  10.906  68.866  1.00  0.00    -0.369 C  
BRANCH  15  16
HETATM   16  C   UNL     1     -10.166  10.119  68.816  1.00  0.00    -0.200 C  
BRANCH  16  17
HETATM   17  C   UNL     1      -9.710   9.845  67.385  1.00  0.00    -0.199 C  
BRANCH  17  18
HETATM   18  C   UNL     1      -8.214   9.564  67.303  1.00  0.00    -0.114 C  
BRANCH  18  19
HETATM   19  C   UNL     1      -7.895   8.231  67.978  1.00  0.00    -0.118 C  
BRANCH  19  20
HETATM   20  C   UNL     1      -8.425   7.055  67.163  1.00  0.00    -0.121 C  
BRANCH  20  21
HETATM   21  C   UNL     1      -8.913   5.932  68.079  1.00  0.00    -0.118 C  
BRANCH  21  22
HETATM   22  C   UNL     1      -9.869   6.458  69.108  1.00  0.00    -0.158 C  
HETATM   23  C   UNL     1     -11.184   6.206  69.103  1.00  0.00    -0.409 C  
ENDBRANCH  21  22
ENDBRANCH  20  21
ENDBRANCH  19  20
ENDBRANCH  18  19
ENDBRANCH  17  18
ENDBRANCH  16  17
ENDBRANCH  15  16
ENDBRANCH  14  15
ENDBRANCH  11  14
ENDBRANCH   5  10
ENDBRANCH   3   5
ENDBRANCH   2   3
TORSDOF 13
ENDMDL
MODEL      274
REMARK 921   NORMALIZED FREE ENERGY PREDICTED BY IDOCK:   -2.68 KCAL/MOL
REMARK 922        TOTAL FREE ENERGY PREDICTED BY IDOCK:   -6.82 KCAL/MOL
REMARK 923 INTER-LIGAND FREE ENERGY PREDICTED BY IDOCK:   -5.94 KCAL/MOL
REMARK 924 INTRA-LIGAND FREE ENERGY PREDICTED BY IDOCK:   -0.88 KCAL/MOL
REMARK 927      BINDING AFFINITY PREDICTED BY RF-SCORE:    0.00 PKD
ROOT
HETATM    1  C   UNL     1      -7.726  18.375  68.420  1.00  0.00    -0.297 C  
HETATM    2  O   UNL     1      -8.845  17.520  68.646  1.00  0.00    -0.276 OA 
ENDROOT
BRANCH   2   3
HETATM    3  C   UNL     1      -9.943  17.779  67.882  1.00  0.00    -0.322 C  
HETATM    4  O   UNL     1     -10.217  18.860  67.373  1.00  0.00    -0.347 OA 
BRANCH   3   5
HETATM    5  C   UNL     1     -10.780  16.505  67.728  1.00  0.00    -0.329 C  
BRANCH   5   6
HETATM    6  C   UNL     1     -11.906  16.432  68.769  1.00  0.00     0.093 C  
HETATM    7  C   UNL     1     -10.535  15.184  70.526  1.00  0.00    -0.042 C  
HETATM    8  C   UNL     1     -13.028  15.265  70.693  1.00  0.00    -0.442 C  
HETATM    9  C   UNL     1     -11.839  15.228  69.728  1.00  0.00    -0.357 C  
ENDBRANCH   5   6
BRANCH   5  10
HETATM   10  N   UNL     1      -9.903  15.342  67.863  1.00  0.00    -0.219 N  
HETATM   11  C   UNL     1      -9.316  14.767  66.761  1.00  0.00    -0.249 C  
HETATM   12  H   UNL     1      -9.725  14.952  68.789  1.00  0.00     0.000 HD 
HETATM   13  O   UNL     1      -9.470  15.176  65.616  1.00  0.00    -0.307 OA 
BRANCH  11  14
HETATM   14  C   UNL     1      -8.487  13.544  67.070  1.00  0.00    -0.137 C  
BRANCH  14  15
HETATM   15  C   UNL     1      -8.821  12.419  66.092  1.00  0.00     0.108 C  
BRANCH  15  16
HETATM   16  C   UNL     1     -10.291  12.001  66.148  1.00  0.00    -0.257 C  
BRANCH  16  17
HETATM   17  C   UNL     1     -10.469  10.586  66.695  1.00  0.00    -0.290 C  
BRANCH  17  18
HETATM   18  C   UNL     1     -11.407  10.550  67.897  1.00  0.00    -0.297 C  
BRANCH  18  19
HETATM   19  C   UNL     1     -11.358  11.885  68.638  1.00  0.00    -0.331 C  
BRANCH  19  20
HETATM   20  C   UNL     1     -11.805  11.731  70.089  1.00  0.00    -0.408 C  
BRANCH  20  21
HETATM   21  C   UNL     1     -11.365  10.380  70.655  1.00  0.00    -0.411 C  
BRANCH  21  22
HETATM   22  C   UNL     1     -12.392   9.836  71.601  1.00  0.00    -0.495 C  
HETATM   23  C   UNL     1     -13.459  10.525  72.025  1.00  0.00    -0.330 C  
ENDBRANCH  21  22
ENDBRANCH  20  21
ENDBRANCH  19  20
ENDBRANCH  18  19
ENDBRANCH  17  18
ENDBRANCH  16  17
ENDBRANCH  15  16
ENDBRANCH  14  15
ENDBRANCH  11  14
ENDBRANCH   5  10
ENDBRANCH   3   5
ENDBRANCH   2   3
TORSDOF 13
ENDMDL
MODEL      275
REMARK 921   NORMALIZED FREE ENERGY PREDICTED BY IDOCK:   -2.67 KCAL/MOL
REMARK 922        TOTAL FREE ENERGY PREDICTED BY IDOCK:   -6.81 KCAL/MOL
REMARK 923 INTER-LIGAND FREE ENERGY PREDICTED BY IDOCK:   -6.49 KCAL/MOL
REMARK 924 INTRA-LIGAND FREE ENERGY PREDICTED BY IDOCK:   -0.32 KCAL/MOL
REMARK 927      BINDING AFFINITY PREDICTED BY RF-SCORE:    0.00 PKD
ROOT
HETATM    1  C   UNL     1     -11.170  14.482  69.932  1.00  0.00    -0.203 C  
HETATM    2  O   UNL     1     -10.517  15.736  69.744  1.00  0.00    -0.274 OA 
ENDROOT
BRANCH   2   3
HETATM    3  C   UNL     1     -10.685  16.305  68.516  1.00  0.00    -0.307 C  
HETATM    4  O   UNL     1     -11.453  17.224  68.259  1.00  0.00     0.086 OA 
BRANCH   3   5
HETATM    5  C   UNL     1      -9.749  15.639  67.503  1.00  0.00    -0.222 C  
BRANCH   5   6
HETATM    6  C   UNL     1      -8.802  16.654  66.848  1.00  0.00    -0.235 C  
HETATM    7  C   UNL     1      -7.035  16.566  68.691  1.00  0.00    -0.167 C  
HETATM    8  C   UNL     1      -7.048  18.445  67.042  1.00  0.00    -0.210 C  
HETATM    9  C   UNL     1      -7.922  17.459  67.824  1.00  0.00    -0.208 C  
ENDBRANCH   5   6
BRANCH   5  10
HETATM   10  N   UNL     1     -10.554  14.978  66.476  1.00  0.00    -0.298 N  
HETATM   11  C   UNL     1     -10.906  15.636  65.321  1.00  0.00    -0.406 C  
HETATM   12  H   UNL     1     -10.858  14.015  66.618  1.00  0.00     0.000 HD 
HETATM   13  O   UNL     1     -10.577  16.789  65.067  1.00  0.00    -0.695 OA 
BRANCH  11  14
HETATM   14  C   UNL     1     -11.782  14.830  64.393  1.00  0.00    -0.347 C  
BRANCH  14  15
HETATM   15  C   UNL     1     -11.692  13.345  64.739  1.00  0.00    -0.393 C  
BRANCH  15  16
HETATM   16  C   UNL     1     -10.979  12.526  63.661  1.00  0.00    -0.507 C  
BRANCH  16  17
HETATM   17  C   UNL     1     -10.560  11.147  64.165  1.00  0.00    -0.436 C  
BRANCH  17  18
HETATM   18  C   UNL     1      -9.707  11.233  65.427  1.00  0.00    -0.271 C  
BRANCH  18  19
HETATM   19  C   UNL     1     -10.336  10.397  66.541  1.00  0.00    -0.287 C  
BRANCH  19  20
HETATM   20  C   UNL     1      -9.311  10.045  67.616  1.00  0.00    -0.159 C  
BRANCH  20  21
HETATM   21  C   UNL     1      -9.957  10.039  69.002  1.00  0.00    -0.203 C  
BRANCH  21  22
HETATM   22  C   UNL     1     -11.171  10.918  69.031  1.00  0.00    -0.327 C  
HETATM   23  C   UNL     1     -12.135  10.830  69.956  1.00  0.00    -0.423 C  
ENDBRANCH  21  22
ENDBRANCH  20  21
ENDBRANCH  19  20
ENDBRANCH  18  19
ENDBRANCH  17  18
ENDBRANCH  16  17
ENDBRANCH  15  16
ENDBRANCH  14  15
ENDBRANCH  11  14
ENDBRANCH   5  10
ENDBRANCH   3   5
ENDBRANCH   2   3
TORSDOF 13
ENDMDL
MODEL      276
REMARK 921   NORMALIZED FREE ENERGY PREDICTED BY IDOCK:   -2.67 KCAL/MOL
REMARK 922        TOTAL FREE ENERGY PREDICTED BY IDOCK:   -6.81 KCAL/MOL
REMARK 923 INTER-LIGAND FREE ENERGY PREDICTED BY IDOCK:   -5.50 KCAL/MOL
REMARK 924 INTRA-LIGAND FREE ENERGY PREDICTED BY IDOCK:   -1.31 KCAL/MOL
REMARK 927      BINDING AFFINITY PREDICTED BY RF-SCORE:    0.00 PKD
ROOT
HETATM    1  C   UNL     1     -12.437  13.459  63.235  1.00  0.00    -0.052 C  
HETATM    2  O   UNL     1     -12.663  13.005  64.568  1.00  0.00    -0.656 OA 
ENDROOT
BRANCH   2   3
HETATM    3  C   UNL     1     -11.712  12.167  65.070  1.00  0.00    -0.314 C  
HETATM    4  O   UNL     1     -11.056  11.364  64.418  1.00  0.00    -0.329 OA 
BRANCH   3   5
HETATM    5  C   UNL     1     -11.563  12.397  66.577  1.00  0.00    -0.387 C  
BRANCH   5   6
HETATM    6  C   UNL     1     -10.804  13.695  66.885  1.00  0.00    -0.286 C  
HETATM    7  C   UNL     1     -11.918  14.100  69.148  1.00  0.00    -0.388 C  
HETATM    8  C   UNL     1     -10.694  15.949  67.994  1.00  0.00    -0.301 C  
HETATM    9  C   UNL     1     -11.550  14.696  67.789  1.00  0.00    -0.382 C  
ENDBRANCH   5   6
BRANCH   5  10
HETATM   10  N   UNL     1     -10.854  11.259  67.163  1.00  0.00    -0.256 N  
HETATM   11  C   UNL     1     -11.361  10.597  68.256  1.00  0.00    -0.289 C  
HETATM   12  H   UNL     1      -9.972  10.951  66.754  1.00  0.00     0.000 HD 
HETATM   13  O   UNL     1     -12.416  10.895  68.804  1.00  0.00    -0.431 OA 
BRANCH  11  14
HETATM   14  C   UNL     1     -10.480   9.483  68.768  1.00  0.00    -0.243 C  
BRANCH  14  15
HETATM   15  C   UNL     1      -9.438  10.036  69.737  1.00  0.00    -0.239 C  
BRANCH  15  16
HETATM   16  C   UNL     1      -8.044  10.142  69.116  1.00  0.00    -0.134 C  
BRANCH  16  17
HETATM   17  C   UNL     1      -7.596  11.592  68.943  1.00  0.00    -0.102 C  
BRANCH  17  18
HETATM   18  C   UNL     1      -7.426  11.968  67.475  1.00  0.00    -0.140 C  
BRANCH  18  19
HETATM   19  C   UNL     1      -6.400  11.048  66.815  1.00  0.00    -0.114 C  
BRANCH  19  20
HETATM   20  C   UNL     1      -6.889  10.557  65.456  1.00  0.00    -0.100 C  
BRANCH  20  21
HETATM   21  C   UNL     1      -5.711  10.286  64.519  1.00  0.00    -0.133 C  
BRANCH  21  22
HETATM   22  C   UNL     1      -6.109  10.485  63.087  1.00  0.00    -0.100 C  
HETATM   23  C   UNL     1      -7.150   9.873  62.508  1.00  0.00    -0.120 C  
ENDBRANCH  21  22
ENDBRANCH  20  21
ENDBRANCH  19  20
ENDBRANCH  18  19
ENDBRANCH  17  18
ENDBRANCH  16  17
ENDBRANCH  15  16
ENDBRANCH  14  15
ENDBRANCH  11  14
ENDBRANCH   5  10
ENDBRANCH   3   5
ENDBRANCH   2   3
TORSDOF 13
ENDMDL
MODEL      277
REMARK 921   NORMALIZED FREE ENERGY PREDICTED BY IDOCK:   -2.66 KCAL/MOL
REMARK 922        TOTAL FREE ENERGY PREDICTED BY IDOCK:   -6.79 KCAL/MOL
REMARK 923 INTER-LIGAND FREE ENERGY PREDICTED BY IDOCK:   -6.28 KCAL/MOL
REMARK 924 INTRA-LIGAND FREE ENERGY PREDICTED BY IDOCK:   -0.51 KCAL/MOL
REMARK 927      BINDING AFFINITY PREDICTED BY RF-SCORE:    0.00 PKD
ROOT
HETATM    1  C   UNL     1     -10.706   9.617  70.754  1.00  0.00    -0.331 C  
HETATM    2  O   UNL     1     -11.151   9.761  69.407  1.00  0.00    -0.227 OA 
ENDROOT
BRANCH   2   3
HETATM    3  C   UNL     1     -10.499   8.992  68.489  1.00  0.00    -0.196 C  
HETATM    4  O   UNL     1     -10.151   7.829  68.655  1.00  0.00    -0.188 OA 
BRANCH   3   5
HETATM    5  C   UNL     1     -10.285   9.792  67.201  1.00  0.00    -0.228 C  
BRANCH   5   6
HETATM    6  C   UNL     1      -8.805   9.848  66.802  1.00  0.00    -0.147 C  
HETATM    7  C   UNL     1      -8.066  11.260  68.799  1.00  0.00    -0.130 C  
HETATM    8  C   UNL     1      -6.589  11.037  66.793  1.00  0.00    -0.124 C  
HETATM    9  C   UNL     1      -8.041  11.099  67.278  1.00  0.00    -0.137 C  
ENDBRANCH   5   6
BRANCH   5  10
HETATM   10  N   UNL     1     -10.799  11.148  67.393  1.00  0.00    -0.249 N  
HETATM   11  C   UNL     1     -11.260  11.888  66.330  1.00  0.00    -0.337 C  
HETATM   12  H   UNL     1     -10.815  11.552  68.330  1.00  0.00     0.000 HD 
HETATM   13  O   UNL     1     -11.284  11.478  65.174  1.00  0.00    -0.245 OA 
BRANCH  11  14
HETATM   14  C   UNL     1     -11.702  13.284  66.693  1.00  0.00    -0.425 C  
BRANCH  14  15
HETATM   15  C   UNL     1     -12.570  13.869  65.580  1.00  0.00    -0.553 C  
BRANCH  15  16
HETATM   16  C   UNL     1     -11.864  14.977  64.797  1.00  0.00    -0.341 C  
BRANCH  16  17
HETATM   17  C   UNL     1     -10.367  15.034  65.096  1.00  0.00    -0.422 C  
BRANCH  17  18
HETATM   18  C   UNL     1     -10.001  16.234  65.963  1.00  0.00    -0.370 C  
BRANCH  18  19
HETATM   19  C   UNL     1     -10.884  17.428  65.603  1.00  0.00    -0.011 C  
BRANCH  19  20
HETATM   20  C   UNL     1     -10.526  18.654  66.438  1.00  0.00    -0.463 C  
BRANCH  20  21
HETATM   21  C   UNL     1      -9.083  18.572  66.936  1.00  0.00    -0.290 C  
BRANCH  21  22
HETATM   22  C   UNL     1      -8.918  19.317  68.227  1.00  0.00    -0.381 C  
HETATM   23  C   UNL     1      -9.932  19.632  69.043  1.00  0.00    -0.482 C  
ENDBRANCH  21  22
ENDBRANCH  20  21
ENDBRANCH  19  20
ENDBRANCH  18  19
ENDBRANCH  17  18
ENDBRANCH  16  17
ENDBRANCH  15  16
ENDBRANCH  14  15
ENDBRANCH  11  14
ENDBRANCH   5  10
ENDBRANCH   3   5
ENDBRANCH   2   3
TORSDOF 13
ENDMDL
MODEL      278
REMARK 921   NORMALIZED FREE ENERGY PREDICTED BY IDOCK:   -2.65 KCAL/MOL
REMARK 922        TOTAL FREE ENERGY PREDICTED BY IDOCK:   -6.77 KCAL/MOL
REMARK 923 INTER-LIGAND FREE ENERGY PREDICTED BY IDOCK:   -5.06 KCAL/MOL
REMARK 924 INTRA-LIGAND FREE ENERGY PREDICTED BY IDOCK:   -1.71 KCAL/MOL
REMARK 927      BINDING AFFINITY PREDICTED BY RF-SCORE:    0.00 PKD
ROOT
HETATM    1  C   UNL     1      -7.239   5.403  69.209  1.00  0.00    -0.065 C  
HETATM    2  O   UNL     1      -8.531   4.806  69.119  1.00  0.00    -0.080 OA 
ENDROOT
BRANCH   2   3
HETATM    3  C   UNL     1      -9.550   5.658  68.813  1.00  0.00    -0.131 C  
HETATM    4  O   UNL     1     -10.321   5.535  67.869  1.00  0.00    -0.186 OA 
BRANCH   3   5
HETATM    5  C   UNL     1      -9.608   6.789  69.846  1.00  0.00    -0.155 C  
BRANCH   5   6
HETATM    6  C   UNL     1     -10.701   6.549  70.895  1.00  0.00    -0.289 C  
HETATM    7  C   UNL     1      -9.101   6.330  72.874  1.00  0.00    -0.130 C  
HETATM    8  C   UNL     1     -11.462   5.528  73.063  1.00  0.00    -0.288 C  
HETATM    9  C   UNL     1     -10.274   5.709  72.113  1.00  0.00    -0.247 C  
ENDBRANCH   5   6
BRANCH   5  10
HETATM   10  N   UNL     1      -9.855   8.053  69.152  1.00  0.00    -0.174 N  
HETATM   11  C   UNL     1      -9.291   9.225  69.597  1.00  0.00    -0.179 C  
HETATM   12  H   UNL     1     -10.454   8.065  68.326  1.00  0.00     0.000 HD 
HETATM   13  O   UNL     1      -8.554   9.299  70.574  1.00  0.00    -0.198 OA 
BRANCH  11  14
HETATM   14  C   UNL     1      -9.691  10.444  68.801  1.00  0.00    -0.184 C  
BRANCH  14  15
HETATM   15  C   UNL     1     -11.157  10.345  68.384  1.00  0.00    -0.322 C  
BRANCH  15  16
HETATM   16  C   UNL     1     -11.928  11.648  68.606  1.00  0.00    -0.311 C  
BRANCH  16  17
HETATM   17  C   UNL     1     -11.307  12.822  67.852  1.00  0.00    -0.339 C  
BRANCH  17  18
HETATM   18  C   UNL     1     -11.737  12.855  66.389  1.00  0.00    -0.454 C  
BRANCH  18  19
HETATM   19  C   UNL     1     -10.511  12.995  65.488  1.00  0.00    -0.297 C  
BRANCH  19  20
HETATM   20  C   UNL     1     -10.345  11.776  64.584  1.00  0.00    -0.336 C  
BRANCH  20  21
HETATM   21  C   UNL     1      -9.145  10.934  65.020  1.00  0.00    -0.209 C  
BRANCH  21  22
HETATM   22  C   UNL     1      -9.508   9.481  65.094  1.00  0.00    -0.305 C  
HETATM   23  C   UNL     1      -8.611   8.490  65.175  1.00  0.00    -0.179 C  
ENDBRANCH  21  22
ENDBRANCH  20  21
ENDBRANCH  19  20
ENDBRANCH  18  19
ENDBRANCH  17  18
ENDBRANCH  16  17
ENDBRANCH  15  16
ENDBRANCH  14  15
ENDBRANCH  11  14
ENDBRANCH   5  10
ENDBRANCH   3   5
ENDBRANCH   2   3
TORSDOF 13
ENDMDL
MODEL      279
REMARK 921   NORMALIZED FREE ENERGY PREDICTED BY IDOCK:   -2.65 KCAL/MOL
REMARK 922        TOTAL FREE ENERGY PREDICTED BY IDOCK:   -6.77 KCAL/MOL
REMARK 923 INTER-LIGAND FREE ENERGY PREDICTED BY IDOCK:   -6.63 KCAL/MOL
REMARK 924 INTRA-LIGAND FREE ENERGY PREDICTED BY IDOCK:   -0.14 KCAL/MOL
REMARK 927      BINDING AFFINITY PREDICTED BY RF-SCORE:    0.00 PKD
ROOT
HETATM    1  C   UNL     1      -9.579   4.681  67.545  1.00  0.00    -0.163 C  
HETATM    2  O   UNL     1      -9.657   5.412  68.767  1.00  0.00    -0.123 OA 
ENDROOT
BRANCH   2   3
HETATM    3  C   UNL     1      -8.856   6.512  68.842  1.00  0.00    -0.126 C  
HETATM    4  O   UNL     1      -7.700   6.580  68.442  1.00  0.00    -0.101 OA 
BRANCH   3   5
HETATM    5  C   UNL     1      -9.627   7.671  69.482  1.00  0.00    -0.163 C  
BRANCH   5   6
HETATM    6  C   UNL     1     -11.070   7.277  69.826  1.00  0.00    -0.203 C  
HETATM    7  C   UNL     1     -11.454   9.178  71.489  1.00  0.00    -0.437 C  
HETATM    8  C   UNL     1     -12.983   7.199  71.456  1.00  0.00    -0.431 C  
HETATM    9  C   UNL     1     -11.542   7.672  71.239  1.00  0.00    -0.302 C  
ENDBRANCH   5   6
BRANCH   5  10
HETATM   10  N   UNL     1      -9.630   8.806  68.559  1.00  0.00    -0.148 N  
HETATM   11  C   UNL     1     -10.221   8.710  67.322  1.00  0.00    -0.268 C  
HETATM   12  H   UNL     1      -9.187   9.682  68.837  1.00  0.00     0.000 HD 
HETATM   13  O   UNL     1     -10.782   7.700  66.911  1.00  0.00    -0.351 OA 
BRANCH  11  14
HETATM   14  C   UNL     1     -10.088   9.952  66.474  1.00  0.00    -0.298 C  
BRANCH  14  15
HETATM   15  C   UNL     1     -10.960  11.072  67.037  1.00  0.00    -0.333 C  
BRANCH  15  16
HETATM   16  C   UNL     1     -10.348  12.460  66.838  1.00  0.00    -0.240 C  
BRANCH  16  17
HETATM   17  C   UNL     1     -11.352  13.458  66.265  1.00  0.00    -0.329 C  
BRANCH  17  18
HETATM   18  C   UNL     1     -10.887  14.040  64.935  1.00  0.00    -0.421 C  
BRANCH  18  19
HETATM   19  C   UNL     1     -10.917  15.566  64.992  1.00  0.00    -0.454 C  
BRANCH  19  20
HETATM   20  C   UNL     1      -9.814  16.109  65.898  1.00  0.00    -0.384 C  
BRANCH  20  21
HETATM   21  C   UNL     1     -10.377  17.125  66.892  1.00  0.00    -0.308 C  
BRANCH  21  22
HETATM   22  C   UNL     1     -10.451  18.491  66.279  1.00  0.00    -0.441 C  
HETATM   23  C   UNL     1     -10.528  19.625  66.987  1.00  0.00    -0.600 C  
ENDBRANCH  21  22
ENDBRANCH  20  21
ENDBRANCH  19  20
ENDBRANCH  18  19
ENDBRANCH  17  18
ENDBRANCH  16  17
ENDBRANCH  15  16
ENDBRANCH  14  15
ENDBRANCH  11  14
ENDBRANCH   5  10
ENDBRANCH   3   5
ENDBRANCH   2   3
TORSDOF 13
ENDMDL
MODEL      280
REMARK 921   NORMALIZED FREE ENERGY PREDICTED BY IDOCK:   -2.65 KCAL/MOL
REMARK 922        TOTAL FREE ENERGY PREDICTED BY IDOCK:   -6.77 KCAL/MOL
REMARK 923 INTER-LIGAND FREE ENERGY PREDICTED BY IDOCK:   -4.67 KCAL/MOL
REMARK 924 INTRA-LIGAND FREE ENERGY PREDICTED BY IDOCK:   -2.09 KCAL/MOL
REMARK 927      BINDING AFFINITY PREDICTED BY RF-SCORE:    0.00 PKD
ROOT
HETATM    1  C   UNL     1     -12.107  10.635  70.784  1.00  0.00    -0.374 C  
HETATM    2  O   UNL     1     -11.209   9.835  71.551  1.00  0.00    -0.360 OA 
ENDROOT
BRANCH   2   3
HETATM    3  C   UNL     1     -10.265   9.164  70.834  1.00  0.00    -0.282 C  
HETATM    4  O   UNL     1      -9.061   9.392  70.854  1.00  0.00    -0.236 OA 
BRANCH   3   5
HETATM    5  C   UNL     1     -10.929   8.056  70.010  1.00  0.00    -0.202 C  
BRANCH   5   6
HETATM    6  C   UNL     1     -11.055   6.749  70.806  1.00  0.00    -0.323 C  
HETATM    7  C   UNL     1     -13.439   7.181  71.613  1.00  0.00    -0.397 C  
HETATM    8  C   UNL     1     -12.024   5.446  72.726  1.00  0.00    -0.083 C  
HETATM    9  C   UNL     1     -12.013   6.802  72.012  1.00  0.00    -0.355 C  
ENDBRANCH   5   6
BRANCH   5  10
HETATM   10  N   UNL     1     -10.139   7.825  68.801  1.00  0.00    -0.191 N  
HETATM   11  C   UNL     1     -10.322   8.597  67.678  1.00  0.00    -0.254 C  
HETATM   12  H   UNL     1      -9.442   7.079  68.790  1.00  0.00     0.000 HD 
HETATM   13  O   UNL     1     -11.130   9.516  67.608  1.00  0.00    -0.183 OA 
BRANCH  11  14
HETATM   14  C   UNL     1      -9.467   8.191  66.503  1.00  0.00    -0.286 C  
BRANCH  14  15
HETATM   15  C   UNL     1      -9.413   6.669  66.389  1.00  0.00    -0.166 C  
BRANCH  15  16
HETATM   16  C   UNL     1      -8.075   6.086  66.848  1.00  0.00    -0.105 C  
BRANCH  16  17
HETATM   17  C   UNL     1      -8.225   4.683  67.430  1.00  0.00    -0.101 C  
BRANCH  17  18
HETATM   18  C   UNL     1      -9.650   4.405  67.897  1.00  0.00    -0.205 C  
BRANCH  18  19
HETATM   19  C   UNL     1      -9.631   3.781  69.292  1.00  0.00    -0.209 C  
BRANCH  19  20
HETATM   20  C   UNL     1      -8.232   3.826  69.901  1.00  0.00    -0.069 C  
BRANCH  20  21
HETATM   21  C   UNL     1      -8.290   4.258  71.366  1.00  0.00    -0.095 C  
BRANCH  21  22
HETATM   22  C   UNL     1      -7.909   5.700  71.515  1.00  0.00    -0.112 C  
HETATM   23  C   UNL     1      -7.301   6.416  70.560  1.00  0.00    -0.085 C  
ENDBRANCH  21  22
ENDBRANCH  20  21
ENDBRANCH  19  20
ENDBRANCH  18  19
ENDBRANCH  17  18
ENDBRANCH  16  17
ENDBRANCH  15  16
ENDBRANCH  14  15
ENDBRANCH  11  14
ENDBRANCH   5  10
ENDBRANCH   3   5
ENDBRANCH   2   3
TORSDOF 13
ENDMDL
MODEL      281
REMARK 921   NORMALIZED FREE ENERGY PREDICTED BY IDOCK:   -2.64 KCAL/MOL
REMARK 922        TOTAL FREE ENERGY PREDICTED BY IDOCK:   -6.76 KCAL/MOL
REMARK 923 INTER-LIGAND FREE ENERGY PREDICTED BY IDOCK:   -5.85 KCAL/MOL
REMARK 924 INTRA-LIGAND FREE ENERGY PREDICTED BY IDOCK:   -0.91 KCAL/MOL
REMARK 927      BINDING AFFINITY PREDICTED BY RF-SCORE:    0.00 PKD
ROOT
HETATM    1  C   UNL     1     -12.342  14.375  64.819  1.00  0.00    -0.414 C  
HETATM    2  O   UNL     1     -11.906  14.398  66.177  1.00  0.00    -0.381 OA 
ENDROOT
BRANCH   2   3
HETATM    3  C   UNL     1     -11.883  13.189  66.805  1.00  0.00    -0.385 C  
HETATM    4  O   UNL     1     -12.165  12.114  66.289  1.00  0.00    -0.604 OA 
BRANCH   3   5
HETATM    5  C   UNL     1     -11.425  13.367  68.256  1.00  0.00    -0.315 C  
BRANCH   5   6
HETATM    6  C   UNL     1     -10.072  14.087  68.344  1.00  0.00    -0.236 C  
HETATM    7  C   UNL     1      -8.765  12.313  67.053  1.00  0.00    -0.199 C  
HETATM    8  C   UNL     1      -7.561  14.013  68.436  1.00  0.00    -0.129 C  
HETATM    9  C   UNL     1      -8.834  13.170  68.317  1.00  0.00    -0.175 C  
ENDBRANCH   5   6
BRANCH   5  10
HETATM   10  N   UNL     1     -11.328  12.051  68.888  1.00  0.00    -0.255 N  
HETATM   11  C   UNL     1     -11.901  11.811  70.114  1.00  0.00    -0.324 C  
HETATM   12  H   UNL     1     -10.827  11.300  68.412  1.00  0.00     0.000 HD 
HETATM   13  O   UNL     1     -12.526  12.652  70.750  1.00  0.00    -0.348 OA 
BRANCH  11  14
HETATM   14  C   UNL     1     -11.661  10.419  70.647  1.00  0.00    -0.444 C  
BRANCH  14  15
HETATM   15  C   UNL     1     -10.260   9.943  70.269  1.00  0.00    -0.322 C  
BRANCH  15  16
HETATM   16  C   UNL     1      -9.989   8.498  70.693  1.00  0.00    -0.222 C  
BRANCH  16  17
HETATM   17  C   UNL     1      -9.390   7.666  69.561  1.00  0.00    -0.153 C  
BRANCH  17  18
HETATM   18  C   UNL     1      -8.815   8.539  68.450  1.00  0.00    -0.139 C  
BRANCH  18  19
HETATM   19  C   UNL     1      -8.684   7.728  67.162  1.00  0.00    -0.125 C  
BRANCH  19  20
HETATM   20  C   UNL     1      -8.320   6.275  67.456  1.00  0.00    -0.113 C  
BRANCH  20  21
HETATM   21  C   UNL     1      -7.967   5.531  66.168  1.00  0.00    -0.105 C  
BRANCH  21  22
HETATM   22  C   UNL     1      -9.206   5.091  65.447  1.00  0.00    -0.144 C  
HETATM   23  C   UNL     1     -10.326   4.690  66.061  1.00  0.00    -0.318 C  
ENDBRANCH  21  22
ENDBRANCH  20  21
ENDBRANCH  19  20
ENDBRANCH  18  19
ENDBRANCH  17  18
ENDBRANCH  16  17
ENDBRANCH  15  16
ENDBRANCH  14  15
ENDBRANCH  11  14
ENDBRANCH   5  10
ENDBRANCH   3   5
ENDBRANCH   2   3
TORSDOF 13
ENDMDL
MODEL      282
REMARK 921   NORMALIZED FREE ENERGY PREDICTED BY IDOCK:   -2.64 KCAL/MOL
REMARK 922        TOTAL FREE ENERGY PREDICTED BY IDOCK:   -6.75 KCAL/MOL
REMARK 923 INTER-LIGAND FREE ENERGY PREDICTED BY IDOCK:   -6.71 KCAL/MOL
REMARK 924 INTRA-LIGAND FREE ENERGY PREDICTED BY IDOCK:   -0.04 KCAL/MOL
REMARK 927      BINDING AFFINITY PREDICTED BY RF-SCORE:    0.00 PKD
ROOT
HETATM    1  C   UNL     1      -8.820   8.264  69.199  1.00  0.00    -0.143 C  
HETATM    2  O   UNL     1     -10.066   8.262  68.505  1.00  0.00    -0.186 OA 
ENDROOT
BRANCH   2   3
HETATM    3  C   UNL     1     -10.642   9.486  68.334  1.00  0.00    -0.219 C  
HETATM    4  O   UNL     1     -11.246   9.853  67.333  1.00  0.00    -0.163 OA 
BRANCH   3   5
HETATM    5  C   UNL     1     -10.445  10.333  69.594  1.00  0.00    -0.253 C  
BRANCH   5   6
HETATM    6  C   UNL     1     -11.714  10.381  70.455  1.00  0.00    -0.419 C  
HETATM    7  C   UNL     1     -10.918   8.659  72.165  1.00  0.00    -0.434 C  
HETATM    8  C   UNL     1     -13.339   9.263  72.014  1.00  0.00    -0.518 C  
HETATM    9  C   UNL     1     -12.042   9.084  71.219  1.00  0.00    -0.375 C  
ENDBRANCH   5   6
BRANCH   5  10
HETATM   10  N   UNL     1     -10.062  11.689  69.200  1.00  0.00    -0.419 N  
HETATM   11  C   UNL     1     -11.015  12.642  68.927  1.00  0.00    -0.229 C  
HETATM   12  H   UNL     1      -9.074  11.931  69.126  1.00  0.00     0.000 HD 
HETATM   13  O   UNL     1     -12.222  12.439  68.999  1.00  0.00    -0.190 OA 
BRANCH  11  14
HETATM   14  C   UNL     1     -10.452  13.970  68.482  1.00  0.00    -0.251 C  
BRANCH  14  15
HETATM   15  C   UNL     1     -11.323  14.570  67.381  1.00  0.00    -0.370 C  
BRANCH  15  16
HETATM   16  C   UNL     1     -10.651  14.536  66.007  1.00  0.00    -0.311 C  
BRANCH  16  17
HETATM   17  C   UNL     1     -10.417  15.936  65.443  1.00  0.00    -0.429 C  
BRANCH  17  18
HETATM   18  C   UNL     1     -10.381  16.996  66.538  1.00  0.00    -0.298 C  
BRANCH  18  19
HETATM   19  C   UNL     1      -8.971  17.570  66.664  1.00  0.00    -0.283 C  
BRANCH  19  20
HETATM   20  C   UNL     1      -8.857  18.501  67.868  1.00  0.00    -0.301 C  
BRANCH  20  21
HETATM   21  C   UNL     1      -7.852  19.621  67.597  1.00  0.00    -0.317 C  
BRANCH  21  22
HETATM   22  C   UNL     1      -7.614  19.783  66.126  1.00  0.00    -0.330 C  
HETATM   23  C   UNL     1      -6.474  20.248  65.600  1.00  0.00    -0.270 C  
ENDBRANCH  21  22
ENDBRANCH  20  21
ENDBRANCH  19  20
ENDBRANCH  18  19
ENDBRANCH  17  18
ENDBRANCH  16  17
ENDBRANCH  15  16
ENDBRANCH  14  15
ENDBRANCH  11  14
ENDBRANCH   5  10
ENDBRANCH   3   5
ENDBRANCH   2   3
TORSDOF 13
ENDMDL
MODEL      283
REMARK 921   NORMALIZED FREE ENERGY PREDICTED BY IDOCK:   -2.63 KCAL/MOL
REMARK 922        TOTAL FREE ENERGY PREDICTED BY IDOCK:   -6.73 KCAL/MOL
REMARK 923 INTER-LIGAND FREE ENERGY PREDICTED BY IDOCK:   -5.31 KCAL/MOL
REMARK 924 INTRA-LIGAND FREE ENERGY PREDICTED BY IDOCK:   -1.42 KCAL/MOL
REMARK 927      BINDING AFFINITY PREDICTED BY RF-SCORE:    0.00 PKD
ROOT
HETATM    1  C   UNL     1     -10.477  15.892  65.429  1.00  0.00    -0.405 C  
HETATM    2  O   UNL     1     -10.526  15.265  66.709  1.00  0.00    -0.281 OA 
ENDROOT
BRANCH   2   3
HETATM    3  C   UNL     1     -10.433  16.108  67.777  1.00  0.00    -0.295 C  
HETATM    4  O   UNL     1     -10.840  17.263  67.809  1.00  0.00    -0.351 OA 
BRANCH   3   5
HETATM    5  C   UNL     1      -9.762  15.386  68.950  1.00  0.00    -0.220 C  
BRANCH   5   6
HETATM    6  C   UNL     1      -8.308  15.010  68.634  1.00  0.00    -0.166 C  
HETATM    7  C   UNL     1      -7.368  17.361  68.965  1.00  0.00    -0.204 C  
HETATM    8  C   UNL     1      -6.034  15.626  67.755  1.00  0.00    -0.171 C  
HETATM    9  C   UNL     1      -7.447  16.143  68.044  1.00  0.00    -0.141 C  
ENDBRANCH   5   6
BRANCH   5  10
HETATM   10  N   UNL     1     -10.528  14.180  69.266  1.00  0.00    -0.424 N  
HETATM   11  C   UNL     1     -11.697  14.253  69.986  1.00  0.00    -0.298 C  
HETATM   12  H   UNL     1     -10.191  13.272  68.947  1.00  0.00     0.000 HD 
HETATM   13  O   UNL     1     -12.177  15.302  70.400  1.00  0.00    -0.314 OA 
BRANCH  11  14
HETATM   14  C   UNL     1     -12.332  12.914  70.271  1.00  0.00    -0.294 C  
BRANCH  14  15
HETATM   15  C   UNL     1     -11.468  11.788  69.705  1.00  0.00    -0.320 C  
BRANCH  15  16
HETATM   16  C   UNL     1     -11.891  11.366  68.297  1.00  0.00    -0.320 C  
BRANCH  16  17
HETATM   17  C   UNL     1     -11.124  10.140  67.806  1.00  0.00    -0.293 C  
BRANCH  17  18
HETATM   18  C   UNL     1     -10.654   9.259  68.959  1.00  0.00    -0.225 C  
BRANCH  18  19
HETATM   19  C   UNL     1      -9.170   8.932  68.796  1.00  0.00    -0.140 C  
BRANCH  19  20
HETATM   20  C   UNL     1      -8.308   9.784  69.723  1.00  0.00    -0.189 C  
BRANCH  20  21
HETATM   21  C   UNL     1      -7.821  11.045  69.007  1.00  0.00    -0.126 C  
BRANCH  21  22
HETATM   22  C   UNL     1      -6.391  11.337  69.350  1.00  0.00    -0.092 C  
HETATM   23  C   UNL     1      -5.460  11.674  68.449  1.00  0.00    -0.045 C  
ENDBRANCH  21  22
ENDBRANCH  20  21
ENDBRANCH  19  20
ENDBRANCH  18  19
ENDBRANCH  17  18
ENDBRANCH  16  17
ENDBRANCH  15  16
ENDBRANCH  14  15
ENDBRANCH  11  14
ENDBRANCH   5  10
ENDBRANCH   3   5
ENDBRANCH   2   3
TORSDOF 13
ENDMDL
MODEL      284
REMARK 921   NORMALIZED FREE ENERGY PREDICTED BY IDOCK:   -2.63 KCAL/MOL
REMARK 922        TOTAL FREE ENERGY PREDICTED BY IDOCK:   -6.73 KCAL/MOL
REMARK 923 INTER-LIGAND FREE ENERGY PREDICTED BY IDOCK:   -4.80 KCAL/MOL
REMARK 924 INTRA-LIGAND FREE ENERGY PREDICTED BY IDOCK:   -1.93 KCAL/MOL
REMARK 927      BINDING AFFINITY PREDICTED BY RF-SCORE:    0.00 PKD
ROOT
HETATM    1  C   UNL     1      -9.587  12.945  68.016  1.00  0.00    -0.221 C  
HETATM    2  O   UNL     1      -9.509  11.553  68.315  1.00  0.00    -0.178 OA 
ENDROOT
BRANCH   2   3
HETATM    3  C   UNL     1      -8.258  11.082  68.584  1.00  0.00    -0.151 C  
HETATM    4  O   UNL     1      -7.232  11.750  68.586  1.00  0.00    -0.098 OA 
BRANCH   3   5
HETATM    5  C   UNL     1      -8.327   9.587  68.914  1.00  0.00    -0.121 C  
BRANCH   5   6
HETATM    6  C   UNL     1      -8.797   8.758  67.711  1.00  0.00    -0.137 C  
HETATM    7  C   UNL     1      -7.163   6.831  68.089  1.00  0.00    -0.091 C  
HETATM    8  C   UNL     1      -8.322   7.091  65.889  1.00  0.00    -0.141 C  
HETATM    9  C   UNL     1      -7.729   7.839  67.088  1.00  0.00    -0.105 C  
ENDBRANCH   5   6
BRANCH   5  10
HETATM   10  N   UNL     1      -9.243   9.391  70.039  1.00  0.00    -0.202 N  
HETATM   11  C   UNL     1      -8.826   8.765  71.189  1.00  0.00    -0.219 C  
HETATM   12  H   UNL     1     -10.204   9.724  69.968  1.00  0.00     0.000 HD 
HETATM   13  O   UNL     1      -7.688   8.342  71.360  1.00  0.00    -0.080 OA 
BRANCH  11  14
HETATM   14  C   UNL     1      -9.907   8.595  72.228  1.00  0.00    -0.360 C  
BRANCH  14  15
HETATM   15  C   UNL     1     -11.256   9.034  71.662  1.00  0.00    -0.431 C  
BRANCH  15  16
HETATM   16  C   UNL     1     -12.292   7.908  71.652  1.00  0.00    -0.344 C  
BRANCH  16  17
HETATM   17  C   UNL     1     -11.673   6.557  71.303  1.00  0.00    -0.386 C  
BRANCH  17  18
HETATM   18  C   UNL     1     -11.536   6.360  69.797  1.00  0.00    -0.468 C  
BRANCH  18  19
HETATM   19  C   UNL     1     -10.161   5.782  69.468  1.00  0.00    -0.278 C  
BRANCH  19  20
HETATM   20  C   UNL     1     -10.021   4.354  69.988  1.00  0.00    -0.245 C  
BRANCH  20  21
HETATM   21  C   UNL     1      -8.886   4.254  71.008  1.00  0.00    -0.148 C  
BRANCH  21  22
HETATM   22  C   UNL     1      -9.403   3.814  72.344  1.00  0.00    -0.168 C  
HETATM   23  C   UNL     1     -10.212   2.762  72.523  1.00  0.00    -0.226 C  
ENDBRANCH  21  22
ENDBRANCH  20  21
ENDBRANCH  19  20
ENDBRANCH  18  19
ENDBRANCH  17  18
ENDBRANCH  16  17
ENDBRANCH  15  16
ENDBRANCH  14  15
ENDBRANCH  11  14
ENDBRANCH   5  10
ENDBRANCH   3   5
ENDBRANCH   2   3
TORSDOF 13
ENDMDL
MODEL      285
REMARK 921   NORMALIZED FREE ENERGY PREDICTED BY IDOCK:   -2.61 KCAL/MOL
REMARK 922        TOTAL FREE ENERGY PREDICTED BY IDOCK:   -6.70 KCAL/MOL
REMARK 923 INTER-LIGAND FREE ENERGY PREDICTED BY IDOCK:   -5.69 KCAL/MOL
REMARK 924 INTRA-LIGAND FREE ENERGY PREDICTED BY IDOCK:   -1.01 KCAL/MOL
REMARK 927      BINDING AFFINITY PREDICTED BY RF-SCORE:    0.00 PKD
ROOT
HETATM    1  C   UNL     1      -9.244   5.180  66.895  1.00  0.00    -0.118 C  
HETATM    2  O   UNL     1      -9.145   5.170  68.318  1.00  0.00    -0.108 OA 
ENDROOT
BRANCH   2   3
HETATM    3  C   UNL     1     -10.208   5.705  68.983  1.00  0.00    -0.222 C  
HETATM    4  O   UNL     1     -11.218   6.161  68.460  1.00  0.00    -0.341 OA 
BRANCH   3   5
HETATM    5  C   UNL     1      -9.965   5.631  70.493  1.00  0.00    -0.205 C  
BRANCH   5   6
HETATM    6  C   UNL     1     -10.132   4.203  71.030  1.00  0.00    -0.130 C  
HETATM    7  C   UNL     1      -8.249   4.363  72.748  1.00  0.00    -0.098 C  
HETATM    8  C   UNL     1      -9.157   2.133  72.072  1.00  0.00    -0.132 C  
HETATM    9  C   UNL     1      -8.853   3.558  71.597  1.00  0.00    -0.139 C  
ENDBRANCH   5   6
BRANCH   5  10
HETATM   10  N   UNL     1     -10.903   6.528  71.170  1.00  0.00    -0.240 N  
HETATM   11  C   UNL     1     -10.454   7.608  71.890  1.00  0.00    -0.215 C  
HETATM   12  H   UNL     1     -11.906   6.348  71.105  1.00  0.00     0.000 HD 
HETATM   13  O   UNL     1      -9.270   7.901  72.013  1.00  0.00    -0.135 OA 
BRANCH  11  14
HETATM   14  C   UNL     1     -11.548   8.397  72.569  1.00  0.00    -0.426 C  
BRANCH  14  15
HETATM   15  C   UNL     1     -12.330   9.209  71.539  1.00  0.00    -0.421 C  
BRANCH  15  16
HETATM   16  C   UNL     1     -11.502  10.337  70.919  1.00  0.00    -0.425 C  
BRANCH  16  17
HETATM   17  C   UNL     1     -12.373  11.367  70.203  1.00  0.00    -0.344 C  
BRANCH  17  18
HETATM   18  C   UNL     1     -12.576  12.626  71.038  1.00  0.00    -0.354 C  
BRANCH  18  19
HETATM   19  C   UNL     1     -12.707  13.844  70.125  1.00  0.00    -0.182 C  
BRANCH  19  20
HETATM   20  C   UNL     1     -11.364  14.224  69.510  1.00  0.00    -0.315 C  
BRANCH  20  21
HETATM   21  C   UNL     1     -11.561  15.064  68.248  1.00  0.00    -0.355 C  
BRANCH  21  22
HETATM   22  C   UNL     1     -11.299  14.250  67.016  1.00  0.00    -0.354 C  
HETATM   23  C   UNL     1     -12.135  13.316  66.546  1.00  0.00    -0.435 C  
ENDBRANCH  21  22
ENDBRANCH  20  21
ENDBRANCH  19  20
ENDBRANCH  18  19
ENDBRANCH  17  18
ENDBRANCH  16  17
ENDBRANCH  15  16
ENDBRANCH  14  15
ENDBRANCH  11  14
ENDBRANCH   5  10
ENDBRANCH   3   5
ENDBRANCH   2   3
TORSDOF 13
ENDMDL
MODEL      286
REMARK 921   NORMALIZED FREE ENERGY PREDICTED BY IDOCK:   -2.61 KCAL/MOL
REMARK 922        TOTAL FREE ENERGY PREDICTED BY IDOCK:   -6.69 KCAL/MOL
REMARK 923 INTER-LIGAND FREE ENERGY PREDICTED BY IDOCK:   -5.44 KCAL/MOL
REMARK 924 INTRA-LIGAND FREE ENERGY PREDICTED BY IDOCK:   -1.26 KCAL/MOL
REMARK 927      BINDING AFFINITY PREDICTED BY RF-SCORE:    0.00 PKD
ROOT
HETATM    1  C   UNL     1      -9.802  14.786  67.185  1.00  0.00    -0.232 C  
HETATM    2  O   UNL     1      -9.161  13.612  66.691  1.00  0.00    -0.249 OA 
ENDROOT
BRANCH   2   3
HETATM    3  C   UNL     1      -8.533  12.849  67.630  1.00  0.00    -0.183 C  
HETATM    4  O   UNL     1      -7.621  13.225  68.358  1.00  0.00    -0.124 OA 
BRANCH   3   5
HETATM    5  C   UNL     1      -9.154  11.449  67.662  1.00  0.00    -0.155 C  
BRANCH   5   6
HETATM    6  C   UNL     1      -9.165  10.797  66.273  1.00  0.00    -0.195 C  
HETATM    7  C   UNL     1      -6.932   9.588  66.551  1.00  0.00    -0.085 C  
HETATM    8  C   UNL     1      -7.935   9.883  64.280  1.00  0.00    -0.146 C  
HETATM    9  C   UNL     1      -7.777  10.508  65.669  1.00  0.00    -0.139 C  
ENDBRANCH   5   6
BRANCH   5  10
HETATM   10  N   UNL     1     -10.521  11.548  68.174  1.00  0.00    -0.186 N  
HETATM   11  C   UNL     1     -10.911  10.845  69.289  1.00  0.00    -0.244 C  
HETATM   12  H   UNL     1     -11.194  12.148  67.696  1.00  0.00     0.000 HD 
HETATM   13  O   UNL     1     -10.166  10.110  69.926  1.00  0.00    -0.242 OA 
BRANCH  11  14
HETATM   14  C   UNL     1     -12.367  11.017  69.650  1.00  0.00    -0.303 C  
BRANCH  14  15
HETATM   15  C   UNL     1     -12.562  10.845  71.155  1.00  0.00    -0.532 C  
BRANCH  15  16
HETATM   16  C   UNL     1     -13.604   9.780  71.501  1.00  0.00    -0.351 C  
BRANCH  16  17
HETATM   17  C   UNL     1     -13.135   8.857  72.624  1.00  0.00    -0.349 C  
BRANCH  17  18
HETATM   18  C   UNL     1     -11.793   8.205  72.308  1.00  0.00    -0.441 C  
BRANCH  18  19
HETATM   19  C   UNL     1     -11.972   7.132  71.236  1.00  0.00    -0.374 C  
BRANCH  19  20
HETATM   20  C   UNL     1     -11.147   5.888  71.552  1.00  0.00    -0.314 C  
BRANCH  20  21
HETATM   21  C   UNL     1     -10.266   5.501  70.364  1.00  0.00    -0.321 C  
BRANCH  21  22
HETATM   22  C   UNL     1      -8.830   5.838  70.629  1.00  0.00    -0.145 C  
HETATM   23  C   UNL     1      -8.298   7.052  70.435  1.00  0.00    -0.129 C  
ENDBRANCH  21  22
ENDBRANCH  20  21
ENDBRANCH  19  20
ENDBRANCH  18  19
ENDBRANCH  17  18
ENDBRANCH  16  17
ENDBRANCH  15  16
ENDBRANCH  14  15
ENDBRANCH  11  14
ENDBRANCH   5  10
ENDBRANCH   3   5
ENDBRANCH   2   3
TORSDOF 13
ENDMDL
MODEL      287
REMARK 921   NORMALIZED FREE ENERGY PREDICTED BY IDOCK:   -2.61 KCAL/MOL
REMARK 922        TOTAL FREE ENERGY PREDICTED BY IDOCK:   -6.69 KCAL/MOL
REMARK 923 INTER-LIGAND FREE ENERGY PREDICTED BY IDOCK:   -5.58 KCAL/MOL
REMARK 924 INTRA-LIGAND FREE ENERGY PREDICTED BY IDOCK:   -1.11 KCAL/MOL
REMARK 927      BINDING AFFINITY PREDICTED BY RF-SCORE:    0.00 PKD
ROOT
HETATM    1  C   UNL     1     -12.228  12.005  63.803  1.00  0.00    -0.498 C  
HETATM    2  O   UNL     1     -11.726  12.943  64.753  1.00  0.00    -0.318 OA 
ENDROOT
BRANCH   2   3
HETATM    3  C   UNL     1     -12.611  13.335  65.713  1.00  0.00    -0.347 C  
HETATM    4  O   UNL     1     -13.776  13.660  65.516  1.00  0.00    -0.234 OA 
BRANCH   3   5
HETATM    5  C   UNL     1     -11.940  13.284  67.089  1.00  0.00    -0.348 C  
BRANCH   5   6
HETATM    6  C   UNL     1     -11.314  14.633  67.470  1.00  0.00    -0.361 C  
HETATM    7  C   UNL     1     -11.510  14.292  69.994  1.00  0.00    -0.280 C  
HETATM    8  C   UNL     1     -11.103  16.573  69.055  1.00  0.00    -0.284 C  
HETATM    9  C   UNL     1     -11.786  15.223  68.812  1.00  0.00    -0.374 C  
ENDBRANCH   5   6
BRANCH   5  10
HETATM   10  N   UNL     1     -10.909  12.245  67.077  1.00  0.00    -0.241 N  
HETATM   11  C   UNL     1     -11.058  11.093  67.810  1.00  0.00    -0.285 C  
HETATM   12  H   UNL     1     -10.068  12.379  66.516  1.00  0.00     0.000 HD 
HETATM   13  O   UNL     1     -12.039  10.849  68.504  1.00  0.00    -0.545 OA 
BRANCH  11  14
HETATM   14  C   UNL     1      -9.881  10.152  67.730  1.00  0.00    -0.190 C  
BRANCH  14  15
HETATM   15  C   UNL     1     -10.251   8.791  68.315  1.00  0.00    -0.240 C  
BRANCH  15  16
HETATM   16  C   UNL     1      -9.028   7.963  68.716  1.00  0.00    -0.141 C  
BRANCH  16  17
HETATM   17  C   UNL     1      -9.399   6.772  69.597  1.00  0.00    -0.144 C  
BRANCH  17  18
HETATM   18  C   UNL     1     -10.619   6.026  69.067  1.00  0.00    -0.357 C  
BRANCH  18  19
HETATM   19  C   UNL     1     -10.236   5.204  67.837  1.00  0.00    -0.180 C  
BRANCH  19  20
HETATM   20  C   UNL     1     -10.815   5.811  66.562  1.00  0.00    -0.227 C  
BRANCH  20  21
HETATM   21  C   UNL     1     -10.176   5.186  65.322  1.00  0.00     0.267 C  
BRANCH  21  22
HETATM   22  C   UNL     1      -8.687   5.093  65.476  1.00  0.00    -0.147 C  
HETATM   23  C   UNL     1      -7.830   6.017  65.024  1.00  0.00    -0.108 C  
ENDBRANCH  21  22
ENDBRANCH  20  21
ENDBRANCH  19  20
ENDBRANCH  18  19
ENDBRANCH  17  18
ENDBRANCH  16  17
ENDBRANCH  15  16
ENDBRANCH  14  15
ENDBRANCH  11  14
ENDBRANCH   5  10
ENDBRANCH   3   5
ENDBRANCH   2   3
TORSDOF 13
ENDMDL
MODEL      288
REMARK 921   NORMALIZED FREE ENERGY PREDICTED BY IDOCK:   -2.57 KCAL/MOL
REMARK 922        TOTAL FREE ENERGY PREDICTED BY IDOCK:   -6.64 KCAL/MOL
REMARK 923 INTER-LIGAND FREE ENERGY PREDICTED BY IDOCK:   -6.38 KCAL/MOL
REMARK 924 INTRA-LIGAND FREE ENERGY PREDICTED BY IDOCK:   -0.26 KCAL/MOL
REMARK 927      BINDING AFFINITY PREDICTED BY RF-SCORE:    0.00 PKD
ROOT
HETATM    1  C   UNL     1     -10.903  14.201  69.978  1.00  0.00     0.224 C  
HETATM    2  O   UNL     1     -10.253  15.351  69.440  1.00  0.00    -0.230 OA 
ENDROOT
BRANCH   2   3
HETATM    3  C   UNL     1     -10.819  15.870  68.314  1.00  0.00    -0.315 C  
HETATM    4  O   UNL     1     -11.998  16.180  68.189  1.00  0.00    -0.039 OA 
BRANCH   3   5
HETATM    5  C   UNL     1      -9.753  16.036  67.227  1.00  0.00    -0.232 C  
BRANCH   5   6
HETATM    6  C   UNL     1     -10.028  17.257  66.338  1.00  0.00    -0.319 C  
HETATM    7  C   UNL     1      -8.826  18.934  67.845  1.00  0.00    -0.326 C  
HETATM    8  C   UNL     1     -10.409  19.729  66.080  1.00  0.00    -0.627 C  
HETATM    9  C   UNL     1     -10.108  18.606  67.078  1.00  0.00    -0.395 C  
ENDBRANCH   5   6
BRANCH   5  10
HETATM   10  N   UNL     1      -9.718  14.825  66.407  1.00  0.00    -0.275 N  
HETATM   11  C   UNL     1     -10.619  14.635  65.386  1.00  0.00    -0.374 C  
HETATM   12  H   UNL     1      -9.014  14.111  66.596  1.00  0.00     0.000 HD 
HETATM   13  O   UNL     1     -11.490  15.444  65.087  1.00  0.00    -0.302 OA 
BRANCH  11  14
HETATM   14  C   UNL     1     -10.479  13.310  64.677  1.00  0.00    -0.420 C  
BRANCH  14  15
HETATM   15  C   UNL     1     -10.459  12.168  65.691  1.00  0.00    -0.290 C  
BRANCH  15  16
HETATM   16  C   UNL     1      -9.201  11.303  65.587  1.00  0.00    -0.231 C  
BRANCH  16  17
HETATM   17  C   UNL     1      -9.369   9.953  66.280  1.00  0.00    -0.224 C  
BRANCH  17  18
HETATM   18  C   UNL     1     -10.700   9.849  67.017  1.00  0.00    -0.237 C  
BRANCH  18  19
HETATM   19  C   UNL     1     -10.468   9.374  68.450  1.00  0.00    -0.256 C  
BRANCH  19  20
HETATM   20  C   UNL     1     -10.378  10.551  69.417  1.00  0.00    -0.258 C  
BRANCH  20  21
HETATM   21  C   UNL     1     -11.387  10.399  70.556  1.00  0.00    -0.424 C  
BRANCH  21  22
HETATM   22  C   UNL     1     -11.017   9.255  71.451  1.00  0.00    -0.429 C  
HETATM   23  C   UNL     1     -11.896   8.365  71.929  1.00  0.00    -0.398 C  
ENDBRANCH  21  22
ENDBRANCH  20  21
ENDBRANCH  19  20
ENDBRANCH  18  19
ENDBRANCH  17  18
ENDBRANCH  16  17
ENDBRANCH  15  16
ENDBRANCH  14  15
ENDBRANCH  11  14
ENDBRANCH   5  10
ENDBRANCH   3   5
ENDBRANCH   2   3
TORSDOF 13
ENDMDL
MODEL      289
REMARK 921   NORMALIZED FREE ENERGY PREDICTED BY IDOCK:   -2.56 KCAL/MOL
REMARK 922        TOTAL FREE ENERGY PREDICTED BY IDOCK:   -6.61 KCAL/MOL
REMARK 923 INTER-LIGAND FREE ENERGY PREDICTED BY IDOCK:   -6.27 KCAL/MOL
REMARK 924 INTRA-LIGAND FREE ENERGY PREDICTED BY IDOCK:   -0.35 KCAL/MOL
REMARK 927      BINDING AFFINITY PREDICTED BY RF-SCORE:    0.00 PKD
ROOT
HETATM    1  C   UNL     1     -10.117   5.174  66.479  1.00  0.00    -0.239 C  
HETATM    2  O   UNL     1     -10.216   6.531  66.907  1.00  0.00    -0.183 OA 
ENDROOT
BRANCH   2   3
HETATM    3  C   UNL     1     -10.338   6.712  68.253  1.00  0.00    -0.190 C  
HETATM    4  O   UNL     1     -11.049   6.049  68.998  1.00  0.00    -0.351 OA 
BRANCH   3   5
HETATM    5  C   UNL     1      -9.429   7.859  68.706  1.00  0.00    -0.147 C  
BRANCH   5   6
HETATM    6  C   UNL     1      -9.407   8.002  70.234  1.00  0.00    -0.159 C  
HETATM    7  C   UNL     1      -7.330   9.485  70.313  1.00  0.00    -0.135 C  
HETATM    8  C   UNL     1      -8.137   8.331  72.379  1.00  0.00    -0.204 C  
HETATM    9  C   UNL     1      -8.016   8.231  70.855  1.00  0.00    -0.101 C  
ENDBRANCH   5   6
BRANCH   5  10
HETATM   10  N   UNL     1      -9.898   9.105  68.099  1.00  0.00    -0.159 N  
HETATM   11  C   UNL     1     -10.859   9.873  68.712  1.00  0.00    -0.208 C  
HETATM   12  H   UNL     1      -9.506   9.408  67.207  1.00  0.00     0.000 HD 
HETATM   13  O   UNL     1     -11.377   9.587  69.786  1.00  0.00    -0.195 OA 
BRANCH  11  14
HETATM   14  C   UNL     1     -11.268  11.095  67.927  1.00  0.00    -0.365 C  
BRANCH  14  15
HETATM   15  C   UNL     1     -11.155  12.345  68.798  1.00  0.00    -0.307 C  
BRANCH  15  16
HETATM   16  C   UNL     1     -12.024  13.500  68.296  1.00  0.00    -0.377 C  
BRANCH  16  17
HETATM   17  C   UNL     1     -11.213  14.544  67.532  1.00  0.00    -0.333 C  
BRANCH  17  18
HETATM   18  C   UNL     1     -10.959  15.795  68.366  1.00  0.00    -0.323 C  
BRANCH  18  19
HETATM   19  C   UNL     1     -11.968  15.874  69.511  1.00  0.00    -0.274 C  
BRANCH  19  20
HETATM   20  C   UNL     1     -11.282  16.210  70.832  1.00  0.00    -0.329 C  
BRANCH  20  21
HETATM   21  C   UNL     1     -12.138  15.767  72.019  1.00  0.00    -0.562 C  
BRANCH  21  22
HETATM   22  C   UNL     1     -13.380  15.069  71.552  1.00  0.00    -0.500 C  
HETATM   23  C   UNL     1     -13.894  13.982  72.141  1.00  0.00    -0.627 C  
ENDBRANCH  21  22
ENDBRANCH  20  21
ENDBRANCH  19  20
ENDBRANCH  18  19
ENDBRANCH  17  18
ENDBRANCH  16  17
ENDBRANCH  15  16
ENDBRANCH  14  15
ENDBRANCH  11  14
ENDBRANCH   5  10
ENDBRANCH   3   5
ENDBRANCH   2   3
TORSDOF 13
ENDMDL
MODEL      290
REMARK 921   NORMALIZED FREE ENERGY PREDICTED BY IDOCK:   -2.56 KCAL/MOL
REMARK 922        TOTAL FREE ENERGY PREDICTED BY IDOCK:   -6.61 KCAL/MOL
REMARK 923 INTER-LIGAND FREE ENERGY PREDICTED BY IDOCK:   -6.39 KCAL/MOL
REMARK 924 INTRA-LIGAND FREE ENERGY PREDICTED BY IDOCK:   -0.22 KCAL/MOL
REMARK 927      BINDING AFFINITY PREDICTED BY RF-SCORE:    0.00 PKD
ROOT
HETATM    1  C   UNL     1      -9.814   4.289  66.653  1.00  0.00    -0.214 C  
HETATM    2  O   UNL     1      -9.988   5.449  67.464  1.00  0.00    -0.144 OA 
ENDROOT
BRANCH   2   3
HETATM    3  C   UNL     1      -9.676   5.294  68.782  1.00  0.00    -0.146 C  
HETATM    4  O   UNL     1     -10.123   4.424  69.521  1.00  0.00    -0.183 OA 
BRANCH   3   5
HETATM    5  C   UNL     1      -8.658   6.358  69.203  1.00  0.00    -0.125 C  
BRANCH   5   6
HETATM    6  C   UNL     1      -8.313   6.261  70.695  1.00  0.00    -0.133 C  
HETATM    7  C   UNL     1      -5.780   6.272  70.362  1.00  0.00    -0.018 C  
HETATM    8  C   UNL     1      -6.765   5.523  72.535  1.00  0.00    -0.075 C  
HETATM    9  C   UNL     1      -6.972   5.573  71.018  1.00  0.00    -0.061 C  
ENDBRANCH   5   6
BRANCH   5  10
HETATM   10  N   UNL     1      -9.206   7.683  68.907  1.00  0.00    -0.140 N  
HETATM   11  C   UNL     1     -10.335   8.139  69.543  1.00  0.00    -0.222 C  
HETATM   12  H   UNL     1      -8.742   8.276  68.218  1.00  0.00     0.000 HD 
HETATM   13  O   UNL     1     -10.949   7.496  70.388  1.00  0.00    -0.245 OA 
BRANCH  11  14
HETATM   14  C   UNL     1     -10.797   9.500  69.082  1.00  0.00    -0.194 C  
BRANCH  14  15
HETATM   15  C   UNL     1     -11.007  10.421  70.283  1.00  0.00    -0.353 C  
BRANCH  15  16
HETATM   16  C   UNL     1     -12.180  11.386  70.094  1.00  0.00    -0.401 C  
BRANCH  16  17
HETATM   17  C   UNL     1     -11.908  12.419  69.003  1.00  0.00    -0.349 C  
BRANCH  17  18
HETATM   18  C   UNL     1     -11.879  13.841  69.555  1.00  0.00    -0.394 C  
BRANCH  18  19
HETATM   19  C   UNL     1     -12.687  13.916  70.849  1.00  0.00    -0.410 C  
BRANCH  19  20
HETATM   20  C   UNL     1     -13.412  15.253  70.974  1.00  0.00    -0.516 C  
BRANCH  20  21
HETATM   21  C   UNL     1     -13.945  15.454  72.393  1.00  0.00    -0.657 C  
BRANCH  21  22
HETATM   22  C   UNL     1     -12.973  14.932  73.409  1.00  0.00    -0.597 C  
HETATM   23  C   UNL     1     -12.336  15.703  74.299  1.00  0.00    -0.813 C  
ENDBRANCH  21  22
ENDBRANCH  20  21
ENDBRANCH  19  20
ENDBRANCH  18  19
ENDBRANCH  17  18
ENDBRANCH  16  17
ENDBRANCH  15  16
ENDBRANCH  14  15
ENDBRANCH  11  14
ENDBRANCH   5  10
ENDBRANCH   3   5
ENDBRANCH   2   3
TORSDOF 13
ENDMDL
MODEL      291
REMARK 921   NORMALIZED FREE ENERGY PREDICTED BY IDOCK:   -2.54 KCAL/MOL
REMARK 922        TOTAL FREE ENERGY PREDICTED BY IDOCK:   -6.58 KCAL/MOL
REMARK 923 INTER-LIGAND FREE ENERGY PREDICTED BY IDOCK:   -4.94 KCAL/MOL
REMARK 924 INTRA-LIGAND FREE ENERGY PREDICTED BY IDOCK:   -1.64 KCAL/MOL
REMARK 927      BINDING AFFINITY PREDICTED BY RF-SCORE:    0.00 PKD
ROOT
HETATM    1  C   UNL     1     -11.223   7.872  71.899  1.00  0.00    -0.271 C  
HETATM    2  O   UNL     1     -11.043   9.155  71.302  1.00  0.00    -0.278 OA 
ENDROOT
BRANCH   2   3
HETATM    3  C   UNL     1      -9.790   9.411  70.831  1.00  0.00    -0.268 C  
HETATM    4  O   UNL     1      -8.746   9.200  71.436  1.00  0.00    -0.309 OA 
BRANCH   3   5
HETATM    5  C   UNL     1      -9.877   9.981  69.412  1.00  0.00    -0.224 C  
BRANCH   5   6
HETATM    6  C   UNL     1     -10.618   9.034  68.459  1.00  0.00    -0.196 C  
HETATM    7  C   UNL     1      -9.021   7.066  68.778  1.00  0.00    -0.131 C  
HETATM    8  C   UNL     1     -10.598   7.111  66.839  1.00  0.00    -0.371 C  
HETATM    9  C   UNL     1      -9.740   7.968  67.775  1.00  0.00    -0.191 C  
ENDBRANCH   5   6
BRANCH   5  10
HETATM   10  N   UNL     1      -8.522  10.225  68.914  1.00  0.00    -0.129 N  
HETATM   11  C   UNL     1      -8.147  11.468  68.464  1.00  0.00    -0.146 C  
HETATM   12  H   UNL     1      -7.846   9.460  68.902  1.00  0.00     0.000 HD 
HETATM   13  O   UNL     1      -8.891  12.441  68.452  1.00  0.00    -0.182 OA 
BRANCH  11  14
HETATM   14  C   UNL     1      -6.734  11.533  67.936  1.00  0.00    -0.065 C  
BRANCH  14  15
HETATM   15  C   UNL     1      -6.326  10.183  67.351  1.00  0.00    -0.066 C  
BRANCH  15  16
HETATM   16  C   UNL     1      -6.366  10.160  65.822  1.00  0.00    -0.102 C  
BRANCH  16  17
HETATM   17  C   UNL     1      -7.634   9.500  65.287  1.00  0.00    -0.111 C  
BRANCH  17  18
HETATM   18  C   UNL     1      -7.962   9.955  63.868  1.00  0.00    -0.149 C  
BRANCH  18  19
HETATM   19  C   UNL     1      -9.140  10.928  63.890  1.00  0.00    -0.164 C  
BRANCH  19  20
HETATM   20  C   UNL     1     -10.285  10.394  64.748  1.00  0.00    -0.319 C  
BRANCH  20  21
HETATM   21  C   UNL     1     -10.805  11.476  65.695  1.00  0.00    -0.310 C  
BRANCH  21  22
HETATM   22  C   UNL     1     -11.774  12.380  64.995  1.00  0.00    -0.420 C  
HETATM   23  C   UNL     1     -12.472  12.030  63.907  1.00  0.00    -0.543 C  
ENDBRANCH  21  22
ENDBRANCH  20  21
ENDBRANCH  19  20
ENDBRANCH  18  19
ENDBRANCH  17  18
ENDBRANCH  16  17
ENDBRANCH  15  16
ENDBRANCH  14  15
ENDBRANCH  11  14
ENDBRANCH   5  10
ENDBRANCH   3   5
ENDBRANCH   2   3
TORSDOF 13
ENDMDL
MODEL      292
REMARK 921   NORMALIZED FREE ENERGY PREDICTED BY IDOCK:   -2.54 KCAL/MOL
REMARK 922        TOTAL FREE ENERGY PREDICTED BY IDOCK:   -6.57 KCAL/MOL
REMARK 923 INTER-LIGAND FREE ENERGY PREDICTED BY IDOCK:   -6.12 KCAL/MOL
REMARK 924 INTRA-LIGAND FREE ENERGY PREDICTED BY IDOCK:   -0.45 KCAL/MOL
REMARK 927      BINDING AFFINITY PREDICTED BY RF-SCORE:    0.00 PKD
ROOT
HETATM    1  C   UNL     1     -10.546   5.793  66.856  1.00  0.00    -0.308 C  
HETATM    2  O   UNL     1     -11.123   6.969  67.420  1.00  0.00    -0.274 OA 
ENDROOT
BRANCH   2   3
HETATM    3  C   UNL     1     -11.026   7.076  68.775  1.00  0.00    -0.101 C  
HETATM    4  O   UNL     1     -11.495   6.287  69.587  1.00  0.00    -0.432 OA 
BRANCH   3   5
HETATM    5  C   UNL     1     -10.216   8.324  69.140  1.00  0.00    -0.218 C  
BRANCH   5   6
HETATM    6  C   UNL     1      -9.537   8.185  70.509  1.00  0.00    -0.177 C  
HETATM    7  C   UNL     1      -7.837  10.055  70.131  1.00  0.00    -0.141 C  
HETATM    8  C   UNL     1      -7.497   8.390  71.965  1.00  0.00    -0.135 C  
HETATM    9  C   UNL     1      -8.054   8.601  70.553  1.00  0.00    -0.115 C  
ENDBRANCH   5   6
BRANCH   5  10
HETATM   10  N   UNL     1     -11.108   9.484  69.145  1.00  0.00    -0.425 N  
HETATM   11  C   UNL     1     -11.724   9.897  70.303  1.00  0.00    -0.216 C  
HETATM   12  H   UNL     1     -11.275   9.994  68.277  1.00  0.00     0.000 HD 
HETATM   13  O   UNL     1     -11.573   9.348  71.388  1.00  0.00    -0.323 OA 
BRANCH  11  14
HETATM   14  C   UNL     1     -12.653  11.074  70.123  1.00  0.00    -0.281 C  
BRANCH  14  15
HETATM   15  C   UNL     1     -11.886  12.383  70.296  1.00  0.00    -0.315 C  
BRANCH  15  16
HETATM   16  C   UNL     1     -11.941  13.273  69.052  1.00  0.00    -0.336 C  
BRANCH  16  17
HETATM   17  C   UNL     1     -10.722  13.084  68.152  1.00  0.00    -0.258 C  
BRANCH  17  18
HETATM   18  C   UNL     1     -10.552  14.238  67.169  1.00  0.00    -0.279 C  
BRANCH  18  19
HETATM   19  C   UNL     1     -11.387  13.984  65.915  1.00  0.00    -0.317 C  
BRANCH  19  20
HETATM   20  C   UNL     1     -10.507  13.582  64.734  1.00  0.00    -0.430 C  
BRANCH  20  21
HETATM   21  C   UNL     1     -10.684  12.100  64.403  1.00  0.00    -0.366 C  
BRANCH  21  22
HETATM   22  C   UNL     1      -9.711  11.259  65.174  1.00  0.00    -0.285 C  
HETATM   23  C   UNL     1      -9.892   9.959  65.438  1.00  0.00    -0.384 C  
ENDBRANCH  21  22
ENDBRANCH  20  21
ENDBRANCH  19  20
ENDBRANCH  18  19
ENDBRANCH  17  18
ENDBRANCH  16  17
ENDBRANCH  15  16
ENDBRANCH  14  15
ENDBRANCH  11  14
ENDBRANCH   5  10
ENDBRANCH   3   5
ENDBRANCH   2   3
TORSDOF 13
ENDMDL
MODEL      293
REMARK 921   NORMALIZED FREE ENERGY PREDICTED BY IDOCK:   -2.53 KCAL/MOL
REMARK 922        TOTAL FREE ENERGY PREDICTED BY IDOCK:   -6.55 KCAL/MOL
REMARK 923 INTER-LIGAND FREE ENERGY PREDICTED BY IDOCK:   -5.51 KCAL/MOL
REMARK 924 INTRA-LIGAND FREE ENERGY PREDICTED BY IDOCK:   -1.04 KCAL/MOL
REMARK 927      BINDING AFFINITY PREDICTED BY RF-SCORE:    0.00 PKD
ROOT
HETATM    1  C   UNL     1     -11.900  12.515  63.720  1.00  0.00    -0.496 C  
HETATM    2  O   UNL     1     -10.782  12.640  64.596  1.00  0.00    -0.294 OA 
ENDROOT
BRANCH   2   3
HETATM    3  C   UNL     1     -11.087  12.847  65.909  1.00  0.00    -0.283 C  
HETATM    4  O   UNL     1     -11.952  12.252  66.540  1.00  0.00    -0.596 OA 
BRANCH   3   5
HETATM    5  C   UNL     1     -10.166  13.923  66.492  1.00  0.00    -0.280 C  
BRANCH   5   6
HETATM    6  C   UNL     1     -10.305  15.259  65.748  1.00  0.00    -0.364 C  
HETATM    7  C   UNL     1      -9.363  16.693  67.640  1.00  0.00    -0.224 C  
HETATM    8  C   UNL     1     -10.653  17.749  65.777  1.00  0.00    -0.175 C  
HETATM    9  C   UNL     1     -10.507  16.495  66.645  1.00  0.00    -0.266 C  
ENDBRANCH   5   6
BRANCH   5  10
HETATM   10  N   UNL     1      -8.782  13.455  66.417  1.00  0.00    -0.425 N  
HETATM   11  C   UNL     1      -8.234  12.702  67.427  1.00  0.00    -0.184 C  
HETATM   12  H   UNL     1      -8.215  13.691  65.602  1.00  0.00     0.000 HD 
HETATM   13  O   UNL     1      -8.846  12.367  68.435  1.00  0.00    -0.182 OA 
BRANCH  11  14
HETATM   14  C   UNL     1      -6.782  12.349  67.217  1.00  0.00    -0.133 C  
BRANCH  14  15
HETATM   15  C   UNL     1      -6.656  10.918  66.698  1.00  0.00    -0.120 C  
BRANCH  15  16
HETATM   16  C   UNL     1      -6.401   9.901  67.812  1.00  0.00    -0.055 C  
BRANCH  16  17
HETATM   17  C   UNL     1      -7.335   8.697  67.721  1.00  0.00    -0.092 C  
BRANCH  17  18
HETATM   18  C   UNL     1      -8.613   9.020  66.956  1.00  0.00    -0.120 C  
BRANCH  18  19
HETATM   19  C   UNL     1      -9.125   7.770  66.241  1.00  0.00    -0.221 C  
BRANCH  19  20
HETATM   20  C   UNL     1      -9.460   6.661  67.234  1.00  0.00    -0.151 C  
BRANCH  20  21
HETATM   21  C   UNL     1     -10.670   5.854  66.762  1.00  0.00    -0.371 C  
BRANCH  21  22
HETATM   22  C   UNL     1     -10.242   4.542  66.175  1.00  0.00    -0.283 C  
HETATM   23  C   UNL     1     -10.456   4.188  64.901  1.00  0.00    -0.193 C  
ENDBRANCH  21  22
ENDBRANCH  20  21
ENDBRANCH  19  20
ENDBRANCH  18  19
ENDBRANCH  17  18
ENDBRANCH  16  17
ENDBRANCH  15  16
ENDBRANCH  14  15
ENDBRANCH  11  14
ENDBRANCH   5  10
ENDBRANCH   3   5
ENDBRANCH   2   3
TORSDOF 13
ENDMDL
MODEL      294
REMARK 921   NORMALIZED FREE ENERGY PREDICTED BY IDOCK:   -2.52 KCAL/MOL
REMARK 922        TOTAL FREE ENERGY PREDICTED BY IDOCK:   -6.54 KCAL/MOL
REMARK 923 INTER-LIGAND FREE ENERGY PREDICTED BY IDOCK:   -5.19 KCAL/MOL
REMARK 924 INTRA-LIGAND FREE ENERGY PREDICTED BY IDOCK:   -1.34 KCAL/MOL
REMARK 927      BINDING AFFINITY PREDICTED BY RF-SCORE:    0.00 PKD
ROOT
HETATM    1  C   UNL     1     -11.151  16.640  68.162  1.00  0.00    -0.285 C  
HETATM    2  O   UNL     1     -11.856  15.416  67.971  1.00  0.00    -0.294 OA 
ENDROOT
BRANCH   2   3
HETATM    3  C   UNL     1     -11.181  14.453  67.280  1.00  0.00    -0.323 C  
HETATM    4  O   UNL     1     -11.405  14.119  66.123  1.00  0.00    -0.323 OA 
BRANCH   3   5
HETATM    5  C   UNL     1     -10.075  13.863  68.160  1.00  0.00    -0.250 C  
BRANCH   5   6
HETATM    6  C   UNL     1      -8.685  14.069  67.546  1.00  0.00    -0.201 C  
HETATM    7  C   UNL     1      -7.711  15.313  69.552  1.00  0.00    -0.212 C  
HETATM    8  C   UNL     1      -6.569  15.410  67.330  1.00  0.00    -0.150 C  
HETATM    9  C   UNL     1      -7.924  15.315  68.038  1.00  0.00    -0.135 C  
ENDBRANCH   5   6
BRANCH   5  10
HETATM   10  N   UNL     1     -10.329  12.434  68.346  1.00  0.00    -0.226 N  
HETATM   11  C   UNL     1     -11.294  11.994  69.220  1.00  0.00    -0.268 C  
HETATM   12  H   UNL     1      -9.781  11.753  67.818  1.00  0.00     0.000 HD 
HETATM   13  O   UNL     1     -12.001  12.741  69.886  1.00  0.00    -0.321 OA 
BRANCH  11  14
HETATM   14  C   UNL     1     -11.388  10.492  69.333  1.00  0.00    -0.331 C  
BRANCH  14  15
HETATM   15  C   UNL     1     -10.215   9.833  68.609  1.00  0.00    -0.210 C  
BRANCH  15  16
HETATM   16  C   UNL     1     -10.658   8.954  67.438  1.00  0.00    -0.305 C  
BRANCH  16  17
HETATM   17  C   UNL     1      -9.903   7.627  67.393  1.00  0.00    -0.226 C  
BRANCH  17  18
HETATM   18  C   UNL     1      -8.946   7.552  66.208  1.00  0.00    -0.199 C  
BRANCH  18  19
HETATM   19  C   UNL     1      -7.784   8.523  66.412  1.00  0.00    -0.098 C  
BRANCH  19  20
HETATM   20  C   UNL     1      -7.360   9.165  65.094  1.00  0.00    -0.096 C  
BRANCH  20  21
HETATM   21  C   UNL     1      -8.534   9.228  64.116  1.00  0.00    -0.203 C  
BRANCH  21  22
HETATM   22  C   UNL     1      -9.195  10.573  64.159  1.00  0.00    -0.283 C  
HETATM   23  C   UNL     1     -10.503  10.770  63.951  1.00  0.00    -0.251 C  
ENDBRANCH  21  22
ENDBRANCH  20  21
ENDBRANCH  19  20
ENDBRANCH  18  19
ENDBRANCH  17  18
ENDBRANCH  16  17
ENDBRANCH  15  16
ENDBRANCH  14  15
ENDBRANCH  11  14
ENDBRANCH   5  10
ENDBRANCH   3   5
ENDBRANCH   2   3
TORSDOF 13
ENDMDL
MODEL      295
REMARK 921   NORMALIZED FREE ENERGY PREDICTED BY IDOCK:   -2.51 KCAL/MOL
REMARK 922        TOTAL FREE ENERGY PREDICTED BY IDOCK:   -6.52 KCAL/MOL
REMARK 923 INTER-LIGAND FREE ENERGY PREDICTED BY IDOCK:   -6.41 KCAL/MOL
REMARK 924 INTRA-LIGAND FREE ENERGY PREDICTED BY IDOCK:   -0.11 KCAL/MOL
REMARK 927      BINDING AFFINITY PREDICTED BY RF-SCORE:    0.00 PKD
ROOT
HETATM    1  C   UNL     1      -8.626  12.457  66.706  1.00  0.00    -0.129 C  
HETATM    2  O   UNL     1      -9.396  11.503  67.435  1.00  0.00    -0.164 OA 
ENDROOT
BRANCH   2   3
HETATM    3  C   UNL     1      -8.859  11.100  68.621  1.00  0.00    -0.155 C  
HETATM    4  O   UNL     1      -7.861  11.577  69.148  1.00  0.00    -0.058 OA 
BRANCH   3   5
HETATM    5  C   UNL     1      -9.705   9.971  69.218  1.00  0.00    -0.215 C  
BRANCH   5   6
HETATM    6  C   UNL     1     -10.383   9.129  68.129  1.00  0.00    -0.263 C  
HETATM    7  C   UNL     1     -10.868   7.124  69.635  1.00  0.00    -0.254 C  
HETATM    8  C   UNL     1     -10.968   6.889  67.148  1.00  0.00    -0.427 C  
HETATM    9  C   UNL     1     -10.272   7.603  68.311  1.00  0.00    -0.229 C  
ENDBRANCH   5   6
BRANCH   5  10
HETATM   10  N   UNL     1     -10.719  10.552  70.098  1.00  0.00    -0.447 N  
HETATM   11  C   UNL     1     -11.938  10.954  69.605  1.00  0.00    -0.343 C  
HETATM   12  H   UNL     1     -10.519  10.661  71.092  1.00  0.00     0.000 HD 
HETATM   13  O   UNL     1     -12.263  10.853  68.427  1.00  0.00    -0.540 OA 
BRANCH  11  14
HETATM   14  C   UNL     1     -12.845  11.581  70.635  1.00  0.00    -0.151 C  
BRANCH  14  15
HETATM   15  C   UNL     1     -12.323  12.962  71.028  1.00  0.00    -0.318 C  
BRANCH  15  16
HETATM   16  C   UNL     1     -12.443  13.986  69.898  1.00  0.00    -0.301 C  
BRANCH  16  17
HETATM   17  C   UNL     1     -11.081  14.385  69.333  1.00  0.00    -0.294 C  
BRANCH  17  18
HETATM   18  C   UNL     1     -11.169  15.622  68.445  1.00  0.00    -0.352 C  
BRANCH  18  19
HETATM   19  C   UNL     1      -9.776  16.014  67.955  1.00  0.00    -0.220 C  
BRANCH  19  20
HETATM   20  C   UNL     1      -9.709  16.029  66.430  1.00  0.00    -0.307 C  
BRANCH  20  21
HETATM   21  C   UNL     1     -10.514  17.197  65.861  1.00  0.00    -0.265 C  
BRANCH  21  22
HETATM   22  C   UNL     1      -9.910  18.510  66.261  1.00  0.00    -0.352 C  
HETATM   23  C   UNL     1     -10.443  19.701  65.960  1.00  0.00    -0.622 C  
ENDBRANCH  21  22
ENDBRANCH  20  21
ENDBRANCH  19  20
ENDBRANCH  18  19
ENDBRANCH  17  18
ENDBRANCH  16  17
ENDBRANCH  15  16
ENDBRANCH  14  15
ENDBRANCH  11  14
ENDBRANCH   5  10
ENDBRANCH   3   5
ENDBRANCH   2   3
TORSDOF 13
ENDMDL
MODEL      296
REMARK 921   NORMALIZED FREE ENERGY PREDICTED BY IDOCK:   -2.50 KCAL/MOL
REMARK 922        TOTAL FREE ENERGY PREDICTED BY IDOCK:   -6.51 KCAL/MOL
REMARK 923 INTER-LIGAND FREE ENERGY PREDICTED BY IDOCK:   -5.60 KCAL/MOL
REMARK 924 INTRA-LIGAND FREE ENERGY PREDICTED BY IDOCK:   -0.91 KCAL/MOL
REMARK 927      BINDING AFFINITY PREDICTED BY RF-SCORE:    0.00 PKD
ROOT
HETATM    1  C   UNL     1     -10.276  18.093  68.103  1.00  0.00    -0.388 C  
HETATM    2  O   UNL     1     -10.761  16.830  67.653  1.00  0.00    -0.339 OA 
ENDROOT
BRANCH   2   3
HETATM    3  C   UNL     1     -10.758  15.836  68.585  1.00  0.00    -0.263 C  
HETATM    4  O   UNL     1     -11.398  15.837  69.629  1.00  0.00    -0.284 OA 
BRANCH   3   5
HETATM    5  C   UNL     1      -9.849  14.693  68.121  1.00  0.00    -0.224 C  
BRANCH   5   6
HETATM    6  C   UNL     1      -8.402  14.887  68.593  1.00  0.00    -0.164 C  
HETATM    7  C   UNL     1      -7.612  16.090  66.483  1.00  0.00    -0.100 C  
HETATM    8  C   UNL     1      -5.951  15.125  68.083  1.00  0.00    -0.142 C  
HETATM    9  C   UNL     1      -7.346  14.955  67.473  1.00  0.00    -0.229 C  
ENDBRANCH   5   6
BRANCH   5  10
HETATM   10  N   UNL     1      -9.887  14.620  66.660  1.00  0.00    -0.259 N  
HETATM   11  C   UNL     1     -10.901  13.955  66.012  1.00  0.00    -0.290 C  
HETATM   12  H   UNL     1      -9.151  15.069  66.114  1.00  0.00     0.000 HD 
HETATM   13  O   UNL     1     -11.827  13.396  66.589  1.00  0.00    -0.356 OA 
BRANCH  11  14
HETATM   14  C   UNL     1     -10.761  13.927  64.509  1.00  0.00    -0.382 C  
BRANCH  14  15
HETATM   15  C   UNL     1     -11.802  12.992  63.899  1.00  0.00    -0.542 C  
BRANCH  15  16
HETATM   16  C   UNL     1     -11.318  11.544  63.803  1.00  0.00    -0.420 C  
BRANCH  16  17
HETATM   17  C   UNL     1      -9.825  11.413  64.097  1.00  0.00    -0.307 C  
BRANCH  17  18
HETATM   18  C   UNL     1      -9.554  10.519  65.302  1.00  0.00    -0.303 C  
BRANCH  18  19
HETATM   19  C   UNL     1      -8.758  11.287  66.355  1.00  0.00    -0.180 C  
BRANCH  19  20
HETATM   20  C   UNL     1      -7.968  10.340  67.254  1.00  0.00    -0.107 C  
BRANCH  20  21
HETATM   21  C   UNL     1      -6.683  11.004  67.750  1.00  0.00    -0.064 C  
BRANCH  21  22
HETATM   22  C   UNL     1      -6.866  11.563  69.129  1.00  0.00    -0.112 C  
HETATM   23  C   UNL     1      -5.857  11.829  69.968  1.00  0.00    -0.148 C  
ENDBRANCH  21  22
ENDBRANCH  20  21
ENDBRANCH  19  20
ENDBRANCH  18  19
ENDBRANCH  17  18
ENDBRANCH  16  17
ENDBRANCH  15  16
ENDBRANCH  14  15
ENDBRANCH  11  14
ENDBRANCH   5  10
ENDBRANCH   3   5
ENDBRANCH   2   3
TORSDOF 13
ENDMDL
MODEL      297
REMARK 921   NORMALIZED FREE ENERGY PREDICTED BY IDOCK:   -2.49 KCAL/MOL
REMARK 922        TOTAL FREE ENERGY PREDICTED BY IDOCK:   -6.49 KCAL/MOL
REMARK 923 INTER-LIGAND FREE ENERGY PREDICTED BY IDOCK:   -5.64 KCAL/MOL
REMARK 924 INTRA-LIGAND FREE ENERGY PREDICTED BY IDOCK:   -0.85 KCAL/MOL
REMARK 927      BINDING AFFINITY PREDICTED BY RF-SCORE:    0.00 PKD
ROOT
HETATM    1  C   UNL     1      -8.243   8.426  66.426  1.00  0.00    -0.109 C  
HETATM    2  O   UNL     1      -9.261   9.312  66.887  1.00  0.00    -0.137 OA 
ENDROOT
BRANCH   2   3
HETATM    3  C   UNL     1      -8.994  10.641  66.735  1.00  0.00    -0.138 C  
HETATM    4  O   UNL     1      -8.015  11.108  66.167  1.00  0.00    -0.156 OA 
BRANCH   3   5
HETATM    5  C   UNL     1     -10.119  11.471  67.362  1.00  0.00    -0.191 C  
BRANCH   5   6
HETATM    6  C   UNL     1     -11.352  11.542  66.451  1.00  0.00    -0.246 C  
HETATM    7  C   UNL     1     -10.305  13.127  64.743  1.00  0.00    -0.369 C  
HETATM    8  C   UNL     1     -12.783  12.795  64.806  1.00  0.00    -0.469 C  
HETATM    9  C   UNL     1     -11.505  12.849  65.650  1.00  0.00    -0.368 C  
ENDBRANCH   5   6
BRANCH   5  10
HETATM   10  N   UNL     1      -9.621  12.820  67.628  1.00  0.00    -0.186 N  
HETATM   11  C   UNL     1     -10.197  13.609  68.596  1.00  0.00    -0.197 C  
HETATM   12  H   UNL     1      -8.834  13.182  67.088  1.00  0.00     0.000 HD 
HETATM   13  O   UNL     1     -11.138  13.251  69.294  1.00  0.00    -0.231 OA 
BRANCH  11  14
HETATM   14  C   UNL     1      -9.599  14.991  68.704  1.00  0.00    -0.219 C  
BRANCH  14  15
HETATM   15  C   UNL     1      -8.103  14.897  68.997  1.00  0.00    -0.165 C  
BRANCH  15  16
HETATM   16  C   UNL     1      -7.276  15.899  68.189  1.00  0.00    -0.134 C  
BRANCH  16  17
HETATM   17  C   UNL     1      -7.800  16.067  66.765  1.00  0.00    -0.288 C  
BRANCH  17  18
HETATM   18  C   UNL     1      -7.187  17.276  66.067  1.00  0.00    -0.219 C  
BRANCH  18  19
HETATM   19  C   UNL     1      -6.468  18.159  67.086  1.00  0.00    -0.192 C  
BRANCH  19  20
HETATM   20  C   UNL     1      -7.212  19.474  67.304  1.00  0.00    -0.239 C  
BRANCH  20  21
HETATM   21  C   UNL     1      -7.955  19.464  68.640  1.00  0.00    -0.403 C  
BRANCH  21  22
HETATM   22  C   UNL     1      -9.370  19.003  68.462  1.00  0.00    -0.425 C  
HETATM   23  C   UNL     1     -10.395  19.822  68.195  1.00  0.00    -0.561 C  
ENDBRANCH  21  22
ENDBRANCH  20  21
ENDBRANCH  19  20
ENDBRANCH  18  19
ENDBRANCH  17  18
ENDBRANCH  16  17
ENDBRANCH  15  16
ENDBRANCH  14  15
ENDBRANCH  11  14
ENDBRANCH   5  10
ENDBRANCH   3   5
ENDBRANCH   2   3
TORSDOF 13
ENDMDL
MODEL      298
REMARK 921   NORMALIZED FREE ENERGY PREDICTED BY IDOCK:   -2.49 KCAL/MOL
REMARK 922        TOTAL FREE ENERGY PREDICTED BY IDOCK:   -6.49 KCAL/MOL
REMARK 923 INTER-LIGAND FREE ENERGY PREDICTED BY IDOCK:   -5.81 KCAL/MOL
REMARK 924 INTRA-LIGAND FREE ENERGY PREDICTED BY IDOCK:   -0.68 KCAL/MOL
REMARK 927      BINDING AFFINITY PREDICTED BY RF-SCORE:    0.00 PKD
ROOT
HETATM    1  C   UNL     1     -12.591  13.877  65.800  1.00  0.00    -0.494 C  
HETATM    2  O   UNL     1     -11.429  13.078  66.007  1.00  0.00    -0.310 OA 
ENDROOT
BRANCH   2   3
HETATM    3  C   UNL     1     -11.378  12.417  67.198  1.00  0.00    -0.329 C  
HETATM    4  O   UNL     1     -12.071  11.456  67.508  1.00  0.00    -0.592 OA 
BRANCH   3   5
HETATM    5  C   UNL     1     -10.301  13.041  68.092  1.00  0.00    -0.240 C  
BRANCH   5   6
HETATM    6  C   UNL     1      -9.185  13.697  67.268  1.00  0.00    -0.232 C  
HETATM    7  C   UNL     1      -8.362  15.226  69.142  1.00  0.00    -0.233 C  
HETATM    8  C   UNL     1      -7.712  15.673  66.769  1.00  0.00    -0.169 C  
HETATM    9  C   UNL     1      -8.816  15.134  67.685  1.00  0.00    -0.178 C  
ENDBRANCH   5   6
BRANCH   5  10
HETATM   10  N   UNL     1      -9.735  12.000  68.951  1.00  0.00    -0.417 N  
HETATM   11  C   UNL     1      -8.820  11.099  68.462  1.00  0.00    -0.161 C  
HETATM   12  H   UNL     1     -10.025  11.943  69.928  1.00  0.00     0.000 HD 
HETATM   13  O   UNL     1      -8.413  11.101  67.306  1.00  0.00    -0.132 OA 
BRANCH  11  14
HETATM   14  C   UNL     1      -8.380  10.059  69.464  1.00  0.00    -0.180 C  
BRANCH  14  15
HETATM   15  C   UNL     1      -8.509   8.660  68.865  1.00  0.00    -0.129 C  
BRANCH  15  16
HETATM   16  C   UNL     1      -9.962   8.198  68.744  1.00  0.00    -0.198 C  
BRANCH  16  17
HETATM   17  C   UNL     1     -10.633   8.035  70.106  1.00  0.00    -0.237 C  
BRANCH  17  18
HETATM   18  C   UNL     1     -11.300   6.672  70.257  1.00  0.00    -0.431 C  
BRANCH  18  19
HETATM   19  C   UNL     1     -11.599   6.397  71.730  1.00  0.00    -0.367 C  
BRANCH  19  20
HETATM   20  C   UNL     1     -10.360   5.887  72.462  1.00  0.00    -0.227 C  
BRANCH  20  21
HETATM   21  C   UNL     1      -9.936   6.863  73.560  1.00  0.00    -0.293 C  
BRANCH  21  22
HETATM   22  C   UNL     1      -8.490   7.232  73.419  1.00  0.00    -0.167 C  
HETATM   23  C   UNL     1      -7.768   7.020  72.311  1.00  0.00    -0.091 C  
ENDBRANCH  21  22
ENDBRANCH  20  21
ENDBRANCH  19  20
ENDBRANCH  18  19
ENDBRANCH  17  18
ENDBRANCH  16  17
ENDBRANCH  15  16
ENDBRANCH  14  15
ENDBRANCH  11  14
ENDBRANCH   5  10
ENDBRANCH   3   5
ENDBRANCH   2   3
TORSDOF 13
ENDMDL
MODEL      299
REMARK 921   NORMALIZED FREE ENERGY PREDICTED BY IDOCK:   -2.48 KCAL/MOL
REMARK 922        TOTAL FREE ENERGY PREDICTED BY IDOCK:   -6.48 KCAL/MOL
REMARK 923 INTER-LIGAND FREE ENERGY PREDICTED BY IDOCK:   -5.36 KCAL/MOL
REMARK 924 INTRA-LIGAND FREE ENERGY PREDICTED BY IDOCK:   -1.12 KCAL/MOL
REMARK 927      BINDING AFFINITY PREDICTED BY RF-SCORE:    0.00 PKD
ROOT
HETATM    1  C   UNL     1      -5.960   6.696  71.166  1.00  0.00    -0.035 C  
HETATM    2  O   UNL     1      -6.371   5.345  71.362  1.00  0.00    -0.032 OA 
ENDROOT
BRANCH   2   3
HETATM    3  C   UNL     1      -7.496   4.972  70.690  1.00  0.00    -0.069 C  
HETATM    4  O   UNL     1      -7.768   3.831  70.337  1.00  0.00    -0.047 OA 
BRANCH   3   5
HETATM    5  C   UNL     1      -8.392   6.193  70.460  1.00  0.00    -0.129 C  
BRANCH   5   6
HETATM    6  C   UNL     1      -9.590   6.212  71.419  1.00  0.00    -0.177 C  
HETATM    7  C   UNL     1      -9.612   8.747  71.734  1.00  0.00    -0.371 C  
HETATM    8  C   UNL     1     -10.842   7.265  73.329  1.00  0.00    -0.404 C  
HETATM    9  C   UNL     1      -9.612   7.381  72.422  1.00  0.00    -0.192 C  
ENDBRANCH   5   6
BRANCH   5  10
HETATM   10  N   UNL     1      -8.866   6.181  69.075  1.00  0.00    -0.123 N  
HETATM   11  C   UNL     1      -8.735   7.289  68.273  1.00  0.00    -0.125 C  
HETATM   12  H   UNL     1      -9.300   5.337  68.700  1.00  0.00     0.000 HD 
HETATM   13  O   UNL     1      -8.220   8.339  68.641  1.00  0.00    -0.118 OA 
BRANCH  11  14
HETATM   14  C   UNL     1      -9.324   7.126  66.893  1.00  0.00    -0.189 C  
BRANCH  14  15
HETATM   15  C   UNL     1     -10.033   8.410  66.466  1.00  0.00    -0.335 C  
BRANCH  15  16
HETATM   16  C   UNL     1      -9.303   9.146  65.342  1.00  0.00    -0.258 C  
BRANCH  16  17
HETATM   17  C   UNL     1      -9.987  10.460  64.971  1.00  0.00    -0.399 C  
BRANCH  17  18
HETATM   18  C   UNL     1      -9.672  11.572  65.966  1.00  0.00    -0.253 C  
BRANCH  18  19
HETATM   19  C   UNL     1     -10.914  11.902  66.792  1.00  0.00    -0.337 C  
BRANCH  19  20
HETATM   20  C   UNL     1     -10.861  13.330  67.328  1.00  0.00    -0.275 C  
BRANCH  20  21
HETATM   21  C   UNL     1     -12.157  14.078  67.013  1.00  0.00    -0.455 C  
BRANCH  21  22
HETATM   22  C   UNL     1     -12.610  13.799  65.612  1.00  0.00    -0.551 C  
HETATM   23  C   UNL     1     -12.198  14.491  64.541  1.00  0.00    -0.483 C  
ENDBRANCH  21  22
ENDBRANCH  20  21
ENDBRANCH  19  20
ENDBRANCH  18  19
ENDBRANCH  17  18
ENDBRANCH  16  17
ENDBRANCH  15  16
ENDBRANCH  14  15
ENDBRANCH  11  14
ENDBRANCH   5  10
ENDBRANCH   3   5
ENDBRANCH   2   3
TORSDOF 13
ENDMDL
MODEL      300
REMARK 921   NORMALIZED FREE ENERGY PREDICTED BY IDOCK:   -2.48 KCAL/MOL
REMARK 922        TOTAL FREE ENERGY PREDICTED BY IDOCK:   -6.47 KCAL/MOL
REMARK 923 INTER-LIGAND FREE ENERGY PREDICTED BY IDOCK:   -4.39 KCAL/MOL
REMARK 924 INTRA-LIGAND FREE ENERGY PREDICTED BY IDOCK:   -2.08 KCAL/MOL
REMARK 927      BINDING AFFINITY PREDICTED BY RF-SCORE:    0.00 PKD
ROOT
HETATM    1  C   UNL     1     -11.535  13.443  66.646  1.00  0.00    -0.344 C  
HETATM    2  O   UNL     1     -11.981  12.088  66.661  1.00  0.00    -0.614 OA 
ENDROOT
BRANCH   2   3
HETATM    3  C   UNL     1     -11.484  11.319  67.671  1.00  0.00    -0.264 C  
HETATM    4  O   UNL     1     -12.095  10.989  68.680  1.00  0.00    -0.551 OA 
BRANCH   3   5
HETATM    5  C   UNL     1     -10.046  10.904  67.346  1.00  0.00    -0.191 C  
BRANCH   5   6
HETATM    6  C   UNL     1      -9.974  10.030  66.087  1.00  0.00    -0.322 C  
HETATM    7  C   UNL     1      -7.456  10.293  65.748  1.00  0.00    -0.144 C  
HETATM    8  C   UNL     1      -8.900   9.452  63.888  1.00  0.00    -0.205 C  
HETATM    9  C   UNL     1      -8.840  10.381  65.104  1.00  0.00    -0.207 C  
ENDBRANCH   5   6
BRANCH   5  10
HETATM   10  N   UNL     1      -9.493  10.174  68.488  1.00  0.00    -0.153 N  
HETATM   11  C   UNL     1      -8.393  10.645  69.164  1.00  0.00    -0.135 C  
HETATM   12  H   UNL     1      -9.931   9.302  68.787  1.00  0.00     0.000 HD 
HETATM   13  O   UNL     1      -7.812  11.686  68.876  1.00  0.00    -0.118 OA 
BRANCH  11  14
HETATM   14  C   UNL     1      -7.920   9.746  70.279  1.00  0.00    -0.185 C  
BRANCH  14  15
HETATM   15  C   UNL     1      -6.427   9.462  70.132  1.00  0.00    -0.058 C  
BRANCH  15  16
HETATM   16  C   UNL     1      -6.121   8.446  69.029  1.00  0.00    -0.043 C  
BRANCH  16  17
HETATM   17  C   UNL     1      -6.292   7.006  69.506  1.00  0.00    -0.035 C  
BRANCH  17  18
HETATM   18  C   UNL     1      -7.362   6.263  68.713  1.00  0.00    -0.086 C  
BRANCH  18  19
HETATM   19  C   UNL     1      -7.643   6.994  67.401  1.00  0.00    -0.109 C  
BRANCH  19  20
HETATM   20  C   UNL     1      -9.089   6.797  66.954  1.00  0.00    -0.148 C  
BRANCH  20  21
HETATM   21  C   UNL     1      -9.154   5.975  65.666  1.00  0.00    -0.033 C  
BRANCH  21  22
HETATM   22  C   UNL     1      -9.916   4.702  65.881  1.00  0.00    -0.256 C  
HETATM   23  C   UNL     1      -9.751   3.901  66.942  1.00  0.00    -0.189 C  
ENDBRANCH  21  22
ENDBRANCH  20  21
ENDBRANCH  19  20
ENDBRANCH  18  19
ENDBRANCH  17  18
ENDBRANCH  16  17
ENDBRANCH  15  16
ENDBRANCH  14  15
ENDBRANCH  11  14
ENDBRANCH   5  10
ENDBRANCH   3   5
ENDBRANCH   2   3
TORSDOF 13
ENDMDL
MODEL      301
REMARK 921   NORMALIZED FREE ENERGY PREDICTED BY IDOCK:   -2.47 KCAL/MOL
REMARK 922        TOTAL FREE ENERGY PREDICTED BY IDOCK:   -6.45 KCAL/MOL
REMARK 923 INTER-LIGAND FREE ENERGY PREDICTED BY IDOCK:   -6.13 KCAL/MOL
REMARK 924 INTRA-LIGAND FREE ENERGY PREDICTED BY IDOCK:   -0.32 KCAL/MOL
REMARK 927      BINDING AFFINITY PREDICTED BY RF-SCORE:    0.00 PKD
ROOT
HETATM    1  C   UNL     1      -8.913   5.230  69.367  1.00  0.00    -0.100 C  
HETATM    2  O   UNL     1      -9.303   6.598  69.261  1.00  0.00    -0.143 OA 
ENDROOT
BRANCH   2   3
HETATM    3  C   UNL     1      -8.541   7.481  69.966  1.00  0.00    -0.139 C  
HETATM    4  O   UNL     1      -7.409   7.268  70.383  1.00  0.00    -0.075 OA 
BRANCH   3   5
HETATM    5  C   UNL     1      -9.302   8.799  70.140  1.00  0.00    -0.169 C  
BRANCH   5   6
HETATM    6  C   UNL     1     -10.814   8.573  70.271  1.00  0.00    -0.249 C  
HETATM    7  C   UNL     1     -10.769   8.042  72.769  1.00  0.00    -0.431 C  
HETATM    8  C   UNL     1     -12.766   7.448  71.387  1.00  0.00    -0.408 C  
HETATM    9  C   UNL     1     -11.241   7.598  71.384  1.00  0.00    -0.273 C  
ENDBRANCH   5   6
BRANCH   5  10
HETATM   10  N   UNL     1      -9.027   9.661  68.991  1.00  0.00    -0.141 N  
HETATM   11  C   UNL     1      -9.879   9.695  67.912  1.00  0.00    -0.154 C  
HETATM   12  H   UNL     1      -8.191  10.247  68.990  1.00  0.00     0.000 HD 
HETATM   13  O   UNL     1     -10.907   9.032  67.835  1.00  0.00    -0.178 OA 
BRANCH  11  14
HETATM   14  C   UNL     1      -9.420  10.595  66.791  1.00  0.00    -0.189 C  
BRANCH  14  15
HETATM   15  C   UNL     1     -10.369  10.480  65.600  1.00  0.00    -0.274 C  
BRANCH  15  16
HETATM   16  C   UNL     1      -9.675  10.730  64.260  1.00  0.00    -0.357 C  
BRANCH  16  17
HETATM   17  C   UNL     1     -10.091  12.058  63.632  1.00  0.00    -0.439 C  
BRANCH  17  18
HETATM   18  C   UNL     1     -11.596  12.133  63.394  1.00  0.00    -0.508 C  
BRANCH  18  19
HETATM   19  C   UNL     1     -12.230  13.125  64.367  1.00  0.00    -0.462 C  
BRANCH  19  20
HETATM   20  C   UNL     1     -11.193  14.099  64.920  1.00  0.00    -0.373 C  
BRANCH  20  21
HETATM   21  C   UNL     1     -11.583  14.571  66.322  1.00  0.00    -0.364 C  
BRANCH  21  22
HETATM   22  C   UNL     1     -12.255  13.472  67.089  1.00  0.00    -0.328 C  
HETATM   23  C   UNL     1     -11.802  12.986  68.252  1.00  0.00    -0.381 C  
ENDBRANCH  21  22
ENDBRANCH  20  21
ENDBRANCH  19  20
ENDBRANCH  18  19
ENDBRANCH  17  18
ENDBRANCH  16  17
ENDBRANCH  15  16
ENDBRANCH  14  15
ENDBRANCH  11  14
ENDBRANCH   5  10
ENDBRANCH   3   5
ENDBRANCH   2   3
TORSDOF 13
ENDMDL
MODEL      302
REMARK 921   NORMALIZED FREE ENERGY PREDICTED BY IDOCK:   -2.47 KCAL/MOL
REMARK 922        TOTAL FREE ENERGY PREDICTED BY IDOCK:   -6.45 KCAL/MOL
REMARK 923 INTER-LIGAND FREE ENERGY PREDICTED BY IDOCK:   -5.24 KCAL/MOL
REMARK 924 INTRA-LIGAND FREE ENERGY PREDICTED BY IDOCK:   -1.21 KCAL/MOL
REMARK 927      BINDING AFFINITY PREDICTED BY RF-SCORE:    0.00 PKD
ROOT
HETATM    1  C   UNL     1      -7.582   8.709  71.086  1.00  0.00    -0.106 C  
HETATM    2  O   UNL     1      -8.779   7.941  71.189  1.00  0.00    -0.130 OA 
ENDROOT
BRANCH   2   3
HETATM    3  C   UNL     1      -9.654   8.345  72.153  1.00  0.00    -0.297 C  
HETATM    4  O   UNL     1      -9.565   8.088  73.347  1.00  0.00    -0.278 OA 
BRANCH   3   5
HETATM    5  C   UNL     1     -10.761   9.197  71.524  1.00  0.00    -0.367 C  
BRANCH   5   6
HETATM    6  C   UNL     1     -12.155   8.765  71.999  1.00  0.00    -0.447 C  
HETATM    7  C   UNL     1     -11.971   6.364  71.147  1.00  0.00    -0.273 C  
HETATM    8  C   UNL     1     -14.201   7.327  71.742  1.00  0.00    -0.526 C  
HETATM    9  C   UNL     1     -12.812   7.641  71.176  1.00  0.00    -0.223 C  
ENDBRANCH   5   6
BRANCH   5  10
HETATM   10  N   UNL     1     -10.677   9.085  70.067  1.00  0.00    -0.226 N  
HETATM   11  C   UNL     1     -10.686  10.204  69.270  1.00  0.00    -0.231 C  
HETATM   12  H   UNL     1     -10.610   8.162  69.637  1.00  0.00     0.000 HD 
HETATM   13  O   UNL     1     -10.756  11.349  69.703  1.00  0.00    -0.125 OA 
BRANCH  11  14
HETATM   14  C   UNL     1     -10.648   9.909  67.790  1.00  0.00    -0.313 C  
BRANCH  14  15
HETATM   15  C   UNL     1      -9.453   9.018  67.460  1.00  0.00    -0.168 C  
BRANCH  15  16
HETATM   16  C   UNL     1      -9.825   7.831  66.569  1.00  0.00    -0.255 C  
BRANCH  16  17
HETATM   17  C   UNL     1     -10.674   6.798  67.307  1.00  0.00    -0.423 C  
BRANCH  17  18
HETATM   18  C   UNL     1     -10.493   5.395  66.738  1.00  0.00    -0.347 C  
BRANCH  18  19
HETATM   19  C   UNL     1      -9.901   4.472  67.802  1.00  0.00    -0.169 C  
BRANCH  19  20
HETATM   20  C   UNL     1      -8.826   3.563  67.212  1.00  0.00    -0.147 C  
BRANCH  20  21
HETATM   21  C   UNL     1      -7.719   4.386  66.552  1.00  0.00    -0.094 C  
BRANCH  21  22
HETATM   22  C   UNL     1      -7.071   5.305  67.544  1.00  0.00    -0.067 C  
HETATM   23  C   UNL     1      -6.258   6.315  67.208  1.00  0.00    -0.032 C  
ENDBRANCH  21  22
ENDBRANCH  20  21
ENDBRANCH  19  20
ENDBRANCH  18  19
ENDBRANCH  17  18
ENDBRANCH  16  17
ENDBRANCH  15  16
ENDBRANCH  14  15
ENDBRANCH  11  14
ENDBRANCH   5  10
ENDBRANCH   3   5
ENDBRANCH   2   3
TORSDOF 13
ENDMDL
MODEL      303
REMARK 921   NORMALIZED FREE ENERGY PREDICTED BY IDOCK:   -2.46 KCAL/MOL
REMARK 922        TOTAL FREE ENERGY PREDICTED BY IDOCK:   -6.44 KCAL/MOL
REMARK 923 INTER-LIGAND FREE ENERGY PREDICTED BY IDOCK:   -6.14 KCAL/MOL
REMARK 924 INTRA-LIGAND FREE ENERGY PREDICTED BY IDOCK:   -0.30 KCAL/MOL
REMARK 927      BINDING AFFINITY PREDICTED BY RF-SCORE:    0.00 PKD
ROOT
HETATM    1  C   UNL     1     -10.304   9.439  71.168  1.00  0.00    -0.307 C  
HETATM    2  O   UNL     1     -10.817   8.636  70.107  1.00  0.00    -0.234 OA 
ENDROOT
BRANCH   2   3
HETATM    3  C   UNL     1      -9.900   8.234  69.181  1.00  0.00    -0.179 C  
HETATM    4  O   UNL     1      -8.711   8.035  69.398  1.00  0.00    -0.135 OA 
BRANCH   3   5
HETATM    5  C   UNL     1     -10.584   8.041  67.824  1.00  0.00    -0.170 C  
BRANCH   5   6
HETATM    6  C   UNL     1      -9.585   7.630  66.734  1.00  0.00    -0.269 C  
HETATM    7  C   UNL     1     -10.598   5.319  66.333  1.00  0.00    -0.338 C  
HETATM    8  C   UNL     1      -8.296   5.849  65.513  1.00  0.00    -0.145 C  
HETATM    9  C   UNL     1      -9.324   6.116  66.617  1.00  0.00    -0.161 C  
ENDBRANCH   5   6
BRANCH   5  10
HETATM   10  N   UNL     1     -11.245   9.290  67.444  1.00  0.00    -0.251 N  
HETATM   11  C   UNL     1     -10.514  10.416  67.149  1.00  0.00    -0.256 C  
HETATM   12  H   UNL     1     -12.264   9.325  67.396  1.00  0.00     0.000 HD 
HETATM   13  O   UNL     1      -9.289  10.459  67.174  1.00  0.00    -0.155 OA 
BRANCH  11  14
HETATM   14  C   UNL     1     -11.352  11.631  66.830  1.00  0.00    -0.364 C  
BRANCH  14  15
HETATM   15  C   UNL     1     -11.995  12.178  68.103  1.00  0.00    -0.242 C  
BRANCH  15  16
HETATM   16  C   UNL     1     -11.706  13.664  68.324  1.00  0.00    -0.398 C  
BRANCH  16  17
HETATM   17  C   UNL     1     -10.210  13.967  68.331  1.00  0.00    -0.243 C  
BRANCH  17  18
HETATM   18  C   UNL     1      -9.910  15.383  67.852  1.00  0.00    -0.219 C  
BRANCH  18  19
HETATM   19  C   UNL     1      -9.947  16.353  69.031  1.00  0.00    -0.267 C  
BRANCH  19  20
HETATM   20  C   UNL     1     -10.131  17.793  68.559  1.00  0.00    -0.377 C  
BRANCH  20  21
HETATM   21  C   UNL     1      -9.961  17.895  67.043  1.00  0.00    -0.324 C  
BRANCH  21  22
HETATM   22  C   UNL     1     -10.343  19.260  66.552  1.00  0.00    -0.538 C  
HETATM   23  C   UNL     1      -9.722  20.388  66.920  1.00  0.00    -0.567 C  
ENDBRANCH  21  22
ENDBRANCH  20  21
ENDBRANCH  19  20
ENDBRANCH  18  19
ENDBRANCH  17  18
ENDBRANCH  16  17
ENDBRANCH  15  16
ENDBRANCH  14  15
ENDBRANCH  11  14
ENDBRANCH   5  10
ENDBRANCH   3   5
ENDBRANCH   2   3
TORSDOF 13
ENDMDL
MODEL      304
REMARK 921   NORMALIZED FREE ENERGY PREDICTED BY IDOCK:   -2.46 KCAL/MOL
REMARK 922        TOTAL FREE ENERGY PREDICTED BY IDOCK:   -6.43 KCAL/MOL
REMARK 923 INTER-LIGAND FREE ENERGY PREDICTED BY IDOCK:   -5.33 KCAL/MOL
REMARK 924 INTRA-LIGAND FREE ENERGY PREDICTED BY IDOCK:   -1.10 KCAL/MOL
REMARK 927      BINDING AFFINITY PREDICTED BY RF-SCORE:    0.00 PKD
ROOT
HETATM    1  C   UNL     1     -12.116  13.747  66.903  1.00  0.00    -0.413 C  
HETATM    2  O   UNL     1     -11.490  15.028  66.876  1.00  0.00    -0.334 OA 
ENDROOT
BRANCH   2   3
HETATM    3  C   UNL     1     -11.299  15.612  68.093  1.00  0.00    -0.340 C  
HETATM    4  O   UNL     1     -12.042  15.500  69.060  1.00  0.00    -0.319 OA 
BRANCH   3   5
HETATM    5  C   UNL     1      -9.994  16.415  68.084  1.00  0.00    -0.242 C  
BRANCH   5   6
HETATM    6  C   UNL     1     -10.097  17.663  67.197  1.00  0.00    -0.328 C  
HETATM    7  C   UNL     1      -8.595  19.126  68.656  1.00  0.00    -0.396 C  
HETATM    8  C   UNL     1     -10.084  20.164  66.937  1.00  0.00    -0.592 C  
HETATM    9  C   UNL     1      -9.936  19.008  67.932  1.00  0.00    -0.427 C  
ENDBRANCH   5   6
BRANCH   5  10
HETATM   10  N   UNL     1      -8.911  15.555  67.606  1.00  0.00    -0.177 N  
HETATM   11  C   UNL     1      -7.857  15.224  68.423  1.00  0.00    -0.122 C  
HETATM   12  H   UNL     1      -8.939  15.196  66.651  1.00  0.00     0.000 HD 
HETATM   13  O   UNL     1      -7.750  15.604  69.584  1.00  0.00    -0.207 OA 
BRANCH  11  14
HETATM   14  C   UNL     1      -6.801  14.376  67.758  1.00  0.00    -0.194 C  
BRANCH  14  15
HETATM   15  C   UNL     1      -6.795  12.972  68.358  1.00  0.00    -0.097 C  
BRANCH  15  16
HETATM   16  C   UNL     1      -8.158  12.283  68.272  1.00  0.00    -0.166 C  
BRANCH  16  17
HETATM   17  C   UNL     1      -8.036  10.799  67.935  1.00  0.00    -0.112 C  
BRANCH  17  18
HETATM   18  C   UNL     1      -6.996  10.098  68.802  1.00  0.00    -0.066 C  
BRANCH  18  19
HETATM   19  C   UNL     1      -7.644   8.942  69.564  1.00  0.00    -0.080 C  
BRANCH  19  20
HETATM   20  C   UNL     1      -7.875   7.739  68.654  1.00  0.00    -0.120 C  
BRANCH  20  21
HETATM   21  C   UNL     1      -9.352   7.343  68.640  1.00  0.00    -0.139 C  
BRANCH  21  22
HETATM   22  C   UNL     1      -9.878   7.282  67.237  1.00  0.00    -0.224 C  
HETATM   23  C   UNL     1      -9.418   8.040  66.234  1.00  0.00    -0.241 C  
ENDBRANCH  21  22
ENDBRANCH  20  21
ENDBRANCH  19  20
ENDBRANCH  18  19
ENDBRANCH  17  18
ENDBRANCH  16  17
ENDBRANCH  15  16
ENDBRANCH  14  15
ENDBRANCH  11  14
ENDBRANCH   5  10
ENDBRANCH   3   5
ENDBRANCH   2   3
TORSDOF 13
ENDMDL
MODEL      305
REMARK 921   NORMALIZED FREE ENERGY PREDICTED BY IDOCK:   -2.45 KCAL/MOL
REMARK 922        TOTAL FREE ENERGY PREDICTED BY IDOCK:   -6.43 KCAL/MOL
REMARK 923 INTER-LIGAND FREE ENERGY PREDICTED BY IDOCK:   -4.80 KCAL/MOL
REMARK 924 INTRA-LIGAND FREE ENERGY PREDICTED BY IDOCK:   -1.63 KCAL/MOL
REMARK 927      BINDING AFFINITY PREDICTED BY RF-SCORE:    0.00 PKD
ROOT
HETATM    1  C   UNL     1     -11.443   6.151  72.310  1.00  0.00    -0.312 C  
HETATM    2  O   UNL     1     -10.905   7.016  71.311  1.00  0.00    -0.231 OA 
ENDROOT
BRANCH   2   3
HETATM    3  C   UNL     1     -11.211   8.336  71.453  1.00  0.00    -0.255 C  
HETATM    4  O   UNL     1     -11.959   8.805  72.303  1.00  0.00    -0.365 OA 
BRANCH   3   5
HETATM    5  C   UNL     1     -10.458   9.159  70.404  1.00  0.00    -0.223 C  
BRANCH   5   6
HETATM    6  C   UNL     1      -8.937   9.074  70.594  1.00  0.00    -0.263 C  
HETATM    7  C   UNL     1      -8.544   7.411  68.696  1.00  0.00    -0.129 C  
HETATM    8  C   UNL     1      -6.785   7.785  70.433  1.00  0.00    -0.038 C  
HETATM    9  C   UNL     1      -8.293   7.741  70.168  1.00  0.00    -0.128 C  
ENDBRANCH   5   6
BRANCH   5  10
HETATM   10  N   UNL     1     -10.891  10.554  70.494  1.00  0.00    -0.419 N  
HETATM   11  C   UNL     1     -11.287  11.245  69.373  1.00  0.00    -0.292 C  
HETATM   12  H   UNL     1     -10.900  11.020  71.401  1.00  0.00     0.000 HD 
HETATM   13  O   UNL     1     -11.315  10.760  68.248  1.00  0.00    -0.280 OA 
BRANCH  11  14
HETATM   14  C   UNL     1     -11.650  12.687  69.633  1.00  0.00    -0.321 C  
BRANCH  14  15
HETATM   15  C   UNL     1     -11.802  13.439  68.312  1.00  0.00    -0.393 C  
BRANCH  15  16
HETATM   16  C   UNL     1     -10.474  13.985  67.783  1.00  0.00    -0.236 C  
BRANCH  16  17
HETATM   17  C   UNL     1     -10.485  14.162  66.266  1.00  0.00    -0.286 C  
BRANCH  17  18
HETATM   18  C   UNL     1     -10.713  12.842  65.537  1.00  0.00    -0.303 C  
BRANCH  18  19
HETATM   19  C   UNL     1      -9.382  12.285  65.035  1.00  0.00     0.259 C  
BRANCH  19  20
HETATM   20  C   UNL     1      -9.114  10.893  65.600  1.00  0.00    -0.223 C  
BRANCH  20  21
HETATM   21  C   UNL     1      -7.730  10.825  66.246  1.00  0.00    -0.146 C  
BRANCH  21  22
HETATM   22  C   UNL     1      -7.777  11.307  67.665  1.00  0.00    -0.115 C  
HETATM   23  C   UNL     1      -7.220  12.450  68.085  1.00  0.00    -0.100 C  
ENDBRANCH  21  22
ENDBRANCH  20  21
ENDBRANCH  19  20
ENDBRANCH  18  19
ENDBRANCH  17  18
ENDBRANCH  16  17
ENDBRANCH  15  16
ENDBRANCH  14  15
ENDBRANCH  11  14
ENDBRANCH   5  10
ENDBRANCH   3   5
ENDBRANCH   2   3
TORSDOF 13
ENDMDL
MODEL      306
REMARK 921   NORMALIZED FREE ENERGY PREDICTED BY IDOCK:   -2.45 KCAL/MOL
REMARK 922        TOTAL FREE ENERGY PREDICTED BY IDOCK:   -6.42 KCAL/MOL
REMARK 923 INTER-LIGAND FREE ENERGY PREDICTED BY IDOCK:   -6.24 KCAL/MOL
REMARK 924 INTRA-LIGAND FREE ENERGY PREDICTED BY IDOCK:   -0.18 KCAL/MOL
REMARK 927      BINDING AFFINITY PREDICTED BY RF-SCORE:    0.00 PKD
ROOT
HETATM    1  C   UNL     1      -5.634  17.096  70.008  1.00  0.00    -0.234 C  
HETATM    2  O   UNL     1      -6.872  17.366  69.353  1.00  0.00    -0.233 OA 
ENDROOT
BRANCH   2   3
HETATM    3  C   UNL     1      -7.319  16.386  68.518  1.00  0.00    -0.181 C  
HETATM    4  O   UNL     1      -7.010  15.202  68.582  1.00  0.00    -0.107 OA 
BRANCH   3   5
HETATM    5  C   UNL     1      -8.293  16.980  67.496  1.00  0.00    -0.188 C  
BRANCH   5   6
HETATM    6  C   UNL     1      -8.667  18.429  67.837  1.00  0.00    -0.296 C  
HETATM    7  C   UNL     1     -10.309  18.722  65.903  1.00  0.00    -0.385 C  
HETATM    8  C   UNL     1      -9.420  20.718  67.118  1.00  0.00    -0.444 C  
HETATM    9  C   UNL     1      -9.100  19.298  66.641  1.00  0.00    -0.374 C  
ENDBRANCH   5   6
BRANCH   5  10
HETATM   10  N   UNL     1      -9.500  16.154  67.453  1.00  0.00    -0.225 N  
HETATM   11  C   UNL     1     -10.397  16.159  68.494  1.00  0.00    -0.254 C  
HETATM   12  H   UNL     1      -9.677  15.565  66.639  1.00  0.00     0.000 HD 
HETATM   13  O   UNL     1     -10.265  16.841  69.504  1.00  0.00    -0.248 OA 
BRANCH  11  14
HETATM   14  C   UNL     1     -11.557  15.210  68.314  1.00  0.00    -0.357 C  
BRANCH  14  15
HETATM   15  C   UNL     1     -11.057  13.768  68.259  1.00  0.00    -0.279 C  
BRANCH  15  16
HETATM   16  C   UNL     1     -11.846  12.830  69.174  1.00  0.00    -0.352 C  
BRANCH  16  17
HETATM   17  C   UNL     1     -11.675  11.363  68.783  1.00  0.00    -0.404 C  
BRANCH  17  18
HETATM   18  C   UNL     1     -11.389  11.196  67.295  1.00  0.00    -0.302 C  
BRANCH  18  19
HETATM   19  C   UNL     1     -10.415  10.039  67.076  1.00  0.00    -0.302 C  
BRANCH  19  20
HETATM   20  C   UNL     1      -9.941   9.455  68.404  1.00  0.00    -0.191 C  
BRANCH  20  21
HETATM   21  C   UNL     1     -10.435   8.017  68.574  1.00  0.00    -0.200 C  
BRANCH  21  22
HETATM   22  C   UNL     1     -10.754   7.401  67.245  1.00  0.00    -0.379 C  
HETATM   23  C   UNL     1     -10.289   6.211  66.842  1.00  0.00    -0.307 C  
ENDBRANCH  21  22
ENDBRANCH  20  21
ENDBRANCH  19  20
ENDBRANCH  18  19
ENDBRANCH  17  18
ENDBRANCH  16  17
ENDBRANCH  15  16
ENDBRANCH  14  15
ENDBRANCH  11  14
ENDBRANCH   5  10
ENDBRANCH   3   5
ENDBRANCH   2   3
TORSDOF 13
ENDMDL
MODEL      307
REMARK 921   NORMALIZED FREE ENERGY PREDICTED BY IDOCK:   -2.45 KCAL/MOL
REMARK 922        TOTAL FREE ENERGY PREDICTED BY IDOCK:   -6.42 KCAL/MOL
REMARK 923 INTER-LIGAND FREE ENERGY PREDICTED BY IDOCK:   -6.33 KCAL/MOL
REMARK 924 INTRA-LIGAND FREE ENERGY PREDICTED BY IDOCK:   -0.08 KCAL/MOL
REMARK 927      BINDING AFFINITY PREDICTED BY RF-SCORE:    0.00 PKD
ROOT
HETATM    1  C   UNL     1      -9.724   5.049  70.720  1.00  0.00    -0.196 C  
HETATM    2  O   UNL     1      -9.773   5.274  69.312  1.00  0.00    -0.142 OA 
ENDROOT
BRANCH   2   3
HETATM    3  C   UNL     1     -10.853   5.978  68.869  1.00  0.00    -0.331 C  
HETATM    4  O   UNL     1     -11.726   6.464  69.579  1.00  0.00    -0.366 OA 
BRANCH   3   5
HETATM    5  C   UNL     1     -10.804   6.096  67.343  1.00  0.00    -0.343 C  
BRANCH   5   6
HETATM    6  C   UNL     1      -9.485   5.561  66.770  1.00  0.00    -0.147 C  
HETATM    7  C   UNL     1     -10.573   4.003  65.062  1.00  0.00    -0.116 C  
HETATM    8  C   UNL     1      -8.166   3.720  65.678  1.00  0.00    -0.105 C  
HETATM    9  C   UNL     1      -9.549   4.135  66.190  1.00  0.00    -0.204 C  
ENDBRANCH   5   6
BRANCH   5  10
HETATM   10  N   UNL     1     -10.973   7.501  66.970  1.00  0.00    -0.532 N  
HETATM   11  C   UNL     1     -10.004   8.432  67.262  1.00  0.00    -0.227 C  
HETATM   12  H   UNL     1     -11.821   7.794  66.485  1.00  0.00     0.000 HD 
HETATM   13  O   UNL     1      -8.953   8.164  67.834  1.00  0.00    -0.133 OA 
BRANCH  11  14
HETATM   14  C   UNL     1     -10.359   9.842  66.858  1.00  0.00    -0.301 C  
BRANCH  14  15
HETATM   15  C   UNL     1     -10.241  10.780  68.057  1.00  0.00    -0.203 C  
BRANCH  15  16
HETATM   16  C   UNL     1     -11.464  11.683  68.228  1.00  0.00    -0.369 C  
BRANCH  16  17
HETATM   17  C   UNL     1     -11.612  12.680  67.081  1.00  0.00    -0.434 C  
BRANCH  17  18
HETATM   18  C   UNL     1     -12.018  14.065  67.573  1.00  0.00    -0.430 C  
BRANCH  18  19
HETATM   19  C   UNL     1     -11.071  15.121  67.004  1.00  0.00    -0.328 C  
BRANCH  19  20
HETATM   20  C   UNL     1     -10.098  15.624  68.067  1.00  0.00    -0.224 C  
BRANCH  20  21
HETATM   21  C   UNL     1     -10.527  16.994  68.592  1.00  0.00    -0.363 C  
BRANCH  21  22
HETATM   22  C   UNL     1      -9.814  18.095  67.865  1.00  0.00    -0.317 C  
HETATM   23  C   UNL     1     -10.434  19.044  67.153  1.00  0.00    -0.522 C  
ENDBRANCH  21  22
ENDBRANCH  20  21
ENDBRANCH  19  20
ENDBRANCH  18  19
ENDBRANCH  17  18
ENDBRANCH  16  17
ENDBRANCH  15  16
ENDBRANCH  14  15
ENDBRANCH  11  14
ENDBRANCH   5  10
ENDBRANCH   3   5
ENDBRANCH   2   3
TORSDOF 13
ENDMDL
MODEL      308
REMARK 921   NORMALIZED FREE ENERGY PREDICTED BY IDOCK:   -2.44 KCAL/MOL
REMARK 922        TOTAL FREE ENERGY PREDICTED BY IDOCK:   -6.40 KCAL/MOL
REMARK 923 INTER-LIGAND FREE ENERGY PREDICTED BY IDOCK:   -4.92 KCAL/MOL
REMARK 924 INTRA-LIGAND FREE ENERGY PREDICTED BY IDOCK:   -1.49 KCAL/MOL
REMARK 927      BINDING AFFINITY PREDICTED BY RF-SCORE:    0.00 PKD
ROOT
HETATM    1  C   UNL     1     -11.975  11.745  69.515  1.00  0.00    -0.300 C  
HETATM    2  O   UNL     1     -12.232  10.418  69.970  1.00  0.00    -0.258 OA 
ENDROOT
BRANCH   2   3
HETATM    3  C   UNL     1     -11.159   9.763  70.497  1.00  0.00    -0.321 C  
HETATM    4  O   UNL     1     -11.000   9.497  71.683  1.00  0.00    -0.362 OA 
BRANCH   3   5
HETATM    5  C   UNL     1     -10.184   9.381  69.379  1.00  0.00    -0.207 C  
BRANCH   5   6
HETATM    6  C   UNL     1     -10.411   7.945  68.889  1.00  0.00    -0.225 C  
HETATM    7  C   UNL     1      -9.405   8.315  66.570  1.00  0.00    -0.263 C  
HETATM    8  C   UNL     1     -10.839   6.317  67.021  1.00  0.00    -0.458 C  
HETATM    9  C   UNL     1     -10.600   7.790  67.367  1.00  0.00    -0.345 C  
ENDBRANCH   5   6
BRANCH   5  10
HETATM   10  N   UNL     1      -8.814   9.526  69.874  1.00  0.00    -0.193 N  
HETATM   11  C   UNL     1      -8.015  10.561  69.451  1.00  0.00    -0.140 C  
HETATM   12  H   UNL     1      -8.447   8.848  70.543  1.00  0.00     0.000 HD 
HETATM   13  O   UNL     1      -8.378  11.421  68.657  1.00  0.00    -0.153 OA 
BRANCH  11  14
HETATM   14  C   UNL     1      -6.615  10.531  70.015  1.00  0.00    -0.144 C  
BRANCH  14  15
HETATM   15  C   UNL     1      -6.263   9.120  70.479  1.00  0.00    -0.049 C  
BRANCH  15  16
HETATM   16  C   UNL     1      -5.957   9.046  71.977  1.00  0.00    -0.068 C  
BRANCH  16  17
HETATM   17  C   UNL     1      -6.811   8.001  72.690  1.00  0.00    -0.092 C  
BRANCH  17  18
HETATM   18  C   UNL     1      -7.324   6.930  71.734  1.00  0.00    -0.084 C  
BRANCH  18  19
HETATM   19  C   UNL     1      -8.784   6.605  72.047  1.00  0.00    -0.127 C  
BRANCH  19  20
HETATM   20  C   UNL     1      -9.142   6.986  73.481  1.00  0.00    -0.186 C  
BRANCH  20  21
HETATM   21  C   UNL     1     -10.625   6.734  73.758  1.00  0.00    -0.323 C  
BRANCH  21  22
HETATM   22  C   UNL     1     -11.044   5.390  73.242  1.00  0.00    -0.352 C  
HETATM   23  C   UNL     1     -10.428   4.243  73.557  1.00  0.00    -0.265 C  
ENDBRANCH  21  22
ENDBRANCH  20  21
ENDBRANCH  19  20
ENDBRANCH  18  19
ENDBRANCH  17  18
ENDBRANCH  16  17
ENDBRANCH  15  16
ENDBRANCH  14  15
ENDBRANCH  11  14
ENDBRANCH   5  10
ENDBRANCH   3   5
ENDBRANCH   2   3
TORSDOF 13
ENDMDL
MODEL      309
REMARK 921   NORMALIZED FREE ENERGY PREDICTED BY IDOCK:   -2.43 KCAL/MOL
REMARK 922        TOTAL FREE ENERGY PREDICTED BY IDOCK:   -6.38 KCAL/MOL
REMARK 923 INTER-LIGAND FREE ENERGY PREDICTED BY IDOCK:   -6.28 KCAL/MOL
REMARK 924 INTRA-LIGAND FREE ENERGY PREDICTED BY IDOCK:   -0.10 KCAL/MOL
REMARK 927      BINDING AFFINITY PREDICTED BY RF-SCORE:    0.00 PKD
ROOT
HETATM    1  C   UNL     1      -6.773  11.579  66.916  1.00  0.00    -0.139 C  
HETATM    2  O   UNL     1      -6.433  10.202  66.763  1.00  0.00    -0.068 OA 
ENDROOT
BRANCH   2   3
HETATM    3  C   UNL     1      -7.470   9.373  66.453  1.00  0.00    -0.093 C  
HETATM    4  O   UNL     1      -8.054   9.338  65.376  1.00  0.00    -0.114 OA 
BRANCH   3   5
HETATM    5  C   UNL     1      -7.784   8.467  67.647  1.00  0.00    -0.099 C  
BRANCH   5   6
HETATM    6  C   UNL     1      -8.313   7.097  67.201  1.00  0.00    -0.118 C  
HETATM    7  C   UNL     1      -8.195   6.023  69.516  1.00  0.00    -0.115 C  
HETATM    8  C   UNL     1      -8.407   4.599  67.472  1.00  0.00    -0.104 C  
HETATM    9  C   UNL     1      -7.825   5.898  68.037  1.00  0.00    -0.104 C  
ENDBRANCH   5   6
BRANCH   5  10
HETATM   10  N   UNL     1      -8.775   9.128  68.497  1.00  0.00    -0.129 N  
HETATM   11  C   UNL     1     -10.113   9.089  68.185  1.00  0.00    -0.191 C  
HETATM   12  H   UNL     1      -8.468   9.625  69.334  1.00  0.00     0.000 HD 
HETATM   13  O   UNL     1     -10.567   8.510  67.205  1.00  0.00    -0.303 OA 
BRANCH  11  14
HETATM   14  C   UNL     1     -10.992   9.867  69.134  1.00  0.00    -0.233 C  
BRANCH  14  15
HETATM   15  C   UNL     1     -11.205   9.076  70.423  1.00  0.00    -0.275 C  
BRANCH  15  16
HETATM   16  C   UNL     1     -12.051   9.831  71.450  1.00  0.00    -0.486 C  
BRANCH  16  17
HETATM   17  C   UNL     1     -12.540  11.177  70.919  1.00  0.00    -0.483 C  
BRANCH  17  18
HETATM   18  C   UNL     1     -13.167  12.032  72.015  1.00  0.00    -0.481 C  
BRANCH  18  19
HETATM   19  C   UNL     1     -13.527  13.410  71.462  1.00  0.00    -0.288 C  
BRANCH  19  20
HETATM   20  C   UNL     1     -12.286  14.283  71.296  1.00  0.00    -0.439 C  
BRANCH  20  21
HETATM   21  C   UNL     1     -12.568  15.719  71.737  1.00  0.00    -0.524 C  
BRANCH  21  22
HETATM   22  C   UNL     1     -13.191  15.749  73.100  1.00  0.00    -0.694 C  
HETATM   23  C   UNL     1     -12.501  15.617  74.240  1.00  0.00    -0.804 C  
ENDBRANCH  21  22
ENDBRANCH  20  21
ENDBRANCH  19  20
ENDBRANCH  18  19
ENDBRANCH  17  18
ENDBRANCH  16  17
ENDBRANCH  15  16
ENDBRANCH  14  15
ENDBRANCH  11  14
ENDBRANCH   5  10
ENDBRANCH   3   5
ENDBRANCH   2   3
TORSDOF 13
ENDMDL
MODEL      310
REMARK 921   NORMALIZED FREE ENERGY PREDICTED BY IDOCK:   -2.42 KCAL/MOL
REMARK 922        TOTAL FREE ENERGY PREDICTED BY IDOCK:   -6.37 KCAL/MOL
REMARK 923 INTER-LIGAND FREE ENERGY PREDICTED BY IDOCK:   -5.50 KCAL/MOL
REMARK 924 INTRA-LIGAND FREE ENERGY PREDICTED BY IDOCK:   -0.87 KCAL/MOL
REMARK 927      BINDING AFFINITY PREDICTED BY RF-SCORE:    0.00 PKD
ROOT
HETATM    1  C   UNL     1     -10.161   5.768  73.766  1.00  0.00    -0.235 C  
HETATM    2  O   UNL     1     -10.455   5.616  72.378  1.00  0.00    -0.196 OA 
ENDROOT
BRANCH   2   3
HETATM    3  C   UNL     1     -11.772   5.722  72.044  1.00  0.00    -0.110 C  
HETATM    4  O   UNL     1     -12.714   5.360  72.739  1.00  0.00     0.138 OA 
BRANCH   3   5
HETATM    5  C   UNL     1     -11.907   6.388  70.671  1.00  0.00    -0.250 C  
BRANCH   5   6
HETATM    6  C   UNL     1     -10.550   6.855  70.127  1.00  0.00    -0.249 C  
HETATM    7  C   UNL     1     -11.120   6.454  67.669  1.00  0.00    -0.388 C  
HETATM    8  C   UNL     1      -8.741   6.745  68.384  1.00  0.00    -0.123 C  
HETATM    9  C   UNL     1     -10.116   6.210  68.797  1.00  0.00    -0.205 C  
ENDBRANCH   5   6
BRANCH   5  10
HETATM   10  N   UNL     1     -12.815   7.530  70.784  1.00  0.00    -0.572 N  
HETATM   11  C   UNL     1     -12.505   8.603  71.585  1.00  0.00    -0.335 C  
HETATM   12  H   UNL     1     -13.691   7.529  70.261  1.00  0.00     0.000 HD 
HETATM   13  O   UNL     1     -11.473   8.689  72.240  1.00  0.00    -0.365 OA 
BRANCH  11  14
HETATM   14  C   UNL     1     -13.573   9.669  71.631  1.00  0.00    -0.402 C  
BRANCH  14  15
HETATM   15  C   UNL     1     -13.010  11.003  71.145  1.00  0.00    -0.421 C  
BRANCH  15  16
HETATM   16  C   UNL     1     -12.430  10.924  69.732  1.00  0.00    -0.250 C  
BRANCH  16  17
HETATM   17  C   UNL     1     -10.914  10.743  69.738  1.00  0.00    -0.314 C  
BRANCH  17  18
HETATM   18  C   UNL     1     -10.431   9.915  68.551  1.00  0.00    -0.232 C  
BRANCH  18  19
HETATM   19  C   UNL     1     -11.267  10.237  67.314  1.00  0.00    -0.090 C  
BRANCH  19  20
HETATM   20  C   UNL     1     -10.424  10.910  66.234  1.00  0.00    -0.304 C  
BRANCH  20  21
HETATM   21  C   UNL     1      -9.564   9.883  65.496  1.00  0.00    -0.341 C  
BRANCH  21  22
HETATM   22  C   UNL     1      -8.140   9.942  65.962  1.00  0.00    -0.120 C  
HETATM   23  C   UNL     1      -7.651  10.909  66.748  1.00  0.00    -0.134 C  
ENDBRANCH  21  22
ENDBRANCH  20  21
ENDBRANCH  19  20
ENDBRANCH  18  19
ENDBRANCH  17  18
ENDBRANCH  16  17
ENDBRANCH  15  16
ENDBRANCH  14  15
ENDBRANCH  11  14
ENDBRANCH   5  10
ENDBRANCH   3   5
ENDBRANCH   2   3
TORSDOF 13
ENDMDL
MODEL      311
REMARK 921   NORMALIZED FREE ENERGY PREDICTED BY IDOCK:   -2.40 KCAL/MOL
REMARK 922        TOTAL FREE ENERGY PREDICTED BY IDOCK:   -6.34 KCAL/MOL
REMARK 923 INTER-LIGAND FREE ENERGY PREDICTED BY IDOCK:   -4.44 KCAL/MOL
REMARK 924 INTRA-LIGAND FREE ENERGY PREDICTED BY IDOCK:   -1.90 KCAL/MOL
REMARK 927      BINDING AFFINITY PREDICTED BY RF-SCORE:    0.00 PKD
ROOT
HETATM    1  C   UNL     1     -12.377  10.402  71.005  1.00  0.00    -0.387 C  
HETATM    2  O   UNL     1     -11.736   9.468  71.872  1.00  0.00    -0.374 OA 
ENDROOT
BRANCH   2   3
HETATM    3  C   UNL     1     -10.551   8.968  71.420  1.00  0.00    -0.323 C  
HETATM    4  O   UNL     1      -9.461   9.129  71.954  1.00  0.00    -0.332 OA 
BRANCH   3   5
HETATM    5  C   UNL     1     -10.787   8.145  70.149  1.00  0.00    -0.241 C  
BRANCH   5   6
HETATM    6  C   UNL     1     -10.831   6.639  70.443  1.00  0.00    -0.316 C  
HETATM    7  C   UNL     1      -8.297   6.327  70.505  1.00  0.00    -0.129 C  
HETATM    8  C   UNL     1      -9.808   4.349  70.267  1.00  0.00    -0.284 C  
HETATM    9  C   UNL     1      -9.623   5.832  69.929  1.00  0.00    -0.201 C  
ENDBRANCH   5   6
BRANCH   5  10
HETATM   10  N   UNL     1      -9.718   8.432  69.192  1.00  0.00    -0.168 N  
HETATM   11  C   UNL     1      -9.942   9.241  68.104  1.00  0.00    -0.177 C  
HETATM   12  H   UNL     1      -8.793   8.027  69.335  1.00  0.00     0.000 HD 
HETATM   13  O   UNL     1     -11.019   9.775  67.862  1.00  0.00    -0.262 OA 
BRANCH  11  14
HETATM   14  C   UNL     1      -8.751   9.390  67.189  1.00  0.00    -0.134 C  
BRANCH  14  15
HETATM   15  C   UNL     1      -8.951   8.561  65.922  1.00  0.00    -0.235 C  
BRANCH  15  16
HETATM   16  C   UNL     1      -7.842   7.529  65.705  1.00  0.00    -0.107 C  
BRANCH  16  17
HETATM   17  C   UNL     1      -8.397   6.138  65.408  1.00  0.00    -0.150 C  
BRANCH  17  18
HETATM   18  C   UNL     1      -9.538   5.763  66.347  1.00  0.00    -0.175 C  
BRANCH  18  19
HETATM   19  C   UNL     1      -9.576   4.249  66.546  1.00  0.00    -0.214 C  
BRANCH  19  20
HETATM   20  C   UNL     1      -8.188   3.634  66.391  1.00  0.00    -0.100 C  
BRANCH  20  21
HETATM   21  C   UNL     1      -7.707   3.036  67.714  1.00  0.00    -0.064 C  
BRANCH  21  22
HETATM   22  C   UNL     1      -6.567   3.831  68.278  1.00  0.00    -0.045 C  
HETATM   23  C   UNL     1      -5.881   4.749  67.586  1.00  0.00    -0.022 C  
ENDBRANCH  21  22
ENDBRANCH  20  21
ENDBRANCH  19  20
ENDBRANCH  18  19
ENDBRANCH  17  18
ENDBRANCH  16  17
ENDBRANCH  15  16
ENDBRANCH  14  15
ENDBRANCH  11  14
ENDBRANCH   5  10
ENDBRANCH   3   5
ENDBRANCH   2   3
TORSDOF 13
ENDMDL
MODEL      312
REMARK 921   NORMALIZED FREE ENERGY PREDICTED BY IDOCK:   -2.39 KCAL/MOL
REMARK 922        TOTAL FREE ENERGY PREDICTED BY IDOCK:   -6.31 KCAL/MOL
REMARK 923 INTER-LIGAND FREE ENERGY PREDICTED BY IDOCK:   -5.56 KCAL/MOL
REMARK 924 INTRA-LIGAND FREE ENERGY PREDICTED BY IDOCK:   -0.75 KCAL/MOL
REMARK 927      BINDING AFFINITY PREDICTED BY RF-SCORE:    0.00 PKD
ROOT
HETATM    1  C   UNL     1     -12.750  13.793  65.252  1.00  0.00    -0.439 C  
HETATM    2  O   UNL     1     -11.627  13.626  66.115  1.00  0.00    -0.324 OA 
ENDROOT
BRANCH   2   3
HETATM    3  C   UNL     1     -11.246  14.741  66.801  1.00  0.00    -0.344 C  
HETATM    4  O   UNL     1     -11.156  15.869  66.332  1.00  0.00    -0.182 OA 
BRANCH   3   5
HETATM    5  C   UNL     1     -10.968  14.380  68.264  1.00  0.00    -0.247 C  
BRANCH   5   6
HETATM    6  C   UNL     1      -9.562  14.810  68.702  1.00  0.00    -0.218 C  
HETATM    7  C   UNL     1      -8.320  13.178  67.178  1.00  0.00    -0.146 C  
HETATM    8  C   UNL     1      -7.136  14.274  69.088  1.00  0.00    -0.117 C  
HETATM    9  C   UNL     1      -8.478  13.720  68.600  1.00  0.00    -0.056 C  
ENDBRANCH   5   6
BRANCH   5  10
HETATM   10  N   UNL     1     -11.120  12.934  68.433  1.00  0.00    -0.247 N  
HETATM   11  C   UNL     1     -11.824  12.416  69.494  1.00  0.00    -0.303 C  
HETATM   12  H   UNL     1     -10.698  12.302  67.753  1.00  0.00     0.000 HD 
HETATM   13  O   UNL     1     -12.369  13.104  70.351  1.00  0.00    -0.328 OA 
BRANCH  11  14
HETATM   14  C   UNL     1     -11.837  10.908  69.550  1.00  0.00    -0.404 C  
BRANCH  14  15
HETATM   15  C   UNL     1     -11.677  10.431  70.992  1.00  0.00    -0.430 C  
BRANCH  15  16
HETATM   16  C   UNL     1     -10.772   9.204  71.115  1.00  0.00    -0.380 C  
BRANCH  16  17
HETATM   17  C   UNL     1      -9.402   9.430  70.481  1.00  0.00    -0.319 C  
BRANCH  17  18
HETATM   18  C   UNL     1      -8.468   8.243  70.694  1.00  0.00    -0.131 C  
BRANCH  18  19
HETATM   19  C   UNL     1      -7.560   8.501  71.895  1.00  0.00    -0.139 C  
BRANCH  19  20
HETATM   20  C   UNL     1      -8.077   7.792  73.144  1.00  0.00    -0.183 C  
BRANCH  20  21
HETATM   21  C   UNL     1      -8.594   6.394  72.802  1.00  0.00    -0.125 C  
BRANCH  21  22
HETATM   22  C   UNL     1     -10.072   6.298  73.032  1.00  0.00    -0.197 C  
HETATM   23  C   UNL     1     -10.861   5.382  72.457  1.00  0.00    -0.304 C  
ENDBRANCH  21  22
ENDBRANCH  20  21
ENDBRANCH  19  20
ENDBRANCH  18  19
ENDBRANCH  17  18
ENDBRANCH  16  17
ENDBRANCH  15  16
ENDBRANCH  14  15
ENDBRANCH  11  14
ENDBRANCH   5  10
ENDBRANCH   3   5
ENDBRANCH   2   3
TORSDOF 13
ENDMDL
MODEL      313
REMARK 921   NORMALIZED FREE ENERGY PREDICTED BY IDOCK:   -2.39 KCAL/MOL
REMARK 922        TOTAL FREE ENERGY PREDICTED BY IDOCK:   -6.31 KCAL/MOL
REMARK 923 INTER-LIGAND FREE ENERGY PREDICTED BY IDOCK:   -5.55 KCAL/MOL
REMARK 924 INTRA-LIGAND FREE ENERGY PREDICTED BY IDOCK:   -0.75 KCAL/MOL
REMARK 927      BINDING AFFINITY PREDICTED BY RF-SCORE:    0.00 PKD
ROOT
HETATM    1  C   UNL     1      -7.358  14.116  67.864  1.00  0.00    -0.157 C  
HETATM    2  O   UNL     1      -8.541  13.330  68.001  1.00  0.00    -0.160 OA 
ENDROOT
BRANCH   2   3
HETATM    3  C   UNL     1      -8.459  12.059  67.515  1.00  0.00    -0.165 C  
HETATM    4  O   UNL     1      -7.424  11.482  67.205  1.00  0.00    -0.126 OA 
BRANCH   3   5
HETATM    5  C   UNL     1      -9.859  11.443  67.436  1.00  0.00    -0.182 C  
BRANCH   5   6
HETATM    6  C   UNL     1     -10.765  11.936  68.572  1.00  0.00    -0.254 C  
HETATM    7  C   UNL     1     -10.211  10.026  70.175  1.00  0.00    -0.297 C  
HETATM    8  C   UNL     1     -12.220  11.462  70.567  1.00  0.00    -0.478 C  
HETATM    9  C   UNL     1     -11.318  10.836  69.499  1.00  0.00    -0.355 C  
ENDBRANCH   5   6
BRANCH   5  10
HETATM   10  N   UNL     1      -9.741   9.986  67.493  1.00  0.00    -0.156 N  
HETATM   11  C   UNL     1      -9.725   9.232  66.344  1.00  0.00    -0.258 C  
HETATM   12  H   UNL     1      -9.668   9.523  68.399  1.00  0.00     0.000 HD 
HETATM   13  O   UNL     1      -9.798   9.707  65.217  1.00  0.00    -0.310 OA 
BRANCH  11  14
HETATM   14  C   UNL     1      -9.652   7.743  66.582  1.00  0.00    -0.286 C  
BRANCH  14  15
HETATM   15  C   UNL     1     -10.907   7.263  67.309  1.00  0.00    -0.354 C  
BRANCH  15  16
HETATM   16  C   UNL     1     -10.731   5.886  67.953  1.00  0.00    -0.336 C  
BRANCH  16  17
HETATM   17  C   UNL     1     -10.954   5.921  69.463  1.00  0.00    -0.438 C  
BRANCH  17  18
HETATM   18  C   UNL     1     -10.255   4.766  70.172  1.00  0.00    -0.259 C  
BRANCH  18  19
HETATM   19  C   UNL     1      -9.984   5.134  71.630  1.00  0.00    -0.243 C  
BRANCH  19  20
HETATM   20  C   UNL     1      -9.866   6.646  71.808  1.00  0.00    -0.171 C  
BRANCH  20  21
HETATM   21  C   UNL     1      -8.421   7.106  71.617  1.00  0.00    -0.114 C  
BRANCH  21  22
HETATM   22  C   UNL     1      -7.862   7.657  72.895  1.00  0.00    -0.135 C  
HETATM   23  C   UNL     1      -8.577   7.821  74.015  1.00  0.00    -0.319 C  
ENDBRANCH  21  22
ENDBRANCH  20  21
ENDBRANCH  19  20
ENDBRANCH  18  19
ENDBRANCH  17  18
ENDBRANCH  16  17
ENDBRANCH  15  16
ENDBRANCH  14  15
ENDBRANCH  11  14
ENDBRANCH   5  10
ENDBRANCH   3   5
ENDBRANCH   2   3
TORSDOF 13
ENDMDL
MODEL      314
REMARK 921   NORMALIZED FREE ENERGY PREDICTED BY IDOCK:   -2.39 KCAL/MOL
REMARK 922        TOTAL FREE ENERGY PREDICTED BY IDOCK:   -6.31 KCAL/MOL
REMARK 923 INTER-LIGAND FREE ENERGY PREDICTED BY IDOCK:   -4.58 KCAL/MOL
REMARK 924 INTRA-LIGAND FREE ENERGY PREDICTED BY IDOCK:   -1.72 KCAL/MOL
REMARK 927      BINDING AFFINITY PREDICTED BY RF-SCORE:    0.00 PKD
ROOT
HETATM    1  C   UNL     1      -5.766   6.569  72.523  1.00  0.00    -0.038 C  
HETATM    2  O   UNL     1      -7.005   7.275  72.551  1.00  0.00    -0.066 OA 
ENDROOT
BRANCH   2   3
HETATM    3  C   UNL     1      -8.082   6.587  72.076  1.00  0.00    -0.107 C  
HETATM    4  O   UNL     1      -8.346   5.417  72.329  1.00  0.00    -0.120 OA 
BRANCH   3   5
HETATM    5  C   UNL     1      -8.936   7.503  71.194  1.00  0.00    -0.142 C  
BRANCH   5   6
HETATM    6  C   UNL     1     -10.355   6.951  71.001  1.00  0.00    -0.224 C  
HETATM    7  C   UNL     1     -11.551   9.059  71.806  1.00  0.00    -0.444 C  
HETATM    8  C   UNL     1     -12.781   6.888  71.656  1.00  0.00    -0.396 C  
HETATM    9  C   UNL     1     -11.425   7.541  71.939  1.00  0.00    -0.307 C  
ENDBRANCH   5   6
BRANCH   5  10
HETATM   10  N   UNL     1      -8.282   7.654  69.894  1.00  0.00    -0.128 N  
HETATM   11  C   UNL     1      -7.798   8.873  69.483  1.00  0.00    -0.094 C  
HETATM   12  H   UNL     1      -8.183   6.842  69.283  1.00  0.00     0.000 HD 
HETATM   13  O   UNL     1      -7.868   9.895  70.156  1.00  0.00    -0.170 OA 
BRANCH  11  14
HETATM   14  C   UNL     1      -7.204   8.866  68.096  1.00  0.00    -0.079 C  
BRANCH  14  15
HETATM   15  C   UNL     1      -6.762  10.275  67.704  1.00  0.00    -0.074 C  
BRANCH  15  16
HETATM   16  C   UNL     1      -7.572  10.849  66.540  1.00  0.00    -0.142 C  
BRANCH  16  17
HETATM   17  C   UNL     1      -8.941  11.358  66.984  1.00  0.00    -0.166 C  
BRANCH  17  18
HETATM   18  C   UNL     1     -10.074  10.474  66.474  1.00  0.00    -0.280 C  
BRANCH  18  19
HETATM   19  C   UNL     1     -10.742   9.753  67.644  1.00  0.00    -0.334 C  
BRANCH  19  20
HETATM   20  C   UNL     1     -10.803  10.643  68.882  1.00  0.00    -0.272 C  
BRANCH  20  21
HETATM   21  C   UNL     1     -12.059  11.515  68.864  1.00  0.00    -0.270 C  
BRANCH  21  22
HETATM   22  C   UNL     1     -11.872  12.741  69.708  1.00  0.00    -0.380 C  
HETATM   23  C   UNL     1     -11.441  13.916  69.233  1.00  0.00    -0.348 C  
ENDBRANCH  21  22
ENDBRANCH  20  21
ENDBRANCH  19  20
ENDBRANCH  18  19
ENDBRANCH  17  18
ENDBRANCH  16  17
ENDBRANCH  15  16
ENDBRANCH  14  15
ENDBRANCH  11  14
ENDBRANCH   5  10
ENDBRANCH   3   5
ENDBRANCH   2   3
TORSDOF 13
ENDMDL
MODEL      315
REMARK 921   NORMALIZED FREE ENERGY PREDICTED BY IDOCK:   -2.38 KCAL/MOL
REMARK 922        TOTAL FREE ENERGY PREDICTED BY IDOCK:   -6.30 KCAL/MOL
REMARK 923 INTER-LIGAND FREE ENERGY PREDICTED BY IDOCK:   -5.32 KCAL/MOL
REMARK 924 INTRA-LIGAND FREE ENERGY PREDICTED BY IDOCK:   -0.98 KCAL/MOL
REMARK 927      BINDING AFFINITY PREDICTED BY RF-SCORE:    0.00 PKD
ROOT
HETATM    1  C   UNL     1     -12.599  13.692  65.643  1.00  0.00    -0.484 C  
HETATM    2  O   UNL     1     -11.382  13.162  66.165  1.00  0.00    -0.297 OA 
ENDROOT
BRANCH   2   3
HETATM    3  C   UNL     1     -10.482  14.086  66.605  1.00  0.00    -0.272 C  
HETATM    4  O   UNL     1      -9.822  14.831  65.892  1.00  0.00    -0.302 OA 
BRANCH   3   5
HETATM    5  C   UNL     1     -10.436  14.076  68.137  1.00  0.00    -0.243 C  
BRANCH   5   6
HETATM    6  C   UNL     1      -9.330  14.991  68.681  1.00  0.00    -0.202 C  
HETATM    7  C   UNL     1      -7.390  13.588  67.792  1.00  0.00    -0.166 C  
HETATM    8  C   UNL     1      -6.997  15.312  69.560  1.00  0.00    -0.191 C  
HETATM    9  C   UNL     1      -7.997  14.292  69.007  1.00  0.00    -0.027 C  
ENDBRANCH   5   6
BRANCH   5  10
HETATM   10  N   UNL     1     -10.215  12.705  68.596  1.00  0.00    -0.366 N  
HETATM   11  C   UNL     1     -11.205  12.009  69.247  1.00  0.00    -0.229 C  
HETATM   12  H   UNL     1      -9.312  12.258  68.430  1.00  0.00     0.000 HD 
HETATM   13  O   UNL     1     -12.318  12.466  69.480  1.00  0.00    -0.120 OA 
BRANCH  11  14
HETATM   14  C   UNL     1     -10.795  10.629  69.702  1.00  0.00    -0.318 C  
BRANCH  14  15
HETATM   15  C   UNL     1      -9.510  10.201  68.996  1.00  0.00    -0.195 C  
BRANCH  15  16
HETATM   16  C   UNL     1      -9.137   8.744  69.273  1.00  0.00    -0.145 C  
BRANCH  16  17
HETATM   17  C   UNL     1     -10.040   7.764  68.528  1.00  0.00    -0.216 C  
BRANCH  17  18
HETATM   18  C   UNL     1     -10.889   6.928  69.482  1.00  0.00    -0.287 C  
BRANCH  18  19
HETATM   19  C   UNL     1     -10.356   5.498  69.539  1.00  0.00    -0.357 C  
BRANCH  19  20
HETATM   20  C   UNL     1      -9.530   5.263  70.801  1.00  0.00    -0.221 C  
BRANCH  20  21
HETATM   21  C   UNL     1     -10.056   6.108  71.961  1.00  0.00    -0.206 C  
BRANCH  21  22
HETATM   22  C   UNL     1      -8.952   6.909  72.584  1.00  0.00    -0.142 C  
HETATM   23  C   UNL     1      -9.113   8.140  73.086  1.00  0.00    -0.335 C  
ENDBRANCH  21  22
ENDBRANCH  20  21
ENDBRANCH  19  20
ENDBRANCH  18  19
ENDBRANCH  17  18
ENDBRANCH  16  17
ENDBRANCH  15  16
ENDBRANCH  14  15
ENDBRANCH  11  14
ENDBRANCH   5  10
ENDBRANCH   3   5
ENDBRANCH   2   3
TORSDOF 13
ENDMDL
MODEL      316
REMARK 921   NORMALIZED FREE ENERGY PREDICTED BY IDOCK:   -2.37 KCAL/MOL
REMARK 922        TOTAL FREE ENERGY PREDICTED BY IDOCK:   -6.29 KCAL/MOL
REMARK 923 INTER-LIGAND FREE ENERGY PREDICTED BY IDOCK:   -4.86 KCAL/MOL
REMARK 924 INTRA-LIGAND FREE ENERGY PREDICTED BY IDOCK:   -1.42 KCAL/MOL
REMARK 927      BINDING AFFINITY PREDICTED BY RF-SCORE:    0.00 PKD
ROOT
HETATM    1  C   UNL     1      -7.904   9.496  63.448  1.00  0.00    -0.132 C  
HETATM    2  O   UNL     1      -7.533  10.687  64.139  1.00  0.00     0.035 OA 
ENDROOT
BRANCH   2   3
HETATM    3  C   UNL     1      -7.419  10.567  65.492  1.00  0.00    -0.111 C  
HETATM    4  O   UNL     1      -6.394  10.276  66.097  1.00  0.00    -0.079 OA 
BRANCH   3   5
HETATM    5  C   UNL     1      -8.765  10.879  66.155  1.00  0.00    -0.184 C  
BRANCH   5   6
HETATM    6  C   UNL     1      -8.830  12.325  66.664  1.00  0.00    -0.167 C  
HETATM    7  C   UNL     1     -11.378  12.490  66.612  1.00  0.00    -0.389 C  
HETATM    8  C   UNL     1      -9.981  14.558  66.757  1.00  0.00    -0.267 C  
HETATM    9  C   UNL     1     -10.055  13.134  66.197  1.00  0.00    -0.291 C  
ENDBRANCH   5   6
BRANCH   5  10
HETATM   10  N   UNL     1      -8.972   9.951  67.267  1.00  0.00    -0.135 N  
HETATM   11  C   UNL     1      -9.784   8.851  67.129  1.00  0.00    -0.184 C  
HETATM   12  H   UNL     1      -8.507  10.124  68.159  1.00  0.00     0.000 HD 
HETATM   13  O   UNL     1     -10.373   8.565  66.092  1.00  0.00    -0.078 OA 
BRANCH  11  14
HETATM   14  C   UNL     1      -9.932   8.030  68.386  1.00  0.00    -0.204 C  
BRANCH  14  15
HETATM   15  C   UNL     1      -8.843   8.400  69.391  1.00  0.00    -0.142 C  
BRANCH  15  16
HETATM   16  C   UNL     1      -8.198   7.177  70.046  1.00  0.00    -0.136 C  
BRANCH  16  17
HETATM   17  C   UNL     1      -8.770   6.897  71.434  1.00  0.00    -0.126 C  
BRANCH  17  18
HETATM   18  C   UNL     1      -9.929   5.906  71.387  1.00  0.00    -0.228 C  
BRANCH  18  19
HETATM   19  C   UNL     1     -11.130   6.469  72.146  1.00  0.00    -0.296 C  
BRANCH  19  20
HETATM   20  C   UNL     1     -11.064   7.991  72.237  1.00  0.00    -0.393 C  
BRANCH  20  21
HETATM   21  C   UNL     1     -12.207   8.633  71.449  1.00  0.00    -0.348 C  
BRANCH  21  22
HETATM   22  C   UNL     1     -12.796   9.787  72.203  1.00  0.00    -0.448 C  
HETATM   23  C   UNL     1     -12.945  11.016  71.692  1.00  0.00    -0.561 C  
ENDBRANCH  21  22
ENDBRANCH  20  21
ENDBRANCH  19  20
ENDBRANCH  18  19
ENDBRANCH  17  18
ENDBRANCH  16  17
ENDBRANCH  15  16
ENDBRANCH  14  15
ENDBRANCH  11  14
ENDBRANCH   5  10
ENDBRANCH   3   5
ENDBRANCH   2   3
TORSDOF 13
ENDMDL
MODEL      317
REMARK 921   NORMALIZED FREE ENERGY PREDICTED BY IDOCK:   -2.37 KCAL/MOL
REMARK 922        TOTAL FREE ENERGY PREDICTED BY IDOCK:   -6.28 KCAL/MOL
REMARK 923 INTER-LIGAND FREE ENERGY PREDICTED BY IDOCK:   -4.08 KCAL/MOL
REMARK 924 INTRA-LIGAND FREE ENERGY PREDICTED BY IDOCK:   -2.21 KCAL/MOL
REMARK 927      BINDING AFFINITY PREDICTED BY RF-SCORE:    0.00 PKD
ROOT
HETATM    1  C   UNL     1      -5.185   6.596  72.564  1.00  0.00    -0.036 C  
HETATM    2  O   UNL     1      -6.307   7.470  72.682  1.00  0.00    -0.056 OA 
ENDROOT
BRANCH   2   3
HETATM    3  C   UNL     1      -7.528   6.871  72.589  1.00  0.00    -0.089 C  
HETATM    4  O   UNL     1      -7.932   5.966  73.309  1.00  0.00    -0.108 OA 
BRANCH   3   5
HETATM    5  C   UNL     1      -8.338   7.517  71.461  1.00  0.00    -0.107 C  
BRANCH   5   6
HETATM    6  C   UNL     1      -9.849   7.400  71.703  1.00  0.00    -0.181 C  
HETATM    7  C   UNL     1     -10.431   9.690  70.732  1.00  0.00    -0.375 C  
HETATM    8  C   UNL     1     -12.075   8.472  72.169  1.00  0.00    -0.449 C  
HETATM    9  C   UNL     1     -10.587   8.735  71.916  1.00  0.00    -0.425 C  
ENDBRANCH   5   6
BRANCH   5  10
HETATM   10  N   UNL     1      -7.987   6.871  70.195  1.00  0.00    -0.113 N  
HETATM   11  C   UNL     1      -7.408   7.585  69.174  1.00  0.00    -0.086 C  
HETATM   12  H   UNL     1      -8.176   5.876  70.069  1.00  0.00     0.000 HD 
HETATM   13  O   UNL     1      -7.140   8.780  69.244  1.00  0.00    -0.060 OA 
BRANCH  11  14
HETATM   14  C   UNL     1      -7.161   6.782  67.920  1.00  0.00    -0.091 C  
BRANCH  14  15
HETATM   15  C   UNL     1      -6.218   7.537  66.986  1.00  0.00    -0.052 C  
BRANCH  15  16
HETATM   16  C   UNL     1      -6.866   7.890  65.645  1.00  0.00    -0.052 C  
BRANCH  16  17
HETATM   17  C   UNL     1      -7.349   9.338  65.599  1.00  0.00    -0.093 C  
BRANCH  17  18
HETATM   18  C   UNL     1      -8.865   9.432  65.464  1.00  0.00    -0.220 C  
BRANCH  18  19
HETATM   19  C   UNL     1      -9.477   9.922  66.776  1.00  0.00    -0.212 C  
BRANCH  19  20
HETATM   20  C   UNL     1     -10.624   9.020  67.223  1.00  0.00    -0.301 C  
BRANCH  20  21
HETATM   21  C   UNL     1     -10.377   7.572  66.798  1.00  0.00    -0.332 C  
BRANCH  21  22
HETATM   22  C   UNL     1     -11.285   6.635  67.536  1.00  0.00    -0.276 C  
HETATM   23  C   UNL     1     -10.958   6.025  68.683  1.00  0.00    -0.361 C  
ENDBRANCH  21  22
ENDBRANCH  20  21
ENDBRANCH  19  20
ENDBRANCH  18  19
ENDBRANCH  17  18
ENDBRANCH  16  17
ENDBRANCH  15  16
ENDBRANCH  14  15
ENDBRANCH  11  14
ENDBRANCH   5  10
ENDBRANCH   3   5
ENDBRANCH   2   3
TORSDOF 13
ENDMDL
MODEL      318
REMARK 921   NORMALIZED FREE ENERGY PREDICTED BY IDOCK:   -2.37 KCAL/MOL
REMARK 922        TOTAL FREE ENERGY PREDICTED BY IDOCK:   -6.28 KCAL/MOL
REMARK 923 INTER-LIGAND FREE ENERGY PREDICTED BY IDOCK:   -5.41 KCAL/MOL
REMARK 924 INTRA-LIGAND FREE ENERGY PREDICTED BY IDOCK:   -0.87 KCAL/MOL
REMARK 927      BINDING AFFINITY PREDICTED BY RF-SCORE:    0.00 PKD
ROOT
HETATM    1  C   UNL     1     -10.653  18.218  67.494  1.00  0.00    -0.409 C  
HETATM    2  O   UNL     1     -10.977  16.871  67.832  1.00  0.00    -0.342 OA 
ENDROOT
BRANCH   2   3
HETATM    3  C   UNL     1     -10.477  16.429  69.021  1.00  0.00    -0.288 C  
HETATM    4  O   UNL     1     -10.963  16.650  70.123  1.00  0.00    -0.321 OA 
BRANCH   3   5
HETATM    5  C   UNL     1      -9.221  15.587  68.773  1.00  0.00    -0.210 C  
BRANCH   5   6
HETATM    6  C   UNL     1      -7.946  16.440  68.796  1.00  0.00    -0.233 C  
HETATM    7  C   UNL     1      -6.347  14.484  69.171  1.00  0.00    -0.100 C  
HETATM    8  C   UNL     1      -5.594  16.831  69.592  1.00  0.00    -0.184 C  
HETATM    9  C   UNL     1      -6.788  15.872  69.638  1.00  0.00    -0.160 C  
ENDBRANCH   5   6
BRANCH   5  10
HETATM   10  N   UNL     1      -9.346  14.917  67.478  1.00  0.00    -0.190 N  
HETATM   11  C   UNL     1      -9.933  13.678  67.376  1.00  0.00    -0.234 C  
HETATM   12  H   UNL     1      -8.993  15.377  66.638  1.00  0.00     0.000 HD 
HETATM   13  O   UNL     1     -10.389  13.060  68.331  1.00  0.00    -0.244 OA 
BRANCH  11  14
HETATM   14  C   UNL     1      -9.932  13.107  65.979  1.00  0.00    -0.283 C  
BRANCH  14  15
HETATM   15  C   UNL     1     -11.331  12.624  65.605  1.00  0.00    -0.357 C  
BRANCH  15  16
HETATM   16  C   UNL     1     -11.373  11.134  65.258  1.00  0.00     0.118 C  
BRANCH  16  17
HETATM   17  C   UNL     1     -10.046  10.636  64.690  1.00  0.00    -0.417 C  
BRANCH  17  18
HETATM   18  C   UNL     1      -9.165  10.003  65.763  1.00  0.00    -0.222 C  
BRANCH  18  19
HETATM   19  C   UNL     1      -9.661   8.593  66.081  1.00  0.00    -0.292 C  
BRANCH  19  20
HETATM   20  C   UNL     1      -9.832   8.392  67.585  1.00  0.00    -0.222 C  
BRANCH  20  21
HETATM   21  C   UNL     1     -10.194   9.708  68.273  1.00  0.00    -0.216 C  
BRANCH  21  22
HETATM   22  C   UNL     1     -10.951   9.459  69.543  1.00  0.00    -0.193 C  
HETATM   23  C   UNL     1     -11.604  10.409  70.223  1.00  0.00    -0.410 C  
ENDBRANCH  21  22
ENDBRANCH  20  21
ENDBRANCH  19  20
ENDBRANCH  18  19
ENDBRANCH  17  18
ENDBRANCH  16  17
ENDBRANCH  15  16
ENDBRANCH  14  15
ENDBRANCH  11  14
ENDBRANCH   5  10
ENDBRANCH   3   5
ENDBRANCH   2   3
TORSDOF 13
ENDMDL
MODEL      319
REMARK 921   NORMALIZED FREE ENERGY PREDICTED BY IDOCK:   -2.37 KCAL/MOL
REMARK 922        TOTAL FREE ENERGY PREDICTED BY IDOCK:   -6.27 KCAL/MOL
REMARK 923 INTER-LIGAND FREE ENERGY PREDICTED BY IDOCK:   -5.58 KCAL/MOL
REMARK 924 INTRA-LIGAND FREE ENERGY PREDICTED BY IDOCK:   -0.70 KCAL/MOL
REMARK 927      BINDING AFFINITY PREDICTED BY RF-SCORE:    0.00 PKD
ROOT
HETATM    1  C   UNL     1     -11.087   6.165  72.886  1.00  0.00    -0.247 C  
HETATM    2  O   UNL     1     -11.367   6.102  71.489  1.00  0.00    -0.284 OA 
ENDROOT
BRANCH   2   3
HETATM    3  C   UNL     1     -11.322   7.294  70.829  1.00  0.00    -0.285 C  
HETATM    4  O   UNL     1     -11.779   8.353  71.242  1.00  0.00    -0.274 OA 
BRANCH   3   5
HETATM    5  C   UNL     1     -10.589   7.121  69.495  1.00  0.00    -0.234 C  
BRANCH   5   6
HETATM    6  C   UNL     1      -9.259   6.376  69.667  1.00  0.00    -0.143 C  
HETATM    7  C   UNL     1      -8.240   8.060  71.294  1.00  0.00    -0.119 C  
HETATM    8  C   UNL     1      -6.786   6.396  70.124  1.00  0.00    -0.057 C  
HETATM    9  C   UNL     1      -8.045   7.262  70.005  1.00  0.00    -0.130 C  
ENDBRANCH   5   6
BRANCH   5  10
HETATM   10  N   UNL     1     -10.345   8.441  68.913  1.00  0.00    -0.218 N  
HETATM   11  C   UNL     1     -10.430   8.642  67.556  1.00  0.00    -0.266 C  
HETATM   12  H   UNL     1     -10.110   9.224  69.523  1.00  0.00     0.000 HD 
HETATM   13  O   UNL     1     -10.715   7.760  66.753  1.00  0.00    -0.311 OA 
BRANCH  11  14
HETATM   14  C   UNL     1     -10.096  10.047  67.117  1.00  0.00    -0.265 C  
BRANCH  14  15
HETATM   15  C   UNL     1     -11.137  11.029  67.651  1.00  0.00    -0.363 C  
BRANCH  15  16
HETATM   16  C   UNL     1     -10.525  12.131  68.517  1.00  0.00    -0.248 C  
BRANCH  16  17
HETATM   17  C   UNL     1     -11.559  13.168  68.950  1.00  0.00    -0.354 C  
BRANCH  17  18
HETATM   18  C   UNL     1     -12.009  14.047  67.788  1.00  0.00    -0.392 C  
BRANCH  18  19
HETATM   19  C   UNL     1     -11.189  15.337  67.760  1.00  0.00    -0.327 C  
BRANCH  19  20
HETATM   20  C   UNL     1     -10.378  15.451  66.472  1.00  0.00    -0.293 C  
BRANCH  20  21
HETATM   21  C   UNL     1      -8.932  15.844  66.772  1.00  0.00    -0.280 C  
BRANCH  21  22
HETATM   22  C   UNL     1      -8.834  16.566  68.082  1.00  0.00    -0.203 C  
HETATM   23  C   UNL     1      -8.228  17.749  68.241  1.00  0.00    -0.285 C  
ENDBRANCH  21  22
ENDBRANCH  20  21
ENDBRANCH  19  20
ENDBRANCH  18  19
ENDBRANCH  17  18
ENDBRANCH  16  17
ENDBRANCH  15  16
ENDBRANCH  14  15
ENDBRANCH  11  14
ENDBRANCH   5  10
ENDBRANCH   3   5
ENDBRANCH   2   3
TORSDOF 13
ENDMDL
MODEL      320
REMARK 921   NORMALIZED FREE ENERGY PREDICTED BY IDOCK:   -2.36 KCAL/MOL
REMARK 922        TOTAL FREE ENERGY PREDICTED BY IDOCK:   -6.26 KCAL/MOL
REMARK 923 INTER-LIGAND FREE ENERGY PREDICTED BY IDOCK:   -5.93 KCAL/MOL
REMARK 924 INTRA-LIGAND FREE ENERGY PREDICTED BY IDOCK:   -0.32 KCAL/MOL
REMARK 927      BINDING AFFINITY PREDICTED BY RF-SCORE:    0.00 PKD
ROOT
HETATM    1  C   UNL     1      -6.929  13.139  67.391  1.00  0.00    -0.107 C  
HETATM    2  O   UNL     1      -7.094  14.531  67.127  1.00  0.00    -0.164 OA 
ENDROOT
BRANCH   2   3
HETATM    3  C   UNL     1      -6.867  15.359  68.186  1.00  0.00    -0.127 C  
HETATM    4  O   UNL     1      -6.294  15.046  69.223  1.00  0.00    -0.104 OA 
BRANCH   3   5
HETATM    5  C   UNL     1      -7.413  16.756  67.877  1.00  0.00    -0.160 C  
BRANCH   5   6
HETATM    6  C   UNL     1      -7.205  17.723  69.051  1.00  0.00    -0.207 C  
HETATM    7  C   UNL     1      -7.396  19.852  67.652  1.00  0.00    -0.316 C  
HETATM    8  C   UNL     1      -6.401  19.931  69.944  1.00  0.00    -0.395 C  
HETATM    9  C   UNL     1      -6.573  19.079  68.683  1.00  0.00    -0.291 C  
ENDBRANCH   5   6
BRANCH   5  10
HETATM   10  N   UNL     1      -8.840  16.651  67.570  1.00  0.00    -0.195 N  
HETATM   11  C   UNL     1      -9.729  16.158  68.495  1.00  0.00    -0.217 C  
HETATM   12  H   UNL     1      -9.180  16.948  66.655  1.00  0.00     0.000 HD 
HETATM   13  O   UNL     1      -9.407  15.787  69.618  1.00  0.00    -0.274 OA 
BRANCH  11  14
HETATM   14  C   UNL     1     -11.151  16.065  67.998  1.00  0.00    -0.334 C  
BRANCH  14  15
HETATM   15  C   UNL     1     -11.590  14.604  67.921  1.00  0.00    -0.373 C  
BRANCH  15  16
HETATM   16  C   UNL     1     -10.794  13.798  66.893  1.00  0.00    -0.286 C  
BRANCH  16  17
HETATM   17  C   UNL     1     -10.488  12.383  67.379  1.00  0.00    -0.229 C  
BRANCH  17  18
HETATM   18  C   UNL     1     -11.072  12.113  68.761  1.00  0.00    -0.297 C  
BRANCH  18  19
HETATM   19  C   UNL     1     -11.722  10.731  68.794  1.00  0.00    -0.315 C  
BRANCH  19  20
HETATM   20  C   UNL     1     -10.750   9.673  69.309  1.00  0.00    -0.246 C  
BRANCH  20  21
HETATM   21  C   UNL     1     -11.277   9.028  70.591  1.00  0.00    -0.318 C  
BRANCH  21  22
HETATM   22  C   UNL     1     -11.839  10.062  71.519  1.00  0.00    -0.406 C  
HETATM   23  C   UNL     1     -13.125  10.115  71.889  1.00  0.00    -0.571 C  
ENDBRANCH  21  22
ENDBRANCH  20  21
ENDBRANCH  19  20
ENDBRANCH  18  19
ENDBRANCH  17  18
ENDBRANCH  16  17
ENDBRANCH  15  16
ENDBRANCH  14  15
ENDBRANCH  11  14
ENDBRANCH   5  10
ENDBRANCH   3   5
ENDBRANCH   2   3
TORSDOF 13
ENDMDL
MODEL      321
REMARK 921   NORMALIZED FREE ENERGY PREDICTED BY IDOCK:   -2.35 KCAL/MOL
REMARK 922        TOTAL FREE ENERGY PREDICTED BY IDOCK:   -6.25 KCAL/MOL
REMARK 923 INTER-LIGAND FREE ENERGY PREDICTED BY IDOCK:   -6.20 KCAL/MOL
REMARK 924 INTRA-LIGAND FREE ENERGY PREDICTED BY IDOCK:   -0.05 KCAL/MOL
REMARK 927      BINDING AFFINITY PREDICTED BY RF-SCORE:    0.00 PKD
ROOT
HETATM    1  C   UNL     1     -12.738   7.168  71.870  1.00  0.00    -0.277 C  
HETATM    2  O   UNL     1     -11.448   6.562  71.825  1.00  0.00    -0.270 OA 
ENDROOT
BRANCH   2   3
HETATM    3  C   UNL     1     -10.467   7.315  71.250  1.00  0.00    -0.201 C  
HETATM    4  O   UNL     1      -9.444   7.694  71.807  1.00  0.00    -0.143 OA 
BRANCH   3   5
HETATM    5  C   UNL     1     -10.822   7.599  69.787  1.00  0.00    -0.217 C  
BRANCH   5   6
HETATM    6  C   UNL     1     -10.560   6.382  68.889  1.00  0.00    -0.298 C  
HETATM    7  C   UNL     1     -10.346   7.717  66.722  1.00  0.00    -0.348 C  
HETATM    8  C   UNL     1     -10.715   5.245  66.652  1.00  0.00    -0.274 C  
HETATM    9  C   UNL     1     -11.013   6.534  67.424  1.00  0.00    -0.458 C  
ENDBRANCH   5   6
BRANCH   5  10
HETATM   10  N   UNL     1     -10.032   8.739  69.320  1.00  0.00    -0.188 N  
HETATM   11  C   UNL     1     -10.454  10.028  69.539  1.00  0.00    -0.240 C  
HETATM   12  H   UNL     1      -9.155   8.574  68.825  1.00  0.00     0.000 HD 
HETATM   13  O   UNL     1     -11.489  10.316  70.130  1.00  0.00    -0.266 OA 
BRANCH  11  14
HETATM   14  C   UNL     1      -9.552  11.083  68.945  1.00  0.00    -0.174 C  
BRANCH  14  15
HETATM   15  C   UNL     1      -9.384  10.851  67.445  1.00  0.00    -0.166 C  
BRANCH  15  16
HETATM   16  C   UNL     1      -9.425  12.148  66.634  1.00  0.00    -0.226 C  
BRANCH  16  17
HETATM   17  C   UNL     1      -9.244  13.384  67.512  1.00  0.00    -0.219 C  
BRANCH  17  18
HETATM   18  C   UNL     1      -9.843  14.633  66.874  1.00  0.00    -0.252 C  
BRANCH  18  19
HETATM   19  C   UNL     1      -9.837  15.786  67.876  1.00  0.00    -0.217 C  
BRANCH  19  20
HETATM   20  C   UNL     1      -9.638  17.128  67.176  1.00  0.00    -0.255 C  
BRANCH  20  21
HETATM   21  C   UNL     1     -10.657  18.156  67.669  1.00  0.00    -0.424 C  
BRANCH  21  22
HETATM   22  C   UNL     1     -10.663  19.369  66.788  1.00  0.00    -0.550 C  
HETATM   23  C   UNL     1      -9.555  19.990  66.363  1.00  0.00    -0.536 C  
ENDBRANCH  21  22
ENDBRANCH  20  21
ENDBRANCH  19  20
ENDBRANCH  18  19
ENDBRANCH  17  18
ENDBRANCH  16  17
ENDBRANCH  15  16
ENDBRANCH  14  15
ENDBRANCH  11  14
ENDBRANCH   5  10
ENDBRANCH   3   5
ENDBRANCH   2   3
TORSDOF 13
ENDMDL
MODEL      322
REMARK 921   NORMALIZED FREE ENERGY PREDICTED BY IDOCK:   -2.35 KCAL/MOL
REMARK 922        TOTAL FREE ENERGY PREDICTED BY IDOCK:   -6.24 KCAL/MOL
REMARK 923 INTER-LIGAND FREE ENERGY PREDICTED BY IDOCK:   -4.52 KCAL/MOL
REMARK 924 INTRA-LIGAND FREE ENERGY PREDICTED BY IDOCK:   -1.72 KCAL/MOL
REMARK 927      BINDING AFFINITY PREDICTED BY RF-SCORE:    0.00 PKD
ROOT
HETATM    1  C   UNL     1     -10.876   6.414  73.215  1.00  0.00    -0.244 C  
HETATM    2  O   UNL     1     -10.379   6.890  71.966  1.00  0.00    -0.198 OA 
ENDROOT
BRANCH   2   3
HETATM    3  C   UNL     1     -11.318   7.089  70.999  1.00  0.00    -0.287 C  
HETATM    4  O   UNL     1     -12.531   7.062  71.170  1.00  0.00    -0.368 OA 
BRANCH   3   5
HETATM    5  C   UNL     1     -10.631   7.379  69.661  1.00  0.00    -0.236 C  
BRANCH   5   6
HETATM    6  C   UNL     1      -9.114   7.540  69.820  1.00  0.00    -0.140 C  
HETATM    7  C   UNL     1      -8.495   5.909  67.955  1.00  0.00    -0.107 C  
HETATM    8  C   UNL     1      -6.787   6.603  69.644  1.00  0.00    -0.058 C  
HETATM    9  C   UNL     1      -8.274   6.315  69.413  1.00  0.00    -0.114 C  
ENDBRANCH   5   6
BRANCH   5  10
HETATM   10  N   UNL     1     -11.202   8.599  69.089  1.00  0.00    -0.391 N  
HETATM   11  C   UNL     1     -11.044   9.814  69.713  1.00  0.00    -0.237 C  
HETATM   12  H   UNL     1     -11.725   8.548  68.215  1.00  0.00     0.000 HD 
HETATM   13  O   UNL     1     -10.424   9.966  70.760  1.00  0.00    -0.290 OA 
BRANCH  11  14
HETATM   14  C   UNL     1     -11.740  10.960  69.021  1.00  0.00    -0.391 C  
BRANCH  14  15
HETATM   15  C   UNL     1     -10.791  12.149  68.883  1.00  0.00    -0.241 C  
BRANCH  15  16
HETATM   16  C   UNL     1      -9.748  11.952  67.782  1.00  0.00    -0.189 C  
BRANCH  16  17
HETATM   17  C   UNL     1      -8.320  12.082  68.308  1.00  0.00    -0.163 C  
BRANCH  17  18
HETATM   18  C   UNL     1      -7.736  10.735  68.720  1.00  0.00    -0.121 C  
BRANCH  18  19
HETATM   19  C   UNL     1      -6.486  10.432  67.894  1.00  0.00    -0.060 C  
BRANCH  19  20
HETATM   20  C   UNL     1      -6.691   9.208  67.006  1.00  0.00    -0.072 C  
BRANCH  20  21
HETATM   21  C   UNL     1      -7.532   9.561  65.779  1.00  0.00    -0.100 C  
BRANCH  21  22
HETATM   22  C   UNL     1      -8.667   8.596  65.613  1.00  0.00    -0.214 C  
HETATM   23  C   UNL     1      -9.892   8.789  66.118  1.00  0.00    -0.297 C  
ENDBRANCH  21  22
ENDBRANCH  20  21
ENDBRANCH  19  20
ENDBRANCH  18  19
ENDBRANCH  17  18
ENDBRANCH  16  17
ENDBRANCH  15  16
ENDBRANCH  14  15
ENDBRANCH  11  14
ENDBRANCH   5  10
ENDBRANCH   3   5
ENDBRANCH   2   3
TORSDOF 13
ENDMDL
MODEL      323
REMARK 921   NORMALIZED FREE ENERGY PREDICTED BY IDOCK:   -2.35 KCAL/MOL
REMARK 922        TOTAL FREE ENERGY PREDICTED BY IDOCK:   -6.24 KCAL/MOL
REMARK 923 INTER-LIGAND FREE ENERGY PREDICTED BY IDOCK:   -5.47 KCAL/MOL
REMARK 924 INTRA-LIGAND FREE ENERGY PREDICTED BY IDOCK:   -0.77 KCAL/MOL
REMARK 927      BINDING AFFINITY PREDICTED BY RF-SCORE:    0.00 PKD
ROOT
HETATM    1  C   UNL     1     -12.698   9.052  72.205  1.00  0.00    -0.401 C  
HETATM    2  O   UNL     1     -12.032   8.627  71.018  1.00  0.00    -0.290 OA 
ENDROOT
BRANCH   2   3
HETATM    3  C   UNL     1     -11.932   7.277  70.854  1.00  0.00    -0.305 C  
HETATM    4  O   UNL     1     -12.459   6.433  71.569  1.00  0.00    -0.246 OA 
BRANCH   3   5
HETATM    5  C   UNL     1     -11.078   6.966  69.621  1.00  0.00    -0.258 C  
BRANCH   5   6
HETATM    6  C   UNL     1      -9.884   6.066  69.965  1.00  0.00    -0.215 C  
HETATM    7  C   UNL     1     -10.117   4.555  67.919  1.00  0.00    -0.047 C  
HETATM    8  C   UNL     1      -8.735   3.831  69.873  1.00  0.00    -0.127 C  
HETATM    9  C   UNL     1      -9.975   4.620  69.440  1.00  0.00    -0.249 C  
ENDBRANCH   5   6
BRANCH   5  10
HETATM   10  N   UNL     1     -10.601   8.223  69.044  1.00  0.00    -0.342 N  
HETATM   11  C   UNL     1     -10.602   8.422  67.684  1.00  0.00    -0.195 C  
HETATM   12  H   UNL     1     -10.264   8.963  69.661  1.00  0.00     0.000 HD 
HETATM   13  O   UNL     1     -10.996   7.591  66.874  1.00  0.00    -0.292 OA 
BRANCH  11  14
HETATM   14  C   UNL     1     -10.027   9.750  67.254  1.00  0.00    -0.242 C  
BRANCH  14  15
HETATM   15  C   UNL     1     -10.479  10.855  68.207  1.00  0.00    -0.205 C  
BRANCH  15  16
HETATM   16  C   UNL     1     -10.147  12.257  67.692  1.00  0.00    -0.204 C  
BRANCH  16  17
HETATM   17  C   UNL     1      -8.761  12.721  68.133  1.00  0.00    -0.193 C  
BRANCH  17  18
HETATM   18  C   UNL     1      -8.748  14.196  68.523  1.00  0.00    -0.166 C  
BRANCH  18  19
HETATM   19  C   UNL     1      -8.240  15.041  67.355  1.00  0.00    -0.215 C  
BRANCH  19  20
HETATM   20  C   UNL     1      -9.237  16.137  66.990  1.00  0.00    -0.227 C  
BRANCH  20  21
HETATM   21  C   UNL     1      -8.704  17.513  67.392  1.00  0.00    -0.231 C  
BRANCH  21  22
HETATM   22  C   UNL     1      -9.233  18.580  66.481  1.00  0.00    -0.312 C  
HETATM   23  C   UNL     1     -10.524  18.929  66.409  1.00  0.00    -0.505 C  
ENDBRANCH  21  22
ENDBRANCH  20  21
ENDBRANCH  19  20
ENDBRANCH  18  19
ENDBRANCH  17  18
ENDBRANCH  16  17
ENDBRANCH  15  16
ENDBRANCH  14  15
ENDBRANCH  11  14
ENDBRANCH   5  10
ENDBRANCH   3   5
ENDBRANCH   2   3
TORSDOF 13
ENDMDL
MODEL      324
REMARK 921   NORMALIZED FREE ENERGY PREDICTED BY IDOCK:   -2.34 KCAL/MOL
REMARK 922        TOTAL FREE ENERGY PREDICTED BY IDOCK:   -6.22 KCAL/MOL
REMARK 923 INTER-LIGAND FREE ENERGY PREDICTED BY IDOCK:   -5.78 KCAL/MOL
REMARK 924 INTRA-LIGAND FREE ENERGY PREDICTED BY IDOCK:   -0.44 KCAL/MOL
REMARK 927      BINDING AFFINITY PREDICTED BY RF-SCORE:    0.00 PKD
ROOT
HETATM    1  C   UNL     1     -10.203  15.994  65.746  1.00  0.00    -0.377 C  
HETATM    2  O   UNL     1     -10.320  15.570  67.103  1.00  0.00    -0.261 OA 
ENDROOT
BRANCH   2   3
HETATM    3  C   UNL     1      -9.967  16.497  68.038  1.00  0.00    -0.245 C  
HETATM    4  O   UNL     1     -10.091  17.710  67.920  1.00  0.00    -0.311 OA 
BRANCH   3   5
HETATM    5  C   UNL     1      -9.411  15.793  69.280  1.00  0.00    -0.261 C  
BRANCH   5   6
HETATM    6  C   UNL     1      -7.973  15.303  69.064  1.00  0.00    -0.195 C  
HETATM    7  C   UNL     1      -6.894  17.609  69.259  1.00  0.00    -0.194 C  
HETATM    8  C   UNL     1      -5.628  15.703  68.251  1.00  0.00    -0.115 C  
HETATM    9  C   UNL     1      -7.014  16.329  68.431  1.00  0.00    -0.135 C  
ENDBRANCH   5   6
BRANCH   5  10
HETATM   10  N   UNL     1     -10.276  14.661  69.612  1.00  0.00    -0.434 N  
HETATM   11  C   UNL     1     -11.495  14.856  70.217  1.00  0.00    -0.271 C  
HETATM   12  H   UNL     1      -9.971  13.713  69.391  1.00  0.00     0.000 HD 
HETATM   13  O   UNL     1     -11.942  15.960  70.510  1.00  0.00    -0.362 OA 
BRANCH  11  14
HETATM   14  C   UNL     1     -12.236  13.581  70.540  1.00  0.00    -0.433 C  
BRANCH  14  15
HETATM   15  C   UNL     1     -11.670  12.420  69.725  1.00  0.00    -0.361 C  
BRANCH  15  16
HETATM   16  C   UNL     1     -11.901  12.581  68.221  1.00  0.00    -0.361 C  
BRANCH  16  17
HETATM   17  C   UNL     1     -11.105  11.568  67.402  1.00  0.00    -0.339 C  
BRANCH  17  18
HETATM   18  C   UNL     1     -11.354  10.136  67.863  1.00  0.00    -0.108 C  
BRANCH  18  19
HETATM   19  C   UNL     1     -10.024   9.422  68.096  1.00  0.00    -0.202 C  
BRANCH  19  20
HETATM   20  C   UNL     1     -10.214   7.911  68.192  1.00  0.00    -0.248 C  
BRANCH  20  21
HETATM   21  C   UNL     1     -10.671   7.507  69.594  1.00  0.00    -0.236 C  
BRANCH  21  22
HETATM   22  C   UNL     1      -9.705   6.543  70.215  1.00  0.00    -0.181 C  
HETATM   23  C   UNL     1      -9.328   6.585  71.499  1.00  0.00    -0.149 C  
ENDBRANCH  21  22
ENDBRANCH  20  21
ENDBRANCH  19  20
ENDBRANCH  18  19
ENDBRANCH  17  18
ENDBRANCH  16  17
ENDBRANCH  15  16
ENDBRANCH  14  15
ENDBRANCH  11  14
ENDBRANCH   5  10
ENDBRANCH   3   5
ENDBRANCH   2   3
TORSDOF 13
ENDMDL
MODEL      325
REMARK 921   NORMALIZED FREE ENERGY PREDICTED BY IDOCK:   -2.33 KCAL/MOL
REMARK 922        TOTAL FREE ENERGY PREDICTED BY IDOCK:   -6.21 KCAL/MOL
REMARK 923 INTER-LIGAND FREE ENERGY PREDICTED BY IDOCK:   -4.41 KCAL/MOL
REMARK 924 INTRA-LIGAND FREE ENERGY PREDICTED BY IDOCK:   -1.80 KCAL/MOL
REMARK 927      BINDING AFFINITY PREDICTED BY RF-SCORE:    0.00 PKD
ROOT
HETATM    1  C   UNL     1     -10.160  13.197  68.449  1.00  0.00    -0.231 C  
HETATM    2  O   UNL     1      -9.597  11.898  68.281  1.00  0.00    -0.192 OA 
ENDROOT
BRANCH   2   3
HETATM    3  C   UNL     1     -10.490  10.868  68.280  1.00  0.00    -0.179 C  
HETATM    4  O   UNL     1     -11.678  10.957  67.993  1.00  0.00    -0.540 OA 
BRANCH   3   5
HETATM    5  C   UNL     1      -9.781   9.566  68.668  1.00  0.00    -0.155 C  
BRANCH   5   6
HETATM    6  C   UNL     1     -10.762   8.523  69.218  1.00  0.00    -0.147 C  
HETATM    7  C   UNL     1     -11.440   9.881  71.272  1.00  0.00    -0.435 C  
HETATM    8  C   UNL     1     -11.928   7.431  71.160  1.00  0.00    -0.351 C  
HETATM    9  C   UNL     1     -10.946   8.532  70.748  1.00  0.00    -0.282 C  
ENDBRANCH   5   6
BRANCH   5  10
HETATM   10  N   UNL     1      -8.759   9.863  69.672  1.00  0.00    -0.192 N  
HETATM   11  C   UNL     1      -7.589   9.143  69.725  1.00  0.00    -0.079 C  
HETATM   12  H   UNL     1      -8.916  10.616  70.342  1.00  0.00     0.000 HD 
HETATM   13  O   UNL     1      -7.317   8.229  68.955  1.00  0.00    -0.084 OA 
BRANCH  11  14
HETATM   14  C   UNL     1      -6.669   9.541  70.853  1.00  0.00    -0.085 C  
BRANCH  14  15
HETATM   15  C   UNL     1      -6.772   8.536  71.999  1.00  0.00    -0.087 C  
BRANCH  15  16
HETATM   16  C   UNL     1      -8.178   8.458  72.596  1.00  0.00    -0.190 C  
BRANCH  16  17
HETATM   17  C   UNL     1      -8.224   7.596  73.856  1.00  0.00    -0.229 C  
BRANCH  17  18
HETATM   18  C   UNL     1      -9.602   6.984  74.081  1.00  0.00    -0.298 C  
BRANCH  18  19
HETATM   19  C   UNL     1      -9.766   5.733  73.219  1.00  0.00    -0.157 C  
BRANCH  19  20
HETATM   20  C   UNL     1      -8.508   4.871  73.247  1.00  0.00    -0.103 C  
BRANCH  20  21
HETATM   21  C   UNL     1      -8.149   4.385  71.843  1.00  0.00    -0.098 C  
BRANCH  21  22
HETATM   22  C   UNL     1      -8.677   5.324  70.800  1.00  0.00    -0.140 C  
HETATM   23  C   UNL     1      -9.093   4.937  69.587  1.00  0.00    -0.153 C  
ENDBRANCH  21  22
ENDBRANCH  20  21
ENDBRANCH  19  20
ENDBRANCH  18  19
ENDBRANCH  17  18
ENDBRANCH  16  17
ENDBRANCH  15  16
ENDBRANCH  14  15
ENDBRANCH  11  14
ENDBRANCH   5  10
ENDBRANCH   3   5
ENDBRANCH   2   3
TORSDOF 13
ENDMDL
MODEL      326
REMARK 921   NORMALIZED FREE ENERGY PREDICTED BY IDOCK:   -2.33 KCAL/MOL
REMARK 922        TOTAL FREE ENERGY PREDICTED BY IDOCK:   -6.21 KCAL/MOL
REMARK 923 INTER-LIGAND FREE ENERGY PREDICTED BY IDOCK:   -5.26 KCAL/MOL
REMARK 924 INTRA-LIGAND FREE ENERGY PREDICTED BY IDOCK:   -0.95 KCAL/MOL
REMARK 927      BINDING AFFINITY PREDICTED BY RF-SCORE:    0.00 PKD
ROOT
HETATM    1  C   UNL     1      -6.082   8.787  72.559  1.00  0.00    -0.062 C  
HETATM    2  O   UNL     1      -7.000   7.854  71.993  1.00  0.00    -0.059 OA 
ENDROOT
BRANCH   2   3
HETATM    3  C   UNL     1      -8.308   8.240  72.003  1.00  0.00    -0.165 C  
HETATM    4  O   UNL     1      -8.896   8.734  72.957  1.00  0.00    -0.340 OA 
BRANCH   3   5
HETATM    5  C   UNL     1      -8.934   7.987  70.628  1.00  0.00    -0.148 C  
BRANCH   5   6
HETATM    6  C   UNL     1      -8.662   6.561  70.129  1.00  0.00    -0.140 C  
HETATM    7  C   UNL     1     -11.064   6.096  69.395  1.00  0.00    -0.479 C  
HETATM    8  C   UNL     1      -9.448   4.212  69.697  1.00  0.00    -0.259 C  
HETATM    9  C   UNL     1      -9.863   5.598  70.201  1.00  0.00    -0.250 C  
ENDBRANCH   5   6
BRANCH   5  10
HETATM   10  N   UNL     1      -8.393   8.957  69.675  1.00  0.00    -0.119 N  
HETATM   11  C   UNL     1      -9.153  10.011  69.230  1.00  0.00    -0.200 C  
HETATM   12  H   UNL     1      -7.436   8.848  69.336  1.00  0.00     0.000 HD 
HETATM   13  O   UNL     1     -10.306  10.220  69.592  1.00  0.00    -0.229 OA 
BRANCH  11  14
HETATM   14  C   UNL     1      -8.464  10.884  68.210  1.00  0.00    -0.134 C  
BRANCH  14  15
HETATM   15  C   UNL     1      -9.196  10.811  66.871  1.00  0.00    -0.172 C  
BRANCH  15  16
HETATM   16  C   UNL     1      -9.616  12.186  66.348  1.00  0.00    -0.243 C  
BRANCH  16  17
HETATM   17  C   UNL     1     -10.983  12.613  66.878  1.00  0.00    -0.297 C  
BRANCH  17  18
HETATM   18  C   UNL     1     -11.117  14.130  66.962  1.00  0.00    -0.314 C  
BRANCH  18  19
HETATM   19  C   UNL     1     -10.034  14.798  66.117  1.00  0.00    -0.324 C  
BRANCH  19  20
HETATM   20  C   UNL     1     -10.101  16.319  66.230  1.00  0.00    -0.340 C  
BRANCH  20  21
HETATM   21  C   UNL     1      -9.737  16.777  67.642  1.00  0.00    -0.251 C  
BRANCH  21  22
HETATM   22  C   UNL     1      -9.998  18.243  67.814  1.00  0.00    -0.343 C  
HETATM   23  C   UNL     1      -9.573  18.960  68.862  1.00  0.00    -0.393 C  
ENDBRANCH  21  22
ENDBRANCH  20  21
ENDBRANCH  19  20
ENDBRANCH  18  19
ENDBRANCH  17  18
ENDBRANCH  16  17
ENDBRANCH  15  16
ENDBRANCH  14  15
ENDBRANCH  11  14
ENDBRANCH   5  10
ENDBRANCH   3   5
ENDBRANCH   2   3
TORSDOF 13
ENDMDL
MODEL      327
REMARK 921   NORMALIZED FREE ENERGY PREDICTED BY IDOCK:   -2.33 KCAL/MOL
REMARK 922        TOTAL FREE ENERGY PREDICTED BY IDOCK:   -6.21 KCAL/MOL
REMARK 923 INTER-LIGAND FREE ENERGY PREDICTED BY IDOCK:   -5.60 KCAL/MOL
REMARK 924 INTRA-LIGAND FREE ENERGY PREDICTED BY IDOCK:   -0.61 KCAL/MOL
REMARK 927      BINDING AFFINITY PREDICTED BY RF-SCORE:    0.00 PKD
ROOT
HETATM    1  C   UNL     1     -10.646   5.805  66.699  1.00  0.00    -0.280 C  
HETATM    2  O   UNL     1     -11.075   7.133  66.993  1.00  0.00    -0.345 OA 
ENDROOT
BRANCH   2   3
HETATM    3  C   UNL     1     -10.569   7.672  68.138  1.00  0.00    -0.130 C  
HETATM    4  O   UNL     1     -10.922   7.385  69.276  1.00  0.00    -0.180 OA 
BRANCH   3   5
HETATM    5  C   UNL     1      -9.466   8.678  67.794  1.00  0.00    -0.142 C  
BRANCH   5   6
HETATM    6  C   UNL     1      -8.746   9.187  69.050  1.00  0.00    -0.135 C  
HETATM    7  C   UNL     1      -6.401   9.101  68.040  1.00  0.00    -0.055 C  
HETATM    8  C   UNL     1      -6.705   9.265  70.517  1.00  0.00    -0.078 C  
HETATM    9  C   UNL     1      -7.292   8.704  69.218  1.00  0.00    -0.074 C  
ENDBRANCH   5   6
BRANCH   5  10
HETATM   10  N   UNL     1     -10.059   9.804  67.072  1.00  0.00    -0.205 N  
HETATM   11  C   UNL     1     -10.957  10.644  67.687  1.00  0.00    -0.310 C  
HETATM   12  H   UNL     1      -9.802   9.968  66.099  1.00  0.00     0.000 HD 
HETATM   13  O   UNL     1     -11.314  10.524  68.853  1.00  0.00    -0.251 OA 
BRANCH  11  14
HETATM   14  C   UNL     1     -11.514  11.719  66.786  1.00  0.00    -0.352 C  
BRANCH  14  15
HETATM   15  C   UNL     1     -11.718  13.013  67.571  1.00  0.00    -0.421 C  
BRANCH  15  16
HETATM   16  C   UNL     1     -11.720  14.256  66.679  1.00  0.00    -0.417 C  
BRANCH  16  17
HETATM   17  C   UNL     1     -10.471  14.342  65.805  1.00  0.00    -0.329 C  
BRANCH  17  18
HETATM   18  C   UNL     1      -9.211  14.587  66.628  1.00  0.00    -0.290 C  
BRANCH  18  19
HETATM   19  C   UNL     1      -8.574  15.917  66.227  1.00  0.00    -0.348 C  
BRANCH  19  20
HETATM   20  C   UNL     1      -8.381  16.828  67.436  1.00  0.00    -0.197 C  
BRANCH  20  21
HETATM   21  C   UNL     1      -9.484  16.600  68.471  1.00  0.00    -0.239 C  
BRANCH  21  22
HETATM   22  C   UNL     1     -10.634  17.534  68.243  1.00  0.00    -0.354 C  
HETATM   23  C   UNL     1     -10.590  18.585  67.414  1.00  0.00    -0.463 C  
ENDBRANCH  21  22
ENDBRANCH  20  21
ENDBRANCH  19  20
ENDBRANCH  18  19
ENDBRANCH  17  18
ENDBRANCH  16  17
ENDBRANCH  15  16
ENDBRANCH  14  15
ENDBRANCH  11  14
ENDBRANCH   5  10
ENDBRANCH   3   5
ENDBRANCH   2   3
TORSDOF 13
ENDMDL
MODEL      328
REMARK 921   NORMALIZED FREE ENERGY PREDICTED BY IDOCK:   -2.32 KCAL/MOL
REMARK 922        TOTAL FREE ENERGY PREDICTED BY IDOCK:   -6.18 KCAL/MOL
REMARK 923 INTER-LIGAND FREE ENERGY PREDICTED BY IDOCK:   -5.54 KCAL/MOL
REMARK 924 INTRA-LIGAND FREE ENERGY PREDICTED BY IDOCK:   -0.64 KCAL/MOL
REMARK 927      BINDING AFFINITY PREDICTED BY RF-SCORE:    0.00 PKD
ROOT
HETATM    1  C   UNL     1      -6.777  12.251  69.085  1.00  0.00    -0.095 C  
HETATM    2  O   UNL     1      -7.993  12.312  68.342  1.00  0.00    -0.151 OA 
ENDROOT
BRANCH   2   3
HETATM    3  C   UNL     1      -8.297  13.533  67.817  1.00  0.00    -0.181 C  
HETATM    4  O   UNL     1      -7.484  14.362  67.428  1.00  0.00    -0.183 OA 
BRANCH   3   5
HETATM    5  C   UNL     1      -9.818  13.707  67.759  1.00  0.00    -0.232 C  
BRANCH   5   6
HETATM    6  C   UNL     1     -10.236  15.162  68.008  1.00  0.00    -0.230 C  
HETATM    7  C   UNL     1     -10.678  15.716  65.554  1.00  0.00    -0.403 C  
HETATM    8  C   UNL     1     -10.410  17.548  67.234  1.00  0.00    -0.337 C  
HETATM    9  C   UNL     1      -9.969  16.134  66.843  1.00  0.00    -0.258 C  
ENDBRANCH   5   6
BRANCH   5  10
HETATM   10  N   UNL     1     -10.434  12.836  68.759  1.00  0.00    -0.383 N  
HETATM   11  C   UNL     1     -11.416  11.939  68.409  1.00  0.00    -0.299 C  
HETATM   12  H   UNL     1     -10.132  12.894  69.732  1.00  0.00     0.000 HD 
HETATM   13  O   UNL     1     -11.832  11.799  67.264  1.00  0.00    -0.596 OA 
BRANCH  11  14
HETATM   14  C   UNL     1     -11.983  11.158  69.569  1.00  0.00    -0.425 C  
BRANCH  14  15
HETATM   15  C   UNL     1     -10.863  10.438  70.318  1.00  0.00    -0.308 C  
BRANCH  15  16
HETATM   16  C   UNL     1     -11.014   8.916  70.293  1.00  0.00    -0.266 C  
BRANCH  16  17
HETATM   17  C   UNL     1     -10.118   8.230  71.321  1.00  0.00    -0.249 C  
BRANCH  17  18
HETATM   18  C   UNL     1      -9.092   7.311  70.665  1.00  0.00    -0.157 C  
BRANCH  18  19
HETATM   19  C   UNL     1      -9.794   6.114  70.026  1.00  0.00    -0.207 C  
BRANCH  19  20
HETATM   20  C   UNL     1      -8.916   5.457  68.965  1.00  0.00    -0.121 C  
BRANCH  20  21
HETATM   21  C   UNL     1      -9.768   4.705  67.942  1.00  0.00    -0.198 C  
BRANCH  21  22
HETATM   22  C   UNL     1      -9.565   3.225  68.061  1.00  0.00    -0.148 C  
HETATM   23  C   UNL     1      -8.556   2.660  68.736  1.00  0.00    -0.112 C  
ENDBRANCH  21  22
ENDBRANCH  20  21
ENDBRANCH  19  20
ENDBRANCH  18  19
ENDBRANCH  17  18
ENDBRANCH  16  17
ENDBRANCH  15  16
ENDBRANCH  14  15
ENDBRANCH  11  14
ENDBRANCH   5  10
ENDBRANCH   3   5
ENDBRANCH   2   3
TORSDOF 13
ENDMDL
MODEL      329
REMARK 921   NORMALIZED FREE ENERGY PREDICTED BY IDOCK:   -2.31 KCAL/MOL
REMARK 922        TOTAL FREE ENERGY PREDICTED BY IDOCK:   -6.17 KCAL/MOL
REMARK 923 INTER-LIGAND FREE ENERGY PREDICTED BY IDOCK:   -5.06 KCAL/MOL
REMARK 924 INTRA-LIGAND FREE ENERGY PREDICTED BY IDOCK:   -1.12 KCAL/MOL
REMARK 927      BINDING AFFINITY PREDICTED BY RF-SCORE:    0.00 PKD
ROOT
HETATM    1  C   UNL     1     -11.962  14.502  64.466  1.00  0.00    -0.468 C  
HETATM    2  O   UNL     1     -11.014  13.519  64.876  1.00  0.00    -0.317 OA 
ENDROOT
BRANCH   2   3
HETATM    3  C   UNL     1     -11.319  12.857  66.028  1.00  0.00    -0.317 C  
HETATM    4  O   UNL     1     -12.369  12.268  66.253  1.00  0.00    -0.556 OA 
BRANCH   3   5
HETATM    5  C   UNL     1     -10.137  12.934  66.999  1.00  0.00    -0.245 C  
BRANCH   5   6
HETATM    6  C   UNL     1      -9.125  11.805  66.759  1.00  0.00    -0.194 C  
HETATM    7  C   UNL     1      -7.293  12.799  68.236  1.00  0.00    -0.117 C  
HETATM    8  C   UNL     1      -6.748  11.003  66.583  1.00  0.00    -0.134 C  
HETATM    9  C   UNL     1      -7.643  12.214  66.867  1.00  0.00    -0.029 C  
ENDBRANCH   5   6
BRANCH   5  10
HETATM   10  N   UNL     1     -10.643  12.863  68.370  1.00  0.00    -0.248 N  
HETATM   11  C   UNL     1     -11.162  13.974  68.991  1.00  0.00    -0.276 C  
HETATM   12  H   UNL     1     -10.610  11.975  68.872  1.00  0.00     0.000 HD 
HETATM   13  O   UNL     1     -11.247  15.075  68.458  1.00  0.00    -0.261 OA 
BRANCH  11  14
HETATM   14  C   UNL     1     -11.589  13.741  70.420  1.00  0.00    -0.143 C  
BRANCH  14  15
HETATM   15  C   UNL     1     -12.957  13.063  70.459  1.00  0.00     0.134 C  
BRANCH  15  16
HETATM   16  C   UNL     1     -12.899  11.585  70.066  1.00  0.00     0.175 C  
BRANCH  16  17
HETATM   17  C   UNL     1     -12.302  10.716  71.170  1.00  0.00    -0.505 C  
BRANCH  17  18
HETATM   18  C   UNL     1     -11.002  10.049  70.735  1.00  0.00    -0.375 C  
BRANCH  18  19
HETATM   19  C   UNL     1     -11.133   8.531  70.836  1.00  0.00    -0.295 C  
BRANCH  19  20
HETATM   20  C   UNL     1     -10.279   7.828  69.785  1.00  0.00    -0.211 C  
BRANCH  20  21
HETATM   21  C   UNL     1     -10.365   8.552  68.441  1.00  0.00    -0.241 C  
BRANCH  21  22
HETATM   22  C   UNL     1      -9.520   7.868  67.408  1.00  0.00    -0.179 C  
HETATM   23  C   UNL     1      -9.381   8.301  66.149  1.00  0.00    -0.254 C  
ENDBRANCH  21  22
ENDBRANCH  20  21
ENDBRANCH  19  20
ENDBRANCH  18  19
ENDBRANCH  17  18
ENDBRANCH  16  17
ENDBRANCH  15  16
ENDBRANCH  14  15
ENDBRANCH  11  14
ENDBRANCH   5  10
ENDBRANCH   3   5
ENDBRANCH   2   3
TORSDOF 13
ENDMDL
MODEL      330
REMARK 921   NORMALIZED FREE ENERGY PREDICTED BY IDOCK:   -2.31 KCAL/MOL
REMARK 922        TOTAL FREE ENERGY PREDICTED BY IDOCK:   -6.17 KCAL/MOL
REMARK 923 INTER-LIGAND FREE ENERGY PREDICTED BY IDOCK:   -5.56 KCAL/MOL
REMARK 924 INTRA-LIGAND FREE ENERGY PREDICTED BY IDOCK:   -0.61 KCAL/MOL
REMARK 927      BINDING AFFINITY PREDICTED BY RF-SCORE:    0.00 PKD
ROOT
HETATM    1  C   UNL     1      -9.506   4.823  70.254  1.00  0.00    -0.174 C  
HETATM    2  O   UNL     1      -9.857   4.546  68.899  1.00  0.00    -0.168 OA 
ENDROOT
BRANCH   2   3
HETATM    3  C   UNL     1     -10.623   5.494  68.288  1.00  0.00    -0.136 C  
HETATM    4  O   UNL     1     -11.335   6.311  68.860  1.00  0.00    -0.373 OA 
BRANCH   3   5
HETATM    5  C   UNL     1     -10.444   5.404  66.769  1.00  0.00    -0.289 C  
BRANCH   5   6
HETATM    6  C   UNL     1      -9.158   4.660  66.388  1.00  0.00    -0.120 C  
HETATM    7  C   UNL     1      -9.956   3.964  64.063  1.00  0.00    -0.188 C  
HETATM    8  C   UNL     1      -7.985   2.838  65.112  1.00  0.00    -0.082 C  
HETATM    9  C   UNL     1      -9.337   3.505  65.384  1.00  0.00    -0.158 C  
ENDBRANCH   5   6
BRANCH   5  10
HETATM   10  N   UNL     1     -10.417   6.758  66.214  1.00  0.00    -0.415 N  
HETATM   11  C   UNL     1      -9.380   7.616  66.493  1.00  0.00    -0.189 C  
HETATM   12  H   UNL     1     -11.179   7.069  65.610  1.00  0.00     0.000 HD 
HETATM   13  O   UNL     1      -8.423   7.321  67.200  1.00  0.00    -0.116 OA 
BRANCH  11  14
HETATM   14  C   UNL     1      -9.534   8.989  65.886  1.00  0.00    -0.317 C  
BRANCH  14  15
HETATM   15  C   UNL     1      -9.618  10.046  66.986  1.00  0.00    -0.212 C  
BRANCH  15  16
HETATM   16  C   UNL     1     -10.880  10.905  66.889  1.00  0.00    -0.307 C  
BRANCH  16  17
HETATM   17  C   UNL     1     -10.893  11.773  65.632  1.00  0.00    -0.342 C  
BRANCH  17  18
HETATM   18  C   UNL     1     -12.037  12.781  65.644  1.00  0.00    -0.514 C  
BRANCH  18  19
HETATM   19  C   UNL     1     -11.520  14.164  65.252  1.00  0.00    -0.330 C  
BRANCH  19  20
HETATM   20  C   UNL     1     -10.926  14.896  66.453  1.00  0.00    -0.336 C  
BRANCH  20  21
HETATM   21  C   UNL     1      -9.472  15.286  66.189  1.00  0.00    -0.361 C  
BRANCH  21  22
HETATM   22  C   UNL     1      -8.551  14.612  67.161  1.00  0.00    -0.244 C  
HETATM   23  C   UNL     1      -8.964  13.796  68.139  1.00  0.00    -0.190 C  
ENDBRANCH  21  22
ENDBRANCH  20  21
ENDBRANCH  19  20
ENDBRANCH  18  19
ENDBRANCH  17  18
ENDBRANCH  16  17
ENDBRANCH  15  16
ENDBRANCH  14  15
ENDBRANCH  11  14
ENDBRANCH   5  10
ENDBRANCH   3   5
ENDBRANCH   2   3
TORSDOF 13
ENDMDL
MODEL      331
REMARK 921   NORMALIZED FREE ENERGY PREDICTED BY IDOCK:   -2.31 KCAL/MOL
REMARK 922        TOTAL FREE ENERGY PREDICTED BY IDOCK:   -6.17 KCAL/MOL
REMARK 923 INTER-LIGAND FREE ENERGY PREDICTED BY IDOCK:   -6.05 KCAL/MOL
REMARK 924 INTRA-LIGAND FREE ENERGY PREDICTED BY IDOCK:   -0.12 KCAL/MOL
REMARK 927      BINDING AFFINITY PREDICTED BY RF-SCORE:    0.00 PKD
ROOT
HETATM    1  C   UNL     1      -9.406   4.462  68.951  1.00  0.00    -0.153 C  
HETATM    2  O   UNL     1      -9.210   5.121  67.701  1.00  0.00    -0.113 OA 
ENDROOT
BRANCH   2   3
HETATM    3  C   UNL     1     -10.062   6.154  67.444  1.00  0.00    -0.156 C  
HETATM    4  O   UNL     1     -11.175   6.297  67.936  1.00  0.00    -0.323 OA 
BRANCH   3   5
HETATM    5  C   UNL     1      -9.408   7.133  66.464  1.00  0.00    -0.164 C  
BRANCH   5   6
HETATM    6  C   UNL     1      -7.884   6.964  66.417  1.00  0.00    -0.103 C  
HETATM    7  C   UNL     1      -7.665   7.398  63.910  1.00  0.00    -0.124 C  
HETATM    8  C   UNL     1      -5.795   6.322  65.174  1.00  0.00    -0.025 C  
HETATM    9  C   UNL     1      -7.317   6.469  65.073  1.00  0.00    -0.078 C  
ENDBRANCH   5   6
BRANCH   5  10
HETATM   10  N   UNL     1      -9.743   8.500  66.864  1.00  0.00    -0.200 N  
HETATM   11  C   UNL     1      -9.312   9.011  68.065  1.00  0.00    -0.141 C  
HETATM   12  H   UNL     1     -10.304   9.083  66.242  1.00  0.00     0.000 HD 
HETATM   13  O   UNL     1      -8.628   8.384  68.866  1.00  0.00    -0.132 OA 
BRANCH  11  14
HETATM   14  C   UNL     1      -9.790  10.415  68.347  1.00  0.00    -0.173 C  
BRANCH  14  15
HETATM   15  C   UNL     1     -11.065  10.707  67.558  1.00  0.00    -0.367 C  
BRANCH  15  16
HETATM   16  C   UNL     1     -11.379  12.202  67.469  1.00  0.00    -0.392 C  
BRANCH  16  17
HETATM   17  C   UNL     1     -11.014  12.947  68.751  1.00  0.00    -0.292 C  
BRANCH  17  18
HETATM   18  C   UNL     1     -12.232  13.591  69.405  1.00  0.00    -0.278 C  
BRANCH  18  19
HETATM   19  C   UNL     1     -11.803  14.396  70.631  1.00  0.00    -0.361 C  
BRANCH  19  20
HETATM   20  C   UNL     1     -12.694  14.095  71.833  1.00  0.00    -0.406 C  
BRANCH  20  21
HETATM   21  C   UNL     1     -13.619  15.274  72.134  1.00  0.00    -0.576 C  
BRANCH  21  22
HETATM   22  C   UNL     1     -13.148  16.029  73.341  1.00  0.00    -0.677 C  
HETATM   23  C   UNL     1     -12.364  15.506  74.292  1.00  0.00    -0.815 C  
ENDBRANCH  21  22
ENDBRANCH  20  21
ENDBRANCH  19  20
ENDBRANCH  18  19
ENDBRANCH  17  18
ENDBRANCH  16  17
ENDBRANCH  15  16
ENDBRANCH  14  15
ENDBRANCH  11  14
ENDBRANCH   5  10
ENDBRANCH   3   5
ENDBRANCH   2   3
TORSDOF 13
ENDMDL
MODEL      332
REMARK 921   NORMALIZED FREE ENERGY PREDICTED BY IDOCK:   -2.31 KCAL/MOL
REMARK 922        TOTAL FREE ENERGY PREDICTED BY IDOCK:   -6.17 KCAL/MOL
REMARK 923 INTER-LIGAND FREE ENERGY PREDICTED BY IDOCK:   -5.81 KCAL/MOL
REMARK 924 INTRA-LIGAND FREE ENERGY PREDICTED BY IDOCK:   -0.36 KCAL/MOL
REMARK 927      BINDING AFFINITY PREDICTED BY RF-SCORE:    0.00 PKD
ROOT
HETATM    1  C   UNL     1      -6.257  16.260  69.599  1.00  0.00    -0.195 C  
HETATM    2  O   UNL     1      -7.402  16.761  68.913  1.00  0.00    -0.212 OA 
ENDROOT
BRANCH   2   3
HETATM    3  C   UNL     1      -7.336  16.715  67.552  1.00  0.00    -0.149 C  
HETATM    4  O   UNL     1      -6.567  16.019  66.901  1.00  0.00    -0.275 OA 
BRANCH   3   5
HETATM    5  C   UNL     1      -8.389  17.650  66.950  1.00  0.00    -0.236 C  
BRANCH   5   6
HETATM    6  C   UNL     1      -9.321  18.229  68.023  1.00  0.00    -0.293 C  
HETATM    7  C   UNL     1      -9.926  20.336  66.713  1.00  0.00    -0.587 C  
HETATM    8  C   UNL     1     -10.369  20.205  69.170  1.00  0.00    -0.078 C  
HETATM    9  C   UNL     1      -9.430  19.765  68.042  1.00  0.00    -0.466 C  
ENDBRANCH   5   6
BRANCH   5  10
HETATM   10  N   UNL     1      -9.172  16.908  65.961  1.00  0.00    -0.218 N  
HETATM   11  C   UNL     1     -10.094  15.966  66.351  1.00  0.00    -0.292 C  
HETATM   12  H   UNL     1      -9.033  17.093  64.967  1.00  0.00     0.000 HD 
HETATM   13  O   UNL     1     -10.330  15.688  67.522  1.00  0.00    -0.265 OA 
BRANCH  11  14
HETATM   14  C   UNL     1     -10.774  15.255  65.206  1.00  0.00    -0.433 C  
BRANCH  14  15
HETATM   15  C   UNL     1     -11.875  14.338  65.734  1.00  0.00    -0.377 C  
BRANCH  15  16
HETATM   16  C   UNL     1     -12.034  13.062  64.904  1.00  0.00    -0.441 C  
BRANCH  16  17
HETATM   17  C   UNL     1     -11.765  11.802  65.724  1.00  0.00    -0.093 C  
BRANCH  17  18
HETATM   18  C   UNL     1     -11.890  12.055  67.222  1.00  0.00    -0.257 C  
BRANCH  18  19
HETATM   19  C   UNL     1     -10.502  12.172  67.851  1.00  0.00    -0.224 C  
BRANCH  19  20
HETATM   20  C   UNL     1     -10.348  11.223  69.036  1.00  0.00    -0.189 C  
BRANCH  20  21
HETATM   21  C   UNL     1      -9.293  10.155  68.745  1.00  0.00    -0.168 C  
BRANCH  21  22
HETATM   22  C   UNL     1      -9.851   9.075  67.868  1.00  0.00    -0.207 C  
HETATM   23  C   UNL     1      -9.419   7.808  67.875  1.00  0.00    -0.158 C  
ENDBRANCH  21  22
ENDBRANCH  20  21
ENDBRANCH  19  20
ENDBRANCH  18  19
ENDBRANCH  17  18
ENDBRANCH  16  17
ENDBRANCH  15  16
ENDBRANCH  14  15
ENDBRANCH  11  14
ENDBRANCH   5  10
ENDBRANCH   3   5
ENDBRANCH   2   3
TORSDOF 13
ENDMDL
MODEL      333
REMARK 921   NORMALIZED FREE ENERGY PREDICTED BY IDOCK:   -2.30 KCAL/MOL
REMARK 922        TOTAL FREE ENERGY PREDICTED BY IDOCK:   -6.15 KCAL/MOL
REMARK 923 INTER-LIGAND FREE ENERGY PREDICTED BY IDOCK:   -5.57 KCAL/MOL
REMARK 924 INTRA-LIGAND FREE ENERGY PREDICTED BY IDOCK:   -0.58 KCAL/MOL
REMARK 927      BINDING AFFINITY PREDICTED BY RF-SCORE:    0.00 PKD
ROOT
HETATM    1  C   UNL     1      -5.947  17.274  69.495  1.00  0.00    -0.241 C  
HETATM    2  O   UNL     1      -7.289  17.391  69.028  1.00  0.00    -0.250 OA 
ENDROOT
BRANCH   2   3
HETATM    3  C   UNL     1      -7.675  16.454  68.116  1.00  0.00    -0.160 C  
HETATM    4  O   UNL     1      -7.111  15.385  67.913  1.00  0.00    -0.115 OA 
BRANCH   3   5
HETATM    5  C   UNL     1      -8.943  16.923  67.395  1.00  0.00    -0.209 C  
BRANCH   5   6
HETATM    6  C   UNL     1      -9.430  18.280  67.920  1.00  0.00    -0.288 C  
HETATM    7  C   UNL     1     -10.468  19.039  65.714  1.00  0.00    -0.375 C  
HETATM    8  C   UNL     1     -10.001  20.697  67.527  1.00  0.00    -0.428 C  
HETATM    9  C   UNL     1      -9.528  19.398  66.865  1.00  0.00    -0.406 C  
ENDBRANCH   5   6
BRANCH   5  10
HETATM   10  N   UNL     1      -9.990  15.917  67.574  1.00  0.00    -0.236 N  
HETATM   11  C   UNL     1     -10.877  15.997  68.622  1.00  0.00    -0.301 C  
HETATM   12  H   UNL     1     -10.064  15.145  66.911  1.00  0.00     0.000 HD 
HETATM   13  O   UNL     1     -10.864  16.894  69.457  1.00  0.00    -0.303 OA 
BRANCH  11  14
HETATM   14  C   UNL     1     -11.857  14.852  68.691  1.00  0.00    -0.332 C  
BRANCH  14  15
HETATM   15  C   UNL     1     -11.237  13.670  69.433  1.00  0.00    -0.252 C  
BRANCH  15  16
HETATM   16  C   UNL     1     -12.284  12.720  70.017  1.00  0.00    -0.279 C  
BRANCH  16  17
HETATM   17  C   UNL     1     -11.707  11.338  70.317  1.00  0.00    -0.415 C  
BRANCH  17  18
HETATM   18  C   UNL     1     -11.920  10.365  69.163  1.00  0.00    -0.056 C  
BRANCH  18  19
HETATM   19  C   UNL     1     -10.672   9.505  68.967  1.00  0.00    -0.224 C  
BRANCH  19  20
HETATM   20  C   UNL     1      -9.519   9.994  69.839  1.00  0.00    -0.221 C  
BRANCH  20  21
HETATM   21  C   UNL     1      -8.394  10.572  68.980  1.00  0.00    -0.154 C  
BRANCH  21  22
HETATM   22  C   UNL     1      -8.939  11.186  67.726  1.00  0.00    -0.139 C  
HETATM   23  C   UNL     1      -8.562  12.381  67.253  1.00  0.00    -0.185 C  
ENDBRANCH  21  22
ENDBRANCH  20  21
ENDBRANCH  19  20
ENDBRANCH  18  19
ENDBRANCH  17  18
ENDBRANCH  16  17
ENDBRANCH  15  16
ENDBRANCH  14  15
ENDBRANCH  11  14
ENDBRANCH   5  10
ENDBRANCH   3   5
ENDBRANCH   2   3
TORSDOF 13
ENDMDL
MODEL      334
REMARK 921   NORMALIZED FREE ENERGY PREDICTED BY IDOCK:   -2.29 KCAL/MOL
REMARK 922        TOTAL FREE ENERGY PREDICTED BY IDOCK:   -6.13 KCAL/MOL
REMARK 923 INTER-LIGAND FREE ENERGY PREDICTED BY IDOCK:   -5.67 KCAL/MOL
REMARK 924 INTRA-LIGAND FREE ENERGY PREDICTED BY IDOCK:   -0.46 KCAL/MOL
REMARK 927      BINDING AFFINITY PREDICTED BY RF-SCORE:    0.00 PKD
ROOT
HETATM    1  C   UNL     1      -6.504  18.660  65.191  1.00  0.00    -0.166 C  
HETATM    2  O   UNL     1      -7.696  18.910  65.932  1.00  0.00    -0.426 OA 
ENDROOT
BRANCH   2   3
HETATM    3  C   UNL     1      -7.522  19.554  67.121  1.00  0.00    -0.231 C  
HETATM    4  O   UNL     1      -7.002  20.653  67.265  1.00  0.00    -0.283 OA 
BRANCH   3   5
HETATM    5  C   UNL     1      -8.100  18.706  68.259  1.00  0.00    -0.314 C  
BRANCH   5   6
HETATM    6  C   UNL     1      -7.121  18.583  69.434  1.00  0.00    -0.089 C  
HETATM    7  C   UNL     1      -5.637  16.818  68.334  1.00  0.00    -0.122 C  
HETATM    8  C   UNL     1      -5.508  17.220  70.799  1.00  0.00    -0.122 C  
HETATM    9  C   UNL     1      -6.434  17.211  69.579  1.00  0.00    -0.210 C  
ENDBRANCH   5   6
BRANCH   5  10
HETATM   10  N   UNL     1      -8.425  17.376  67.743  1.00  0.00    -0.219 N  
HETATM   11  C   UNL     1      -9.689  16.854  67.878  1.00  0.00    -0.254 C  
HETATM   12  H   UNL     1      -7.702  16.828  67.275  1.00  0.00     0.000 HD 
HETATM   13  O   UNL     1     -10.616  17.447  68.417  1.00  0.00    -0.367 OA 
BRANCH  11  14
HETATM   14  C   UNL     1      -9.839  15.452  67.340  1.00  0.00    -0.216 C  
BRANCH  14  15
HETATM   15  C   UNL     1     -10.940  14.711  68.097  1.00  0.00    -0.269 C  
BRANCH  15  16
HETATM   16  C   UNL     1     -10.447  13.414  68.742  1.00  0.00    -0.203 C  
BRANCH  16  17
HETATM   17  C   UNL     1     -10.968  12.175  68.017  1.00  0.00    -0.271 C  
BRANCH  17  18
HETATM   18  C   UNL     1      -9.937  11.601  67.051  1.00  0.00    -0.226 C  
BRANCH  18  19
HETATM   19  C   UNL     1     -10.634  11.055  65.805  1.00  0.00    -0.260 C  
BRANCH  19  20
HETATM   20  C   UNL     1      -9.671  10.965  64.625  1.00  0.00    -0.333 C  
BRANCH  20  21
HETATM   21  C   UNL     1      -9.929  12.092  63.624  1.00  0.00    -0.347 C  
BRANCH  21  22
HETATM   22  C   UNL     1     -11.012  13.006  64.115  1.00  0.00    -0.438 C  
HETATM   23  C   UNL     1     -10.808  14.278  64.482  1.00  0.00    -0.305 C  
ENDBRANCH  21  22
ENDBRANCH  20  21
ENDBRANCH  19  20
ENDBRANCH  18  19
ENDBRANCH  17  18
ENDBRANCH  16  17
ENDBRANCH  15  16
ENDBRANCH  14  15
ENDBRANCH  11  14
ENDBRANCH   5  10
ENDBRANCH   3   5
ENDBRANCH   2   3
TORSDOF 13
ENDMDL
MODEL      335
REMARK 921   NORMALIZED FREE ENERGY PREDICTED BY IDOCK:   -2.28 KCAL/MOL
REMARK 922        TOTAL FREE ENERGY PREDICTED BY IDOCK:   -6.12 KCAL/MOL
REMARK 923 INTER-LIGAND FREE ENERGY PREDICTED BY IDOCK:   -4.94 KCAL/MOL
REMARK 924 INTRA-LIGAND FREE ENERGY PREDICTED BY IDOCK:   -1.18 KCAL/MOL
REMARK 927      BINDING AFFINITY PREDICTED BY RF-SCORE:    0.00 PKD
ROOT
HETATM    1  C   UNL     1      -9.779   9.285  70.585  1.00  0.00    -0.272 C  
HETATM    2  O   UNL     1      -9.356   9.984  69.415  1.00  0.00    -0.197 OA 
ENDROOT
BRANCH   2   3
HETATM    3  C   UNL     1      -8.116   9.656  68.953  1.00  0.00    -0.098 C  
HETATM    4  O   UNL     1      -7.317   8.921  69.521  1.00  0.00    -0.067 OA 
BRANCH   3   5
HETATM    5  C   UNL     1      -7.875  10.326  67.597  1.00  0.00    -0.098 C  
BRANCH   5   6
HETATM    6  C   UNL     1      -6.889  11.497  67.705  1.00  0.00    -0.077 C  
HETATM    7  C   UNL     1      -8.539  13.107  68.806  1.00  0.00     0.148 C  
HETATM    8  C   UNL     1      -6.433  13.969  67.770  1.00  0.00    -0.181 C  
HETATM    9  C   UNL     1      -7.526  12.900  67.679  1.00  0.00    -0.148 C  
ENDBRANCH   5   6
BRANCH   5  10
HETATM   10  N   UNL     1      -9.153  10.802  67.068  1.00  0.00    -0.144 N  
HETATM   11  C   UNL     1      -9.539  10.511  65.781  1.00  0.00    -0.210 C  
HETATM   12  H   UNL     1      -9.768  11.358  67.663  1.00  0.00     0.000 HD 
HETATM   13  O   UNL     1      -8.866   9.844  65.003  1.00  0.00    -0.162 OA 
BRANCH  11  14
HETATM   14  C   UNL     1     -10.858  11.123  65.377  1.00  0.00    -0.212 C  
BRANCH  14  15
HETATM   15  C   UNL     1     -10.655  12.102  64.223  1.00  0.00    -0.385 C  
BRANCH  15  16
HETATM   16  C   UNL     1     -10.345  13.523  64.696  1.00  0.00    -0.406 C  
BRANCH  16  17
HETATM   17  C   UNL     1     -11.135  13.901  65.946  1.00  0.00    -0.291 C  
BRANCH  17  18
HETATM   18  C   UNL     1     -10.597  15.168  66.604  1.00  0.00    -0.304 C  
BRANCH  18  19
HETATM   19  C   UNL     1     -11.213  15.339  67.991  1.00  0.00    -0.330 C  
BRANCH  19  20
HETATM   20  C   UNL     1     -12.037  14.117  68.387  1.00  0.00    -0.308 C  
BRANCH  20  21
HETATM   21  C   UNL     1     -11.667  13.643  69.793  1.00  0.00    -0.364 C  
BRANCH  21  22
HETATM   22  C   UNL     1     -12.247  14.552  70.835  1.00  0.00    -0.409 C  
HETATM   23  C   UNL     1     -13.524  14.510  71.236  1.00  0.00    -0.428 C  
ENDBRANCH  21  22
ENDBRANCH  20  21
ENDBRANCH  19  20
ENDBRANCH  18  19
ENDBRANCH  17  18
ENDBRANCH  16  17
ENDBRANCH  15  16
ENDBRANCH  14  15
ENDBRANCH  11  14
ENDBRANCH   5  10
ENDBRANCH   3   5
ENDBRANCH   2   3
TORSDOF 13
ENDMDL
MODEL      336
REMARK 921   NORMALIZED FREE ENERGY PREDICTED BY IDOCK:   -2.28 KCAL/MOL
REMARK 922        TOTAL FREE ENERGY PREDICTED BY IDOCK:   -6.11 KCAL/MOL
REMARK 923 INTER-LIGAND FREE ENERGY PREDICTED BY IDOCK:   -5.33 KCAL/MOL
REMARK 924 INTRA-LIGAND FREE ENERGY PREDICTED BY IDOCK:   -0.78 KCAL/MOL
REMARK 927      BINDING AFFINITY PREDICTED BY RF-SCORE:    0.00 PKD
ROOT
HETATM    1  C   UNL     1      -9.742   5.382  67.227  1.00  0.00    -0.144 C  
HETATM    2  O   UNL     1      -9.833   6.776  67.510  1.00  0.00    -0.124 OA 
ENDROOT
BRANCH   2   3
HETATM    3  C   UNL     1     -10.622   7.108  68.571  1.00  0.00    -0.187 C  
HETATM    4  O   UNL     1     -11.489   6.396  69.062  1.00  0.00    -0.337 OA 
BRANCH   3   5
HETATM    5  C   UNL     1     -10.245   8.503  69.081  1.00  0.00    -0.211 C  
BRANCH   5   6
HETATM    6  C   UNL     1     -10.301   8.586  70.612  1.00  0.00    -0.232 C  
HETATM    7  C   UNL     1      -7.794   8.254  70.968  1.00  0.00    -0.097 C  
HETATM    8  C   UNL     1      -9.391   7.952  72.868  1.00  0.00    -0.309 C  
HETATM    9  C   UNL     1      -9.202   7.802  71.355  1.00  0.00    -0.156 C  
ENDBRANCH   5   6
BRANCH   5  10
HETATM   10  N   UNL     1     -11.160   9.484  68.498  1.00  0.00    -0.473 N  
HETATM   11  C   UNL     1     -10.684  10.619  67.885  1.00  0.00    -0.248 C  
HETATM   12  H   UNL     1     -12.167   9.324  68.546  1.00  0.00     0.000 HD 
HETATM   13  O   UNL     1      -9.492  10.885  67.777  1.00  0.00    -0.154 OA 
BRANCH  11  14
HETATM   14  C   UNL     1     -11.761  11.551  67.387  1.00  0.00    -0.231 C  
BRANCH  14  15
HETATM   15  C   UNL     1     -11.590  12.936  68.007  1.00  0.00    -0.385 C  
BRANCH  15  16
HETATM   16  C   UNL     1     -11.303  14.022  66.968  1.00  0.00    -0.346 C  
BRANCH  16  17
HETATM   17  C   UNL     1     -10.400  15.124  67.518  1.00  0.00    -0.242 C  
BRANCH  17  18
HETATM   18  C   UNL     1     -10.309  16.316  66.571  1.00  0.00    -0.310 C  
BRANCH  18  19
HETATM   19  C   UNL     1      -8.883  16.456  66.042  1.00  0.00    -0.296 C  
BRANCH  19  20
HETATM   20  C   UNL     1      -8.100  17.505  66.828  1.00  0.00    -0.275 C  
BRANCH  20  21
HETATM   21  C   UNL     1      -6.615  17.460  66.467  1.00  0.00    -0.282 C  
BRANCH  21  22
HETATM   22  C   UNL     1      -5.826  16.759  67.532  1.00  0.00    -0.177 C  
HETATM   23  C   UNL     1      -6.375  16.045  68.522  1.00  0.00    -0.115 C  
ENDBRANCH  21  22
ENDBRANCH  20  21
ENDBRANCH  19  20
ENDBRANCH  18  19
ENDBRANCH  17  18
ENDBRANCH  16  17
ENDBRANCH  15  16
ENDBRANCH  14  15
ENDBRANCH  11  14
ENDBRANCH   5  10
ENDBRANCH   3   5
ENDBRANCH   2   3
TORSDOF 13
ENDMDL
MODEL      337
REMARK 921   NORMALIZED FREE ENERGY PREDICTED BY IDOCK:   -2.27 KCAL/MOL
REMARK 922        TOTAL FREE ENERGY PREDICTED BY IDOCK:   -6.11 KCAL/MOL
REMARK 923 INTER-LIGAND FREE ENERGY PREDICTED BY IDOCK:   -5.63 KCAL/MOL
REMARK 924 INTRA-LIGAND FREE ENERGY PREDICTED BY IDOCK:   -0.48 KCAL/MOL
REMARK 927      BINDING AFFINITY PREDICTED BY RF-SCORE:    0.00 PKD
ROOT
HETATM    1  C   UNL     1      -9.238  10.481  62.524  1.00  0.00    -0.297 C  
HETATM    2  O   UNL     1      -9.847  11.671  63.021  1.00  0.00    -0.393 OA 
ENDROOT
BRANCH   2   3
HETATM    3  C   UNL     1     -10.417  11.565  64.255  1.00  0.00    -0.338 C  
HETATM    4  O   UNL     1     -11.545  11.941  64.551  1.00  0.00    -0.322 OA 
BRANCH   3   5
HETATM    5  C   UNL     1      -9.443  10.880  65.219  1.00  0.00    -0.217 C  
BRANCH   5   6
HETATM    6  C   UNL     1      -9.973   9.522  65.697  1.00  0.00    -0.269 C  
HETATM    7  C   UNL     1     -11.264  10.450  67.696  1.00  0.00    -0.287 C  
HETATM    8  C   UNL     1     -10.747   8.008  67.550  1.00  0.00    -0.238 C  
HETATM    9  C   UNL     1     -10.248   9.416  67.209  1.00  0.00    -0.308 C  
ENDBRANCH   5   6
BRANCH   5  10
HETATM   10  N   UNL     1      -9.219  11.757  66.369  1.00  0.00    -0.214 N  
HETATM   11  C   UNL     1      -7.971  11.878  66.933  1.00  0.00    -0.132 C  
HETATM   12  H   UNL     1      -9.999  12.286  66.758  1.00  0.00     0.000 HD 
HETATM   13  O   UNL     1      -6.978  11.286  66.524  1.00  0.00    -0.140 OA 
BRANCH  11  14
HETATM   14  C   UNL     1      -7.924  12.779  68.143  1.00  0.00    -0.156 C  
BRANCH  14  15
HETATM   15  C   UNL     1      -8.385  14.186  67.772  1.00  0.00    -0.175 C  
BRANCH  15  16
HETATM   16  C   UNL     1      -9.670  14.600  68.493  1.00  0.00    -0.225 C  
BRANCH  16  17
HETATM   17  C   UNL     1      -9.668  16.079  68.875  1.00  0.00    -0.232 C  
BRANCH  17  18
HETATM   18  C   UNL     1     -10.706  16.874  68.091  1.00  0.00    -0.375 C  
BRANCH  18  19
HETATM   19  C   UNL     1     -10.183  17.178  66.688  1.00  0.00    -0.319 C  
BRANCH  19  20
HETATM   20  C   UNL     1      -8.897  17.997  66.741  1.00  0.00    -0.274 C  
BRANCH  20  21
HETATM   21  C   UNL     1      -7.708  17.177  66.240  1.00  0.00    -0.350 C  
BRANCH  21  22
HETATM   22  C   UNL     1      -6.494  17.421  67.085  1.00  0.00    -0.191 C  
HETATM   23  C   UNL     1      -5.691  16.450  67.539  1.00  0.00    -0.177 C  
ENDBRANCH  21  22
ENDBRANCH  20  21
ENDBRANCH  19  20
ENDBRANCH  18  19
ENDBRANCH  17  18
ENDBRANCH  16  17
ENDBRANCH  15  16
ENDBRANCH  14  15
ENDBRANCH  11  14
ENDBRANCH   5  10
ENDBRANCH   3   5
ENDBRANCH   2   3
TORSDOF 13
ENDMDL
MODEL      338
REMARK 921   NORMALIZED FREE ENERGY PREDICTED BY IDOCK:   -2.27 KCAL/MOL
REMARK 922        TOTAL FREE ENERGY PREDICTED BY IDOCK:   -6.10 KCAL/MOL
REMARK 923 INTER-LIGAND FREE ENERGY PREDICTED BY IDOCK:   -4.79 KCAL/MOL
REMARK 924 INTRA-LIGAND FREE ENERGY PREDICTED BY IDOCK:   -1.32 KCAL/MOL
REMARK 927      BINDING AFFINITY PREDICTED BY RF-SCORE:    0.00 PKD
ROOT
HETATM    1  C   UNL     1      -9.707   4.012  66.122  1.00  0.00    -0.186 C  
HETATM    2  O   UNL     1      -8.571   4.705  66.634  1.00  0.00    -0.109 OA 
ENDROOT
BRANCH   2   3
HETATM    3  C   UNL     1      -8.285   5.891  66.025  1.00  0.00    -0.123 C  
HETATM    4  O   UNL     1      -8.340   6.103  64.820  1.00  0.00    -0.135 OA 
BRANCH   3   5
HETATM    5  C   UNL     1      -7.907   6.937  67.079  1.00  0.00    -0.111 C  
BRANCH   5   6
HETATM    6  C   UNL     1      -8.263   6.474  68.498  1.00  0.00    -0.121 C  
HETATM    7  C   UNL     1      -7.323   8.538  69.673  1.00  0.00    -0.060 C  
HETATM    8  C   UNL     1      -7.799   6.453  70.969  1.00  0.00    -0.110 C  
HETATM    9  C   UNL     1      -7.347   7.010  69.615  1.00  0.00    -0.086 C  
ENDBRANCH   5   6
BRANCH   5  10
HETATM   10  N   UNL     1      -8.603   8.188  66.777  1.00  0.00    -0.128 N  
HETATM   11  C   UNL     1      -9.976   8.242  66.741  1.00  0.00    -0.285 C  
HETATM   12  H   UNL     1      -8.062   9.033  66.590  1.00  0.00     0.000 HD 
HETATM   13  O   UNL     1     -10.702   7.279  66.960  1.00  0.00    -0.332 OA 
BRANCH  11  14
HETATM   14  C   UNL     1     -10.532   9.593  66.361  1.00  0.00    -0.181 C  
BRANCH  14  15
HETATM   15  C   UNL     1     -10.319  10.591  67.497  1.00  0.00    -0.265 C  
BRANCH  15  16
HETATM   16  C   UNL     1     -11.354  10.448  68.615  1.00  0.00    -0.277 C  
BRANCH  16  17
HETATM   17  C   UNL     1     -10.715  10.481  70.002  1.00  0.00    -0.282 C  
BRANCH  17  18
HETATM   18  C   UNL     1     -11.259   9.382  70.909  1.00  0.00    -0.393 C  
BRANCH  18  19
HETATM   19  C   UNL     1     -11.087   8.019  70.240  1.00  0.00    -0.224 C  
BRANCH  19  20
HETATM   20  C   UNL     1     -11.961   6.960  70.906  1.00  0.00    -0.430 C  
BRANCH  20  21
HETATM   21  C   UNL     1     -11.111   5.803  71.430  1.00  0.00    -0.273 C  
BRANCH  21  22
HETATM   22  C   UNL     1     -11.123   5.764  72.929  1.00  0.00    -0.321 C  
HETATM   23  C   UNL     1     -10.465   6.635  73.705  1.00  0.00    -0.353 C  
ENDBRANCH  21  22
ENDBRANCH  20  21
ENDBRANCH  19  20
ENDBRANCH  18  19
ENDBRANCH  17  18
ENDBRANCH  16  17
ENDBRANCH  15  16
ENDBRANCH  14  15
ENDBRANCH  11  14
ENDBRANCH   5  10
ENDBRANCH   3   5
ENDBRANCH   2   3
TORSDOF 13
ENDMDL
MODEL      339
REMARK 921   NORMALIZED FREE ENERGY PREDICTED BY IDOCK:   -2.27 KCAL/MOL
REMARK 922        TOTAL FREE ENERGY PREDICTED BY IDOCK:   -6.10 KCAL/MOL
REMARK 923 INTER-LIGAND FREE ENERGY PREDICTED BY IDOCK:   -5.56 KCAL/MOL
REMARK 924 INTRA-LIGAND FREE ENERGY PREDICTED BY IDOCK:   -0.54 KCAL/MOL
REMARK 927      BINDING AFFINITY PREDICTED BY RF-SCORE:    0.00 PKD
ROOT
HETATM    1  C   UNL     1      -7.969   4.058  68.997  1.00  0.00    -0.056 C  
HETATM    2  O   UNL     1      -8.965   3.854  67.996  1.00  0.00    -0.104 OA 
ENDROOT
BRANCH   2   3
HETATM    3  C   UNL     1      -9.812   4.901  67.791  1.00  0.00    -0.147 C  
HETATM    4  O   UNL     1     -10.348   5.566  68.670  1.00  0.00    -0.186 OA 
BRANCH   3   5
HETATM    5  C   UNL     1      -9.978   5.147  66.288  1.00  0.00    -0.210 C  
BRANCH   5   6
HETATM    6  C   UNL     1      -9.048   4.254  65.457  1.00  0.00    -0.138 C  
HETATM    7  C   UNL     1     -10.770   3.720  63.647  1.00  0.00    -0.231 C  
HETATM    8  C   UNL     1      -8.706   2.328  63.877  1.00  0.00    -0.086 C  
HETATM    9  C   UNL     1      -9.749   3.155  64.635  1.00  0.00    -0.125 C  
ENDBRANCH   5   6
BRANCH   5  10
HETATM   10  N   UNL     1      -9.699   6.554  66.003  1.00  0.00    -0.395 N  
HETATM   11  C   UNL     1      -8.420   7.050  66.075  1.00  0.00    -0.139 C  
HETATM   12  H   UNL     1     -10.466   7.177  65.747  1.00  0.00     0.000 HD 
HETATM   13  O   UNL     1      -7.441   6.372  66.366  1.00  0.00    -0.082 OA 
BRANCH  11  14
HETATM   14  C   UNL     1      -8.315   8.532  65.805  1.00  0.00    -0.144 C  
BRANCH  14  15
HETATM   15  C   UNL     1      -9.700   9.173  65.834  1.00  0.00    -0.336 C  
BRANCH  15  16
HETATM   16  C   UNL     1      -9.991  10.016  64.591  1.00  0.00    -0.206 C  
BRANCH  16  17
HETATM   17  C   UNL     1      -9.505  11.456  64.742  1.00  0.00    -0.176 C  
BRANCH  17  18
HETATM   18  C   UNL     1     -10.187  12.397  63.754  1.00  0.00    -0.404 C  
BRANCH  18  19
HETATM   19  C   UNL     1     -11.673  12.057  63.648  1.00  0.00    -0.587 C  
BRANCH  19  20
HETATM   20  C   UNL     1     -12.429  12.473  64.907  1.00  0.00    -0.524 C  
BRANCH  20  21
HETATM   21  C   UNL     1     -12.244  13.966  65.185  1.00  0.00    -0.443 C  
BRANCH  21  22
HETATM   22  C   UNL     1     -12.007  14.214  66.645  1.00  0.00    -0.470 C  
HETATM   23  C   UNL     1     -11.973  13.247  67.571  1.00  0.00    -0.371 C  
ENDBRANCH  21  22
ENDBRANCH  20  21
ENDBRANCH  19  20
ENDBRANCH  18  19
ENDBRANCH  17  18
ENDBRANCH  16  17
ENDBRANCH  15  16
ENDBRANCH  14  15
ENDBRANCH  11  14
ENDBRANCH   5  10
ENDBRANCH   3   5
ENDBRANCH   2   3
TORSDOF 13
ENDMDL
MODEL      340
REMARK 921   NORMALIZED FREE ENERGY PREDICTED BY IDOCK:   -2.26 KCAL/MOL
REMARK 922        TOTAL FREE ENERGY PREDICTED BY IDOCK:   -6.08 KCAL/MOL
REMARK 923 INTER-LIGAND FREE ENERGY PREDICTED BY IDOCK:   -5.27 KCAL/MOL
REMARK 924 INTRA-LIGAND FREE ENERGY PREDICTED BY IDOCK:   -0.81 KCAL/MOL
REMARK 927      BINDING AFFINITY PREDICTED BY RF-SCORE:    0.00 PKD
ROOT
HETATM    1  C   UNL     1     -12.565   6.844  71.785  1.00  0.00    -0.344 C  
HETATM    2  O   UNL     1     -11.421   7.662  71.548  1.00  0.00    -0.254 OA 
ENDROOT
BRANCH   2   3
HETATM    3  C   UNL     1     -10.964   7.673  70.264  1.00  0.00    -0.252 C  
HETATM    4  O   UNL     1     -11.313   6.900  69.379  1.00  0.00    -0.203 OA 
BRANCH   3   5
HETATM    5  C   UNL     1      -9.962   8.816  70.079  1.00  0.00    -0.187 C  
BRANCH   5   6
HETATM    6  C   UNL     1      -9.006   8.937  71.273  1.00  0.00    -0.312 C  
HETATM    7  C   UNL     1      -7.193   7.430  70.291  1.00  0.00    -0.066 C  
HETATM    8  C   UNL     1      -7.200   7.971  72.732  1.00  0.00    -0.116 C  
HETATM    9  C   UNL     1      -8.079   7.728  71.501  1.00  0.00    -0.107 C  
ENDBRANCH   5   6
BRANCH   5  10
HETATM   10  N   UNL     1     -10.699  10.069  69.905  1.00  0.00    -0.265 N  
HETATM   11  C   UNL     1     -10.780  10.676  68.674  1.00  0.00    -0.207 C  
HETATM   12  H   UNL     1     -11.158  10.498  70.708  1.00  0.00     0.000 HD 
HETATM   13  O   UNL     1     -10.266  10.225  67.657  1.00  0.00    -0.184 OA 
BRANCH  11  14
HETATM   14  C   UNL     1     -11.529  11.986  68.680  1.00  0.00    -0.350 C  
BRANCH  14  15
HETATM   15  C   UNL     1     -11.306  12.728  67.363  1.00  0.00    -0.363 C  
BRANCH  15  16
HETATM   16  C   UNL     1     -10.070  13.628  67.390  1.00  0.00    -0.241 C  
BRANCH  16  17
HETATM   17  C   UNL     1     -10.310  14.916  68.175  1.00  0.00    -0.237 C  
BRANCH  17  18
HETATM   18  C   UNL     1     -10.149  16.157  67.303  1.00  0.00    -0.265 C  
BRANCH  18  19
HETATM   19  C   UNL     1      -8.905  16.023  66.426  1.00  0.00    -0.363 C  
BRANCH  19  20
HETATM   20  C   UNL     1      -7.641  16.401  67.194  1.00  0.00    -0.224 C  
BRANCH  20  21
HETATM   21  C   UNL     1      -7.437  17.917  67.193  1.00  0.00    -0.215 C  
BRANCH  21  22
HETATM   22  C   UNL     1      -6.720  18.360  65.953  1.00  0.00    -0.312 C  
HETATM   23  C   UNL     1      -5.388  18.448  65.851  1.00  0.00    -0.202 C  
ENDBRANCH  21  22
ENDBRANCH  20  21
ENDBRANCH  19  20
ENDBRANCH  18  19
ENDBRANCH  17  18
ENDBRANCH  16  17
ENDBRANCH  15  16
ENDBRANCH  14  15
ENDBRANCH  11  14
ENDBRANCH   5  10
ENDBRANCH   3   5
ENDBRANCH   2   3
TORSDOF 13
ENDMDL
MODEL      341
REMARK 921   NORMALIZED FREE ENERGY PREDICTED BY IDOCK:   -2.25 KCAL/MOL
REMARK 922        TOTAL FREE ENERGY PREDICTED BY IDOCK:   -6.07 KCAL/MOL
REMARK 923 INTER-LIGAND FREE ENERGY PREDICTED BY IDOCK:   -5.63 KCAL/MOL
REMARK 924 INTRA-LIGAND FREE ENERGY PREDICTED BY IDOCK:   -0.44 KCAL/MOL
REMARK 927      BINDING AFFINITY PREDICTED BY RF-SCORE:    0.00 PKD
ROOT
HETATM    1  C   UNL     1      -7.512   7.533  73.007  1.00  0.00    -0.084 C  
HETATM    2  O   UNL     1      -8.484   8.577  72.996  1.00  0.00    -0.360 OA 
ENDROOT
BRANCH   2   3
HETATM    3  C   UNL     1      -9.782   8.168  73.061  1.00  0.00    -0.257 C  
HETATM    4  O   UNL     1     -10.252   7.425  73.915  1.00  0.00    -0.317 OA 
BRANCH   3   5
HETATM    5  C   UNL     1     -10.583   8.800  71.917  1.00  0.00    -0.354 C  
BRANCH   5   6
HETATM    6  C   UNL     1     -12.087   8.829  72.220  1.00  0.00    -0.423 C  
HETATM    7  C   UNL     1     -12.476   6.345  71.772  1.00  0.00    -0.199 C  
HETATM    8  C   UNL     1     -14.407   7.932  71.851  1.00  0.00    -0.549 C  
HETATM    9  C   UNL     1     -12.929   7.775  71.477  1.00  0.00    -0.357 C  
ENDBRANCH   5   6
BRANCH   5  10
HETATM   10  N   UNL     1     -10.339   8.039  70.691  1.00  0.00    -0.200 N  
HETATM   11  C   UNL     1      -9.561   8.555  69.682  1.00  0.00    -0.170 C  
HETATM   12  H   UNL     1     -10.751   7.112  70.584  1.00  0.00     0.000 HD 
HETATM   13  O   UNL     1      -9.022   9.655  69.732  1.00  0.00    -0.178 OA 
BRANCH  11  14
HETATM   14  C   UNL     1      -9.456   7.667  68.467  1.00  0.00    -0.147 C  
BRANCH  14  15
HETATM   15  C   UNL     1      -8.855   8.442  67.296  1.00  0.00    -0.137 C  
BRANCH  15  16
HETATM   16  C   UNL     1      -9.913   8.972  66.328  1.00  0.00    -0.352 C  
BRANCH  16  17
HETATM   17  C   UNL     1      -9.796  10.479  66.112  1.00  0.00    -0.271 C  
BRANCH  17  18
HETATM   18  C   UNL     1     -11.046  11.223  66.572  1.00  0.00    -0.280 C  
BRANCH  18  19
HETATM   19  C   UNL     1     -10.860  11.723  68.003  1.00  0.00    -0.256 C  
BRANCH  19  20
HETATM   20  C   UNL     1      -9.418  12.155  68.257  1.00  0.00    -0.204 C  
BRANCH  20  21
HETATM   21  C   UNL     1      -9.177  13.574  67.743  1.00  0.00    -0.213 C  
BRANCH  21  22
HETATM   22  C   UNL     1      -7.805  14.052  68.115  1.00  0.00    -0.144 C  
HETATM   23  C   UNL     1      -6.674  13.556  67.598  1.00  0.00    -0.176 C  
ENDBRANCH  21  22
ENDBRANCH  20  21
ENDBRANCH  19  20
ENDBRANCH  18  19
ENDBRANCH  17  18
ENDBRANCH  16  17
ENDBRANCH  15  16
ENDBRANCH  14  15
ENDBRANCH  11  14
ENDBRANCH   5  10
ENDBRANCH   3   5
ENDBRANCH   2   3
TORSDOF 13
ENDMDL
MODEL      342
REMARK 921   NORMALIZED FREE ENERGY PREDICTED BY IDOCK:   -2.25 KCAL/MOL
REMARK 922        TOTAL FREE ENERGY PREDICTED BY IDOCK:   -6.06 KCAL/MOL
REMARK 923 INTER-LIGAND FREE ENERGY PREDICTED BY IDOCK:   -5.35 KCAL/MOL
REMARK 924 INTRA-LIGAND FREE ENERGY PREDICTED BY IDOCK:   -0.71 KCAL/MOL
REMARK 927      BINDING AFFINITY PREDICTED BY RF-SCORE:    0.00 PKD
ROOT
HETATM    1  C   UNL     1      -6.530  13.015  68.350  1.00  0.00    -0.084 C  
HETATM    2  O   UNL     1      -7.719  13.650  67.882  1.00  0.00    -0.126 OA 
ENDROOT
BRANCH   2   3
HETATM    3  C   UNL     1      -7.532  14.815  67.200  1.00  0.00    -0.034 C  
HETATM    4  O   UNL     1      -6.472  15.423  67.110  1.00  0.00    -0.300 OA 
BRANCH   3   5
HETATM    5  C   UNL     1      -8.843  15.243  66.534  1.00  0.00    -0.300 C  
BRANCH   5   6
HETATM    6  C   UNL     1      -9.694  16.122  67.460  1.00  0.00    -0.233 C  
HETATM    7  C   UNL     1      -9.077  18.332  66.337  1.00  0.00    -0.260 C  
HETATM    8  C   UNL     1     -10.107  18.318  68.615  1.00  0.00    -0.407 C  
HETATM    9  C   UNL     1      -9.182  17.563  67.654  1.00  0.00    -0.243 C  
ENDBRANCH   5   6
BRANCH   5  10
HETATM   10  N   UNL     1      -9.597  14.047  66.157  1.00  0.00    -0.429 N  
HETATM   11  C   UNL     1     -10.756  14.143  65.425  1.00  0.00    -0.342 C  
HETATM   12  H   UNL     1      -9.256  13.128  66.441  1.00  0.00     0.000 HD 
HETATM   13  O   UNL     1     -11.231  15.204  65.037  1.00  0.00    -0.376 OA 
BRANCH  11  14
HETATM   14  C   UNL     1     -11.437  12.820  65.169  1.00  0.00    -0.356 C  
BRANCH  14  15
HETATM   15  C   UNL     1     -10.606  11.976  64.204  1.00  0.00    -0.398 C  
BRANCH  15  16
HETATM   16  C   UNL     1     -10.064  10.699  64.848  1.00  0.00    -0.402 C  
BRANCH  16  17
HETATM   17  C   UNL     1      -8.781  10.214  64.177  1.00  0.00    -0.216 C  
BRANCH  17  18
HETATM   18  C   UNL     1      -8.491   8.749  64.487  1.00  0.00    -0.158 C  
BRANCH  18  19
HETATM   19  C   UNL     1      -9.283   8.308  65.717  1.00  0.00    -0.142 C  
BRANCH  19  20
HETATM   20  C   UNL     1      -8.508   7.280  66.537  1.00  0.00    -0.125 C  
BRANCH  20  21
HETATM   21  C   UNL     1      -9.213   5.923  66.516  1.00  0.00    -0.154 C  
BRANCH  21  22
HETATM   22  C   UNL     1      -8.526   4.976  65.579  1.00  0.00    -0.134 C  
HETATM   23  C   UNL     1      -8.720   4.963  64.254  1.00  0.00    -0.130 C  
ENDBRANCH  21  22
ENDBRANCH  20  21
ENDBRANCH  19  20
ENDBRANCH  18  19
ENDBRANCH  17  18
ENDBRANCH  16  17
ENDBRANCH  15  16
ENDBRANCH  14  15
ENDBRANCH  11  14
ENDBRANCH   5  10
ENDBRANCH   3   5
ENDBRANCH   2   3
TORSDOF 13
ENDMDL
MODEL      343
REMARK 921   NORMALIZED FREE ENERGY PREDICTED BY IDOCK:   -2.24 KCAL/MOL
REMARK 922        TOTAL FREE ENERGY PREDICTED BY IDOCK:   -6.04 KCAL/MOL
REMARK 923 INTER-LIGAND FREE ENERGY PREDICTED BY IDOCK:   -5.27 KCAL/MOL
REMARK 924 INTRA-LIGAND FREE ENERGY PREDICTED BY IDOCK:   -0.77 KCAL/MOL
REMARK 927      BINDING AFFINITY PREDICTED BY RF-SCORE:    0.00 PKD
ROOT
HETATM    1  C   UNL     1     -11.156  16.643  68.184  1.00  0.00    -0.285 C  
HETATM    2  O   UNL     1     -11.878  15.415  68.117  1.00  0.00    -0.320 OA 
ENDROOT
BRANCH   2   3
HETATM    3  C   UNL     1     -11.195  14.363  67.585  1.00  0.00    -0.313 C  
HETATM    4  O   UNL     1     -11.378  13.885  66.472  1.00  0.00    -0.314 OA 
BRANCH   3   5
HETATM    5  C   UNL     1     -10.136  13.876  68.580  1.00  0.00    -0.234 C  
BRANCH   5   6
HETATM    6  C   UNL     1      -8.726  13.905  67.974  1.00  0.00    -0.183 C  
HETATM    7  C   UNL     1      -7.717  15.415  69.770  1.00  0.00    -0.078 C  
HETATM    8  C   UNL     1      -6.537  15.081  67.591  1.00  0.00    -0.193 C  
HETATM    9  C   UNL     1      -7.907  15.175  68.272  1.00  0.00    -0.124 C  
ENDBRANCH   5   6
BRANCH   5  10
HETATM   10  N   UNL     1     -10.468  12.514  68.998  1.00  0.00    -0.426 N  
HETATM   11  C   UNL     1     -11.479  12.277  69.899  1.00  0.00    -0.114 C  
HETATM   12  H   UNL     1      -9.942  11.728  68.615  1.00  0.00     0.000 HD 
HETATM   13  O   UNL     1     -12.164  13.160  70.402  1.00  0.00    -0.345 OA 
BRANCH  11  14
HETATM   14  C   UNL     1     -11.654  10.823  70.264  1.00  0.00    -0.427 C  
BRANCH  14  15
HETATM   15  C   UNL     1     -10.484   9.999  69.729  1.00  0.00    -0.291 C  
BRANCH  15  16
HETATM   16  C   UNL     1      -9.727   9.256  70.832  1.00  0.00    -0.346 C  
BRANCH  16  17
HETATM   17  C   UNL     1      -8.213   9.339  70.651  1.00  0.00    -0.224 C  
BRANCH  17  18
HETATM   18  C   UNL     1      -7.756   8.691  69.349  1.00  0.00    -0.091 C  
BRANCH  18  19
HETATM   19  C   UNL     1      -8.219   9.528  68.158  1.00  0.00    -0.114 C  
BRANCH  19  20
HETATM   20  C   UNL     1      -8.637   8.643  66.986  1.00  0.00    -0.120 C  
BRANCH  20  21
HETATM   21  C   UNL     1      -9.119   7.279  67.480  1.00  0.00    -0.125 C  
BRANCH  21  22
HETATM   22  C   UNL     1     -10.613   7.249  67.600  1.00  0.00    -0.316 C  
HETATM   23  C   UNL     1     -11.276   6.531  68.516  1.00  0.00    -0.287 C  
ENDBRANCH  21  22
ENDBRANCH  20  21
ENDBRANCH  19  20
ENDBRANCH  18  19
ENDBRANCH  17  18
ENDBRANCH  16  17
ENDBRANCH  15  16
ENDBRANCH  14  15
ENDBRANCH  11  14
ENDBRANCH   5  10
ENDBRANCH   3   5
ENDBRANCH   2   3
TORSDOF 13
ENDMDL
MODEL      344
REMARK 921   NORMALIZED FREE ENERGY PREDICTED BY IDOCK:   -2.23 KCAL/MOL
REMARK 922        TOTAL FREE ENERGY PREDICTED BY IDOCK:   -6.04 KCAL/MOL
REMARK 923 INTER-LIGAND FREE ENERGY PREDICTED BY IDOCK:   -4.46 KCAL/MOL
REMARK 924 INTRA-LIGAND FREE ENERGY PREDICTED BY IDOCK:   -1.58 KCAL/MOL
REMARK 927      BINDING AFFINITY PREDICTED BY RF-SCORE:    0.00 PKD
ROOT
HETATM    1  C   UNL     1     -11.585  13.326  69.043  1.00  0.00    -0.312 C  
HETATM    2  O   UNL     1     -10.436  12.591  68.626  1.00  0.00    -0.230 OA 
ENDROOT
BRANCH   2   3
HETATM    3  C   UNL     1     -10.555  11.234  68.687  1.00  0.00    -0.202 C  
HETATM    4  O   UNL     1     -11.587  10.602  68.497  1.00  0.00    -0.289 OA 
BRANCH   3   5
HETATM    5  C   UNL     1      -9.194  10.608  69.006  1.00  0.00    -0.167 C  
BRANCH   5   6
HETATM    6  C   UNL     1      -8.213  10.747  67.834  1.00  0.00    -0.113 C  
HETATM    7  C   UNL     1      -6.161  11.206  69.285  1.00  0.00    -0.066 C  
HETATM    8  C   UNL     1      -6.123  11.732  66.841  1.00  0.00    -0.140 C  
HETATM    9  C   UNL     1      -7.003  11.665  68.093  1.00  0.00    -0.071 C  
ENDBRANCH   5   6
BRANCH   5  10
HETATM   10  N   UNL     1      -9.386   9.193  69.326  1.00  0.00    -0.154 N  
HETATM   11  C   UNL     1      -8.913   8.664  70.503  1.00  0.00    -0.164 C  
HETATM   12  H   UNL     1      -9.878   8.591  68.666  1.00  0.00     0.000 HD 
HETATM   13  O   UNL     1      -8.320   9.318  71.354  1.00  0.00    -0.323 OA 
BRANCH  11  14
HETATM   14  C   UNL     1      -9.146   7.180  70.652  1.00  0.00    -0.158 C  
BRANCH  14  15
HETATM   15  C   UNL     1     -10.566   6.916  71.150  1.00  0.00    -0.246 C  
BRANCH  15  16
HETATM   16  C   UNL     1     -11.470   6.312  70.074  1.00  0.00    -0.460 C  
BRANCH  16  17
HETATM   17  C   UNL     1     -10.675   5.768  68.889  1.00  0.00    -0.334 C  
BRANCH  17  18
HETATM   18  C   UNL     1     -11.112   6.394  67.569  1.00  0.00    -0.401 C  
BRANCH  18  19
HETATM   19  C   UNL     1      -9.887   6.782  66.743  1.00  0.00    -0.236 C  
BRANCH  19  20
HETATM   20  C   UNL     1      -8.694   5.885  67.064  1.00  0.00    -0.109 C  
BRANCH  20  21
HETATM   21  C   UNL     1      -7.662   5.928  65.937  1.00  0.00    -0.095 C  
BRANCH  21  22
HETATM   22  C   UNL     1      -8.098   5.082  64.779  1.00  0.00    -0.113 C  
HETATM   23  C   UNL     1      -8.350   5.564  63.555  1.00  0.00    -0.076 C  
ENDBRANCH  21  22
ENDBRANCH  20  21
ENDBRANCH  19  20
ENDBRANCH  18  19
ENDBRANCH  17  18
ENDBRANCH  16  17
ENDBRANCH  15  16
ENDBRANCH  14  15
ENDBRANCH  11  14
ENDBRANCH   5  10
ENDBRANCH   3   5
ENDBRANCH   2   3
TORSDOF 13
ENDMDL
MODEL      345
REMARK 921   NORMALIZED FREE ENERGY PREDICTED BY IDOCK:   -2.23 KCAL/MOL
REMARK 922        TOTAL FREE ENERGY PREDICTED BY IDOCK:   -6.03 KCAL/MOL
REMARK 923 INTER-LIGAND FREE ENERGY PREDICTED BY IDOCK:   -5.13 KCAL/MOL
REMARK 924 INTRA-LIGAND FREE ENERGY PREDICTED BY IDOCK:   -0.89 KCAL/MOL
REMARK 927      BINDING AFFINITY PREDICTED BY RF-SCORE:    0.00 PKD
ROOT
HETATM    1  C   UNL     1     -13.033   6.679  71.974  1.00  0.00    -0.062 C  
HETATM    2  O   UNL     1     -11.711   6.146  71.918  1.00  0.00    -0.309 OA 
ENDROOT
BRANCH   2   3
HETATM    3  C   UNL     1     -11.037   6.372  70.755  1.00  0.00    -0.307 C  
HETATM    4  O   UNL     1     -11.276   5.836  69.680  1.00  0.00    -0.353 OA 
BRANCH   3   5
HETATM    5  C   UNL     1      -9.945   7.421  70.984  1.00  0.00    -0.183 C  
BRANCH   5   6
HETATM    6  C   UNL     1      -9.142   7.141  72.261  1.00  0.00    -0.148 C  
HETATM    7  C   UNL     1      -6.933   8.064  71.369  1.00  0.00    -0.054 C  
HETATM    8  C   UNL     1      -6.964   6.602  73.396  1.00  0.00    -0.076 C  
HETATM    9  C   UNL     1      -7.636   6.890  72.050  1.00  0.00    -0.093 C  
ENDBRANCH   5   6
BRANCH   5  10
HETATM   10  N   UNL     1     -10.568   8.743  71.070  1.00  0.00    -0.215 N  
HETATM   11  C   UNL     1     -10.909   9.439  69.935  1.00  0.00    -0.236 C  
HETATM   12  H   UNL     1     -10.751   9.153  71.985  1.00  0.00     0.000 HD 
HETATM   13  O   UNL     1     -10.731   9.017  68.797  1.00  0.00    -0.195 OA 
BRANCH  11  14
HETATM   14  C   UNL     1     -11.489  10.807  70.200  1.00  0.00    -0.415 C  
BRANCH  14  15
HETATM   15  C   UNL     1     -11.959  11.444  68.893  1.00  0.00    -0.371 C  
BRANCH  15  16
HETATM   16  C   UNL     1     -10.936  12.419  68.306  1.00  0.00    -0.269 C  
BRANCH  16  17
HETATM   17  C   UNL     1     -11.513  13.236  67.153  1.00  0.00    -0.380 C  
BRANCH  17  18
HETATM   18  C   UNL     1     -11.716  12.393  65.898  1.00  0.00    -0.476 C  
BRANCH  18  19
HETATM   19  C   UNL     1     -11.003  11.050  66.050  1.00  0.00    -0.136 C  
BRANCH  19  20
HETATM   20  C   UNL     1     -10.146  10.735  64.827  1.00  0.00    -0.396 C  
BRANCH  20  21
HETATM   21  C   UNL     1      -8.836  10.062  65.238  1.00  0.00    -0.205 C  
BRANCH  21  22
HETATM   22  C   UNL     1      -8.153  10.840  66.323  1.00  0.00    -0.159 C  
HETATM   23  C   UNL     1      -7.591  10.281  67.403  1.00  0.00    -0.094 C  
ENDBRANCH  21  22
ENDBRANCH  20  21
ENDBRANCH  19  20
ENDBRANCH  18  19
ENDBRANCH  17  18
ENDBRANCH  16  17
ENDBRANCH  15  16
ENDBRANCH  14  15
ENDBRANCH  11  14
ENDBRANCH   5  10
ENDBRANCH   3   5
ENDBRANCH   2   3
TORSDOF 13
ENDMDL
MODEL      346
REMARK 921   NORMALIZED FREE ENERGY PREDICTED BY IDOCK:   -2.19 KCAL/MOL
REMARK 922        TOTAL FREE ENERGY PREDICTED BY IDOCK:   -5.95 KCAL/MOL
REMARK 923 INTER-LIGAND FREE ENERGY PREDICTED BY IDOCK:   -5.69 KCAL/MOL
REMARK 924 INTRA-LIGAND FREE ENERGY PREDICTED BY IDOCK:   -0.27 KCAL/MOL
REMARK 927      BINDING AFFINITY PREDICTED BY RF-SCORE:    0.00 PKD
ROOT
HETATM    1  C   UNL     1      -9.134  11.074  62.699  1.00  0.00    -0.343 C  
HETATM    2  O   UNL     1      -9.679  10.237  63.718  1.00  0.00    -0.302 OA 
ENDROOT
BRANCH   2   3
HETATM    3  C   UNL     1      -9.983  10.863  64.890  1.00  0.00    -0.303 C  
HETATM    4  O   UNL     1     -11.095  11.257  65.218  1.00  0.00    -0.196 OA 
BRANCH   3   5
HETATM    5  C   UNL     1      -8.724  10.981  65.756  1.00  0.00    -0.174 C  
BRANCH   5   6
HETATM    6  C   UNL     1      -8.040   9.622  65.957  1.00  0.00    -0.112 C  
HETATM    7  C   UNL     1     -10.018   8.524  67.143  1.00  0.00    -0.304 C  
HETATM    8  C   UNL     1      -7.739   7.502  67.275  1.00  0.00    -0.116 C  
HETATM    9  C   UNL     1      -8.518   8.818  67.182  1.00  0.00    -0.110 C  
ENDBRANCH   5   6
BRANCH   5  10
HETATM   10  N   UNL     1      -9.093  11.547  67.054  1.00  0.00    -0.170 N  
HETATM   11  C   UNL     1      -9.357  12.889  67.190  1.00  0.00    -0.229 C  
HETATM   12  H   UNL     1      -9.154  10.937  67.869  1.00  0.00     0.000 HD 
HETATM   13  O   UNL     1      -9.315  13.690  66.263  1.00  0.00    -0.231 OA 
BRANCH  11  14
HETATM   14  C   UNL     1      -9.667  13.317  68.604  1.00  0.00    -0.074 C  
BRANCH  14  15
HETATM   15  C   UNL     1     -11.178  13.352  68.826  1.00  0.00    -0.315 C  
BRANCH  15  16
HETATM   16  C   UNL     1     -11.870  12.053  68.408  1.00  0.00    -0.360 C  
BRANCH  16  17
HETATM   17  C   UNL     1     -12.440  11.291  69.602  1.00  0.00    -0.160 C  
BRANCH  17  18
HETATM   18  C   UNL     1     -11.361  10.530  70.365  1.00  0.00    -0.411 C  
BRANCH  18  19
HETATM   19  C   UNL     1     -11.988   9.748  71.518  1.00  0.00    -0.488 C  
BRANCH  19  20
HETATM   20  C   UNL     1     -12.132   8.269  71.171  1.00  0.00    -0.274 C  
BRANCH  20  21
HETATM   21  C   UNL     1     -11.660   7.390  72.330  1.00  0.00    -0.333 C  
BRANCH  21  22
HETATM   22  C   UNL     1     -10.273   7.768  72.758  1.00  0.00    -0.360 C  
HETATM   23  C   UNL     1      -9.698   7.341  73.889  1.00  0.00    -0.323 C  
ENDBRANCH  21  22
ENDBRANCH  20  21
ENDBRANCH  19  20
ENDBRANCH  18  19
ENDBRANCH  17  18
ENDBRANCH  16  17
ENDBRANCH  15  16
ENDBRANCH  14  15
ENDBRANCH  11  14
ENDBRANCH   5  10
ENDBRANCH   3   5
ENDBRANCH   2   3
TORSDOF 13
ENDMDL
MODEL      347
REMARK 921   NORMALIZED FREE ENERGY PREDICTED BY IDOCK:   -2.18 KCAL/MOL
REMARK 922        TOTAL FREE ENERGY PREDICTED BY IDOCK:   -5.94 KCAL/MOL
REMARK 923 INTER-LIGAND FREE ENERGY PREDICTED BY IDOCK:   -4.94 KCAL/MOL
REMARK 924 INTRA-LIGAND FREE ENERGY PREDICTED BY IDOCK:   -0.99 KCAL/MOL
REMARK 927      BINDING AFFINITY PREDICTED BY RF-SCORE:    0.00 PKD
ROOT
HETATM    1  C   UNL     1     -11.871   8.101  72.433  1.00  0.00    -0.388 C  
HETATM    2  O   UNL     1     -11.313   7.966  71.127  1.00  0.00    -0.257 OA 
ENDROOT
BRANCH   2   3
HETATM    3  C   UNL     1     -10.378   6.983  70.990  1.00  0.00    -0.200 C  
HETATM    4  O   UNL     1     -10.172   6.081  71.792  1.00  0.00    -0.194 OA 
BRANCH   3   5
HETATM    5  C   UNL     1      -9.634   7.158  69.662  1.00  0.00    -0.154 C  
BRANCH   5   6
HETATM    6  C   UNL     1      -8.116   7.002  69.833  1.00  0.00    -0.125 C  
HETATM    7  C   UNL     1      -7.756   5.712  67.658  1.00  0.00    -0.097 C  
HETATM    8  C   UNL     1      -5.995   5.713  69.433  1.00  0.00    -0.020 C  
HETATM    9  C   UNL     1      -7.503   5.756  69.165  1.00  0.00    -0.084 C  
ENDBRANCH   5   6
BRANCH   5  10
HETATM   10  N   UNL     1      -9.938   8.482  69.118  1.00  0.00    -0.187 N  
HETATM   11  C   UNL     1     -10.456   8.624  67.853  1.00  0.00    -0.209 C  
HETATM   12  H   UNL     1      -9.763   9.311  69.686  1.00  0.00     0.000 HD 
HETATM   13  O   UNL     1     -10.703   7.683  67.108  1.00  0.00    -0.332 OA 
BRANCH  11  14
HETATM   14  C   UNL     1     -10.659  10.058  67.426  1.00  0.00    -0.330 C  
BRANCH  14  15
HETATM   15  C   UNL     1      -9.742  10.982  68.224  1.00  0.00    -0.181 C  
BRANCH  15  16
HETATM   16  C   UNL     1      -8.835  11.833  67.333  1.00  0.00    -0.164 C  
BRANCH  16  17
HETATM   17  C   UNL     1      -9.464  13.181  66.989  1.00  0.00    -0.242 C  
BRANCH  17  18
HETATM   18  C   UNL     1     -10.828  13.363  67.647  1.00  0.00    -0.273 C  
BRANCH  18  19
HETATM   19  C   UNL     1     -10.727  14.371  68.791  1.00  0.00    -0.258 C  
BRANCH  19  20
HETATM   20  C   UNL     1     -11.329  13.812  70.077  1.00  0.00    -0.089 C  
BRANCH  20  21
HETATM   21  C   UNL     1     -12.544  14.634  70.511  1.00  0.00    -0.409 C  
BRANCH  21  22
HETATM   22  C   UNL     1     -13.318  13.921  71.579  1.00  0.00    -0.406 C  
HETATM   23  C   UNL     1     -12.967  12.735  72.092  1.00  0.00    -0.344 C  
ENDBRANCH  21  22
ENDBRANCH  20  21
ENDBRANCH  19  20
ENDBRANCH  18  19
ENDBRANCH  17  18
ENDBRANCH  16  17
ENDBRANCH  15  16
ENDBRANCH  14  15
ENDBRANCH  11  14
ENDBRANCH   5  10
ENDBRANCH   3   5
ENDBRANCH   2   3
TORSDOF 13
ENDMDL
MODEL      348
REMARK 921   NORMALIZED FREE ENERGY PREDICTED BY IDOCK:   -2.17 KCAL/MOL
REMARK 922        TOTAL FREE ENERGY PREDICTED BY IDOCK:   -5.93 KCAL/MOL
REMARK 923 INTER-LIGAND FREE ENERGY PREDICTED BY IDOCK:   -4.81 KCAL/MOL
REMARK 924 INTRA-LIGAND FREE ENERGY PREDICTED BY IDOCK:   -1.12 KCAL/MOL
REMARK 927      BINDING AFFINITY PREDICTED BY RF-SCORE:    0.00 PKD
ROOT
HETATM    1  C   UNL     1     -12.554  10.841  70.250  1.00  0.00    -0.276 C  
HETATM    2  O   UNL     1     -11.476  11.046  69.339  1.00  0.00    -0.240 OA 
ENDROOT
BRANCH   2   3
HETATM    3  C   UNL     1     -10.443  10.163  69.446  1.00  0.00    -0.233 C  
HETATM    4  O   UNL     1     -10.455   9.132  70.107  1.00  0.00    -0.197 OA 
BRANCH   3   5
HETATM    5  C   UNL     1      -9.264  10.638  68.591  1.00  0.00    -0.181 C  
BRANCH   5   6
HETATM    6  C   UNL     1      -7.916  10.223  69.195  1.00  0.00    -0.135 C  
HETATM    7  C   UNL     1      -6.663  10.145  66.970  1.00  0.00    -0.078 C  
HETATM    8  C   UNL     1      -5.707   9.038  68.998  1.00  0.00    -0.040 C  
HETATM    9  C   UNL     1      -7.001   9.404  68.264  1.00  0.00    -0.071 C  
ENDBRANCH   5   6
BRANCH   5  10
HETATM   10  N   UNL     1      -9.324  12.095  68.467  1.00  0.00    -0.345 N  
HETATM   11  C   UNL     1      -9.415  12.697  67.235  1.00  0.00    -0.199 C  
HETATM   12  H   UNL     1      -9.298  12.672  69.308  1.00  0.00     0.000 HD 
HETATM   13  O   UNL     1      -9.460  12.080  66.177  1.00  0.00    -0.232 OA 
BRANCH  11  14
HETATM   14  C   UNL     1      -9.411  14.206  67.282  1.00  0.00    -0.229 C  
BRANCH  14  15
HETATM   15  C   UNL     1      -8.195  14.707  68.058  1.00  0.00    -0.145 C  
BRANCH  15  16
HETATM   16  C   UNL     1      -8.129  16.233  68.139  1.00  0.00    -0.158 C  
BRANCH  16  17
HETATM   17  C   UNL     1      -9.432  16.841  68.653  1.00  0.00    -0.255 C  
BRANCH  17  18
HETATM   18  C   UNL     1      -9.352  18.360  68.762  1.00  0.00    -0.301 C  
BRANCH  18  19
HETATM   19  C   UNL     1      -9.454  18.990  67.373  1.00  0.00    -0.347 C  
BRANCH  19  20
HETATM   20  C   UNL     1      -8.402  20.079  67.179  1.00  0.00    -0.381 C  
BRANCH  20  21
HETATM   21  C   UNL     1      -7.340  19.636  66.172  1.00  0.00    -0.300 C  
BRANCH  21  22
HETATM   22  C   UNL     1      -5.961  19.829  66.728  1.00  0.00    -0.174 C  
HETATM   23  C   UNL     1      -5.647  20.756  67.642  1.00  0.00    -0.291 C  
ENDBRANCH  21  22
ENDBRANCH  20  21
ENDBRANCH  19  20
ENDBRANCH  18  19
ENDBRANCH  17  18
ENDBRANCH  16  17
ENDBRANCH  15  16
ENDBRANCH  14  15
ENDBRANCH  11  14
ENDBRANCH   5  10
ENDBRANCH   3   5
ENDBRANCH   2   3
TORSDOF 13
ENDMDL
MODEL      349
REMARK 921   NORMALIZED FREE ENERGY PREDICTED BY IDOCK:   -2.16 KCAL/MOL
REMARK 922        TOTAL FREE ENERGY PREDICTED BY IDOCK:   -5.91 KCAL/MOL
REMARK 923 INTER-LIGAND FREE ENERGY PREDICTED BY IDOCK:   -5.87 KCAL/MOL
REMARK 924 INTRA-LIGAND FREE ENERGY PREDICTED BY IDOCK:   -0.04 KCAL/MOL
REMARK 927      BINDING AFFINITY PREDICTED BY RF-SCORE:    0.00 PKD
ROOT
HETATM    1  C   UNL     1      -9.768   3.265  70.166  1.00  0.00    -0.026 C  
HETATM    2  O   UNL     1     -10.139   4.625  70.384  1.00  0.00    -0.237 OA 
ENDROOT
BRANCH   2   3
HETATM    3  C   UNL     1      -9.413   5.285  71.331  1.00  0.00    -0.151 C  
HETATM    4  O   UNL     1      -8.271   5.006  71.673  1.00  0.00    -0.110 OA 
BRANCH   3   5
HETATM    5  C   UNL     1     -10.232   6.452  71.891  1.00  0.00    -0.195 C  
BRANCH   5   6
HETATM    6  C   UNL     1     -11.665   6.462  71.341  1.00  0.00    -0.364 C  
HETATM    7  C   UNL     1     -12.425   8.505  72.671  1.00  0.00    -0.276 C  
HETATM    8  C   UNL     1     -14.108   6.983  71.621  1.00  0.00    -0.404 C  
HETATM    9  C   UNL     1     -12.728   7.058  72.283  1.00  0.00    -0.002 C  
ENDBRANCH   5   6
BRANCH   5  10
HETATM   10  N   UNL     1      -9.562   7.708  71.550  1.00  0.00    -0.154 N  
HETATM   11  C   UNL     1      -9.535   8.167  70.255  1.00  0.00    -0.170 C  
HETATM   12  H   UNL     1      -9.109   8.251  72.286  1.00  0.00     0.000 HD 
HETATM   13  O   UNL     1     -10.061   7.582  69.314  1.00  0.00    -0.179 OA 
BRANCH  11  14
HETATM   14  C   UNL     1      -8.758   9.447  70.069  1.00  0.00    -0.227 C  
BRANCH  14  15
HETATM   15  C   UNL     1      -9.686  10.566  69.600  1.00  0.00    -0.092 C  
BRANCH  15  16
HETATM   16  C   UNL     1     -10.956  10.678  70.446  1.00  0.00    -0.162 C  
BRANCH  16  17
HETATM   17  C   UNL     1     -12.055  11.468  69.738  1.00  0.00    -0.374 C  
BRANCH  17  18
HETATM   18  C   UNL     1     -11.623  12.896  69.425  1.00  0.00    -0.363 C  
BRANCH  18  19
HETATM   19  C   UNL     1     -12.228  13.861  70.444  1.00  0.00    -0.438 C  
BRANCH  19  20
HETATM   20  C   UNL     1     -12.628  13.135  71.725  1.00  0.00    -0.175 C  
BRANCH  20  21
HETATM   21  C   UNL     1     -13.979  13.637  72.237  1.00  0.00    -0.661 C  
BRANCH  21  22
HETATM   22  C   UNL     1     -13.976  15.130  72.378  1.00  0.00    -0.616 C  
HETATM   23  C   UNL     1     -13.433  15.782  73.414  1.00  0.00    -0.491 C  
ENDBRANCH  21  22
ENDBRANCH  20  21
ENDBRANCH  19  20
ENDBRANCH  18  19
ENDBRANCH  17  18
ENDBRANCH  16  17
ENDBRANCH  15  16
ENDBRANCH  14  15
ENDBRANCH  11  14
ENDBRANCH   5  10
ENDBRANCH   3   5
ENDBRANCH   2   3
TORSDOF 13
ENDMDL
MODEL      350
REMARK 921   NORMALIZED FREE ENERGY PREDICTED BY IDOCK:   -2.15 KCAL/MOL
REMARK 922        TOTAL FREE ENERGY PREDICTED BY IDOCK:   -5.89 KCAL/MOL
REMARK 923 INTER-LIGAND FREE ENERGY PREDICTED BY IDOCK:   -5.17 KCAL/MOL
REMARK 924 INTRA-LIGAND FREE ENERGY PREDICTED BY IDOCK:   -0.72 KCAL/MOL
REMARK 927      BINDING AFFINITY PREDICTED BY RF-SCORE:    0.00 PKD
ROOT
HETATM    1  C   UNL     1     -12.406  14.940  64.217  1.00  0.00    -0.277 C  
HETATM    2  O   UNL     1     -11.298  14.104  64.542  1.00  0.00    -0.372 OA 
ENDROOT
BRANCH   2   3
HETATM    3  C   UNL     1     -11.484  13.275  65.609  1.00  0.00    -0.318 C  
HETATM    4  O   UNL     1     -12.323  12.385  65.680  1.00  0.00    -0.639 OA 
BRANCH   3   5
HETATM    5  C   UNL     1     -10.465  13.604  66.704  1.00  0.00    -0.272 C  
BRANCH   5   6
HETATM    6  C   UNL     1      -9.584  14.801  66.325  1.00  0.00    -0.339 C  
HETATM    7  C   UNL     1     -10.252  16.242  68.326  1.00  0.00    -0.253 C  
HETATM    8  C   UNL     1      -9.137  17.276  66.342  1.00  0.00    -0.281 C  
HETATM    9  C   UNL     1     -10.093  16.173  66.807  1.00  0.00    -0.275 C  
ENDBRANCH   5   6
BRANCH   5  10
HETATM   10  N   UNL     1      -9.628  12.428  66.942  1.00  0.00    -0.213 N  
HETATM   11  C   UNL     1      -8.661  12.433  67.919  1.00  0.00    -0.175 C  
HETATM   12  H   UNL     1      -9.763  11.591  66.374  1.00  0.00     0.000 HD 
HETATM   13  O   UNL     1      -8.438  13.392  68.651  1.00  0.00    -0.113 OA 
BRANCH  11  14
HETATM   14  C   UNL     1      -7.851  11.162  67.996  1.00  0.00    -0.114 C  
BRANCH  14  15
HETATM   15  C   UNL     1      -8.777   9.949  68.058  1.00  0.00    -0.125 C  
BRANCH  15  16
HETATM   16  C   UNL     1      -9.098   9.520  69.491  1.00  0.00    -0.193 C  
BRANCH  16  17
HETATM   17  C   UNL     1      -7.837   9.293  70.323  1.00  0.00    -0.148 C  
BRANCH  17  18
HETATM   18  C   UNL     1      -7.243   7.907  70.097  1.00  0.00    -0.058 C  
BRANCH  18  19
HETATM   19  C   UNL     1      -8.319   6.839  70.289  1.00  0.00    -0.134 C  
BRANCH  19  20
HETATM   20  C   UNL     1      -8.261   6.239  71.691  1.00  0.00    -0.118 C  
BRANCH  20  21
HETATM   21  C   UNL     1      -9.163   7.014  72.653  1.00  0.00    -0.154 C  
BRANCH  21  22
HETATM   22  C   UNL     1     -10.578   7.040  72.157  1.00  0.00    -0.240 C  
HETATM   23  C   UNL     1     -11.443   6.031  72.313  1.00  0.00    -0.364 C  
ENDBRANCH  21  22
ENDBRANCH  20  21
ENDBRANCH  19  20
ENDBRANCH  18  19
ENDBRANCH  17  18
ENDBRANCH  16  17
ENDBRANCH  15  16
ENDBRANCH  14  15
ENDBRANCH  11  14
ENDBRANCH   5  10
ENDBRANCH   3   5
ENDBRANCH   2   3
TORSDOF 13
ENDMDL
MODEL      351
REMARK 921   NORMALIZED FREE ENERGY PREDICTED BY IDOCK:   -2.14 KCAL/MOL
REMARK 922        TOTAL FREE ENERGY PREDICTED BY IDOCK:   -5.87 KCAL/MOL
REMARK 923 INTER-LIGAND FREE ENERGY PREDICTED BY IDOCK:   -5.94 KCAL/MOL
REMARK 924 INTRA-LIGAND FREE ENERGY PREDICTED BY IDOCK:    0.07 KCAL/MOL
REMARK 927      BINDING AFFINITY PREDICTED BY RF-SCORE:    0.00 PKD
ROOT
HETATM    1  C   UNL     1      -8.718  11.670  68.911  1.00  0.00     0.087 C  
HETATM    2  O   UNL     1     -10.115  11.383  68.922  1.00  0.00    -0.204 OA 
ENDROOT
BRANCH   2   3
HETATM    3  C   UNL     1     -10.457  10.159  69.416  1.00  0.00    -0.233 C  
HETATM    4  O   UNL     1     -10.913   9.945  70.533  1.00  0.00    -0.281 OA 
BRANCH   3   5
HETATM    5  C   UNL     1     -10.212   9.084  68.353  1.00  0.00    -0.201 C  
BRANCH   5   6
HETATM    6  C   UNL     1      -8.954   8.258  68.654  1.00  0.00    -0.137 C  
HETATM    7  C   UNL     1     -10.195   6.073  69.110  1.00  0.00    -0.258 C  
HETATM    8  C   UNL     1      -7.823   6.356  69.848  1.00  0.00    -0.114 C  
HETATM    9  C   UNL     1      -9.157   7.074  69.618  1.00  0.00    -0.144 C  
ENDBRANCH   5   6
BRANCH   5  10
HETATM   10  N   UNL     1     -10.080   9.729  67.046  1.00  0.00    -0.205 N  
HETATM   11  C   UNL     1      -9.645   9.024  65.949  1.00  0.00    -0.247 C  
HETATM   12  H   UNL     1     -10.315  10.717  66.947  1.00  0.00     0.000 HD 
HETATM   13  O   UNL     1      -9.350   7.834  65.978  1.00  0.00    -0.140 OA 
BRANCH  11  14
HETATM   14  C   UNL     1      -9.513   9.852  64.694  1.00  0.00    -0.343 C  
BRANCH  14  15
HETATM   15  C   UNL     1     -10.583  10.942  64.666  1.00  0.00    -0.332 C  
BRANCH  15  16
HETATM   16  C   UNL     1     -10.605  11.719  63.349  1.00  0.00    -0.479 C  
BRANCH  16  17
HETATM   17  C   UNL     1     -11.786  12.683  63.265  1.00  0.00    -0.504 C  
BRANCH  17  18
HETATM   18  C   UNL     1     -11.863  13.601  64.480  1.00  0.00    -0.445 C  
BRANCH  18  19
HETATM   19  C   UNL     1     -10.493  14.219  64.757  1.00  0.00    -0.421 C  
BRANCH  19  20
HETATM   20  C   UNL     1     -10.483  14.975  66.082  1.00  0.00    -0.313 C  
BRANCH  20  21
HETATM   21  C   UNL     1     -11.645  14.531  66.972  1.00  0.00    -0.402 C  
BRANCH  21  22
HETATM   22  C   UNL     1     -11.263  14.590  68.421  1.00  0.00    -0.290 C  
HETATM   23  C   UNL     1     -12.014  15.163  69.369  1.00  0.00    -0.337 C  
ENDBRANCH  21  22
ENDBRANCH  20  21
ENDBRANCH  19  20
ENDBRANCH  18  19
ENDBRANCH  17  18
ENDBRANCH  16  17
ENDBRANCH  15  16
ENDBRANCH  14  15
ENDBRANCH  11  14
ENDBRANCH   5  10
ENDBRANCH   3   5
ENDBRANCH   2   3
TORSDOF 13
ENDMDL
MODEL      352
REMARK 921   NORMALIZED FREE ENERGY PREDICTED BY IDOCK:   -2.12 KCAL/MOL
REMARK 922        TOTAL FREE ENERGY PREDICTED BY IDOCK:   -5.84 KCAL/MOL
REMARK 923 INTER-LIGAND FREE ENERGY PREDICTED BY IDOCK:   -4.83 KCAL/MOL
REMARK 924 INTRA-LIGAND FREE ENERGY PREDICTED BY IDOCK:   -1.02 KCAL/MOL
REMARK 927      BINDING AFFINITY PREDICTED BY RF-SCORE:    0.00 PKD
ROOT
HETATM    1  C   UNL     1     -10.851   6.946  71.917  1.00  0.00    -0.229 C  
HETATM    2  O   UNL     1      -9.783   6.568  71.051  1.00  0.00    -0.175 OA 
ENDROOT
BRANCH   2   3
HETATM    3  C   UNL     1      -9.938   5.371  70.418  1.00  0.00    -0.223 C  
HETATM    4  O   UNL     1      -9.889   4.271  70.956  1.00  0.00    -0.178 OA 
BRANCH   3   5
HETATM    5  C   UNL     1     -10.212   5.603  68.929  1.00  0.00    -0.211 C  
BRANCH   5   6
HETATM    6  C   UNL     1      -9.756   4.414  68.072  1.00  0.00    -0.182 C  
HETATM    7  C   UNL     1      -7.265   4.696  68.564  1.00  0.00    -0.057 C  
HETATM    8  C   UNL     1      -8.022   3.294  66.637  1.00  0.00    -0.080 C  
HETATM    9  C   UNL     1      -8.336   4.530  67.485  1.00  0.00    -0.100 C  
ENDBRANCH   5   6
BRANCH   5  10
HETATM   10  N   UNL     1      -9.515   6.817  68.502  1.00  0.00    -0.132 N  
HETATM   11  C   UNL     1     -10.002   7.587  67.472  1.00  0.00    -0.174 C  
HETATM   12  H   UNL     1      -8.656   7.097  68.976  1.00  0.00     0.000 HD 
HETATM   13  O   UNL     1     -11.030   7.328  66.856  1.00  0.00    -0.343 OA 
BRANCH  11  14
HETATM   14  C   UNL     1      -9.136   8.772  67.123  1.00  0.00    -0.155 C  
BRANCH  14  15
HETATM   15  C   UNL     1      -8.298   9.188  68.331  1.00  0.00    -0.120 C  
BRANCH  15  16
HETATM   16  C   UNL     1      -8.868  10.408  69.057  1.00  0.00    -0.176 C  
BRANCH  16  17
HETATM   17  C   UNL     1      -9.356  11.482  68.088  1.00  0.00    -0.185 C  
BRANCH  17  18
HETATM   18  C   UNL     1     -10.716  12.043  68.491  1.00  0.00    -0.261 C  
BRANCH  18  19
HETATM   19  C   UNL     1     -11.706  11.895  67.337  1.00  0.00    -0.326 C  
BRANCH  19  20
HETATM   20  C   UNL     1     -10.987  11.842  65.992  1.00  0.00    -0.355 C  
BRANCH  20  21
HETATM   21  C   UNL     1     -11.467  12.966  65.073  1.00  0.00    -0.350 C  
BRANCH  21  22
HETATM   22  C   UNL     1     -10.426  14.037  64.948  1.00  0.00    -0.453 C  
HETATM   23  C   UNL     1     -10.285  15.047  65.816  1.00  0.00    -0.361 C  
ENDBRANCH  21  22
ENDBRANCH  20  21
ENDBRANCH  19  20
ENDBRANCH  18  19
ENDBRANCH  17  18
ENDBRANCH  16  17
ENDBRANCH  15  16
ENDBRANCH  14  15
ENDBRANCH  11  14
ENDBRANCH   5  10
ENDBRANCH   3   5
ENDBRANCH   2   3
TORSDOF 13
ENDMDL
MODEL      353
REMARK 921   NORMALIZED FREE ENERGY PREDICTED BY IDOCK:   -2.12 KCAL/MOL
REMARK 922        TOTAL FREE ENERGY PREDICTED BY IDOCK:   -5.84 KCAL/MOL
REMARK 923 INTER-LIGAND FREE ENERGY PREDICTED BY IDOCK:   -4.85 KCAL/MOL
REMARK 924 INTRA-LIGAND FREE ENERGY PREDICTED BY IDOCK:   -0.99 KCAL/MOL
REMARK 927      BINDING AFFINITY PREDICTED BY RF-SCORE:    0.00 PKD
ROOT
HETATM    1  C   UNL     1     -10.690  13.123  66.239  1.00  0.00    -0.284 C  
HETATM    2  O   UNL     1      -9.934  14.319  66.064  1.00  0.00    -0.294 OA 
ENDROOT
BRANCH   2   3
HETATM    3  C   UNL     1     -10.217  15.324  66.940  1.00  0.00    -0.268 C  
HETATM    4  O   UNL     1     -11.338  15.644  67.317  1.00  0.00    -0.255 OA 
BRANCH   3   5
HETATM    5  C   UNL     1      -8.917  15.985  67.409  1.00  0.00    -0.191 C  
BRANCH   5   6
HETATM    6  C   UNL     1      -8.548  17.198  66.545  1.00  0.00    -0.306 C  
HETATM    7  C   UNL     1      -8.291  18.824  68.498  1.00  0.00    -0.379 C  
HETATM    8  C   UNL     1      -8.530  19.683  66.162  1.00  0.00    -0.354 C  
HETATM    9  C   UNL     1      -8.933  18.569  67.134  1.00  0.00    -0.281 C  
ENDBRANCH   5   6
BRANCH   5  10
HETATM   10  N   UNL     1      -7.839  14.997  67.363  1.00  0.00    -0.186 N  
HETATM   11  C   UNL     1      -7.298  14.486  68.518  1.00  0.00    -0.120 C  
HETATM   12  H   UNL     1      -7.484  14.682  66.460  1.00  0.00     0.000 HD 
HETATM   13  O   UNL     1      -7.670  14.803  69.643  1.00  0.00    -0.124 OA 
BRANCH  11  14
HETATM   14  C   UNL     1      -6.159  13.521  68.294  1.00  0.00    -0.102 C  
BRANCH  14  15
HETATM   15  C   UNL     1      -6.494  12.159  68.900  1.00  0.00    -0.088 C  
BRANCH  15  16
HETATM   16  C   UNL     1      -7.776  11.553  68.326  1.00  0.00    -0.123 C  
BRANCH  16  17
HETATM   17  C   UNL     1      -8.397  10.520  69.264  1.00  0.00    -0.144 C  
BRANCH  17  18
HETATM   18  C   UNL     1      -7.525   9.277  69.405  1.00  0.00    -0.078 C  
BRANCH  18  19
HETATM   19  C   UNL     1      -7.486   8.829  70.865  1.00  0.00    -0.094 C  
BRANCH  19  20
HETATM   20  C   UNL     1      -8.713   7.996  71.224  1.00  0.00    -0.159 C  
BRANCH  20  21
HETATM   21  C   UNL     1      -9.732   8.832  71.999  1.00  0.00    -0.370 C  
BRANCH  21  22
HETATM   22  C   UNL     1     -11.114   8.276  71.840  1.00  0.00    -0.357 C  
HETATM   23  C   UNL     1     -11.535   7.617  70.752  1.00  0.00    -0.295 C  
ENDBRANCH  21  22
ENDBRANCH  20  21
ENDBRANCH  19  20
ENDBRANCH  18  19
ENDBRANCH  17  18
ENDBRANCH  16  17
ENDBRANCH  15  16
ENDBRANCH  14  15
ENDBRANCH  11  14
ENDBRANCH   5  10
ENDBRANCH   3   5
ENDBRANCH   2   3
TORSDOF 13
ENDMDL
MODEL      354
REMARK 921   NORMALIZED FREE ENERGY PREDICTED BY IDOCK:   -2.12 KCAL/MOL
REMARK 922        TOTAL FREE ENERGY PREDICTED BY IDOCK:   -5.84 KCAL/MOL
REMARK 923 INTER-LIGAND FREE ENERGY PREDICTED BY IDOCK:   -5.08 KCAL/MOL
REMARK 924 INTRA-LIGAND FREE ENERGY PREDICTED BY IDOCK:   -0.76 KCAL/MOL
REMARK 927      BINDING AFFINITY PREDICTED BY RF-SCORE:    0.00 PKD
ROOT
HETATM    1  C   UNL     1      -5.769   6.305  69.550  1.00  0.00    -0.013 C  
HETATM    2  O   UNL     1      -6.267   4.985  69.343  1.00  0.00    -0.030 OA 
ENDROOT
BRANCH   2   3
HETATM    3  C   UNL     1      -7.467   4.906  68.702  1.00  0.00    -0.069 C  
HETATM    4  O   UNL     1      -7.731   4.146  67.778  1.00  0.00    -0.071 OA 
BRANCH   3   5
HETATM    5  C   UNL     1      -8.455   5.895  69.328  1.00  0.00    -0.113 C  
BRANCH   5   6
HETATM    6  C   UNL     1      -9.484   5.189  70.221  1.00  0.00    -0.233 C  
HETATM    7  C   UNL     1      -8.845   6.429  72.361  1.00  0.00    -0.134 C  
HETATM    8  C   UNL     1     -10.194   4.327  72.473  1.00  0.00    -0.238 C  
HETATM    9  C   UNL     1      -9.095   5.069  71.707  1.00  0.00    -0.160 C  
ENDBRANCH   5   6
BRANCH   5  10
HETATM   10  N   UNL     1      -9.142   6.621  68.259  1.00  0.00    -0.125 N  
HETATM   11  C   UNL     1      -8.847   7.937  67.994  1.00  0.00    -0.124 C  
HETATM   12  H   UNL     1      -9.850   6.142  67.701  1.00  0.00     0.000 HD 
HETATM   13  O   UNL     1      -8.006   8.583  68.608  1.00  0.00    -0.112 OA 
BRANCH  11  14
HETATM   14  C   UNL     1      -9.684   8.549  66.898  1.00  0.00    -0.286 C  
BRANCH  14  15
HETATM   15  C   UNL     1     -10.709   9.513  67.492  1.00  0.00    -0.311 C  
BRANCH  15  16
HETATM   16  C   UNL     1     -10.342  10.982  67.270  1.00  0.00    -0.249 C  
BRANCH  16  17
HETATM   17  C   UNL     1     -11.551  11.906  67.397  1.00  0.00    -0.367 C  
BRANCH  17  18
HETATM   18  C   UNL     1     -11.640  12.547  68.778  1.00  0.00    -0.366 C  
BRANCH  18  19
HETATM   19  C   UNL     1     -11.913  14.044  68.643  1.00  0.00    -0.389 C  
BRANCH  19  20
HETATM   20  C   UNL     1     -11.111  14.849  69.662  1.00  0.00    -0.298 C  
BRANCH  20  21
HETATM   21  C   UNL     1     -12.012  15.345  70.794  1.00  0.00    -0.402 C  
BRANCH  21  22
HETATM   22  C   UNL     1     -12.503  14.201  71.629  1.00  0.00    -0.395 C  
HETATM   23  C   UNL     1     -13.630  14.232  72.352  1.00  0.00    -0.599 C  
ENDBRANCH  21  22
ENDBRANCH  20  21
ENDBRANCH  19  20
ENDBRANCH  18  19
ENDBRANCH  17  18
ENDBRANCH  16  17
ENDBRANCH  15  16
ENDBRANCH  14  15
ENDBRANCH  11  14
ENDBRANCH   5  10
ENDBRANCH   3   5
ENDBRANCH   2   3
TORSDOF 13
ENDMDL
MODEL      355
REMARK 921   NORMALIZED FREE ENERGY PREDICTED BY IDOCK:   -2.12 KCAL/MOL
REMARK 922        TOTAL FREE ENERGY PREDICTED BY IDOCK:   -5.84 KCAL/MOL
REMARK 923 INTER-LIGAND FREE ENERGY PREDICTED BY IDOCK:   -4.89 KCAL/MOL
REMARK 924 INTRA-LIGAND FREE ENERGY PREDICTED BY IDOCK:   -0.95 KCAL/MOL
REMARK 927      BINDING AFFINITY PREDICTED BY RF-SCORE:    0.00 PKD
ROOT
HETATM    1  C   UNL     1      -6.610  10.130  65.266  1.00  0.00    -0.119 C  
HETATM    2  O   UNL     1      -7.549  10.868  66.047  1.00  0.00    -0.148 OA 
ENDROOT
BRANCH   2   3
HETATM    3  C   UNL     1      -7.008  11.777  66.907  1.00  0.00    -0.101 C  
HETATM    4  O   UNL     1      -5.867  12.220  66.849  1.00  0.00    -0.274 OA 
BRANCH   3   5
HETATM    5  C   UNL     1      -8.051  12.187  67.951  1.00  0.00    -0.153 C  
BRANCH   5   6
HETATM    6  C   UNL     1      -9.448  11.656  67.603  1.00  0.00    -0.177 C  
HETATM    7  C   UNL     1      -9.686  10.200  69.688  1.00  0.00    -0.250 C  
HETATM    8  C   UNL     1     -11.189   9.845  67.722  1.00  0.00    -0.075 C  
HETATM    9  C   UNL     1      -9.782  10.260  68.163  1.00  0.00    -0.158 C  
ENDBRANCH   5   6
BRANCH   5  10
HETATM   10  N   UNL     1      -8.085  13.647  68.041  1.00  0.00    -0.148 N  
HETATM   11  C   UNL     1      -8.760  14.398  67.109  1.00  0.00    -0.226 C  
HETATM   12  H   UNL     1      -7.599  14.115  68.807  1.00  0.00     0.000 HD 
HETATM   13  O   UNL     1      -9.376  13.917  66.164  1.00  0.00    -0.213 OA 
BRANCH  11  14
HETATM   14  C   UNL     1      -8.649  15.889  67.317  1.00  0.00    -0.205 C  
BRANCH  14  15
HETATM   15  C   UNL     1      -7.808  16.187  68.557  1.00  0.00    -0.172 C  
BRANCH  15  16
HETATM   16  C   UNL     1      -6.517  16.941  68.232  1.00  0.00    -0.142 C  
BRANCH  16  17
HETATM   17  C   UNL     1      -6.334  17.154  66.731  1.00  0.00    -0.248 C  
BRANCH  17  18
HETATM   18  C   UNL     1      -5.821  18.554  66.409  1.00  0.00    -0.186 C  
BRANCH  18  19
HETATM   19  C   UNL     1      -6.812  19.602  66.912  1.00  0.00    -0.212 C  
BRANCH  19  20
HETATM   20  C   UNL     1      -7.920  19.853  65.893  1.00  0.00    -0.288 C  
BRANCH  20  21
HETATM   21  C   UNL     1      -9.295  19.808  66.562  1.00  0.00    -0.486 C  
BRANCH  21  22
HETATM   22  C   UNL     1      -9.164  19.810  68.056  1.00  0.00    -0.425 C  
HETATM   23  C   UNL     1      -9.949  19.100  68.876  1.00  0.00    -0.481 C  
ENDBRANCH  21  22
ENDBRANCH  20  21
ENDBRANCH  19  20
ENDBRANCH  18  19
ENDBRANCH  17  18
ENDBRANCH  16  17
ENDBRANCH  15  16
ENDBRANCH  14  15
ENDBRANCH  11  14
ENDBRANCH   5  10
ENDBRANCH   3   5
ENDBRANCH   2   3
TORSDOF 13
ENDMDL
MODEL      356
REMARK 921   NORMALIZED FREE ENERGY PREDICTED BY IDOCK:   -2.12 KCAL/MOL
REMARK 922        TOTAL FREE ENERGY PREDICTED BY IDOCK:   -5.83 KCAL/MOL
REMARK 923 INTER-LIGAND FREE ENERGY PREDICTED BY IDOCK:   -4.58 KCAL/MOL
REMARK 924 INTRA-LIGAND FREE ENERGY PREDICTED BY IDOCK:   -1.25 KCAL/MOL
REMARK 927      BINDING AFFINITY PREDICTED BY RF-SCORE:    0.00 PKD
ROOT
HETATM    1  C   UNL     1     -10.220  12.714  68.351  1.00  0.00    -0.232 C  
HETATM    2  O   UNL     1     -10.095  11.297  68.462  1.00  0.00    -0.190 OA 
ENDROOT
BRANCH   2   3
HETATM    3  C   UNL     1     -11.233  10.635  68.816  1.00  0.00    -0.279 C  
HETATM    4  O   UNL     1     -12.363  11.106  68.801  1.00  0.00    -0.539 OA 
BRANCH   3   5
HETATM    5  C   UNL     1     -10.893   9.195  69.213  1.00  0.00    -0.132 C  
BRANCH   5   6
HETATM    6  C   UNL     1     -10.589   9.072  70.712  1.00  0.00    -0.300 C  
HETATM    7  C   UNL     1      -8.062   9.363  70.475  1.00  0.00    -0.212 C  
HETATM    8  C   UNL     1      -9.034   8.425  72.579  1.00  0.00    -0.308 C  
HETATM    9  C   UNL     1      -9.194   8.516  71.058  1.00  0.00    -0.227 C  
ENDBRANCH   5   6
BRANCH   5  10
HETATM   10  N   UNL     1      -9.737   8.748  68.435  1.00  0.00    -0.158 N  
HETATM   11  C   UNL     1      -9.883   7.854  67.401  1.00  0.00    -0.181 C  
HETATM   12  H   UNL     1      -8.809   9.106  68.662  1.00  0.00     0.000 HD 
HETATM   13  O   UNL     1     -10.961   7.382  67.056  1.00  0.00    -0.332 OA 
BRANCH  11  14
HETATM   14  C   UNL     1      -8.586   7.457  66.739  1.00  0.00    -0.127 C  
BRANCH  14  15
HETATM   15  C   UNL     1      -8.284   5.985  67.010  1.00  0.00    -0.105 C  
BRANCH  15  16
HETATM   16  C   UNL     1      -8.295   5.641  68.501  1.00  0.00    -0.106 C  
BRANCH  16  17
HETATM   17  C   UNL     1      -7.232   4.606  68.863  1.00  0.00    -0.053 C  
BRANCH  17  18
HETATM   18  C   UNL     1      -6.732   4.775  70.294  1.00  0.00    -0.036 C  
BRANCH  18  19
HETATM   19  C   UNL     1      -7.899   5.112  71.220  1.00  0.00    -0.106 C  
BRANCH  19  20
HETATM   20  C   UNL     1      -8.444   3.862  71.904  1.00  0.00    -0.107 C  
BRANCH  20  21
HETATM   21  C   UNL     1      -9.814   4.134  72.526  1.00  0.00    -0.213 C  
BRANCH  21  22
HETATM   22  C   UNL     1     -10.533   5.220  71.782  1.00  0.00    -0.278 C  
HETATM   23  C   UNL     1     -11.507   5.970  72.313  1.00  0.00    -0.364 C  
ENDBRANCH  21  22
ENDBRANCH  20  21
ENDBRANCH  19  20
ENDBRANCH  18  19
ENDBRANCH  17  18
ENDBRANCH  16  17
ENDBRANCH  15  16
ENDBRANCH  14  15
ENDBRANCH  11  14
ENDBRANCH   5  10
ENDBRANCH   3   5
ENDBRANCH   2   3
TORSDOF 13
ENDMDL
MODEL      357
REMARK 921   NORMALIZED FREE ENERGY PREDICTED BY IDOCK:   -2.12 KCAL/MOL
REMARK 922        TOTAL FREE ENERGY PREDICTED BY IDOCK:   -5.83 KCAL/MOL
REMARK 923 INTER-LIGAND FREE ENERGY PREDICTED BY IDOCK:   -4.77 KCAL/MOL
REMARK 924 INTRA-LIGAND FREE ENERGY PREDICTED BY IDOCK:   -1.06 KCAL/MOL
REMARK 927      BINDING AFFINITY PREDICTED BY RF-SCORE:    0.00 PKD
ROOT
HETATM    1  C   UNL     1     -12.185  14.882  64.097  1.00  0.00    -0.255 C  
HETATM    2  O   UNL     1     -11.373  14.186  65.040  1.00  0.00    -0.322 OA 
ENDROOT
BRANCH   2   3
HETATM    3  C   UNL     1     -11.838  12.964  65.423  1.00  0.00    -0.403 C  
HETATM    4  O   UNL     1     -12.334  12.126  64.679  1.00  0.00    -0.372 OA 
BRANCH   3   5
HETATM    5  C   UNL     1     -11.623  12.777  66.929  1.00  0.00    -0.366 C  
BRANCH   5   6
HETATM    6  C   UNL     1     -10.897  13.974  67.556  1.00  0.00    -0.277 C  
HETATM    7  C   UNL     1     -12.558  14.295  69.469  1.00  0.00    -0.026 C  
HETATM    8  C   UNL     1     -10.950  16.114  68.874  1.00  0.00    -0.324 C  
HETATM    9  C   UNL     1     -11.796  14.962  68.324  1.00  0.00    -0.308 C  
ENDBRANCH   5   6
BRANCH   5  10
HETATM   10  N   UNL     1     -10.848  11.555  67.150  1.00  0.00    -0.253 N  
HETATM   11  C   UNL     1     -11.313  10.564  67.980  1.00  0.00    -0.246 C  
HETATM   12  H   UNL     1      -9.950  11.438  66.680  1.00  0.00     0.000 HD 
HETATM   13  O   UNL     1     -12.383  10.620  68.576  1.00  0.00    -0.317 OA 
BRANCH  11  14
HETATM   14  C   UNL     1     -10.367   9.398  68.141  1.00  0.00    -0.255 C  
BRANCH  14  15
HETATM   15  C   UNL     1     -10.517   8.784  69.531  1.00  0.00    -0.222 C  
BRANCH  15  16
HETATM   16  C   UNL     1      -9.316   9.065  70.437  1.00  0.00    -0.244 C  
BRANCH  16  17
HETATM   17  C   UNL     1      -8.000   9.083  69.664  1.00  0.00    -0.093 C  
BRANCH  17  18
HETATM   18  C   UNL     1      -7.562   7.684  69.244  1.00  0.00    -0.096 C  
BRANCH  18  19
HETATM   19  C   UNL     1      -6.265   7.761  68.440  1.00  0.00    -0.040 C  
BRANCH  19  20
HETATM   20  C   UNL     1      -6.544   7.995  66.958  1.00  0.00    -0.057 C  
BRANCH  20  21
HETATM   21  C   UNL     1      -6.533   6.675  66.186  1.00  0.00    -0.043 C  
BRANCH  21  22
HETATM   22  C   UNL     1      -7.762   6.540  65.338  1.00  0.00    -0.099 C  
HETATM   23  C   UNL     1      -8.590   5.488  65.383  1.00  0.00    -0.151 C  
ENDBRANCH  21  22
ENDBRANCH  20  21
ENDBRANCH  19  20
ENDBRANCH  18  19
ENDBRANCH  17  18
ENDBRANCH  16  17
ENDBRANCH  15  16
ENDBRANCH  14  15
ENDBRANCH  11  14
ENDBRANCH   5  10
ENDBRANCH   3   5
ENDBRANCH   2   3
TORSDOF 13
ENDMDL
MODEL      358
REMARK 921   NORMALIZED FREE ENERGY PREDICTED BY IDOCK:   -2.11 KCAL/MOL
REMARK 922        TOTAL FREE ENERGY PREDICTED BY IDOCK:   -5.82 KCAL/MOL
REMARK 923 INTER-LIGAND FREE ENERGY PREDICTED BY IDOCK:   -5.69 KCAL/MOL
REMARK 924 INTRA-LIGAND FREE ENERGY PREDICTED BY IDOCK:   -0.13 KCAL/MOL
REMARK 927      BINDING AFFINITY PREDICTED BY RF-SCORE:    0.00 PKD
ROOT
HETATM    1  C   UNL     1      -9.756   3.586  69.615  1.00  0.00    -0.021 C  
HETATM    2  O   UNL     1     -10.296   4.874  69.905  1.00  0.00    -0.265 OA 
ENDROOT
BRANCH   2   3
HETATM    3  C   UNL     1      -9.459   5.724  70.565  1.00  0.00    -0.167 C  
HETATM    4  O   UNL     1      -8.270   5.524  70.785  1.00  0.00    -0.112 OA 
BRANCH   3   5
HETATM    5  C   UNL     1     -10.221   6.988  70.974  1.00  0.00    -0.196 C  
BRANCH   5   6
HETATM    6  C   UNL     1     -11.726   6.861  70.702  1.00  0.00    -0.417 C  
HETATM    7  C   UNL     1     -12.421   8.746  72.280  1.00  0.00    -0.455 C  
HETATM    8  C   UNL     1     -14.110   7.092  71.466  1.00  0.00    -0.396 C  
HETATM    9  C   UNL     1     -12.644   7.292  71.862  1.00  0.00    -0.326 C  
ENDBRANCH   5   6
BRANCH   5  10
HETATM   10  N   UNL     1      -9.679   8.129  70.235  1.00  0.00    -0.175 N  
HETATM   11  C   UNL     1      -9.839   8.231  68.873  1.00  0.00    -0.180 C  
HETATM   12  H   UNL     1      -9.174   8.859  70.737  1.00  0.00     0.000 HD 
HETATM   13  O   UNL     1     -10.438   7.404  68.194  1.00  0.00    -0.197 OA 
BRANCH  11  14
HETATM   14  C   UNL     1      -9.173   9.439  68.261  1.00  0.00    -0.133 C  
BRANCH  14  15
HETATM   15  C   UNL     1      -9.023   9.251  66.753  1.00  0.00    -0.154 C  
BRANCH  15  16
HETATM   16  C   UNL     1      -7.800   9.972  66.183  1.00  0.00    -0.114 C  
BRANCH  16  17
HETATM   17  C   UNL     1      -8.054  10.521  64.781  1.00  0.00    -0.078 C  
BRANCH  17  18
HETATM   18  C   UNL     1      -9.514  10.374  64.363  1.00  0.00    -0.343 C  
BRANCH  18  19
HETATM   19  C   UNL     1     -10.187  11.745  64.326  1.00  0.00    -0.344 C  
BRANCH  19  20
HETATM   20  C   UNL     1     -11.230  11.821  63.215  1.00  0.00    -0.357 C  
BRANCH  20  21
HETATM   21  C   UNL     1     -12.378  12.753  63.607  1.00  0.00    -0.553 C  
BRANCH  21  22
HETATM   22  C   UNL     1     -11.906  13.814  64.554  1.00  0.00    -0.445 C  
HETATM   23  C   UNL     1     -11.883  15.121  64.262  1.00  0.00    -0.263 C  
ENDBRANCH  21  22
ENDBRANCH  20  21
ENDBRANCH  19  20
ENDBRANCH  18  19
ENDBRANCH  17  18
ENDBRANCH  16  17
ENDBRANCH  15  16
ENDBRANCH  14  15
ENDBRANCH  11  14
ENDBRANCH   5  10
ENDBRANCH   3   5
ENDBRANCH   2   3
TORSDOF 13
ENDMDL
MODEL      359
REMARK 921   NORMALIZED FREE ENERGY PREDICTED BY IDOCK:   -2.09 KCAL/MOL
REMARK 922        TOTAL FREE ENERGY PREDICTED BY IDOCK:   -5.79 KCAL/MOL
REMARK 923 INTER-LIGAND FREE ENERGY PREDICTED BY IDOCK:   -4.99 KCAL/MOL
REMARK 924 INTRA-LIGAND FREE ENERGY PREDICTED BY IDOCK:   -0.79 KCAL/MOL
REMARK 927      BINDING AFFINITY PREDICTED BY RF-SCORE:    0.00 PKD
ROOT
HETATM    1  C   UNL     1     -11.437   6.168  72.240  1.00  0.00    -0.312 C  
HETATM    2  O   UNL     1     -11.065   7.035  71.171  1.00  0.00    -0.245 OA 
ENDROOT
BRANCH   2   3
HETATM    3  C   UNL     1     -11.660   8.262  71.179  1.00  0.00    -0.279 C  
HETATM    4  O   UNL     1     -12.758   8.517  71.660  1.00  0.00    -0.312 OA 
BRANCH   3   5
HETATM    5  C   UNL     1     -10.737   9.289  70.516  1.00  0.00    -0.257 C  
BRANCH   5   6
HETATM    6  C   UNL     1      -9.348   9.315  71.168  1.00  0.00    -0.259 C  
HETATM    7  C   UNL     1      -8.057   8.844  69.015  1.00  0.00    -0.115 C  
HETATM    8  C   UNL     1      -6.955   8.549  71.240  1.00  0.00    -0.075 C  
HETATM    9  C   UNL     1      -8.279   8.449  70.476  1.00  0.00    -0.113 C  
ENDBRANCH   5   6
BRANCH   5  10
HETATM   10  N   UNL     1     -11.354  10.613  70.611  1.00  0.00    -0.409 N  
HETATM   11  C   UNL     1     -11.289  11.501  69.564  1.00  0.00    -0.274 C  
HETATM   12  H   UNL     1     -11.840  10.880  71.468  1.00  0.00     0.000 HD 
HETATM   13  O   UNL     1     -10.733  11.258  68.499  1.00  0.00    -0.180 OA 
BRANCH  11  14
HETATM   14  C   UNL     1     -11.928  12.838  69.847  1.00  0.00    -0.368 C  
BRANCH  14  15
HETATM   15  C   UNL     1     -11.622  13.820  68.718  1.00  0.00    -0.363 C  
BRANCH  15  16
HETATM   16  C   UNL     1     -10.122  13.995  68.473  1.00  0.00    -0.236 C  
BRANCH  16  17
HETATM   17  C   UNL     1      -9.709  15.465  68.446  1.00  0.00    -0.211 C  
BRANCH  17  18
HETATM   18  C   UNL     1     -10.608  16.296  67.537  1.00  0.00    -0.310 C  
BRANCH  18  19
HETATM   19  C   UNL     1     -10.162  16.149  66.083  1.00  0.00    -0.351 C  
BRANCH  19  20
HETATM   20  C   UNL     1     -11.349  15.885  65.162  1.00  0.00    -0.118 C  
BRANCH  20  21
HETATM   21  C   UNL     1     -10.994  14.843  64.101  1.00  0.00     0.417 C  
BRANCH  21  22
HETATM   22  C   UNL     1     -11.109  13.454  64.654  1.00  0.00    -0.380 C  
HETATM   23  C   UNL     1     -10.062  12.650  64.879  1.00  0.00    -0.244 C  
ENDBRANCH  21  22
ENDBRANCH  20  21
ENDBRANCH  19  20
ENDBRANCH  18  19
ENDBRANCH  17  18
ENDBRANCH  16  17
ENDBRANCH  15  16
ENDBRANCH  14  15
ENDBRANCH  11  14
ENDBRANCH   5  10
ENDBRANCH   3   5
ENDBRANCH   2   3
TORSDOF 13
ENDMDL
MODEL      360
REMARK 921   NORMALIZED FREE ENERGY PREDICTED BY IDOCK:   -2.09 KCAL/MOL
REMARK 922        TOTAL FREE ENERGY PREDICTED BY IDOCK:   -5.78 KCAL/MOL
REMARK 923 INTER-LIGAND FREE ENERGY PREDICTED BY IDOCK:   -4.99 KCAL/MOL
REMARK 924 INTRA-LIGAND FREE ENERGY PREDICTED BY IDOCK:   -0.79 KCAL/MOL
REMARK 927      BINDING AFFINITY PREDICTED BY RF-SCORE:    0.00 PKD
ROOT
HETATM    1  C   UNL     1     -12.626   7.189  71.829  1.00  0.00    -0.346 C  
HETATM    2  O   UNL     1     -11.561   6.268  71.604  1.00  0.00    -0.297 OA 
ENDROOT
BRANCH   2   3
HETATM    3  C   UNL     1     -10.531   6.738  70.845  1.00  0.00    -0.213 C  
HETATM    4  O   UNL     1      -9.342   6.649  71.126  1.00  0.00    -0.162 OA 
BRANCH   3   5
HETATM    5  C   UNL     1     -11.080   7.376  69.565  1.00  0.00    -0.072 C  
BRANCH   5   6
HETATM    6  C   UNL     1     -11.337   6.331  68.470  1.00  0.00    -0.149 C  
HETATM    7  C   UNL     1      -8.873   5.856  67.998  1.00  0.00    -0.109 C  
HETATM    8  C   UNL     1     -10.630   5.155  66.363  1.00  0.00    -0.336 C  
HETATM    9  C   UNL     1     -10.235   6.211  67.401  1.00  0.00    -0.226 C  
ENDBRANCH   5   6
BRANCH   5  10
HETATM   10  N   UNL     1     -10.123   8.372  69.083  1.00  0.00    -0.198 N  
HETATM   11  C   UNL     1     -10.251   9.698  69.422  1.00  0.00    -0.209 C  
HETATM   12  H   UNL     1      -9.348   8.078  68.487  1.00  0.00     0.000 HD 
HETATM   13  O   UNL     1     -11.145  10.134  70.138  1.00  0.00    -0.269 OA 
BRANCH  11  14
HETATM   14  C   UNL     1      -9.214  10.599  68.798  1.00  0.00    -0.182 C  
BRANCH  14  15
HETATM   15  C   UNL     1      -8.783  10.047  67.440  1.00  0.00    -0.125 C  
BRANCH  15  16
HETATM   16  C   UNL     1      -8.841  11.095  66.327  1.00  0.00    -0.190 C  
BRANCH  16  17
HETATM   17  C   UNL     1      -9.182  12.486  66.859  1.00  0.00    -0.211 C  
BRANCH  17  18
HETATM   18  C   UNL     1     -10.491  13.015  66.283  1.00  0.00    -0.285 C  
BRANCH  18  19
HETATM   19  C   UNL     1     -10.964  14.226  67.086  1.00  0.00    -0.305 C  
BRANCH  19  20
HETATM   20  C   UNL     1     -10.554  14.114  68.552  1.00  0.00    -0.257 C  
BRANCH  20  21
HETATM   21  C   UNL     1      -9.762  15.346  68.992  1.00  0.00    -0.239 C  
BRANCH  21  22
HETATM   22  C   UNL     1     -10.466  16.067  70.103  1.00  0.00    -0.198 C  
HETATM   23  C   UNL     1     -11.568  15.610  70.710  1.00  0.00    -0.412 C  
ENDBRANCH  21  22
ENDBRANCH  20  21
ENDBRANCH  19  20
ENDBRANCH  18  19
ENDBRANCH  17  18
ENDBRANCH  16  17
ENDBRANCH  15  16
ENDBRANCH  14  15
ENDBRANCH  11  14
ENDBRANCH   5  10
ENDBRANCH   3   5
ENDBRANCH   2   3
TORSDOF 13
ENDMDL
MODEL      361
REMARK 921   NORMALIZED FREE ENERGY PREDICTED BY IDOCK:   -2.09 KCAL/MOL
REMARK 922        TOTAL FREE ENERGY PREDICTED BY IDOCK:   -5.78 KCAL/MOL
REMARK 923 INTER-LIGAND FREE ENERGY PREDICTED BY IDOCK:   -5.19 KCAL/MOL
REMARK 924 INTRA-LIGAND FREE ENERGY PREDICTED BY IDOCK:   -0.59 KCAL/MOL
REMARK 927      BINDING AFFINITY PREDICTED BY RF-SCORE:    0.00 PKD
ROOT
HETATM    1  C   UNL     1      -6.929  13.152  67.423  1.00  0.00    -0.107 C  
HETATM    2  O   UNL     1      -7.106  14.535  67.120  1.00  0.00    -0.164 OA 
ENDROOT
BRANCH   2   3
HETATM    3  C   UNL     1      -6.879  15.394  68.154  1.00  0.00    -0.127 C  
HETATM    4  O   UNL     1      -6.295  15.116  69.195  1.00  0.00    -0.101 OA 
BRANCH   3   5
HETATM    5  C   UNL     1      -7.443  16.777  67.812  1.00  0.00    -0.163 C  
BRANCH   5   6
HETATM    6  C   UNL     1      -7.209  17.785  68.945  1.00  0.00    -0.256 C  
HETATM    7  C   UNL     1      -7.446  19.863  67.477  1.00  0.00    -0.314 C  
HETATM    8  C   UNL     1      -6.393  20.027  69.739  1.00  0.00    -0.389 C  
HETATM    9  C   UNL     1      -6.593  19.130  68.513  1.00  0.00    -0.284 C  
ENDBRANCH   5   6
BRANCH   5  10
HETATM   10  N   UNL     1      -8.877  16.653  67.547  1.00  0.00    -0.195 N  
HETATM   11  C   UNL     1      -9.747  16.260  68.536  1.00  0.00    -0.224 C  
HETATM   12  H   UNL     1      -9.236  16.861  66.615  1.00  0.00     0.000 HD 
HETATM   13  O   UNL     1      -9.402  15.998  69.683  1.00  0.00    -0.210 OA 
BRANCH  11  14
HETATM   14  C   UNL     1     -11.181  16.130  68.081  1.00  0.00    -0.311 C  
BRANCH  14  15
HETATM   15  C   UNL     1     -11.658  14.689  68.246  1.00  0.00    -0.353 C  
BRANCH  15  16
HETATM   16  C   UNL     1     -11.488  13.857  66.973  1.00  0.00    -0.367 C  
BRANCH  16  17
HETATM   17  C   UNL     1     -11.045  12.427  67.272  1.00  0.00    -0.329 C  
BRANCH  17  18
HETATM   18  C   UNL     1     -10.954  12.156  68.770  1.00  0.00    -0.274 C  
BRANCH  18  19
HETATM   19  C   UNL     1     -11.094  10.659  69.040  1.00  0.00    -0.307 C  
BRANCH  19  20
HETATM   20  C   UNL     1     -10.901   9.844  67.764  1.00  0.00    -0.321 C  
BRANCH  20  21
HETATM   21  C   UNL     1      -9.754   8.846  67.923  1.00  0.00    -0.190 C  
BRANCH  21  22
HETATM   22  C   UNL     1      -8.446   9.468  67.537  1.00  0.00    -0.126 C  
HETATM   23  C   UNL     1      -7.266   8.840  67.620  1.00  0.00    -0.080 C  
ENDBRANCH  21  22
ENDBRANCH  20  21
ENDBRANCH  19  20
ENDBRANCH  18  19
ENDBRANCH  17  18
ENDBRANCH  16  17
ENDBRANCH  15  16
ENDBRANCH  14  15
ENDBRANCH  11  14
ENDBRANCH   5  10
ENDBRANCH   3   5
ENDBRANCH   2   3
TORSDOF 13
ENDMDL
MODEL      362
REMARK 921   NORMALIZED FREE ENERGY PREDICTED BY IDOCK:   -2.08 KCAL/MOL
REMARK 922        TOTAL FREE ENERGY PREDICTED BY IDOCK:   -5.78 KCAL/MOL
REMARK 923 INTER-LIGAND FREE ENERGY PREDICTED BY IDOCK:   -4.82 KCAL/MOL
REMARK 924 INTRA-LIGAND FREE ENERGY PREDICTED BY IDOCK:   -0.96 KCAL/MOL
REMARK 927      BINDING AFFINITY PREDICTED BY RF-SCORE:    0.00 PKD
ROOT
HETATM    1  C   UNL     1      -5.797   6.302  69.537  1.00  0.00    -0.017 C  
HETATM    2  O   UNL     1      -6.298   4.986  69.309  1.00  0.00    -0.029 OA 
ENDROOT
BRANCH   2   3
HETATM    3  C   UNL     1      -7.452   4.916  68.586  1.00  0.00    -0.069 C  
HETATM    4  O   UNL     1      -7.669   4.136  67.666  1.00  0.00    -0.078 OA 
BRANCH   3   5
HETATM    5  C   UNL     1      -8.457   5.945  69.113  1.00  0.00    -0.112 C  
BRANCH   5   6
HETATM    6  C   UNL     1      -9.539   5.293  69.985  1.00  0.00    -0.238 C  
HETATM    7  C   UNL     1      -9.000   6.636  72.090  1.00  0.00    -0.138 C  
HETATM    8  C   UNL     1     -10.376   4.553  72.238  1.00  0.00    -0.243 C  
HETATM    9  C   UNL     1      -9.230   5.247  71.494  1.00  0.00    -0.173 C  
ENDBRANCH   5   6
BRANCH   5  10
HETATM   10  N   UNL     1      -9.079   6.625  67.978  1.00  0.00    -0.116 N  
HETATM   11  C   UNL     1      -8.772   7.932  67.681  1.00  0.00    -0.126 C  
HETATM   12  H   UNL     1      -9.751   6.123  67.397  1.00  0.00     0.000 HD 
HETATM   13  O   UNL     1      -7.971   8.605  68.319  1.00  0.00    -0.107 OA 
BRANCH  11  14
HETATM   14  C   UNL     1      -9.542   8.498  66.513  1.00  0.00    -0.303 C  
BRANCH  14  15
HETATM   15  C   UNL     1     -10.603   9.480  67.006  1.00  0.00    -0.271 C  
BRANCH  15  16
HETATM   16  C   UNL     1     -10.224  10.941  66.753  1.00  0.00    -0.277 C  
BRANCH  16  17
HETATM   17  C   UNL     1     -10.184  11.277  65.264  1.00  0.00    -0.328 C  
BRANCH  17  18
HETATM   18  C   UNL     1     -11.479  11.927  64.788  1.00  0.00    -0.323 C  
BRANCH  18  19
HETATM   19  C   UNL     1     -11.164  13.140  63.913  1.00  0.00    -0.377 C  
BRANCH  19  20
HETATM   20  C   UNL     1     -12.113  14.298  64.208  1.00  0.00    -0.467 C  
BRANCH  20  21
HETATM   21  C   UNL     1     -11.466  15.303  65.162  1.00  0.00    -0.260 C  
BRANCH  21  22
HETATM   22  C   UNL     1     -10.089  14.858  65.554  1.00  0.00    -0.400 C  
HETATM   23  C   UNL     1      -9.264  15.576  66.327  1.00  0.00    -0.364 C  
ENDBRANCH  21  22
ENDBRANCH  20  21
ENDBRANCH  19  20
ENDBRANCH  18  19
ENDBRANCH  17  18
ENDBRANCH  16  17
ENDBRANCH  15  16
ENDBRANCH  14  15
ENDBRANCH  11  14
ENDBRANCH   5  10
ENDBRANCH   3   5
ENDBRANCH   2   3
TORSDOF 13
ENDMDL
MODEL      363
REMARK 921   NORMALIZED FREE ENERGY PREDICTED BY IDOCK:   -2.07 KCAL/MOL
REMARK 922        TOTAL FREE ENERGY PREDICTED BY IDOCK:   -5.76 KCAL/MOL
REMARK 923 INTER-LIGAND FREE ENERGY PREDICTED BY IDOCK:   -5.12 KCAL/MOL
REMARK 924 INTRA-LIGAND FREE ENERGY PREDICTED BY IDOCK:   -0.64 KCAL/MOL
REMARK 927      BINDING AFFINITY PREDICTED BY RF-SCORE:    0.00 PKD
ROOT
HETATM    1  C   UNL     1     -13.063   6.963  71.672  1.00  0.00    -0.279 C  
HETATM    2  O   UNL     1     -12.090   7.716  70.951  1.00  0.00    -0.284 OA 
ENDROOT
BRANCH   2   3
HETATM    3  C   UNL     1     -10.815   7.629  71.425  1.00  0.00    -0.225 C  
HETATM    4  O   UNL     1     -10.290   8.418  72.202  1.00  0.00    -0.271 OA 
BRANCH   3   5
HETATM    5  C   UNL     1     -10.136   6.378  70.860  1.00  0.00    -0.187 C  
BRANCH   5   6
HETATM    6  C   UNL     1      -9.121   5.784  71.846  1.00  0.00    -0.145 C  
HETATM    7  C   UNL     1      -9.901   3.366  71.575  1.00  0.00    -0.212 C  
HETATM    8  C   UNL     1      -8.479   4.024  73.524  1.00  0.00    -0.088 C  
HETATM    9  C   UNL     1      -9.571   4.492  72.556  1.00  0.00    -0.183 C  
ENDBRANCH   5   6
BRANCH   5  10
HETATM   10  N   UNL     1      -9.463   6.726  69.608  1.00  0.00    -0.147 N  
HETATM   11  C   UNL     1      -8.212   7.296  69.611  1.00  0.00    -0.131 C  
HETATM   12  H   UNL     1      -9.930   6.544  68.719  1.00  0.00     0.000 HD 
HETATM   13  O   UNL     1      -7.578   7.541  70.632  1.00  0.00    -0.082 OA 
BRANCH  11  14
HETATM   14  C   UNL     1      -7.687   7.642  68.240  1.00  0.00    -0.120 C  
BRANCH  14  15
HETATM   15  C   UNL     1      -8.557   6.998  67.162  1.00  0.00    -0.121 C  
BRANCH  15  16
HETATM   16  C   UNL     1      -8.999   7.990  66.084  1.00  0.00    -0.215 C  
BRANCH  16  17
HETATM   17  C   UNL     1     -10.285   8.721  66.462  1.00  0.00    -0.314 C  
BRANCH  17  18
HETATM   18  C   UNL     1     -10.082  10.230  66.549  1.00  0.00    -0.290 C  
BRANCH  18  19
HETATM   19  C   UNL     1     -11.097  10.839  67.516  1.00  0.00    -0.374 C  
BRANCH  19  20
HETATM   20  C   UNL     1     -10.687  10.610  68.968  1.00  0.00    -0.257 C  
BRANCH  20  21
HETATM   21  C   UNL     1     -11.427  11.569  69.901  1.00  0.00    -0.340 C  
BRANCH  21  22
HETATM   22  C   UNL     1     -12.682  10.942  70.428  1.00  0.00    -0.326 C  
HETATM   23  C   UNL     1     -13.123  11.093  71.683  1.00  0.00    -0.529 C  
ENDBRANCH  21  22
ENDBRANCH  20  21
ENDBRANCH  19  20
ENDBRANCH  18  19
ENDBRANCH  17  18
ENDBRANCH  16  17
ENDBRANCH  15  16
ENDBRANCH  14  15
ENDBRANCH  11  14
ENDBRANCH   5  10
ENDBRANCH   3   5
ENDBRANCH   2   3
TORSDOF 13
ENDMDL
MODEL      364
REMARK 921   NORMALIZED FREE ENERGY PREDICTED BY IDOCK:   -2.04 KCAL/MOL
REMARK 922        TOTAL FREE ENERGY PREDICTED BY IDOCK:   -5.70 KCAL/MOL
REMARK 923 INTER-LIGAND FREE ENERGY PREDICTED BY IDOCK:   -3.70 KCAL/MOL
REMARK 924 INTRA-LIGAND FREE ENERGY PREDICTED BY IDOCK:   -2.00 KCAL/MOL
REMARK 927      BINDING AFFINITY PREDICTED BY RF-SCORE:    0.00 PKD
ROOT
HETATM    1  C   UNL     1     -13.419   7.299  71.643  1.00  0.00    -0.354 C  
HETATM    2  O   UNL     1     -12.896   8.515  71.111  1.00  0.00    -0.219 OA 
ENDROOT
BRANCH   2   3
HETATM    3  C   UNL     1     -11.544   8.661  71.203  1.00  0.00    -0.281 C  
HETATM    4  O   UNL     1     -10.948   9.194  72.132  1.00  0.00    -0.300 OA 
BRANCH   3   5
HETATM    5  C   UNL     1     -10.870   8.034  69.979  1.00  0.00    -0.235 C  
BRANCH   5   6
HETATM    6  C   UNL     1     -10.112   6.749  70.339  1.00  0.00    -0.200 C  
HETATM    7  C   UNL     1     -10.657   5.525  68.164  1.00  0.00    -0.207 C  
HETATM    8  C   UNL     1      -9.826   4.258  70.153  1.00  0.00    -0.271 C  
HETATM    9  C   UNL     1     -10.656   5.460  69.692  1.00  0.00    -0.328 C  
ENDBRANCH   5   6
BRANCH   5  10
HETATM   10  N   UNL     1      -9.945   9.007  69.396  1.00  0.00    -0.186 N  
HETATM   11  C   UNL     1     -10.078   9.413  68.089  1.00  0.00    -0.181 C  
HETATM   12  H   UNL     1      -9.192   9.390  69.967  1.00  0.00     0.000 HD 
HETATM   13  O   UNL     1     -10.958   9.011  67.337  1.00  0.00    -0.152 OA 
BRANCH  11  14
HETATM   14  C   UNL     1      -9.011  10.378  67.631  1.00  0.00    -0.139 C  
BRANCH  14  15
HETATM   15  C   UNL     1      -8.310  11.002  68.835  1.00  0.00    -0.123 C  
BRANCH  15  16
HETATM   16  C   UNL     1      -6.824  10.647  68.909  1.00  0.00    -0.066 C  
BRANCH  16  17
HETATM   17  C   UNL     1      -6.575   9.357  69.686  1.00  0.00    -0.044 C  
BRANCH  17  18
HETATM   18  C   UNL     1      -5.857   8.309  68.842  1.00  0.00    -0.043 C  
BRANCH  18  19
HETATM   19  C   UNL     1      -6.750   7.082  68.661  1.00  0.00    -0.063 C  
BRANCH  19  20
HETATM   20  C   UNL     1      -7.488   7.125  67.326  1.00  0.00    -0.099 C  
BRANCH  20  21
HETATM   21  C   UNL     1      -6.521   6.906  66.162  1.00  0.00    -0.051 C  
BRANCH  21  22
HETATM   22  C   UNL     1      -6.792   5.599  65.479  1.00  0.00    -0.056 C  
HETATM   23  C   UNL     1      -7.976   4.973  65.506  1.00  0.00    -0.104 C  
ENDBRANCH  21  22
ENDBRANCH  20  21
ENDBRANCH  19  20
ENDBRANCH  18  19
ENDBRANCH  17  18
ENDBRANCH  16  17
ENDBRANCH  15  16
ENDBRANCH  14  15
ENDBRANCH  11  14
ENDBRANCH   5  10
ENDBRANCH   3   5
ENDBRANCH   2   3
TORSDOF 13
ENDMDL
MODEL      365
REMARK 921   NORMALIZED FREE ENERGY PREDICTED BY IDOCK:   -2.04 KCAL/MOL
REMARK 922        TOTAL FREE ENERGY PREDICTED BY IDOCK:   -5.69 KCAL/MOL
REMARK 923 INTER-LIGAND FREE ENERGY PREDICTED BY IDOCK:   -3.72 KCAL/MOL
REMARK 924 INTRA-LIGAND FREE ENERGY PREDICTED BY IDOCK:   -1.97 KCAL/MOL
REMARK 927      BINDING AFFINITY PREDICTED BY RF-SCORE:    0.00 PKD
ROOT
HETATM    1  C   UNL     1     -12.182  11.649  70.480  1.00  0.00    -0.361 C  
HETATM    2  O   UNL     1     -12.086  10.251  70.750  1.00  0.00    -0.298 OA 
ENDROOT
BRANCH   2   3
HETATM    3  C   UNL     1     -10.825   9.734  70.714  1.00  0.00    -0.333 C  
HETATM    4  O   UNL     1     -10.247   9.204  71.656  1.00  0.00    -0.336 OA 
BRANCH   3   5
HETATM    5  C   UNL     1     -10.240   9.890  69.307  1.00  0.00    -0.209 C  
BRANCH   5   6
HETATM    6  C   UNL     1     -10.888   8.920  68.309  1.00  0.00    -0.048 C  
HETATM    7  C   UNL     1      -9.814   6.815  69.279  1.00  0.00    -0.160 C  
HETATM    8  C   UNL     1     -10.830   6.778  66.994  1.00  0.00    -0.453 C  
HETATM    9  C   UNL     1     -10.083   7.638  68.018  1.00  0.00    -0.226 C  
ENDBRANCH   5   6
BRANCH   5  10
HETATM   10  N   UNL     1      -8.798   9.652  69.363  1.00  0.00    -0.166 N  
HETATM   11  C   UNL     1      -7.905  10.637  69.014  1.00  0.00    -0.137 C  
HETATM   12  H   UNL     1      -8.449   8.743  69.667  1.00  0.00     0.000 HD 
HETATM   13  O   UNL     1      -8.237  11.759  68.647  1.00  0.00    -0.147 OA 
BRANCH  11  14
HETATM   14  C   UNL     1      -6.458  10.211  69.076  1.00  0.00    -0.044 C  
BRANCH  14  15
HETATM   15  C   UNL     1      -6.229   8.989  68.188  1.00  0.00    -0.054 C  
BRANCH  15  16
HETATM   16  C   UNL     1      -5.853   7.739  68.985  1.00  0.00    -0.031 C  
BRANCH  16  17
HETATM   17  C   UNL     1      -6.053   6.458  68.178  1.00  0.00    -0.027 C  
BRANCH  17  18
HETATM   18  C   UNL     1      -6.483   6.745  66.743  1.00  0.00    -0.043 C  
BRANCH  18  19
HETATM   19  C   UNL     1      -7.431   5.651  66.253  1.00  0.00    -0.083 C  
BRANCH  19  20
HETATM   20  C   UNL     1      -7.560   4.528  67.278  1.00  0.00    -0.085 C  
BRANCH  20  21
HETATM   21  C   UNL     1      -8.540   3.459  66.793  1.00  0.00    -0.116 C  
BRANCH  21  22
HETATM   22  C   UNL     1      -9.566   3.157  67.844  1.00  0.00    -0.130 C  
HETATM   23  C   UNL     1      -9.303   3.119  69.157  1.00  0.00    -0.228 C  
ENDBRANCH  21  22
ENDBRANCH  20  21
ENDBRANCH  19  20
ENDBRANCH  18  19
ENDBRANCH  17  18
ENDBRANCH  16  17
ENDBRANCH  15  16
ENDBRANCH  14  15
ENDBRANCH  11  14
ENDBRANCH   5  10
ENDBRANCH   3   5
ENDBRANCH   2   3
TORSDOF 13
ENDMDL
MODEL      366
REMARK 921   NORMALIZED FREE ENERGY PREDICTED BY IDOCK:   -2.01 KCAL/MOL
REMARK 922        TOTAL FREE ENERGY PREDICTED BY IDOCK:   -5.65 KCAL/MOL
REMARK 923 INTER-LIGAND FREE ENERGY PREDICTED BY IDOCK:   -5.05 KCAL/MOL
REMARK 924 INTRA-LIGAND FREE ENERGY PREDICTED BY IDOCK:   -0.60 KCAL/MOL
REMARK 927      BINDING AFFINITY PREDICTED BY RF-SCORE:    0.00 PKD
ROOT
HETATM    1  C   UNL     1      -7.894   3.846  69.161  1.00  0.00    -0.052 C  
HETATM    2  O   UNL     1      -8.660   3.770  67.960  1.00  0.00    -0.092 OA 
ENDROOT
BRANCH   2   3
HETATM    3  C   UNL     1      -9.738   4.602  67.899  1.00  0.00    -0.143 C  
HETATM    4  O   UNL     1     -10.345   5.051  68.864  1.00  0.00    -0.161 OA 
BRANCH   3   5
HETATM    5  C   UNL     1     -10.069   4.916  66.437  1.00  0.00    -0.258 C  
BRANCH   5   6
HETATM    6  C   UNL     1      -9.049   4.294  65.474  1.00  0.00    -0.138 C  
HETATM    7  C   UNL     1     -10.759   3.644  63.692  1.00  0.00    -0.260 C  
HETATM    8  C   UNL     1      -8.474   2.630  63.679  1.00  0.00    -0.086 C  
HETATM    9  C   UNL     1      -9.597   3.175  64.567  1.00  0.00    -0.151 C  
ENDBRANCH   5   6
BRANCH   5  10
HETATM   10  N   UNL     1     -10.097   6.368  66.259  1.00  0.00    -0.411 N  
HETATM   11  C   UNL     1      -8.952   7.119  66.386  1.00  0.00    -0.155 C  
HETATM   12  H   UNL     1     -10.979   6.830  66.036  1.00  0.00     0.000 HD 
HETATM   13  O   UNL     1      -7.852   6.644  66.644  1.00  0.00    -0.100 OA 
BRANCH  11  14
HETATM   14  C   UNL     1      -9.166   8.604  66.225  1.00  0.00    -0.257 C  
BRANCH  14  15
HETATM   15  C   UNL     1     -10.455   9.031  66.925  1.00  0.00    -0.293 C  
BRANCH  15  16
HETATM   16  C   UNL     1     -10.204   9.950  68.122  1.00  0.00    -0.210 C  
BRANCH  16  17
HETATM   17  C   UNL     1      -9.115   9.412  69.047  1.00  0.00    -0.142 C  
BRANCH  17  18
HETATM   18  C   UNL     1      -9.541   9.437  70.511  1.00  0.00    -0.330 C  
BRANCH  18  19
HETATM   19  C   UNL     1     -11.065   9.477  70.611  1.00  0.00    -0.364 C  
BRANCH  19  20
HETATM   20  C   UNL     1     -11.630   8.117  71.013  1.00  0.00    -0.301 C  
BRANCH  20  21
HETATM   21  C   UNL     1     -11.698   7.984  72.535  1.00  0.00    -0.446 C  
BRANCH  21  22
HETATM   22  C   UNL     1     -10.823   6.865  73.014  1.00  0.00    -0.328 C  
HETATM   23  C   UNL     1      -9.994   6.960  74.061  1.00  0.00    -0.371 C  
ENDBRANCH  21  22
ENDBRANCH  20  21
ENDBRANCH  19  20
ENDBRANCH  18  19
ENDBRANCH  17  18
ENDBRANCH  16  17
ENDBRANCH  15  16
ENDBRANCH  14  15
ENDBRANCH  11  14
ENDBRANCH   5  10
ENDBRANCH   3   5
ENDBRANCH   2   3
TORSDOF 13
ENDMDL
MODEL      367
REMARK 921   NORMALIZED FREE ENERGY PREDICTED BY IDOCK:   -2.01 KCAL/MOL
REMARK 922        TOTAL FREE ENERGY PREDICTED BY IDOCK:   -5.65 KCAL/MOL
REMARK 923 INTER-LIGAND FREE ENERGY PREDICTED BY IDOCK:   -3.91 KCAL/MOL
REMARK 924 INTRA-LIGAND FREE ENERGY PREDICTED BY IDOCK:   -1.73 KCAL/MOL
REMARK 927      BINDING AFFINITY PREDICTED BY RF-SCORE:    0.00 PKD
ROOT
HETATM    1  C   UNL     1      -6.141   8.192  72.818  1.00  0.00    -0.067 C  
HETATM    2  O   UNL     1      -7.216   7.680  72.033  1.00  0.00    -0.065 OA 
ENDROOT
BRANCH   2   3
HETATM    3  C   UNL     1      -8.453   8.160  72.350  1.00  0.00    -0.179 C  
HETATM    4  O   UNL     1      -8.765   8.670  73.419  1.00  0.00    -0.333 OA 
BRANCH   3   5
HETATM    5  C   UNL     1      -9.396   7.991  71.155  1.00  0.00    -0.149 C  
BRANCH   5   6
HETATM    6  C   UNL     1      -9.045   6.752  70.320  1.00  0.00    -0.153 C  
HETATM    7  C   UNL     1     -11.404   6.394  69.408  1.00  0.00    -0.443 C  
HETATM    8  C   UNL     1      -9.707   4.562  69.278  1.00  0.00    -0.260 C  
HETATM    9  C   UNL     1     -10.200   5.756  70.102  1.00  0.00    -0.301 C  
ENDBRANCH   5   6
BRANCH   5  10
HETATM   10  N   UNL     1      -9.322   9.189  70.319  1.00  0.00    -0.202 N  
HETATM   11  C   UNL     1     -10.451   9.915  70.021  1.00  0.00    -0.284 C  
HETATM   12  H   UNL     1      -8.419   9.491  69.951  1.00  0.00     0.000 HD 
HETATM   13  O   UNL     1     -11.572   9.628  70.427  1.00  0.00    -0.258 OA 
BRANCH  11  14
HETATM   14  C   UNL     1     -10.208  11.088  69.104  1.00  0.00    -0.187 C  
BRANCH  14  15
HETATM   15  C   UNL     1     -10.549  10.712  67.663  1.00  0.00    -0.288 C  
BRANCH  15  16
HETATM   16  C   UNL     1      -9.808   9.462  67.184  1.00  0.00    -0.242 C  
BRANCH  16  17
HETATM   17  C   UNL     1      -8.628   9.802  66.276  1.00  0.00    -0.137 C  
BRANCH  17  18
HETATM   18  C   UNL     1      -7.887   8.554  65.807  1.00  0.00    -0.100 C  
BRANCH  18  19
HETATM   19  C   UNL     1      -8.230   7.371  66.712  1.00  0.00    -0.121 C  
BRANCH  19  20
HETATM   20  C   UNL     1      -7.325   6.175  66.428  1.00  0.00    -0.085 C  
BRANCH  20  21
HETATM   21  C   UNL     1      -5.879   6.480  66.822  1.00  0.00    -0.014 C  
BRANCH  21  22
HETATM   22  C   UNL     1      -5.776   6.782  68.287  1.00  0.00    -0.017 C  
HETATM   23  C   UNL     1      -6.042   5.894  69.254  1.00  0.00    -0.028 C  
ENDBRANCH  21  22
ENDBRANCH  20  21
ENDBRANCH  19  20
ENDBRANCH  18  19
ENDBRANCH  17  18
ENDBRANCH  16  17
ENDBRANCH  15  16
ENDBRANCH  14  15
ENDBRANCH  11  14
ENDBRANCH   5  10
ENDBRANCH   3   5
ENDBRANCH   2   3
TORSDOF 13
ENDMDL
MODEL      368
REMARK 921   NORMALIZED FREE ENERGY PREDICTED BY IDOCK:   -2.01 KCAL/MOL
REMARK 922        TOTAL FREE ENERGY PREDICTED BY IDOCK:   -5.65 KCAL/MOL
REMARK 923 INTER-LIGAND FREE ENERGY PREDICTED BY IDOCK:   -5.02 KCAL/MOL
REMARK 924 INTRA-LIGAND FREE ENERGY PREDICTED BY IDOCK:   -0.63 KCAL/MOL
REMARK 927      BINDING AFFINITY PREDICTED BY RF-SCORE:    0.00 PKD
ROOT
HETATM    1  C   UNL     1     -12.853   6.383  71.839  1.00  0.00     0.057 C  
HETATM    2  O   UNL     1     -11.533   5.877  72.026  1.00  0.00    -0.286 OA 
ENDROOT
BRANCH   2   3
HETATM    3  C   UNL     1     -10.651   6.156  71.024  1.00  0.00    -0.246 C  
HETATM    4  O   UNL     1     -10.642   5.629  69.918  1.00  0.00    -0.281 OA 
BRANCH   3   5
HETATM    5  C   UNL     1      -9.682   7.252  71.477  1.00  0.00    -0.159 C  
BRANCH   5   6
HETATM    6  C   UNL     1      -9.184   7.018  72.910  1.00  0.00    -0.162 C  
HETATM    7  C   UNL     1      -7.057   8.412  72.662  1.00  0.00    -0.098 C  
HETATM    8  C   UNL     1      -7.298   6.800  74.559  1.00  0.00    -0.105 C  
HETATM    9  C   UNL     1      -7.655   7.072  73.094  1.00  0.00    -0.085 C  
ENDBRANCH   5   6
BRANCH   5  10
HETATM   10  N   UNL     1     -10.356   8.547  71.392  1.00  0.00    -0.220 N  
HETATM   11  C   UNL     1     -10.518   9.182  70.184  1.00  0.00    -0.218 C  
HETATM   12  H   UNL     1     -10.712   8.986  72.242  1.00  0.00     0.000 HD 
HETATM   13  O   UNL     1     -10.129   8.723  69.116  1.00  0.00    -0.187 OA 
BRANCH  11  14
HETATM   14  C   UNL     1     -11.185  10.533  70.280  1.00  0.00    -0.391 C  
BRANCH  14  15
HETATM   15  C   UNL     1     -11.491  11.071  68.884  1.00  0.00    -0.364 C  
BRANCH  15  16
HETATM   16  C   UNL     1     -10.553  12.205  68.465  1.00  0.00    -0.252 C  
BRANCH  16  17
HETATM   17  C   UNL     1     -10.819  12.678  67.038  1.00  0.00    -0.282 C  
BRANCH  17  18
HETATM   18  C   UNL     1     -10.793  11.526  66.038  1.00  0.00    -0.330 C  
BRANCH  18  19
HETATM   19  C   UNL     1     -10.318  12.027  64.675  1.00  0.00    -0.325 C  
BRANCH  19  20
HETATM   20  C   UNL     1     -11.352  11.743  63.589  1.00  0.00    -0.525 C  
BRANCH  20  21
HETATM   21  C   UNL     1     -11.978  13.042  63.080  1.00  0.00    -0.027 C  
BRANCH  21  22
HETATM   22  C   UNL     1     -12.506  13.864  64.217  1.00  0.00    -0.305 C  
HETATM   23  C   UNL     1     -12.312  15.183  64.339  1.00  0.00    -0.225 C  
ENDBRANCH  21  22
ENDBRANCH  20  21
ENDBRANCH  19  20
ENDBRANCH  18  19
ENDBRANCH  17  18
ENDBRANCH  16  17
ENDBRANCH  15  16
ENDBRANCH  14  15
ENDBRANCH  11  14
ENDBRANCH   5  10
ENDBRANCH   3   5
ENDBRANCH   2   3
TORSDOF 13
ENDMDL
MODEL      369
REMARK 921   NORMALIZED FREE ENERGY PREDICTED BY IDOCK:   -2.01 KCAL/MOL
REMARK 922        TOTAL FREE ENERGY PREDICTED BY IDOCK:   -5.64 KCAL/MOL
REMARK 923 INTER-LIGAND FREE ENERGY PREDICTED BY IDOCK:   -4.75 KCAL/MOL
REMARK 924 INTRA-LIGAND FREE ENERGY PREDICTED BY IDOCK:   -0.89 KCAL/MOL
REMARK 927      BINDING AFFINITY PREDICTED BY RF-SCORE:    0.00 PKD
ROOT
HETATM    1  C   UNL     1      -7.449   4.321  68.655  1.00  0.00    -0.059 C  
HETATM    2  O   UNL     1      -7.851   4.184  67.294  1.00  0.00    -0.090 OA 
ENDROOT
BRANCH   2   3
HETATM    3  C   UNL     1      -9.076   4.699  66.990  1.00  0.00    -0.121 C  
HETATM    4  O   UNL     1     -10.070   4.637  67.703  1.00  0.00    -0.134 OA 
BRANCH   3   5
HETATM    5  C   UNL     1      -9.022   5.396  65.627  1.00  0.00    -0.156 C  
BRANCH   5   6
HETATM    6  C   UNL     1      -7.610   5.366  65.025  1.00  0.00    -0.080 C  
HETATM    7  C   UNL     1      -8.374   4.940  62.625  1.00  0.00    -0.104 C  
HETATM    8  C   UNL     1      -5.995   4.542  63.283  1.00  0.00    -0.017 C  
HETATM    9  C   UNL     1      -7.450   4.500  63.761  1.00  0.00    -0.055 C  
ENDBRANCH   5   6
BRANCH   5  10
HETATM   10  N   UNL     1      -9.465   6.781  65.784  1.00  0.00    -0.375 N  
HETATM   11  C   UNL     1      -8.703   7.694  66.474  1.00  0.00    -0.149 C  
HETATM   12  H   UNL     1     -10.352   7.075  65.374  1.00  0.00     0.000 HD 
HETATM   13  O   UNL     1      -7.622   7.428  66.989  1.00  0.00    -0.101 OA 
BRANCH  11  14
HETATM   14  C   UNL     1      -9.330   9.062  66.589  1.00  0.00    -0.229 C  
BRANCH  14  15
HETATM   15  C   UNL     1     -10.583   8.997  67.460  1.00  0.00    -0.306 C  
BRANCH  15  16
HETATM   16  C   UNL     1     -10.270   9.054  68.956  1.00  0.00    -0.216 C  
BRANCH  16  17
HETATM   17  C   UNL     1     -10.637   7.756  69.673  1.00  0.00    -0.242 C  
BRANCH  17  18
HETATM   18  C   UNL     1     -10.556   7.897  71.190  1.00  0.00    -0.238 C  
BRANCH  18  19
HETATM   19  C   UNL     1     -11.006   9.295  71.610  1.00  0.00    -0.433 C  
BRANCH  19  20
HETATM   20  C   UNL     1     -12.522   9.363  71.778  1.00  0.00    -0.471 C  
BRANCH  20  21
HETATM   21  C   UNL     1     -13.123  10.437  70.871  1.00  0.00    -0.412 C  
BRANCH  21  22
HETATM   22  C   UNL     1     -12.266  11.667  70.858  1.00  0.00    -0.401 C  
HETATM   23  C   UNL     1     -12.012  12.389  69.759  1.00  0.00    -0.359 C  
ENDBRANCH  21  22
ENDBRANCH  20  21
ENDBRANCH  19  20
ENDBRANCH  18  19
ENDBRANCH  17  18
ENDBRANCH  16  17
ENDBRANCH  15  16
ENDBRANCH  14  15
ENDBRANCH  11  14
ENDBRANCH   5  10
ENDBRANCH   3   5
ENDBRANCH   2   3
TORSDOF 13
ENDMDL
MODEL      370
REMARK 921   NORMALIZED FREE ENERGY PREDICTED BY IDOCK:   -1.97 KCAL/MOL
REMARK 922        TOTAL FREE ENERGY PREDICTED BY IDOCK:   -5.58 KCAL/MOL
REMARK 923 INTER-LIGAND FREE ENERGY PREDICTED BY IDOCK:   -5.44 KCAL/MOL
REMARK 924 INTRA-LIGAND FREE ENERGY PREDICTED BY IDOCK:   -0.14 KCAL/MOL
REMARK 927      BINDING AFFINITY PREDICTED BY RF-SCORE:    0.00 PKD
ROOT
HETATM    1  C   UNL     1      -7.543  13.272  68.622  1.00  0.00    -0.094 C  
HETATM    2  O   UNL     1      -8.454  13.184  67.528  1.00  0.00    -0.173 OA 
ENDROOT
BRANCH   2   3
HETATM    3  C   UNL     1      -8.894  14.376  67.035  1.00  0.00    -0.237 C  
HETATM    4  O   UNL     1      -8.233  15.151  66.353  1.00  0.00    -0.062 OA 
BRANCH   3   5
HETATM    5  C   UNL     1     -10.355  14.598  67.439  1.00  0.00    -0.241 C  
BRANCH   5   6
HETATM    6  C   UNL     1     -10.520  15.838  68.328  1.00  0.00    -0.259 C  
HETATM    7  C   UNL     1     -10.633  17.509  66.400  1.00  0.00    -0.195 C  
HETATM    8  C   UNL     1     -10.185  18.297  68.731  1.00  0.00    -0.342 C  
HETATM    9  C   UNL     1      -9.977  17.152  67.734  1.00  0.00    -0.290 C  
ENDBRANCH   5   6
BRANCH   5  10
HETATM   10  N   UNL     1     -10.836  13.412  68.148  1.00  0.00    -0.247 N  
HETATM   11  C   UNL     1     -11.669  12.508  67.532  1.00  0.00    -0.374 C  
HETATM   12  H   UNL     1     -10.549  13.253  69.115  1.00  0.00     0.000 HD 
HETATM   13  O   UNL     1     -12.055  12.618  66.374  1.00  0.00    -0.530 OA 
BRANCH  11  14
HETATM   14  C   UNL     1     -12.115  11.373  68.421  1.00  0.00    -0.118 C  
BRANCH  14  15
HETATM   15  C   UNL     1     -11.044  11.069  69.467  1.00  0.00    -0.322 C  
BRANCH  15  16
HETATM   16  C   UNL     1      -9.804  10.400  68.871  1.00  0.00    -0.206 C  
BRANCH  16  17
HETATM   17  C   UNL     1     -10.148   9.484  67.699  1.00  0.00    -0.254 C  
BRANCH  17  18
HETATM   18  C   UNL     1     -10.372   8.043  68.145  1.00  0.00    -0.250 C  
BRANCH  18  19
HETATM   19  C   UNL     1     -10.198   7.095  66.959  1.00  0.00    -0.339 C  
BRANCH  19  20
HETATM   20  C   UNL     1     -10.806   5.726  67.249  1.00  0.00    -0.290 C  
BRANCH  20  21
HETATM   21  C   UNL     1      -9.817   4.609  66.914  1.00  0.00    -0.235 C  
BRANCH  21  22
HETATM   22  C   UNL     1      -9.468   4.621  65.456  1.00  0.00    -0.178 C  
HETATM   23  C   UNL     1      -9.948   3.744  64.565  1.00  0.00    -0.201 C  
ENDBRANCH  21  22
ENDBRANCH  20  21
ENDBRANCH  19  20
ENDBRANCH  18  19
ENDBRANCH  17  18
ENDBRANCH  16  17
ENDBRANCH  15  16
ENDBRANCH  14  15
ENDBRANCH  11  14
ENDBRANCH   5  10
ENDBRANCH   3   5
ENDBRANCH   2   3
TORSDOF 13
ENDMDL
MODEL      371
REMARK 921   NORMALIZED FREE ENERGY PREDICTED BY IDOCK:   -1.97 KCAL/MOL
REMARK 922        TOTAL FREE ENERGY PREDICTED BY IDOCK:   -5.57 KCAL/MOL
REMARK 923 INTER-LIGAND FREE ENERGY PREDICTED BY IDOCK:   -5.28 KCAL/MOL
REMARK 924 INTRA-LIGAND FREE ENERGY PREDICTED BY IDOCK:   -0.29 KCAL/MOL
REMARK 927      BINDING AFFINITY PREDICTED BY RF-SCORE:    0.00 PKD
ROOT
HETATM    1  C   UNL     1     -10.486   8.761  72.150  1.00  0.00    -0.314 C  
HETATM    2  O   UNL     1     -10.695   7.770  71.145  1.00  0.00    -0.224 OA 
ENDROOT
BRANCH   2   3
HETATM    3  C   UNL     1      -9.614   7.493  70.362  1.00  0.00    -0.168 C  
HETATM    4  O   UNL     1      -8.445   7.531  70.725  1.00  0.00    -0.124 OA 
BRANCH   3   5
HETATM    5  C   UNL     1     -10.079   7.098  68.957  1.00  0.00    -0.183 C  
BRANCH   5   6
HETATM    6  C   UNL     1      -8.897   6.801  68.026  1.00  0.00    -0.119 C  
HETATM    7  C   UNL     1      -9.633   4.425  67.445  1.00  0.00    -0.218 C  
HETATM    8  C   UNL     1      -7.289   5.168  66.991  1.00  0.00    -0.082 C  
HETATM    9  C   UNL     1      -8.490   5.317  67.930  1.00  0.00    -0.101 C  
ENDBRANCH   5   6
BRANCH   5  10
HETATM   10  N   UNL     1     -10.886   8.185  68.401  1.00  0.00    -0.434 N  
HETATM   11  C   UNL     1     -10.299   9.345  67.954  1.00  0.00    -0.225 C  
HETATM   12  H   UNL     1     -11.899   8.081  68.345  1.00  0.00     0.000 HD 
HETATM   13  O   UNL     1      -9.090   9.549  67.978  1.00  0.00    -0.124 OA 
BRANCH  11  14
HETATM   14  C   UNL     1     -11.277  10.384  67.463  1.00  0.00    -0.254 C  
BRANCH  14  15
HETATM   15  C   UNL     1     -11.447  11.485  68.507  1.00  0.00    -0.354 C  
BRANCH  15  16
HETATM   16  C   UNL     1     -11.610  12.873  67.886  1.00  0.00    -0.391 C  
BRANCH  16  17
HETATM   17  C   UNL     1     -11.088  12.931  66.452  1.00  0.00    -0.316 C  
BRANCH  17  18
HETATM   18  C   UNL     1     -10.295  14.205  66.182  1.00  0.00    -0.304 C  
BRANCH  18  19
HETATM   19  C   UNL     1     -10.580  15.239  67.270  1.00  0.00    -0.290 C  
BRANCH  19  20
HETATM   20  C   UNL     1      -9.598  16.405  67.198  1.00  0.00    -0.239 C  
BRANCH  20  21
HETATM   21  C   UNL     1      -8.184  15.909  66.895  1.00  0.00    -0.283 C  
BRANCH  21  22
HETATM   22  C   UNL     1      -7.200  17.040  66.928  1.00  0.00    -0.244 C  
HETATM   23  C   UNL     1      -6.873  17.777  65.859  1.00  0.00    -0.290 C  
ENDBRANCH  21  22
ENDBRANCH  20  21
ENDBRANCH  19  20
ENDBRANCH  18  19
ENDBRANCH  17  18
ENDBRANCH  16  17
ENDBRANCH  15  16
ENDBRANCH  14  15
ENDBRANCH  11  14
ENDBRANCH   5  10
ENDBRANCH   3   5
ENDBRANCH   2   3
TORSDOF 13
ENDMDL
MODEL      372
REMARK 921   NORMALIZED FREE ENERGY PREDICTED BY IDOCK:   -1.96 KCAL/MOL
REMARK 922        TOTAL FREE ENERGY PREDICTED BY IDOCK:   -5.57 KCAL/MOL
REMARK 923 INTER-LIGAND FREE ENERGY PREDICTED BY IDOCK:   -4.42 KCAL/MOL
REMARK 924 INTRA-LIGAND FREE ENERGY PREDICTED BY IDOCK:   -1.14 KCAL/MOL
REMARK 927      BINDING AFFINITY PREDICTED BY RF-SCORE:    0.00 PKD
ROOT
HETATM    1  C   UNL     1      -8.749  19.547  68.588  1.00  0.00    -0.335 C  
HETATM    2  O   UNL     1      -9.877  18.821  69.073  1.00  0.00    -0.370 OA 
ENDROOT
BRANCH   2   3
HETATM    3  C   UNL     1     -10.652  18.235  68.116  1.00  0.00    -0.282 C  
HETATM    4  O   UNL     1     -11.121  18.802  67.137  1.00  0.00    -0.284 OA 
BRANCH   3   5
HETATM    5  C   UNL     1     -10.829  16.747  68.433  1.00  0.00    -0.355 C  
BRANCH   5   6
HETATM    6  C   UNL     1     -11.377  16.525  69.849  1.00  0.00    -0.056 C  
HETATM    7  C   UNL     1     -12.369  14.220  69.371  1.00  0.00    -0.238 C  
HETATM    8  C   UNL     1     -13.070  15.502  71.400  1.00  0.00    -0.580 C  
HETATM    9  C   UNL     1     -12.618  15.617  69.941  1.00  0.00    -0.107 C  
ENDBRANCH   5   6
BRANCH   5  10
HETATM   10  N   UNL     1      -9.538  16.074  68.289  1.00  0.00    -0.208 N  
HETATM   11  C   UNL     1      -9.128  15.581  67.073  1.00  0.00    -0.230 C  
HETATM   12  H   UNL     1      -8.933  15.968  69.104  1.00  0.00     0.000 HD 
HETATM   13  O   UNL     1      -9.789  15.672  66.044  1.00  0.00    -0.282 OA 
BRANCH  11  14
HETATM   14  C   UNL     1      -7.799  14.869  67.111  1.00  0.00    -0.203 C  
BRANCH  14  15
HETATM   15  C   UNL     1      -7.994  13.373  66.868  1.00  0.00     0.160 C  
BRANCH  15  16
HETATM   16  C   UNL     1      -9.137  12.781  67.694  1.00  0.00    -0.193 C  
BRANCH  16  17
HETATM   17  C   UNL     1      -8.750  11.458  68.352  1.00  0.00    -0.157 C  
BRANCH  17  18
HETATM   18  C   UNL     1      -9.846  10.407  68.214  1.00  0.00    -0.169 C  
BRANCH  18  19
HETATM   19  C   UNL     1      -9.439   9.128  68.943  1.00  0.00    -0.151 C  
BRANCH  19  20
HETATM   20  C   UNL     1      -7.984   8.766  68.658  1.00  0.00    -0.107 C  
BRANCH  20  21
HETATM   21  C   UNL     1      -7.294   8.249  69.921  1.00  0.00    -0.064 C  
BRANCH  21  22
HETATM   22  C   UNL     1      -6.818   9.385  70.775  1.00  0.00    -0.109 C  
HETATM   23  C   UNL     1      -5.991  10.348  70.346  1.00  0.00    -0.104 C  
ENDBRANCH  21  22
ENDBRANCH  20  21
ENDBRANCH  19  20
ENDBRANCH  18  19
ENDBRANCH  17  18
ENDBRANCH  16  17
ENDBRANCH  15  16
ENDBRANCH  14  15
ENDBRANCH  11  14
ENDBRANCH   5  10
ENDBRANCH   3   5
ENDBRANCH   2   3
TORSDOF 13
ENDMDL
MODEL      373
REMARK 921   NORMALIZED FREE ENERGY PREDICTED BY IDOCK:   -1.96 KCAL/MOL
REMARK 922        TOTAL FREE ENERGY PREDICTED BY IDOCK:   -5.56 KCAL/MOL
REMARK 923 INTER-LIGAND FREE ENERGY PREDICTED BY IDOCK:   -4.57 KCAL/MOL
REMARK 924 INTRA-LIGAND FREE ENERGY PREDICTED BY IDOCK:   -0.99 KCAL/MOL
REMARK 927      BINDING AFFINITY PREDICTED BY RF-SCORE:    0.00 PKD
ROOT
HETATM    1  C   UNL     1     -12.963  12.145  63.757  1.00  0.00    -0.220 C  
HETATM    2  O   UNL     1     -11.935  13.112  63.964  1.00  0.00    -0.405 OA 
ENDROOT
BRANCH   2   3
HETATM    3  C   UNL     1     -11.720  13.470  65.262  1.00  0.00    -0.322 C  
HETATM    4  O   UNL     1     -12.534  14.025  65.990  1.00  0.00    -0.468 OA 
BRANCH   3   5
HETATM    5  C   UNL     1     -10.311  13.050  65.689  1.00  0.00    -0.285 C  
BRANCH   5   6
HETATM    6  C   UNL     1     -10.226  11.547  65.983  1.00  0.00    -0.283 C  
HETATM    7  C   UNL     1     -11.538  11.649  68.173  1.00  0.00    -0.389 C  
HETATM    8  C   UNL     1     -10.151   9.643  67.624  1.00  0.00    -0.241 C  
HETATM    9  C   UNL     1     -10.267  11.163  67.475  1.00  0.00    -0.216 C  
ENDBRANCH   5   6
BRANCH   5  10
HETATM   10  N   UNL     1      -9.930  13.810  66.881  1.00  0.00    -0.258 N  
HETATM   11  C   UNL     1      -9.408  15.077  66.774  1.00  0.00    -0.251 C  
HETATM   12  H   UNL     1     -10.054  13.393  67.804  1.00  0.00     0.000 HD 
HETATM   13  O   UNL     1      -9.233  15.655  65.707  1.00  0.00    -0.321 OA 
BRANCH  11  14
HETATM   14  C   UNL     1      -9.017  15.698  68.094  1.00  0.00    -0.179 C  
BRANCH  14  15
HETATM   15  C   UNL     1      -7.529  16.041  68.096  1.00  0.00    -0.132 C  
BRANCH  15  16
HETATM   16  C   UNL     1      -6.633  14.801  68.115  1.00  0.00    -0.138 C  
BRANCH  16  17
HETATM   17  C   UNL     1      -6.851  13.949  69.364  1.00  0.00    -0.065 C  
BRANCH  17  18
HETATM   18  C   UNL     1      -6.048  12.653  69.320  1.00  0.00    -0.100 C  
BRANCH  18  19
HETATM   19  C   UNL     1      -6.938  11.502  68.853  1.00  0.00    -0.100 C  
BRANCH  19  20
HETATM   20  C   UNL     1      -6.520  11.002  67.473  1.00  0.00    -0.063 C  
BRANCH  20  21
HETATM   21  C   UNL     1      -6.696   9.487  67.367  1.00  0.00    -0.071 C  
BRANCH  21  22
HETATM   22  C   UNL     1      -5.471   8.771  67.851  1.00  0.00    -0.035 C  
HETATM   23  C   UNL     1      -5.251   8.447  69.131  1.00  0.00    -0.031 C  
ENDBRANCH  21  22
ENDBRANCH  20  21
ENDBRANCH  19  20
ENDBRANCH  18  19
ENDBRANCH  17  18
ENDBRANCH  16  17
ENDBRANCH  15  16
ENDBRANCH  14  15
ENDBRANCH  11  14
ENDBRANCH   5  10
ENDBRANCH   3   5
ENDBRANCH   2   3
TORSDOF 13
ENDMDL
MODEL      374
REMARK 921   NORMALIZED FREE ENERGY PREDICTED BY IDOCK:   -1.95 KCAL/MOL
REMARK 922        TOTAL FREE ENERGY PREDICTED BY IDOCK:   -5.54 KCAL/MOL
REMARK 923 INTER-LIGAND FREE ENERGY PREDICTED BY IDOCK:   -4.13 KCAL/MOL
REMARK 924 INTRA-LIGAND FREE ENERGY PREDICTED BY IDOCK:   -1.41 KCAL/MOL
REMARK 927      BINDING AFFINITY PREDICTED BY RF-SCORE:    0.00 PKD
ROOT
HETATM    1  C   UNL     1     -12.738   7.537  71.881  1.00  0.00    -0.289 C  
HETATM    2  O   UNL     1     -12.449   8.694  71.100  1.00  0.00    -0.276 OA 
ENDROOT
BRANCH   2   3
HETATM    3  C   UNL     1     -11.126   8.932  70.872  1.00  0.00    -0.271 C  
HETATM    4  O   UNL     1     -10.274   9.096  71.738  1.00  0.00    -0.338 OA 
BRANCH   3   5
HETATM    5  C   UNL     1     -10.852   8.939  69.365  1.00  0.00    -0.119 C  
BRANCH   5   6
HETATM    6  C   UNL     1     -10.033   7.716  68.928  1.00  0.00    -0.178 C  
HETATM    7  C   UNL     1      -7.799   8.588  69.808  1.00  0.00    -0.094 C  
HETATM    8  C   UNL     1      -7.862   6.699  68.171  1.00  0.00    -0.110 C  
HETATM    9  C   UNL     1      -8.550   7.993  68.616  1.00  0.00    -0.128 C  
ENDBRANCH   5   6
BRANCH   5  10
HETATM   10  N   UNL     1     -10.134  10.166  69.019  1.00  0.00    -0.193 N  
HETATM   11  C   UNL     1     -10.755  11.177  68.325  1.00  0.00    -0.196 C  
HETATM   12  H   UNL     1      -9.158  10.272  69.296  1.00  0.00     0.000 HD 
HETATM   13  O   UNL     1     -11.924  11.134  67.961  1.00  0.00    -0.625 OA 
BRANCH  11  14
HETATM   14  C   UNL     1      -9.857  12.347  68.002  1.00  0.00    -0.205 C  
BRANCH  14  15
HETATM   15  C   UNL     1      -8.413  12.024  68.377  1.00  0.00    -0.147 C  
BRANCH  15  16
HETATM   16  C   UNL     1      -7.475  12.001  67.168  1.00  0.00    -0.138 C  
BRANCH  16  17
HETATM   17  C   UNL     1      -7.257  10.588  66.633  1.00  0.00    -0.119 C  
BRANCH  17  18
HETATM   18  C   UNL     1      -7.801  10.421  65.218  1.00  0.00    -0.137 C  
BRANCH  18  19
HETATM   19  C   UNL     1      -8.797   9.263  65.174  1.00  0.00    -0.238 C  
BRANCH  19  20
HETATM   20  C   UNL     1      -8.396   8.226  64.128  1.00  0.00    -0.050 C  
BRANCH  20  21
HETATM   21  C   UNL     1      -7.649   7.060  64.777  1.00  0.00    -0.105 C  
BRANCH  21  22
HETATM   22  C   UNL     1      -8.496   5.823  64.791  1.00  0.00    -0.079 C  
HETATM   23  C   UNL     1      -8.010   4.586  64.960  1.00  0.00    -0.098 C  
ENDBRANCH  21  22
ENDBRANCH  20  21
ENDBRANCH  19  20
ENDBRANCH  18  19
ENDBRANCH  17  18
ENDBRANCH  16  17
ENDBRANCH  15  16
ENDBRANCH  14  15
ENDBRANCH  11  14
ENDBRANCH   5  10
ENDBRANCH   3   5
ENDBRANCH   2   3
TORSDOF 13
ENDMDL
MODEL      375
REMARK 921   NORMALIZED FREE ENERGY PREDICTED BY IDOCK:   -1.94 KCAL/MOL
REMARK 922        TOTAL FREE ENERGY PREDICTED BY IDOCK:   -5.52 KCAL/MOL
REMARK 923 INTER-LIGAND FREE ENERGY PREDICTED BY IDOCK:   -5.91 KCAL/MOL
REMARK 924 INTRA-LIGAND FREE ENERGY PREDICTED BY IDOCK:    0.39 KCAL/MOL
REMARK 927      BINDING AFFINITY PREDICTED BY RF-SCORE:    0.00 PKD
ROOT
HETATM    1  C   UNL     1     -13.016  12.415  64.144  1.00  0.00    -0.163 C  
HETATM    2  O   UNL     1     -11.819  13.157  64.371  1.00  0.00    -0.351 OA 
ENDROOT
BRANCH   2   3
HETATM    3  C   UNL     1     -11.585  13.510  65.666  1.00  0.00    -0.325 C  
HETATM    4  O   UNL     1     -12.329  14.189  66.364  1.00  0.00    -0.460 OA 
BRANCH   3   5
HETATM    5  C   UNL     1     -10.258  12.907  66.136  1.00  0.00    -0.278 C  
BRANCH   5   6
HETATM    6  C   UNL     1     -10.334  11.379  66.255  1.00  0.00    -0.287 C  
HETATM    7  C   UNL     1     -11.832  11.368  68.324  1.00  0.00    -0.320 C  
HETATM    8  C   UNL     1     -10.581   9.307  67.658  1.00  0.00    -0.324 C  
HETATM    9  C   UNL     1     -10.549  10.839  67.682  1.00  0.00    -0.271 C  
ENDBRANCH   5   6
BRANCH   5  10
HETATM   10  N   UNL     1      -9.904  13.488  67.432  1.00  0.00    -0.224 N  
HETATM   11  C   UNL     1      -9.017  14.534  67.520  1.00  0.00    -0.188 C  
HETATM   12  H   UNL     1     -10.323  13.111  68.282  1.00  0.00     0.000 HD 
HETATM   13  O   UNL     1      -8.476  15.051  66.549  1.00  0.00    -0.217 OA 
BRANCH  11  14
HETATM   14  C   UNL     1      -8.722  14.977  68.932  1.00  0.00    -0.197 C  
BRANCH  14  15
HETATM   15  C   UNL     1      -9.576  16.190  69.294  1.00  0.00    -0.235 C  
BRANCH  15  16
HETATM   16  C   UNL     1      -9.161  17.456  68.541  1.00  0.00    -0.273 C  
BRANCH  16  17
HETATM   17  C   UNL     1      -7.739  17.894  68.887  1.00  0.00    -0.206 C  
BRANCH  17  18
HETATM   18  C   UNL     1      -7.281  19.074  68.036  1.00  0.00    -0.271 C  
BRANCH  18  19
HETATM   19  C   UNL     1      -6.284  18.600  66.979  1.00  0.00    -0.193 C  
BRANCH  19  20
HETATM   20  C   UNL     1      -6.852  18.758  65.571  1.00  0.00    -0.251 C  
BRANCH  20  21
HETATM   21  C   UNL     1      -5.924  19.608  64.702  1.00  0.00    -0.310 C  
BRANCH  21  22
HETATM   22  C   UNL     1      -5.851  21.015  65.215  1.00  0.00    -0.266 C  
HETATM   23  C   UNL     1      -5.405  21.345  66.434  1.00  0.00    -0.299 C  
ENDBRANCH  21  22
ENDBRANCH  20  21
ENDBRANCH  19  20
ENDBRANCH  18  19
ENDBRANCH  17  18
ENDBRANCH  16  17
ENDBRANCH  15  16
ENDBRANCH  14  15
ENDBRANCH  11  14
ENDBRANCH   5  10
ENDBRANCH   3   5
ENDBRANCH   2   3
TORSDOF 13
ENDMDL
MODEL      376
REMARK 921   NORMALIZED FREE ENERGY PREDICTED BY IDOCK:   -1.92 KCAL/MOL
REMARK 922        TOTAL FREE ENERGY PREDICTED BY IDOCK:   -5.49 KCAL/MOL
REMARK 923 INTER-LIGAND FREE ENERGY PREDICTED BY IDOCK:   -5.91 KCAL/MOL
REMARK 924 INTRA-LIGAND FREE ENERGY PREDICTED BY IDOCK:    0.43 KCAL/MOL
REMARK 927      BINDING AFFINITY PREDICTED BY RF-SCORE:    0.00 PKD
ROOT
HETATM    1  C   UNL     1     -14.220   8.328  71.694  1.00  0.00    -0.447 C  
HETATM    2  O   UNL     1     -12.873   8.777  71.560  1.00  0.00    -0.323 OA 
ENDROOT
BRANCH   2   3
HETATM    3  C   UNL     1     -12.012   7.883  70.995  1.00  0.00    -0.252 C  
HETATM    4  O   UNL     1     -12.182   6.671  70.937  1.00  0.00    -0.368 OA 
BRANCH   3   5
HETATM    5  C   UNL     1     -10.804   8.624  70.415  1.00  0.00    -0.227 C  
BRANCH   5   6
HETATM    6  C   UNL     1      -9.497   8.222  71.113  1.00  0.00    -0.206 C  
HETATM    7  C   UNL     1     -10.561   7.791  73.395  1.00  0.00    -0.254 C  
HETATM    8  C   UNL     1      -8.085   8.077  73.188  1.00  0.00    -0.231 C  
HETATM    9  C   UNL     1      -9.446   8.502  72.627  1.00  0.00    -0.295 C  
ENDBRANCH   5   6
BRANCH   5  10
HETATM   10  N   UNL     1     -11.017  10.065  70.555  1.00  0.00    -0.310 N  
HETATM   11  C   UNL     1     -11.439  10.825  69.490  1.00  0.00    -0.294 C  
HETATM   12  H   UNL     1     -10.851  10.512  71.457  1.00  0.00     0.000 HD 
HETATM   13  O   UNL     1     -11.669  10.368  68.376  1.00  0.00    -0.307 OA 
BRANCH  11  14
HETATM   14  C   UNL     1     -11.557  12.299  69.791  1.00  0.00    -0.314 C  
BRANCH  14  15
HETATM   15  C   UNL     1     -11.953  13.065  68.530  1.00  0.00    -0.296 C  
BRANCH  15  16
HETATM   16  C   UNL     1     -11.482  14.520  68.546  1.00  0.00    -0.327 C  
BRANCH  16  17
HETATM   17  C   UNL     1     -10.160  14.708  67.807  1.00  0.00    -0.228 C  
BRANCH  17  18
HETATM   18  C   UNL     1      -9.106  15.381  68.680  1.00  0.00    -0.195 C  
BRANCH  18  19
HETATM   19  C   UNL     1      -8.003  15.974  67.804  1.00  0.00    -0.152 C  
BRANCH  19  20
HETATM   20  C   UNL     1      -8.228  17.464  67.561  1.00  0.00    -0.209 C  
BRANCH  20  21
HETATM   21  C   UNL     1      -6.961  18.263  67.866  1.00  0.00    -0.211 C  
BRANCH  21  22
HETATM   22  C   UNL     1      -6.938  18.707  69.298  1.00  0.00    -0.222 C  
HETATM   23  C   UNL     1      -6.904  19.989  69.682  1.00  0.00    -0.245 C  
ENDBRANCH  21  22
ENDBRANCH  20  21
ENDBRANCH  19  20
ENDBRANCH  18  19
ENDBRANCH  17  18
ENDBRANCH  16  17
ENDBRANCH  15  16
ENDBRANCH  14  15
ENDBRANCH  11  14
ENDBRANCH   5  10
ENDBRANCH   3   5
ENDBRANCH   2   3
TORSDOF 13
ENDMDL
MODEL      377
REMARK 921   NORMALIZED FREE ENERGY PREDICTED BY IDOCK:   -1.92 KCAL/MOL
REMARK 922        TOTAL FREE ENERGY PREDICTED BY IDOCK:   -5.48 KCAL/MOL
REMARK 923 INTER-LIGAND FREE ENERGY PREDICTED BY IDOCK:   -3.76 KCAL/MOL
REMARK 924 INTRA-LIGAND FREE ENERGY PREDICTED BY IDOCK:   -1.72 KCAL/MOL
REMARK 927      BINDING AFFINITY PREDICTED BY RF-SCORE:    0.00 PKD
ROOT
HETATM    1  C   UNL     1     -12.556  12.112  70.697  1.00  0.00    -0.169 C  
HETATM    2  O   UNL     1     -12.336  10.766  71.114  1.00  0.00    -0.356 OA 
ENDROOT
BRANCH   2   3
HETATM    3  C   UNL     1     -11.192  10.189  70.649  1.00  0.00    -0.340 C  
HETATM    4  O   UNL     1     -10.419   9.508  71.311  1.00  0.00    -0.320 OA 
BRANCH   3   5
HETATM    5  C   UNL     1     -11.026  10.496  69.157  1.00  0.00    -0.240 C  
BRANCH   5   6
HETATM    6  C   UNL     1     -11.026   9.218  68.307  1.00  0.00    -0.047 C  
HETATM    7  C   UNL     1      -8.514   8.797  68.496  1.00  0.00    -0.130 C  
HETATM    8  C   UNL     1      -9.859   7.642  66.733  1.00  0.00    -0.307 C  
HETATM    9  C   UNL     1      -9.713   8.926  67.556  1.00  0.00    -0.216 C  
ENDBRANCH   5   6
BRANCH   5  10
HETATM   10  N   UNL     1      -9.772  11.223  68.959  1.00  0.00    -0.391 N  
HETATM   11  C   UNL     1      -9.753  12.439  68.317  1.00  0.00    -0.218 C  
HETATM   12  H   UNL     1      -8.899  10.823  69.302  1.00  0.00     0.000 HD 
HETATM   13  O   UNL     1     -10.756  12.995  67.882  1.00  0.00    -0.226 OA 
BRANCH  11  14
HETATM   14  C   UNL     1      -8.374  13.027  68.148  1.00  0.00    -0.164 C  
BRANCH  14  15
HETATM   15  C   UNL     1      -7.758  12.558  66.831  1.00  0.00     0.050 C  
BRANCH  15  16
HETATM   16  C   UNL     1      -6.638  11.536  67.030  1.00  0.00    -0.138 C  
BRANCH  16  17
HETATM   17  C   UNL     1      -6.589  10.505  65.905  1.00  0.00    -0.129 C  
BRANCH  17  18
HETATM   18  C   UNL     1      -7.898  10.448  65.124  1.00  0.00    -0.122 C  
BRANCH  18  19
HETATM   19  C   UNL     1      -7.844   9.318  64.096  1.00  0.00    -0.125 C  
BRANCH  19  20
HETATM   20  C   UNL     1      -6.587   8.470  64.268  1.00  0.00    -0.071 C  
BRANCH  20  21
HETATM   21  C   UNL     1      -6.947   7.031  64.636  1.00  0.00    -0.051 C  
BRANCH  21  22
HETATM   22  C   UNL     1      -5.929   6.445  65.569  1.00  0.00    -0.029 C  
HETATM   23  C   UNL     1      -5.619   6.970  66.761  1.00  0.00    -0.022 C  
ENDBRANCH  21  22
ENDBRANCH  20  21
ENDBRANCH  19  20
ENDBRANCH  18  19
ENDBRANCH  17  18
ENDBRANCH  16  17
ENDBRANCH  15  16
ENDBRANCH  14  15
ENDBRANCH  11  14
ENDBRANCH   5  10
ENDBRANCH   3   5
ENDBRANCH   2   3
TORSDOF 13
ENDMDL
MODEL      378
REMARK 921   NORMALIZED FREE ENERGY PREDICTED BY IDOCK:   -1.91 KCAL/MOL
REMARK 922        TOTAL FREE ENERGY PREDICTED BY IDOCK:   -5.47 KCAL/MOL
REMARK 923 INTER-LIGAND FREE ENERGY PREDICTED BY IDOCK:   -4.38 KCAL/MOL
REMARK 924 INTRA-LIGAND FREE ENERGY PREDICTED BY IDOCK:   -1.10 KCAL/MOL
REMARK 927      BINDING AFFINITY PREDICTED BY RF-SCORE:    0.00 PKD
ROOT
HETATM    1  C   UNL     1     -11.716   8.249  71.667  1.00  0.00    -0.292 C  
HETATM    2  O   UNL     1     -10.869   7.850  70.591  1.00  0.00    -0.229 OA 
ENDROOT
BRANCH   2   3
HETATM    3  C   UNL     1     -10.781   6.506  70.383  1.00  0.00    -0.255 C  
HETATM    4  O   UNL     1     -11.091   5.639  71.192  1.00  0.00    -0.230 OA 
BRANCH   3   5
HETATM    5  C   UNL     1     -10.258   6.233  68.969  1.00  0.00    -0.184 C  
BRANCH   5   6
HETATM    6  C   UNL     1      -9.416   4.952  68.908  1.00  0.00    -0.202 C  
HETATM    7  C   UNL     1      -9.821   4.508  66.426  1.00  0.00    -0.245 C  
HETATM    8  C   UNL     1      -8.942   2.695  67.906  1.00  0.00    -0.201 C  
HETATM    9  C   UNL     1      -9.848   3.929  67.840  1.00  0.00    -0.054 C  
ENDBRANCH   5   6
BRANCH   5  10
HETATM   10  N   UNL     1      -9.455   7.375  68.531  1.00  0.00    -0.144 N  
HETATM   11  C   UNL     1      -9.803   8.098  67.415  1.00  0.00    -0.184 C  
HETATM   12  H   UNL     1      -8.625   7.639  69.062  1.00  0.00     0.000 HD 
HETATM   13  O   UNL     1     -10.787   7.854  66.725  1.00  0.00    -0.234 OA 
BRANCH  11  14
HETATM   14  C   UNL     1      -8.839   9.208  67.072  1.00  0.00    -0.135 C  
BRANCH  14  15
HETATM   15  C   UNL     1      -7.926   9.500  68.260  1.00  0.00    -0.094 C  
BRANCH  15  16
HETATM   16  C   UNL     1      -8.189  10.870  68.888  1.00  0.00    -0.141 C  
BRANCH  16  17
HETATM   17  C   UNL     1      -8.782  11.861  67.888  1.00  0.00    -0.167 C  
BRANCH  17  18
HETATM   18  C   UNL     1      -7.712  12.743  67.252  1.00  0.00    -0.129 C  
BRANCH  18  19
HETATM   19  C   UNL     1      -8.176  14.198  67.236  1.00  0.00    -0.200 C  
BRANCH  19  20
HETATM   20  C   UNL     1      -8.806  14.595  68.569  1.00  0.00    -0.182 C  
BRANCH  20  21
HETATM   21  C   UNL     1     -10.175  15.241  68.353  1.00  0.00    -0.223 C  
BRANCH  21  22
HETATM   22  C   UNL     1     -11.115  14.887  69.466  1.00  0.00    -0.301 C  
HETATM   23  C   UNL     1     -11.992  15.743  70.005  1.00  0.00    -0.352 C  
ENDBRANCH  21  22
ENDBRANCH  20  21
ENDBRANCH  19  20
ENDBRANCH  18  19
ENDBRANCH  17  18
ENDBRANCH  16  17
ENDBRANCH  15  16
ENDBRANCH  14  15
ENDBRANCH  11  14
ENDBRANCH   5  10
ENDBRANCH   3   5
ENDBRANCH   2   3
TORSDOF 13
ENDMDL
MODEL      379
REMARK 921   NORMALIZED FREE ENERGY PREDICTED BY IDOCK:   -1.89 KCAL/MOL
REMARK 922        TOTAL FREE ENERGY PREDICTED BY IDOCK:   -5.44 KCAL/MOL
REMARK 923 INTER-LIGAND FREE ENERGY PREDICTED BY IDOCK:   -5.43 KCAL/MOL
REMARK 924 INTRA-LIGAND FREE ENERGY PREDICTED BY IDOCK:   -0.00 KCAL/MOL
REMARK 927      BINDING AFFINITY PREDICTED BY RF-SCORE:    0.00 PKD
ROOT
HETATM    1  C   UNL     1      -6.107   5.066  70.875  1.00  0.00    -0.018 C  
HETATM    2  O   UNL     1      -7.456   4.888  70.449  1.00  0.00    -0.056 OA 
ENDROOT
BRANCH   2   3
HETATM    3  C   UNL     1      -8.025   5.966  69.840  1.00  0.00    -0.104 C  
HETATM    4  O   UNL     1      -8.344   6.029  68.658  1.00  0.00    -0.112 OA 
BRANCH   3   5
HETATM    5  C   UNL     1      -8.234   7.089  70.861  1.00  0.00    -0.121 C  
BRANCH   5   6
HETATM    6  C   UNL     1      -9.435   6.814  71.776  1.00  0.00    -0.150 C  
HETATM    7  C   UNL     1      -8.499   8.066  73.795  1.00  0.00    -0.317 C  
HETATM    8  C   UNL     1     -10.396   6.461  74.072  1.00  0.00    -0.340 C  
HETATM    9  C   UNL     1      -9.119   6.765  73.283  1.00  0.00    -0.148 C  
ENDBRANCH   5   6
BRANCH   5  10
HETATM   10  N   UNL     1      -8.433   8.350  70.147  1.00  0.00    -0.122 N  
HETATM   11  C   UNL     1      -9.697   8.806  69.857  1.00  0.00    -0.178 C  
HETATM   12  H   UNL     1      -7.622   8.899  69.860  1.00  0.00     0.000 HD 
HETATM   13  O   UNL     1     -10.724   8.214  70.171  1.00  0.00    -0.238 OA 
BRANCH  11  14
HETATM   14  C   UNL     1      -9.724  10.093  69.068  1.00  0.00    -0.212 C  
BRANCH  14  15
HETATM   15  C   UNL     1     -10.994  10.168  68.223  1.00  0.00    -0.299 C  
BRANCH  15  16
HETATM   16  C   UNL     1     -12.006  11.181  68.762  1.00  0.00    -0.337 C  
BRANCH  16  17
HETATM   17  C   UNL     1     -11.646  12.616  68.384  1.00  0.00    -0.370 C  
BRANCH  17  18
HETATM   18  C   UNL     1     -11.890  12.898  66.905  1.00  0.00    -0.444 C  
BRANCH  18  19
HETATM   19  C   UNL     1     -10.610  13.418  66.254  1.00  0.00    -0.292 C  
BRANCH  19  20
HETATM   20  C   UNL     1     -10.859  13.857  64.813  1.00  0.00    -0.430 C  
BRANCH  20  21
HETATM   21  C   UNL     1     -11.050  15.371  64.730  1.00  0.00    -0.416 C  
BRANCH  21  22
HETATM   22  C   UNL     1     -10.252  16.071  65.789  1.00  0.00    -0.401 C  
HETATM   23  C   UNL     1     -10.382  17.370  66.087  1.00  0.00    -0.329 C  
ENDBRANCH  21  22
ENDBRANCH  20  21
ENDBRANCH  19  20
ENDBRANCH  18  19
ENDBRANCH  17  18
ENDBRANCH  16  17
ENDBRANCH  15  16
ENDBRANCH  14  15
ENDBRANCH  11  14
ENDBRANCH   5  10
ENDBRANCH   3   5
ENDBRANCH   2   3
TORSDOF 13
ENDMDL
MODEL      380
REMARK 921   NORMALIZED FREE ENERGY PREDICTED BY IDOCK:   -1.87 KCAL/MOL
REMARK 922        TOTAL FREE ENERGY PREDICTED BY IDOCK:   -5.40 KCAL/MOL
REMARK 923 INTER-LIGAND FREE ENERGY PREDICTED BY IDOCK:   -4.96 KCAL/MOL
REMARK 924 INTRA-LIGAND FREE ENERGY PREDICTED BY IDOCK:   -0.45 KCAL/MOL
REMARK 927      BINDING AFFINITY PREDICTED BY RF-SCORE:    0.00 PKD
ROOT
HETATM    1  C   UNL     1      -7.624   4.555  68.751  1.00  0.00    -0.064 C  
HETATM    2  O   UNL     1      -7.907   4.858  67.386  1.00  0.00    -0.093 OA 
ENDROOT
BRANCH   2   3
HETATM    3  C   UNL     1      -9.047   5.574  67.169  1.00  0.00    -0.111 C  
HETATM    4  O   UNL     1     -10.021   5.602  67.913  1.00  0.00    -0.126 OA 
BRANCH   3   5
HETATM    5  C   UNL     1      -8.922   6.364  65.864  1.00  0.00    -0.096 C  
BRANCH   5   6
HETATM    6  C   UNL     1      -7.489   6.341  65.316  1.00  0.00    -0.084 C  
HETATM    7  C   UNL     1      -7.921   8.002  63.424  1.00  0.00    -0.133 C  
HETATM    8  C   UNL     1      -5.881   6.557  63.395  1.00  0.00    -0.033 C  
HETATM    9  C   UNL     1      -7.354   6.635  63.810  1.00  0.00    -0.072 C  
ENDBRANCH   5   6
BRANCH   5  10
HETATM   10  N   UNL     1      -9.338   7.747  66.104  1.00  0.00    -0.350 N  
HETATM   11  C   UNL     1      -8.574   8.592  66.873  1.00  0.00    -0.117 C  
HETATM   12  H   UNL     1     -10.208   8.088  65.694  1.00  0.00     0.000 HD 
HETATM   13  O   UNL     1      -7.514   8.266  67.395  1.00  0.00    -0.091 OA 
BRANCH  11  14
HETATM   14  C   UNL     1      -9.173   9.963  67.066  1.00  0.00    -0.164 C  
BRANCH  14  15
HETATM   15  C   UNL     1     -10.628   9.846  67.516  1.00  0.00    -0.333 C  
BRANCH  15  16
HETATM   16  C   UNL     1     -10.795   9.993  69.030  1.00  0.00    -0.253 C  
BRANCH  16  17
HETATM   17  C   UNL     1     -10.956  11.451  69.454  1.00  0.00    -0.260 C  
BRANCH  17  18
HETATM   18  C   UNL     1     -12.154  11.651  70.377  1.00  0.00    -0.462 C  
BRANCH  18  19
HETATM   19  C   UNL     1     -12.876  10.321  70.591  1.00  0.00    -0.362 C  
BRANCH  19  20
HETATM   20  C   UNL     1     -12.851   9.907  72.060  1.00  0.00    -0.488 C  
BRANCH  20  21
HETATM   21  C   UNL     1     -12.027   8.633  72.252  1.00  0.00    -0.438 C  
BRANCH  21  22
HETATM   22  C   UNL     1     -12.612   7.494  71.473  1.00  0.00    -0.385 C  
HETATM   23  C   UNL     1     -11.903   6.706  70.655  1.00  0.00    -0.443 C  
ENDBRANCH  21  22
ENDBRANCH  20  21
ENDBRANCH  19  20
ENDBRANCH  18  19
ENDBRANCH  17  18
ENDBRANCH  16  17
ENDBRANCH  15  16
ENDBRANCH  14  15
ENDBRANCH  11  14
ENDBRANCH   5  10
ENDBRANCH   3   5
ENDBRANCH   2   3
TORSDOF 13
ENDMDL
MODEL      381
REMARK 921   NORMALIZED FREE ENERGY PREDICTED BY IDOCK:   -1.87 KCAL/MOL
REMARK 922        TOTAL FREE ENERGY PREDICTED BY IDOCK:   -5.40 KCAL/MOL
REMARK 923 INTER-LIGAND FREE ENERGY PREDICTED BY IDOCK:   -4.24 KCAL/MOL
REMARK 924 INTRA-LIGAND FREE ENERGY PREDICTED BY IDOCK:   -1.16 KCAL/MOL
REMARK 927      BINDING AFFINITY PREDICTED BY RF-SCORE:    0.00 PKD
ROOT
HETATM    1  C   UNL     1      -5.784   6.580  72.514  1.00  0.00    -0.038 C  
HETATM    2  O   UNL     1      -6.999   7.328  72.530  1.00  0.00    -0.066 OA 
ENDROOT
BRANCH   2   3
HETATM    3  C   UNL     1      -8.089   6.684  72.025  1.00  0.00    -0.102 C  
HETATM    4  O   UNL     1      -8.398   5.521  72.255  1.00  0.00    -0.117 OA 
BRANCH   3   5
HETATM    5  C   UNL     1      -8.893   7.642  71.141  1.00  0.00    -0.137 C  
BRANCH   5   6
HETATM    6  C   UNL     1     -10.322   7.137  70.903  1.00  0.00    -0.214 C  
HETATM    7  C   UNL     1     -11.475   9.264  71.725  1.00  0.00    -0.448 C  
HETATM    8  C   UNL     1     -12.765   7.134  71.499  1.00  0.00    -0.433 C  
HETATM    9  C   UNL     1     -11.397   7.740  71.828  1.00  0.00    -0.302 C  
ENDBRANCH   5   6
BRANCH   5  10
HETATM   10  N   UNL     1      -8.203   7.798  69.860  1.00  0.00    -0.123 N  
HETATM   11  C   UNL     1      -7.631   8.997  69.506  1.00  0.00    -0.077 C  
HETATM   12  H   UNL     1      -8.145   7.006  69.220  1.00  0.00     0.000 HD 
HETATM   13  O   UNL     1      -7.647   9.996  70.217  1.00  0.00    -0.170 OA 
BRANCH  11  14
HETATM   14  C   UNL     1      -7.008   9.003  68.131  1.00  0.00    -0.077 C  
BRANCH  14  15
HETATM   15  C   UNL     1      -6.418  10.378  67.824  1.00  0.00    -0.061 C  
BRANCH  15  16
HETATM   16  C   UNL     1      -7.025  11.020  66.575  1.00  0.00    -0.138 C  
BRANCH  16  17
HETATM   17  C   UNL     1      -8.314  11.777  66.883  1.00  0.00    -0.170 C  
BRANCH  17  18
HETATM   18  C   UNL     1      -8.257  12.482  68.234  1.00  0.00    -0.168 C  
BRANCH  18  19
HETATM   19  C   UNL     1      -8.156  13.993  68.031  1.00  0.00    -0.152 C  
BRANCH  19  20
HETATM   20  C   UNL     1      -8.931  14.441  66.795  1.00  0.00    -0.256 C  
BRANCH  20  21
HETATM   21  C   UNL     1     -10.398  14.702  67.138  1.00  0.00    -0.265 C  
BRANCH  21  22
HETATM   22  C   UNL     1     -11.262  14.591  65.917  1.00  0.00    -0.331 C  
HETATM   23  C   UNL     1     -11.870  13.462  65.532  1.00  0.00    -0.394 C  
ENDBRANCH  21  22
ENDBRANCH  20  21
ENDBRANCH  19  20
ENDBRANCH  18  19
ENDBRANCH  17  18
ENDBRANCH  16  17
ENDBRANCH  15  16
ENDBRANCH  14  15
ENDBRANCH  11  14
ENDBRANCH   5  10
ENDBRANCH   3   5
ENDBRANCH   2   3
TORSDOF 13
ENDMDL
MODEL      382
REMARK 921   NORMALIZED FREE ENERGY PREDICTED BY IDOCK:   -1.82 KCAL/MOL
REMARK 922        TOTAL FREE ENERGY PREDICTED BY IDOCK:   -5.32 KCAL/MOL
REMARK 923 INTER-LIGAND FREE ENERGY PREDICTED BY IDOCK:   -4.80 KCAL/MOL
REMARK 924 INTRA-LIGAND FREE ENERGY PREDICTED BY IDOCK:   -0.51 KCAL/MOL
REMARK 927      BINDING AFFINITY PREDICTED BY RF-SCORE:    0.00 PKD
ROOT
HETATM    1  C   UNL     1     -10.652  18.218  67.494  1.00  0.00    -0.409 C  
HETATM    2  O   UNL     1     -10.968  16.871  67.840  1.00  0.00    -0.342 OA 
ENDROOT
BRANCH   2   3
HETATM    3  C   UNL     1     -10.467  16.440  69.032  1.00  0.00    -0.288 C  
HETATM    4  O   UNL     1     -10.960  16.660  70.132  1.00  0.00    -0.321 OA 
BRANCH   3   5
HETATM    5  C   UNL     1      -9.201  15.611  68.793  1.00  0.00    -0.211 C  
BRANCH   5   6
HETATM    6  C   UNL     1      -7.936  16.480  68.813  1.00  0.00    -0.236 C  
HETATM    7  C   UNL     1      -6.314  14.546  69.206  1.00  0.00    -0.117 C  
HETATM    8  C   UNL     1      -5.590  16.905  69.611  1.00  0.00    -0.191 C  
HETATM    9  C   UNL     1      -6.773  15.932  69.661  1.00  0.00    -0.173 C  
ENDBRANCH   5   6
BRANCH   5  10
HETATM   10  N   UNL     1      -9.315  14.931  67.503  1.00  0.00    -0.190 N  
HETATM   11  C   UNL     1      -9.883  13.682  67.409  1.00  0.00    -0.234 C  
HETATM   12  H   UNL     1      -8.969  15.390  66.660  1.00  0.00     0.000 HD 
HETATM   13  O   UNL     1     -10.331  13.064  68.368  1.00  0.00    -0.244 OA 
BRANCH  11  14
HETATM   14  C   UNL     1      -9.872  13.102  66.016  1.00  0.00    -0.266 C  
BRANCH  14  15
HETATM   15  C   UNL     1     -11.263  12.591  65.646  1.00  0.00    -0.352 C  
BRANCH  15  16
HETATM   16  C   UNL     1     -11.279  11.097  65.315  1.00  0.00     0.019 C  
BRANCH  16  17
HETATM   17  C   UNL     1      -9.943  10.615  64.754  1.00  0.00    -0.391 C  
BRANCH  17  18
HETATM   18  C   UNL     1      -9.053  10.011  65.835  1.00  0.00    -0.195 C  
BRANCH  18  19
HETATM   19  C   UNL     1      -7.746   9.514  65.218  1.00  0.00    -0.111 C  
BRANCH  19  20
HETATM   20  C   UNL     1      -7.443   8.079  65.642  1.00  0.00    -0.081 C  
BRANCH  20  21
HETATM   21  C   UNL     1      -8.736   7.301  65.894  1.00  0.00    -0.150 C  
BRANCH  21  22
HETATM   22  C   UNL     1      -8.524   5.831  65.693  1.00  0.00    -0.149 C  
HETATM   23  C   UNL     1      -9.517   4.937  65.605  1.00  0.00    -0.168 C  
ENDBRANCH  21  22
ENDBRANCH  20  21
ENDBRANCH  19  20
ENDBRANCH  18  19
ENDBRANCH  17  18
ENDBRANCH  16  17
ENDBRANCH  15  16
ENDBRANCH  14  15
ENDBRANCH  11  14
ENDBRANCH   5  10
ENDBRANCH   3   5
ENDBRANCH   2   3
TORSDOF 13
ENDMDL
MODEL      383
REMARK 921   NORMALIZED FREE ENERGY PREDICTED BY IDOCK:   -1.81 KCAL/MOL
REMARK 922        TOTAL FREE ENERGY PREDICTED BY IDOCK:   -5.29 KCAL/MOL
REMARK 923 INTER-LIGAND FREE ENERGY PREDICTED BY IDOCK:   -4.51 KCAL/MOL
REMARK 924 INTRA-LIGAND FREE ENERGY PREDICTED BY IDOCK:   -0.78 KCAL/MOL
REMARK 927      BINDING AFFINITY PREDICTED BY RF-SCORE:    0.00 PKD
ROOT
HETATM    1  C   UNL     1     -13.200   7.075  71.638  1.00  0.00    -0.307 C  
HETATM    2  O   UNL     1     -12.130   7.825  71.065  1.00  0.00    -0.302 OA 
ENDROOT
BRANCH   2   3
HETATM    3  C   UNL     1     -10.930   7.713  71.701  1.00  0.00    -0.233 C  
HETATM    4  O   UNL     1     -10.427   8.562  72.427  1.00  0.00    -0.322 OA 
BRANCH   3   5
HETATM    5  C   UNL     1     -10.307   6.347  71.395  1.00  0.00    -0.206 C  
BRANCH   5   6
HETATM    6  C   UNL     1      -9.321   5.911  72.487  1.00  0.00    -0.146 C  
HETATM    7  C   UNL     1     -10.363   3.607  72.852  1.00  0.00    -0.244 C  
HETATM    8  C   UNL     1      -8.800   4.571  74.550  1.00  0.00    -0.107 C  
HETATM    9  C   UNL     1      -9.875   4.899  73.509  1.00  0.00    -0.167 C  
ENDBRANCH   5   6
BRANCH   5  10
HETATM   10  N   UNL     1      -9.618   6.418  70.106  1.00  0.00    -0.160 N  
HETATM   11  C   UNL     1      -8.365   6.974  70.002  1.00  0.00    -0.138 C  
HETATM   12  H   UNL     1     -10.075   6.049  69.271  1.00  0.00     0.000 HD 
HETATM   13  O   UNL     1      -7.743   7.432  70.954  1.00  0.00    -0.085 OA 
BRANCH  11  14
HETATM   14  C   UNL     1      -7.822   7.017  68.595  1.00  0.00    -0.119 C  
BRANCH  14  15
HETATM   15  C   UNL     1      -8.772   6.299  67.639  1.00  0.00    -0.113 C  
BRANCH  15  16
HETATM   16  C   UNL     1      -9.389   7.236  66.599  1.00  0.00    -0.215 C  
BRANCH  16  17
HETATM   17  C   UNL     1     -10.606   7.982  67.141  1.00  0.00    -0.367 C  
BRANCH  17  18
HETATM   18  C   UNL     1     -10.466   9.493  66.988  1.00  0.00    -0.302 C  
BRANCH  18  19
HETATM   19  C   UNL     1     -11.125  10.201  68.170  1.00  0.00    -0.290 C  
BRANCH  19  20
HETATM   20  C   UNL     1     -10.119  10.473  69.285  1.00  0.00    -0.244 C  
BRANCH  20  21
HETATM   21  C   UNL     1      -8.711  10.650  68.717  1.00  0.00    -0.157 C  
BRANCH  21  22
HETATM   22  C   UNL     1      -8.486  12.066  68.277  1.00  0.00    -0.167 C  
HETATM   23  C   UNL     1      -7.315  12.707  68.391  1.00  0.00    -0.118 C  
ENDBRANCH  21  22
ENDBRANCH  20  21
ENDBRANCH  19  20
ENDBRANCH  18  19
ENDBRANCH  17  18
ENDBRANCH  16  17
ENDBRANCH  15  16
ENDBRANCH  14  15
ENDBRANCH  11  14
ENDBRANCH   5  10
ENDBRANCH   3   5
ENDBRANCH   2   3
TORSDOF 13
ENDMDL
MODEL      384
REMARK 921   NORMALIZED FREE ENERGY PREDICTED BY IDOCK:   -1.80 KCAL/MOL
REMARK 922        TOTAL FREE ENERGY PREDICTED BY IDOCK:   -5.28 KCAL/MOL
REMARK 923 INTER-LIGAND FREE ENERGY PREDICTED BY IDOCK:   -3.95 KCAL/MOL
REMARK 924 INTRA-LIGAND FREE ENERGY PREDICTED BY IDOCK:   -1.33 KCAL/MOL
REMARK 927      BINDING AFFINITY PREDICTED BY RF-SCORE:    0.00 PKD
ROOT
HETATM    1  C   UNL     1      -9.952   4.474  65.686  1.00  0.00    -0.231 C  
HETATM    2  O   UNL     1      -8.747   5.144  66.053  1.00  0.00    -0.122 OA 
ENDROOT
BRANCH   2   3
HETATM    3  C   UNL     1      -8.247   6.003  65.120  1.00  0.00    -0.142 C  
HETATM    4  O   UNL     1      -8.318   5.853  63.906  1.00  0.00    -0.097 OA 
BRANCH   3   5
HETATM    5  C   UNL     1      -7.599   7.204  65.815  1.00  0.00    -0.094 C  
BRANCH   5   6
HETATM    6  C   UNL     1      -7.759   7.137  67.340  1.00  0.00    -0.110 C  
HETATM    7  C   UNL     1      -5.695   8.547  67.865  1.00  0.00    -0.039 C  
HETATM    8  C   UNL     1      -6.752   7.142  69.643  1.00  0.00    -0.049 C  
HETATM    9  C   UNL     1      -6.450   7.247  68.145  1.00  0.00    -0.045 C  
ENDBRANCH   5   6
BRANCH   5  10
HETATM   10  N   UNL     1      -8.210   8.433  65.306  1.00  0.00    -0.143 N  
HETATM   11  C   UNL     1      -9.509   8.759  65.618  1.00  0.00    -0.101 C  
HETATM   12  H   UNL     1      -7.664   9.057  64.712  1.00  0.00     0.000 HD 
HETATM   13  O   UNL     1     -10.231   8.071  66.330  1.00  0.00    -0.220 OA 
BRANCH  11  14
HETATM   14  C   UNL     1     -10.000  10.029  64.968  1.00  0.00    -0.320 C  
BRANCH  14  15
HETATM   15  C   UNL     1      -9.038  11.179  65.261  1.00  0.00    -0.183 C  
BRANCH  15  16
HETATM   16  C   UNL     1      -9.323  11.865  66.599  1.00  0.00    -0.210 C  
BRANCH  16  17
HETATM   17  C   UNL     1      -8.332  11.450  67.684  1.00  0.00    -0.129 C  
BRANCH  17  18
HETATM   18  C   UNL     1      -9.013  11.242  69.032  1.00  0.00     0.024 C  
BRANCH  18  19
HETATM   19  C   UNL     1      -9.289   9.756  69.256  1.00  0.00    -0.198 C  
BRANCH  19  20
HETATM   20  C   UNL     1     -10.742   9.514  69.654  1.00  0.00    -0.257 C  
BRANCH  20  21
HETATM   21  C   UNL     1     -10.828   8.857  71.032  1.00  0.00    -0.326 C  
BRANCH  21  22
HETATM   22  C   UNL     1     -12.037   9.334  71.778  1.00  0.00    -0.457 C  
HETATM   23  C   UNL     1     -12.609  10.530  71.590  1.00  0.00    -0.498 C  
ENDBRANCH  21  22
ENDBRANCH  20  21
ENDBRANCH  19  20
ENDBRANCH  18  19
ENDBRANCH  17  18
ENDBRANCH  16  17
ENDBRANCH  15  16
ENDBRANCH  14  15
ENDBRANCH  11  14
ENDBRANCH   5  10
ENDBRANCH   3   5
ENDBRANCH   2   3
TORSDOF 13
ENDMDL
MODEL      385
REMARK 921   NORMALIZED FREE ENERGY PREDICTED BY IDOCK:   -1.78 KCAL/MOL
REMARK 922        TOTAL FREE ENERGY PREDICTED BY IDOCK:   -5.24 KCAL/MOL
REMARK 923 INTER-LIGAND FREE ENERGY PREDICTED BY IDOCK:   -5.17 KCAL/MOL
REMARK 924 INTRA-LIGAND FREE ENERGY PREDICTED BY IDOCK:   -0.07 KCAL/MOL
REMARK 927      BINDING AFFINITY PREDICTED BY RF-SCORE:    0.00 PKD
ROOT
HETATM    1  C   UNL     1     -12.659  14.011  66.485  1.00  0.00    -0.174 C  
HETATM    2  O   UNL     1     -11.856  12.877  66.165  1.00  0.00    -0.387 OA 
ENDROOT
BRANCH   2   3
HETATM    3  C   UNL     1     -11.447  12.130  67.229  1.00  0.00    -0.345 C  
HETATM    4  O   UNL     1     -12.107  11.257  67.781  1.00  0.00    -0.631 OA 
BRANCH   3   5
HETATM    5  C   UNL     1     -10.021  12.526  67.623  1.00  0.00    -0.201 C  
BRANCH   5   6
HETATM    6  C   UNL     1      -9.434  13.572  66.666  1.00  0.00    -0.271 C  
HETATM    7  C   UNL     1      -8.227  14.911  68.477  1.00  0.00    -0.153 C  
HETATM    8  C   UNL     1      -8.621  15.909  66.218  1.00  0.00    -0.348 C  
HETATM    9  C   UNL     1      -9.182  14.962  67.283  1.00  0.00    -0.212 C  
ENDBRANCH   5   6
BRANCH   5  10
HETATM   10  N   UNL     1      -9.179  11.329  67.625  1.00  0.00    -0.154 N  
HETATM   11  C   UNL     1      -9.048  10.555  66.497  1.00  0.00    -0.157 C  
HETATM   12  H   UNL     1      -8.682  11.065  68.476  1.00  0.00     0.000 HD 
HETATM   13  O   UNL     1      -9.602  10.803  65.432  1.00  0.00    -0.196 OA 
BRANCH  11  14
HETATM   14  C   UNL     1      -8.188   9.328  66.685  1.00  0.00    -0.115 C  
BRANCH  14  15
HETATM   15  C   UNL     1      -8.803   8.136  65.955  1.00  0.00    -0.206 C  
BRANCH  15  16
HETATM   16  C   UNL     1      -9.951   7.490  66.733  1.00  0.00    -0.307 C  
BRANCH  16  17
HETATM   17  C   UNL     1      -9.540   7.094  68.149  1.00  0.00    -0.134 C  
BRANCH  17  18
HETATM   18  C   UNL     1     -10.391   5.952  68.695  1.00  0.00    -0.271 C  
BRANCH  18  19
HETATM   19  C   UNL     1      -9.971   5.625  70.127  1.00  0.00    -0.270 C  
BRANCH  19  20
HETATM   20  C   UNL     1      -9.449   4.195  70.240  1.00  0.00    -0.251 C  
BRANCH  20  21
HETATM   21  C   UNL     1      -8.251   3.978  69.315  1.00  0.00    -0.071 C  
BRANCH  21  22
HETATM   22  C   UNL     1      -8.342   2.651  68.623  1.00  0.00    -0.086 C  
HETATM   23  C   UNL     1      -9.496   2.062  68.285  1.00  0.00    -0.231 C  
ENDBRANCH  21  22
ENDBRANCH  20  21
ENDBRANCH  19  20
ENDBRANCH  18  19
ENDBRANCH  17  18
ENDBRANCH  16  17
ENDBRANCH  15  16
ENDBRANCH  14  15
ENDBRANCH  11  14
ENDBRANCH   5  10
ENDBRANCH   3   5
ENDBRANCH   2   3
TORSDOF 13
ENDMDL
MODEL      386
REMARK 921   NORMALIZED FREE ENERGY PREDICTED BY IDOCK:   -1.73 KCAL/MOL
REMARK 922        TOTAL FREE ENERGY PREDICTED BY IDOCK:   -5.16 KCAL/MOL
REMARK 923 INTER-LIGAND FREE ENERGY PREDICTED BY IDOCK:   -4.67 KCAL/MOL
REMARK 924 INTRA-LIGAND FREE ENERGY PREDICTED BY IDOCK:   -0.49 KCAL/MOL
REMARK 927      BINDING AFFINITY PREDICTED BY RF-SCORE:    0.00 PKD
ROOT
HETATM    1  C   UNL     1     -12.634   6.975  71.848  1.00  0.00    -0.295 C  
HETATM    2  O   UNL     1     -11.301   6.817  71.368  1.00  0.00    -0.255 OA 
ENDROOT
BRANCH   2   3
HETATM    3  C   UNL     1     -11.119   7.088  70.044  1.00  0.00    -0.278 C  
HETATM    4  O   UNL     1     -11.542   6.410  69.115  1.00  0.00    -0.318 OA 
BRANCH   3   5
HETATM    5  C   UNL     1     -10.324   8.388  69.886  1.00  0.00    -0.210 C  
BRANCH   5   6
HETATM    6  C   UNL     1      -8.821   8.169  70.101  1.00  0.00    -0.145 C  
HETATM    7  C   UNL     1      -8.096  10.376  69.038  1.00  0.00    -0.138 C  
HETATM    8  C   UNL     1      -6.437   8.540  69.393  1.00  0.00    -0.037 C  
HETATM    9  C   UNL     1      -7.901   8.860  69.076  1.00  0.00    -0.091 C  
ENDBRANCH   5   6
BRANCH   5  10
HETATM   10  N   UNL     1     -10.825   9.370  70.848  1.00  0.00    -0.293 N  
HETATM   11  C   UNL     1     -11.706  10.352  70.463  1.00  0.00    -0.344 C  
HETATM   12  H   UNL     1     -10.514   9.326  71.819  1.00  0.00     0.000 HD 
HETATM   13  O   UNL     1     -12.135  10.472  69.321  1.00  0.00    -0.203 OA 
BRANCH  11  14
HETATM   14  C   UNL     1     -12.079  11.315  71.564  1.00  0.00     0.118 C  
BRANCH  14  15
HETATM   15  C   UNL     1     -13.269  12.171  71.136  1.00  0.00     0.049 C  
BRANCH  15  16
HETATM   16  C   UNL     1     -12.854  13.552  70.624  1.00  0.00    -0.189 C  
BRANCH  16  17
HETATM   17  C   UNL     1     -11.977  14.300  71.626  1.00  0.00    -0.168 C  
BRANCH  17  18
HETATM   18  C   UNL     1     -12.100  15.813  71.477  1.00  0.00    -0.517 C  
BRANCH  18  19
HETATM   19  C   UNL     1     -11.166  16.307  70.373  1.00  0.00    -0.336 C  
BRANCH  19  20
HETATM   20  C   UNL     1     -10.211  15.206  69.921  1.00  0.00    -0.178 C  
BRANCH  20  21
HETATM   21  C   UNL     1      -9.088  15.781  69.056  1.00  0.00    -0.245 C  
BRANCH  21  22
HETATM   22  C   UNL     1      -9.446  17.146  68.551  1.00  0.00    -0.282 C  
HETATM   23  C   UNL     1      -8.558  18.130  68.361  1.00  0.00    -0.310 C  
ENDBRANCH  21  22
ENDBRANCH  20  21
ENDBRANCH  19  20
ENDBRANCH  18  19
ENDBRANCH  17  18
ENDBRANCH  16  17
ENDBRANCH  15  16
ENDBRANCH  14  15
ENDBRANCH  11  14
ENDBRANCH   5  10
ENDBRANCH   3   5
ENDBRANCH   2   3
TORSDOF 13
ENDMDL
MODEL      387
REMARK 921   NORMALIZED FREE ENERGY PREDICTED BY IDOCK:   -1.70 KCAL/MOL
REMARK 922        TOTAL FREE ENERGY PREDICTED BY IDOCK:   -5.09 KCAL/MOL
REMARK 923 INTER-LIGAND FREE ENERGY PREDICTED BY IDOCK:   -4.28 KCAL/MOL
REMARK 924 INTRA-LIGAND FREE ENERGY PREDICTED BY IDOCK:   -0.82 KCAL/MOL
REMARK 927      BINDING AFFINITY PREDICTED BY RF-SCORE:    0.00 PKD
ROOT
HETATM    1  C   UNL     1     -12.624   9.183  71.829  1.00  0.00    -0.370 C  
HETATM    2  O   UNL     1     -11.747   8.476  70.955  1.00  0.00    -0.281 OA 
ENDROOT
BRANCH   2   3
HETATM    3  C   UNL     1     -11.681   7.129  71.154  1.00  0.00    -0.313 C  
HETATM    4  O   UNL     1     -12.381   6.491  71.932  1.00  0.00    -0.347 OA 
BRANCH   3   5
HETATM    5  C   UNL     1     -10.615   6.521  70.239  1.00  0.00    -0.228 C  
BRANCH   5   6
HETATM    6  C   UNL     1      -9.783   5.453  70.961  1.00  0.00    -0.235 C  
HETATM    7  C   UNL     1      -9.493   3.945  68.920  1.00  0.00    -0.234 C  
HETATM    8  C   UNL     1      -9.044   3.063  71.217  1.00  0.00    -0.179 C  
HETATM    9  C   UNL     1      -9.903   4.026  70.391  1.00  0.00    -0.209 C  
ENDBRANCH   5   6
BRANCH   5  10
HETATM   10  N   UNL     1      -9.739   7.588  69.755  1.00  0.00    -0.170 N  
HETATM   11  C   UNL     1      -9.491   7.747  68.413  1.00  0.00    -0.147 C  
HETATM   12  H   UNL     1      -9.306   8.225  70.425  1.00  0.00     0.000 HD 
HETATM   13  O   UNL     1      -9.976   7.033  67.542  1.00  0.00    -0.139 OA 
BRANCH  11  14
HETATM   14  C   UNL     1      -8.524   8.860  68.089  1.00  0.00    -0.129 C  
BRANCH  14  15
HETATM   15  C   UNL     1      -8.689  10.008  69.082  1.00  0.00    -0.168 C  
BRANCH  15  16
HETATM   16  C   UNL     1      -8.005  11.296  68.621  1.00  0.00    -0.145 C  
BRANCH  16  17
HETATM   17  C   UNL     1      -6.519  11.319  68.972  1.00  0.00    -0.069 C  
BRANCH  17  18
HETATM   18  C   UNL     1      -6.036  12.721  69.328  1.00  0.00    -0.099 C  
BRANCH  18  19
HETATM   19  C   UNL     1      -5.465  13.408  68.089  1.00  0.00    -0.106 C  
BRANCH  19  20
HETATM   20  C   UNL     1      -6.229  14.689  67.763  1.00  0.00    -0.154 C  
BRANCH  20  21
HETATM   21  C   UNL     1      -5.338  15.918  67.955  1.00  0.00    -0.131 C  
BRANCH  21  22
HETATM   22  C   UNL     1      -5.737  17.019  67.020  1.00  0.00    -0.212 C  
HETATM   23  C   UNL     1      -6.912  17.659  67.076  1.00  0.00    -0.209 C  
ENDBRANCH  21  22
ENDBRANCH  20  21
ENDBRANCH  19  20
ENDBRANCH  18  19
ENDBRANCH  17  18
ENDBRANCH  16  17
ENDBRANCH  15  16
ENDBRANCH  14  15
ENDBRANCH  11  14
ENDBRANCH   5  10
ENDBRANCH   3   5
ENDBRANCH   2   3
TORSDOF 13
ENDMDL
MODEL      388
REMARK 921   NORMALIZED FREE ENERGY PREDICTED BY IDOCK:   -1.69 KCAL/MOL
REMARK 922        TOTAL FREE ENERGY PREDICTED BY IDOCK:   -5.09 KCAL/MOL
REMARK 923 INTER-LIGAND FREE ENERGY PREDICTED BY IDOCK:   -3.97 KCAL/MOL
REMARK 924 INTRA-LIGAND FREE ENERGY PREDICTED BY IDOCK:   -1.12 KCAL/MOL
REMARK 927      BINDING AFFINITY PREDICTED BY RF-SCORE:    0.00 PKD
ROOT
HETATM    1  C   UNL     1     -11.795  13.549  68.698  1.00  0.00    -0.369 C  
HETATM    2  O   UNL     1     -10.689  12.704  68.384  1.00  0.00    -0.227 OA 
ENDROOT
BRANCH   2   3
HETATM    3  C   UNL     1     -10.944  11.366  68.427  1.00  0.00    -0.215 C  
HETATM    4  O   UNL     1     -12.005  10.834  68.123  1.00  0.00    -0.527 OA 
BRANCH   3   5
HETATM    5  C   UNL     1      -9.693  10.614  68.890  1.00  0.00    -0.202 C  
BRANCH   5   6
HETATM    6  C   UNL     1      -8.539  10.751  67.887  1.00  0.00    -0.125 C  
HETATM    7  C   UNL     1      -6.685  10.767  69.644  1.00  0.00    -0.122 C  
HETATM    8  C   UNL     1      -6.226  11.553  67.315  1.00  0.00    -0.104 C  
HETATM    9  C   UNL     1      -7.282  11.465  68.421  1.00  0.00    -0.087 C  
ENDBRANCH   5   6
BRANCH   5  10
HETATM   10  N   UNL     1     -10.027   9.201  69.070  1.00  0.00    -0.178 N  
HETATM   11  C   UNL     1     -10.191   8.667  70.326  1.00  0.00    -0.194 C  
HETATM   12  H   UNL     1     -10.141   8.603  68.251  1.00  0.00     0.000 HD 
HETATM   13  O   UNL     1     -10.081   9.315  71.361  1.00  0.00    -0.314 OA 
BRANCH  11  14
HETATM   14  C   UNL     1     -10.479   7.186  70.335  1.00  0.00    -0.234 C  
BRANCH  14  15
HETATM   15  C   UNL     1     -11.474   6.834  69.231  1.00  0.00    -0.162 C  
BRANCH  15  16
HETATM   16  C   UNL     1     -10.814   6.154  68.031  1.00  0.00    -0.398 C  
BRANCH  16  17
HETATM   17  C   UNL     1      -9.934   4.976  68.445  1.00  0.00    -0.202 C  
BRANCH  17  18
HETATM   18  C   UNL     1      -8.546   5.049  67.819  1.00  0.00    -0.103 C  
BRANCH  18  19
HETATM   19  C   UNL     1      -7.494   5.277  68.904  1.00  0.00    -0.074 C  
BRANCH  19  20
HETATM   20  C   UNL     1      -7.875   4.571  70.202  1.00  0.00    -0.060 C  
BRANCH  20  21
HETATM   21  C   UNL     1      -6.741   3.664  70.682  1.00  0.00    -0.033 C  
BRANCH  21  22
HETATM   22  C   UNL     1      -6.952   3.252  72.108  1.00  0.00    -0.030 C  
HETATM   23  C   UNL     1      -6.409   2.158  72.658  1.00  0.00    -0.010 C  
ENDBRANCH  21  22
ENDBRANCH  20  21
ENDBRANCH  19  20
ENDBRANCH  18  19
ENDBRANCH  17  18
ENDBRANCH  16  17
ENDBRANCH  15  16
ENDBRANCH  14  15
ENDBRANCH  11  14
ENDBRANCH   5  10
ENDBRANCH   3   5
ENDBRANCH   2   3
TORSDOF 13
ENDMDL
MODEL      389
REMARK 921   NORMALIZED FREE ENERGY PREDICTED BY IDOCK:   -1.63 KCAL/MOL
REMARK 922        TOTAL FREE ENERGY PREDICTED BY IDOCK:   -4.98 KCAL/MOL
REMARK 923 INTER-LIGAND FREE ENERGY PREDICTED BY IDOCK:   -4.93 KCAL/MOL
REMARK 924 INTRA-LIGAND FREE ENERGY PREDICTED BY IDOCK:   -0.05 KCAL/MOL
REMARK 927      BINDING AFFINITY PREDICTED BY RF-SCORE:    0.00 PKD
ROOT
HETATM    1  C   UNL     1     -10.040   8.545  72.579  1.00  0.00    -0.249 C  
HETATM    2  O   UNL     1     -11.390   8.592  72.120  1.00  0.00    -0.338 OA 
ENDROOT
BRANCH   2   3
HETATM    3  C   UNL     1     -11.720   9.691  71.384  1.00  0.00    -0.404 C  
HETATM    4  O   UNL     1     -12.431  10.614  71.765  1.00  0.00    -0.351 OA 
BRANCH   3   5
HETATM    5  C   UNL     1     -11.047   9.617  70.010  1.00  0.00    -0.255 C  
BRANCH   5   6
HETATM    6  C   UNL     1     -11.449  10.795  69.113  1.00  0.00    -0.368 C  
HETATM    7  C   UNL     1      -9.462  10.580  67.521  1.00  0.00    -0.166 C  
HETATM    8  C   UNL     1     -10.821  12.679  67.571  1.00  0.00    -0.267 C  
HETATM    9  C   UNL     1     -10.282  11.516  68.410  1.00  0.00    -0.211 C  
ENDBRANCH   5   6
BRANCH   5  10
HETATM   10  N   UNL     1     -11.418   8.356  69.368  1.00  0.00    -0.198 N  
HETATM   11  C   UNL     1     -10.471   7.401  69.086  1.00  0.00    -0.213 C  
HETATM   12  H   UNL     1     -12.394   8.183  69.126  1.00  0.00     0.000 HD 
HETATM   13  O   UNL     1      -9.280   7.524  69.349  1.00  0.00    -0.149 OA 
BRANCH  11  14
HETATM   14  C   UNL     1     -11.012   6.185  68.374  1.00  0.00    -0.391 C  
BRANCH  14  15
HETATM   15  C   UNL     1     -10.677   6.252  66.885  1.00  0.00    -0.411 C  
BRANCH  15  16
HETATM   16  C   UNL     1     -10.348   4.882  66.288  1.00  0.00    -0.336 C  
BRANCH  16  17
HETATM   17  C   UNL     1      -9.539   4.012  67.247  1.00  0.00    -0.229 C  
BRANCH  17  18
HETATM   18  C   UNL     1      -8.088   4.470  67.350  1.00  0.00    -0.101 C  
BRANCH  18  19
HETATM   19  C   UNL     1      -7.370   4.238  66.021  1.00  0.00    -0.080 C  
BRANCH  19  20
HETATM   20  C   UNL     1      -8.358   3.882  64.912  1.00  0.00    -0.104 C  
BRANCH  20  21
HETATM   21  C   UNL     1      -7.683   3.031  63.835  1.00  0.00    -0.076 C  
BRANCH  21  22
HETATM   22  C   UNL     1      -6.212   2.904  64.096  1.00  0.00    -0.022 C  
HETATM   23  C   UNL     1      -5.548   1.741  64.080  1.00  0.00    -0.008 C  
ENDBRANCH  21  22
ENDBRANCH  20  21
ENDBRANCH  19  20
ENDBRANCH  18  19
ENDBRANCH  17  18
ENDBRANCH  16  17
ENDBRANCH  15  16
ENDBRANCH  14  15
ENDBRANCH  11  14
ENDBRANCH   5  10
ENDBRANCH   3   5
ENDBRANCH   2   3
TORSDOF 13
ENDMDL
MODEL      390
REMARK 921   NORMALIZED FREE ENERGY PREDICTED BY IDOCK:   -1.53 KCAL/MOL
REMARK 922        TOTAL FREE ENERGY PREDICTED BY IDOCK:   -4.80 KCAL/MOL
REMARK 923 INTER-LIGAND FREE ENERGY PREDICTED BY IDOCK:   -3.98 KCAL/MOL
REMARK 924 INTRA-LIGAND FREE ENERGY PREDICTED BY IDOCK:   -0.83 KCAL/MOL
REMARK 927      BINDING AFFINITY PREDICTED BY RF-SCORE:    0.00 PKD
ROOT
HETATM    1  C   UNL     1     -10.010  12.731  68.021  1.00  0.00    -0.225 C  
HETATM    2  O   UNL     1     -10.163  11.313  68.027  1.00  0.00    -0.175 OA 
ENDROOT
BRANCH   2   3
HETATM    3  C   UNL     1      -9.150  10.617  68.616  1.00  0.00    -0.170 C  
HETATM    4  O   UNL     1      -8.077  11.088  68.973  1.00  0.00    -0.145 OA 
BRANCH   3   5
HETATM    5  C   UNL     1      -9.561   9.152  68.792  1.00  0.00    -0.159 C  
BRANCH   5   6
HETATM    6  C   UNL     1      -9.651   8.417  67.448  1.00  0.00    -0.202 C  
HETATM    7  C   UNL     1     -10.520   6.223  68.424  1.00  0.00    -0.273 C  
HETATM    8  C   UNL     1      -9.569   6.289  66.113  1.00  0.00    -0.059 C  
HETATM    9  C   UNL     1      -9.481   6.888  67.520  1.00  0.00    -0.143 C  
ENDBRANCH   5   6
BRANCH   5  10
HETATM   10  N   UNL     1     -10.856   9.101  69.472  1.00  0.00    -0.332 N  
HETATM   11  C   UNL     1     -10.934   9.100  70.845  1.00  0.00    -0.282 C  
HETATM   12  H   UNL     1     -11.713   9.066  68.920  1.00  0.00     0.000 HD 
HETATM   13  O   UNL     1      -9.957   9.148  71.583  1.00  0.00    -0.316 OA 
BRANCH  11  14
HETATM   14  C   UNL     1     -12.340   8.988  71.383  1.00  0.00    -0.380 C  
BRANCH  14  15
HETATM   15  C   UNL     1     -12.893   7.588  71.130  1.00  0.00    -0.264 C  
BRANCH  15  16
HETATM   16  C   UNL     1     -12.829   6.690  72.367  1.00  0.00     0.181 C  
BRANCH  16  17
HETATM   17  C   UNL     1     -11.393   6.405  72.800  1.00  0.00    -0.226 C  
BRANCH  17  18
HETATM   18  C   UNL     1     -11.062   4.917  72.743  1.00  0.00    -0.283 C  
BRANCH  18  19
HETATM   19  C   UNL     1      -9.897   4.677  71.784  1.00  0.00    -0.247 C  
BRANCH  19  20
HETATM   20  C   UNL     1      -8.625   4.301  72.540  1.00  0.00    -0.108 C  
BRANCH  20  21
HETATM   21  C   UNL     1      -8.844   3.045  73.384  1.00  0.00    -0.080 C  
BRANCH  21  22
HETATM   22  C   UNL     1      -8.300   1.832  72.692  1.00  0.00    -0.054 C  
HETATM   23  C   UNL     1      -7.211   1.842  71.912  1.00  0.00    -0.034 C  
ENDBRANCH  21  22
ENDBRANCH  20  21
ENDBRANCH  19  20
ENDBRANCH  18  19
ENDBRANCH  17  18
ENDBRANCH  16  17
ENDBRANCH  15  16
ENDBRANCH  14  15
ENDBRANCH  11  14
ENDBRANCH   5  10
ENDBRANCH   3   5
ENDBRANCH   2   3
TORSDOF 13
ENDMDL
MODEL      391
REMARK 921   NORMALIZED FREE ENERGY PREDICTED BY IDOCK:   -1.51 KCAL/MOL
REMARK 922        TOTAL FREE ENERGY PREDICTED BY IDOCK:   -4.76 KCAL/MOL
REMARK 923 INTER-LIGAND FREE ENERGY PREDICTED BY IDOCK:   -3.81 KCAL/MOL
REMARK 924 INTRA-LIGAND FREE ENERGY PREDICTED BY IDOCK:   -0.95 KCAL/MOL
REMARK 927      BINDING AFFINITY PREDICTED BY RF-SCORE:    0.00 PKD
ROOT
HETATM    1  C   UNL     1      -9.484   9.464  71.659  1.00  0.00     0.318 C  
HETATM    2  O   UNL     1     -10.889   9.253  71.539  1.00  0.00    -0.339 OA 
ENDROOT
BRANCH   2   3
HETATM    3  C   UNL     1     -11.541  10.111  70.704  1.00  0.00    -0.343 C  
HETATM    4  O   UNL     1     -12.421  10.895  71.037  1.00  0.00    -0.349 OA 
BRANCH   3   5
HETATM    5  C   UNL     1     -10.991   9.968  69.282  1.00  0.00    -0.228 C  
BRANCH   5   6
HETATM    6  C   UNL     1     -11.590  11.012  68.330  1.00  0.00    -0.354 C  
HETATM    7  C   UNL     1     -10.098  10.418  66.343  1.00  0.00    -0.287 C  
HETATM    8  C   UNL     1     -11.352  12.581  66.380  1.00  0.00    -0.379 C  
HETATM    9  C   UNL     1     -10.635  11.535  67.239  1.00  0.00    -0.266 C  
ENDBRANCH   5   6
BRANCH   5  10
HETATM   10  N   UNL     1     -11.286   8.622  68.791  1.00  0.00    -0.274 N  
HETATM   11  C   UNL     1     -10.276   7.765  68.424  1.00  0.00    -0.200 C  
HETATM   12  H   UNL     1     -12.256   8.314  68.720  1.00  0.00     0.000 HD 
HETATM   13  O   UNL     1      -9.085   8.051  68.485  1.00  0.00    -0.137 OA 
BRANCH  11  14
HETATM   14  C   UNL     1     -10.754   6.438  67.889  1.00  0.00    -0.372 C  
BRANCH  14  15
HETATM   15  C   UNL     1     -10.036   6.105  66.583  1.00  0.00    -0.218 C  
BRANCH  15  16
HETATM   16  C   UNL     1      -9.249   4.795  66.654  1.00  0.00    -0.128 C  
BRANCH  16  17
HETATM   17  C   UNL     1      -8.235   4.791  67.795  1.00  0.00    -0.100 C  
BRANCH  17  18
HETATM   18  C   UNL     1      -6.834   5.161  67.318  1.00  0.00    -0.060 C  
BRANCH  18  19
HETATM   19  C   UNL     1      -5.803   4.782  68.380  1.00  0.00    -0.025 C  
BRANCH  19  20
HETATM   20  C   UNL     1      -5.560   3.276  68.405  1.00  0.00    -0.018 C  
BRANCH  20  21
HETATM   21  C   UNL     1      -5.792   2.710  69.807  1.00  0.00    -0.022 C  
BRANCH  21  22
HETATM   22  C   UNL     1      -5.747   3.798  70.838  1.00  0.00    -0.013 C  
HETATM   23  C   UNL     1      -6.126   3.638  72.112  1.00  0.00    -0.013 C  
ENDBRANCH  21  22
ENDBRANCH  20  21
ENDBRANCH  19  20
ENDBRANCH  18  19
ENDBRANCH  17  18
ENDBRANCH  16  17
ENDBRANCH  15  16
ENDBRANCH  14  15
ENDBRANCH  11  14
ENDBRANCH   5  10
ENDBRANCH   3   5
ENDBRANCH   2   3
TORSDOF 13
ENDMDL
MODEL      392
REMARK 921   NORMALIZED FREE ENERGY PREDICTED BY IDOCK:   -1.50 KCAL/MOL
REMARK 922        TOTAL FREE ENERGY PREDICTED BY IDOCK:   -4.74 KCAL/MOL
REMARK 923 INTER-LIGAND FREE ENERGY PREDICTED BY IDOCK:   -5.09 KCAL/MOL
REMARK 924 INTRA-LIGAND FREE ENERGY PREDICTED BY IDOCK:    0.35 KCAL/MOL
REMARK 927      BINDING AFFINITY PREDICTED BY RF-SCORE:    0.00 PKD
ROOT
HETATM    1  C   UNL     1     -12.763  12.682  64.637  1.00  0.00    -0.377 C  
HETATM    2  O   UNL     1     -11.526  13.379  64.768  1.00  0.00    -0.315 OA 
ENDROOT
BRANCH   2   3
HETATM    3  C   UNL     1     -11.015  13.433  66.031  1.00  0.00    -0.271 C  
HETATM    4  O   UNL     1     -11.568  13.937  67.001  1.00  0.00    -0.331 OA 
BRANCH   3   5
HETATM    5  C   UNL     1      -9.648  12.742  66.066  1.00  0.00    -0.178 C  
BRANCH   5   6
HETATM    6  C   UNL     1      -9.769  11.225  65.868  1.00  0.00    -0.258 C  
HETATM    7  C   UNL     1     -11.388  10.851  67.807  1.00  0.00    -0.366 C  
HETATM    8  C   UNL     1     -10.151   8.923  66.805  1.00  0.00    -0.350 C  
HETATM    9  C   UNL     1     -10.082  10.416  67.141  1.00  0.00    -0.254 C  
ENDBRANCH   5   6
BRANCH   5  10
HETATM   10  N   UNL     1      -9.007  13.024  67.351  1.00  0.00    -0.194 N  
HETATM   11  C   UNL     1      -8.137  14.079  67.491  1.00  0.00    -0.186 C  
HETATM   12  H   UNL     1      -9.209  12.429  68.155  1.00  0.00     0.000 HD 
HETATM   13  O   UNL     1      -7.845  14.846  66.580  1.00  0.00     0.045 OA 
BRANCH  11  14
HETATM   14  C   UNL     1      -7.522  14.196  68.864  1.00  0.00    -0.112 C  
BRANCH  14  15
HETATM   15  C   UNL     1      -8.398  15.068  69.762  1.00  0.00     0.095 C  
BRANCH  15  16
HETATM   16  C   UNL     1      -8.670  16.450  69.166  1.00  0.00    -0.185 C  
BRANCH  16  17
HETATM   17  C   UNL     1      -7.397  17.281  69.029  1.00  0.00    -0.209 C  
BRANCH  17  18
HETATM   18  C   UNL     1      -7.687  18.699  68.548  1.00  0.00    -0.342 C  
BRANCH  18  19
HETATM   19  C   UNL     1      -7.420  18.806  67.047  1.00  0.00    -0.229 C  
BRANCH  19  20
HETATM   20  C   UNL     1      -8.552  18.181  66.236  1.00  0.00    -0.205 C  
BRANCH  20  21
HETATM   21  C   UNL     1      -9.905  18.445  66.897  1.00  0.00    -0.347 C  
BRANCH  21  22
HETATM   22  C   UNL     1     -10.146  19.916  67.055  1.00  0.00    -0.578 C  
HETATM   23  C   UNL     1     -10.597  20.483  68.181  1.00  0.00     0.055 C  
ENDBRANCH  21  22
ENDBRANCH  20  21
ENDBRANCH  19  20
ENDBRANCH  18  19
ENDBRANCH  17  18
ENDBRANCH  16  17
ENDBRANCH  15  16
ENDBRANCH  14  15
ENDBRANCH  11  14
ENDBRANCH   5  10
ENDBRANCH   3   5
ENDBRANCH   2   3
TORSDOF 13
ENDMDL
MODEL      393
REMARK 921   NORMALIZED FREE ENERGY PREDICTED BY IDOCK:   -1.45 KCAL/MOL
REMARK 922        TOTAL FREE ENERGY PREDICTED BY IDOCK:   -4.67 KCAL/MOL
REMARK 923 INTER-LIGAND FREE ENERGY PREDICTED BY IDOCK:   -3.76 KCAL/MOL
REMARK 924 INTRA-LIGAND FREE ENERGY PREDICTED BY IDOCK:   -0.90 KCAL/MOL
REMARK 927      BINDING AFFINITY PREDICTED BY RF-SCORE:    0.00 PKD
ROOT
HETATM    1  C   UNL     1     -12.091   6.484  71.448  1.00  0.00    -0.287 C  
HETATM    2  O   UNL     1     -10.853   7.167  71.637  1.00  0.00    -0.223 OA 
ENDROOT
BRANCH   2   3
HETATM    3  C   UNL     1      -9.812   6.711  70.884  1.00  0.00    -0.183 C  
HETATM    4  O   UNL     1      -9.799   5.662  70.250  1.00  0.00    -0.175 OA 
BRANCH   3   5
HETATM    5  C   UNL     1      -8.662   7.721  70.923  1.00  0.00    -0.137 C  
BRANCH   5   6
HETATM    6  C   UNL     1      -8.206   8.012  72.360  1.00  0.00    -0.193 C  
HETATM    7  C   UNL     1      -5.709   7.774  71.878  1.00  0.00    -0.035 C  
HETATM    8  C   UNL     1      -6.554   7.708  74.231  1.00  0.00    -0.100 C  
HETATM    9  C   UNL     1      -6.875   7.356  72.774  1.00  0.00    -0.064 C  
ENDBRANCH   5   6
BRANCH   5  10
HETATM   10  N   UNL     1      -9.097   8.961  70.281  1.00  0.00    -0.167 N  
HETATM   11  C   UNL     1      -8.543   9.374  69.092  1.00  0.00    -0.140 C  
HETATM   12  H   UNL     1      -9.822   9.528  70.721  1.00  0.00     0.000 HD 
HETATM   13  O   UNL     1      -7.674   8.751  68.493  1.00  0.00    -0.096 OA 
BRANCH  11  14
HETATM   14  C   UNL     1      -9.064  10.700  68.595  1.00  0.00    -0.170 C  
BRANCH  14  15
HETATM   15  C   UNL     1      -8.406  11.061  67.265  1.00  0.00    -0.125 C  
BRANCH  15  16
HETATM   16  C   UNL     1      -7.225  12.020  67.428  1.00  0.00    -0.144 C  
BRANCH  16  17
HETATM   17  C   UNL     1      -7.603  13.276  68.208  1.00  0.00    -0.139 C  
BRANCH  17  18
HETATM   18  C   UNL     1      -7.781  14.486  67.296  1.00  0.00    -0.177 C  
BRANCH  18  19
HETATM   19  C   UNL     1      -6.662  15.496  67.542  1.00  0.00    -0.220 C  
BRANCH  19  20
HETATM   20  C   UNL     1      -6.824  16.185  68.895  1.00  0.00    -0.152 C  
BRANCH  20  21
HETATM   21  C   UNL     1      -8.115  17.004  68.937  1.00  0.00    -0.210 C  
BRANCH  21  22
HETATM   22  C   UNL     1      -8.065  18.133  67.951  1.00  0.00    -0.251 C  
HETATM   23  C   UNL     1      -8.583  19.347  68.178  1.00  0.00    -0.374 C  
ENDBRANCH  21  22
ENDBRANCH  20  21
ENDBRANCH  19  20
ENDBRANCH  18  19
ENDBRANCH  17  18
ENDBRANCH  16  17
ENDBRANCH  15  16
ENDBRANCH  14  15
ENDBRANCH  11  14
ENDBRANCH   5  10
ENDBRANCH   3   5
ENDBRANCH   2   3
TORSDOF 13
ENDMDL
MODEL      394
REMARK 921   NORMALIZED FREE ENERGY PREDICTED BY IDOCK:   -1.45 KCAL/MOL
REMARK 922        TOTAL FREE ENERGY PREDICTED BY IDOCK:   -4.66 KCAL/MOL
REMARK 923 INTER-LIGAND FREE ENERGY PREDICTED BY IDOCK:   -4.79 KCAL/MOL
REMARK 924 INTRA-LIGAND FREE ENERGY PREDICTED BY IDOCK:    0.13 KCAL/MOL
REMARK 927      BINDING AFFINITY PREDICTED BY RF-SCORE:    0.00 PKD
ROOT
HETATM    1  C   UNL     1      -8.067  11.231  67.483  1.00  0.00    -0.124 C  
HETATM    2  O   UNL     1      -9.079  10.604  68.268  1.00  0.00    -0.142 OA 
ENDROOT
BRANCH   2   3
HETATM    3  C   UNL     1      -8.691  10.204  69.512  1.00  0.00    -0.174 C  
HETATM    4  O   UNL     1      -7.579  10.370  69.997  1.00  0.00    -0.152 OA 
BRANCH   3   5
HETATM    5  C   UNL     1      -9.867   9.536  70.231  1.00  0.00    -0.261 C  
BRANCH   5   6
HETATM    6  C   UNL     1     -10.606   8.545  69.321  1.00  0.00    -0.193 C  
HETATM    7  C   UNL     1     -11.702   7.237  71.221  1.00  0.00    -0.328 C  
HETATM    8  C   UNL     1     -11.593   6.269  68.918  1.00  0.00     0.136 C  
HETATM    9  C   UNL     1     -10.875   7.159  69.937  1.00  0.00    -0.276 C  
ENDBRANCH   5   6
BRANCH   5  10
HETATM   10  N   UNL     1     -10.793  10.571  70.692  1.00  0.00    -0.368 N  
HETATM   11  C   UNL     1     -11.838  10.987  69.902  1.00  0.00    -0.353 C  
HETATM   12  H   UNL     1     -10.661  10.990  71.613  1.00  0.00     0.000 HD 
HETATM   13  O   UNL     1     -12.074  10.532  68.789  1.00  0.00    -0.306 OA 
BRANCH  11  14
HETATM   14  C   UNL     1     -12.663  12.099  70.504  1.00  0.00    -0.071 C  
BRANCH  14  15
HETATM   15  C   UNL     1     -11.949  13.438  70.333  1.00  0.00    -0.358 C  
BRANCH  15  16
HETATM   16  C   UNL     1     -11.942  13.927  68.883  1.00  0.00    -0.393 C  
BRANCH  16  17
HETATM   17  C   UNL     1     -11.106  15.193  68.704  1.00  0.00    -0.276 C  
BRANCH  17  18
HETATM   18  C   UNL     1     -10.184  15.104  67.492  1.00  0.00    -0.238 C  
BRANCH  18  19
HETATM   19  C   UNL     1      -9.189  16.263  67.506  1.00  0.00    -0.206 C  
BRANCH  19  20
HETATM   20  C   UNL     1      -7.954  15.944  66.669  1.00  0.00    -0.270 C  
BRANCH  20  21
HETATM   21  C   UNL     1      -6.685  16.022  67.518  1.00  0.00    -0.205 C  
BRANCH  21  22
HETATM   22  C   UNL     1      -6.948  16.737  68.810  1.00  0.00    -0.197 C  
HETATM   23  C   UNL     1      -6.384  16.403  69.977  1.00  0.00    -0.038 C  
ENDBRANCH  21  22
ENDBRANCH  20  21
ENDBRANCH  19  20
ENDBRANCH  18  19
ENDBRANCH  17  18
ENDBRANCH  16  17
ENDBRANCH  15  16
ENDBRANCH  14  15
ENDBRANCH  11  14
ENDBRANCH   5  10
ENDBRANCH   3   5
ENDBRANCH   2   3
TORSDOF 13
ENDMDL
MODEL      395
REMARK 921   NORMALIZED FREE ENERGY PREDICTED BY IDOCK:   -1.45 KCAL/MOL
REMARK 922        TOTAL FREE ENERGY PREDICTED BY IDOCK:   -4.65 KCAL/MOL
REMARK 923 INTER-LIGAND FREE ENERGY PREDICTED BY IDOCK:   -4.94 KCAL/MOL
REMARK 924 INTRA-LIGAND FREE ENERGY PREDICTED BY IDOCK:    0.29 KCAL/MOL
REMARK 927      BINDING AFFINITY PREDICTED BY RF-SCORE:    0.00 PKD
ROOT
HETATM    1  C   UNL     1     -12.263  14.542  67.659  1.00  0.00    -0.111 C  
HETATM    2  O   UNL     1     -11.668  13.455  66.954  1.00  0.00    -0.347 OA 
ENDROOT
BRANCH   2   3
HETATM    3  C   UNL     1     -11.350  12.369  67.714  1.00  0.00    -0.299 C  
HETATM    4  O   UNL     1     -12.087  11.416  67.938  1.00  0.00    -0.646 OA 
BRANCH   3   5
HETATM    5  C   UNL     1      -9.914  12.501  68.232  1.00  0.00    -0.229 C  
BRANCH   5   6
HETATM    6  C   UNL     1      -9.091  13.486  67.391  1.00  0.00    -0.219 C  
HETATM    7  C   UNL     1      -7.259  13.830  69.136  1.00  0.00    -0.016 C  
HETATM    8  C   UNL     1      -7.509  15.434  67.235  1.00  0.00    -0.242 C  
HETATM    9  C   UNL     1      -8.257  14.502  68.194  1.00  0.00    -0.146 C  
ENDBRANCH   5   6
BRANCH   5  10
HETATM   10  N   UNL     1      -9.279  11.182  68.213  1.00  0.00    -0.162 N  
HETATM   11  C   UNL     1      -8.662  10.711  67.079  1.00  0.00    -0.128 C  
HETATM   12  H   UNL     1      -9.295  10.605  69.054  1.00  0.00     0.000 HD 
HETATM   13  O   UNL     1      -8.590  11.341  66.030  1.00  0.00    -0.175 OA 
BRANCH  11  14
HETATM   14  C   UNL     1      -8.107   9.314  67.213  1.00  0.00    -0.113 C  
BRANCH  14  15
HETATM   15  C   UNL     1      -9.133   8.289  66.732  1.00  0.00    -0.190 C  
BRANCH  15  16
HETATM   16  C   UNL     1     -10.240   8.032  67.756  1.00  0.00    -0.282 C  
BRANCH  16  17
HETATM   17  C   UNL     1      -9.685   7.609  69.114  1.00  0.00    -0.164 C  
BRANCH  17  18
HETATM   18  C   UNL     1     -10.705   6.823  69.931  1.00  0.00    -0.290 C  
BRANCH  18  19
HETATM   19  C   UNL     1     -10.055   6.290  71.207  1.00  0.00    -0.222 C  
BRANCH  19  20
HETATM   20  C   UNL     1     -10.248   4.782  71.339  1.00  0.00    -0.237 C  
BRANCH  20  21
HETATM   21  C   UNL     1      -9.839   4.301  72.732  1.00  0.00    -0.194 C  
BRANCH  21  22
HETATM   22  C   UNL     1     -10.117   2.837  72.896  1.00  0.00    -0.218 C  
HETATM   23  C   UNL     1     -11.098   2.343  73.662  1.00  0.00    -0.312 C  
ENDBRANCH  21  22
ENDBRANCH  20  21
ENDBRANCH  19  20
ENDBRANCH  18  19
ENDBRANCH  17  18
ENDBRANCH  16  17
ENDBRANCH  15  16
ENDBRANCH  14  15
ENDBRANCH  11  14
ENDBRANCH   5  10
ENDBRANCH   3   5
ENDBRANCH   2   3
TORSDOF 13
ENDMDL
MODEL      396
REMARK 921   NORMALIZED FREE ENERGY PREDICTED BY IDOCK:   -1.44 KCAL/MOL
REMARK 922        TOTAL FREE ENERGY PREDICTED BY IDOCK:   -4.63 KCAL/MOL
REMARK 923 INTER-LIGAND FREE ENERGY PREDICTED BY IDOCK:   -3.85 KCAL/MOL
REMARK 924 INTRA-LIGAND FREE ENERGY PREDICTED BY IDOCK:   -0.78 KCAL/MOL
REMARK 927      BINDING AFFINITY PREDICTED BY RF-SCORE:    0.00 PKD
ROOT
HETATM    1  C   UNL     1     -10.016  12.449  68.301  1.00  0.00    -0.224 C  
HETATM    2  O   UNL     1     -10.760  11.270  68.000  1.00  0.00    -0.183 OA 
ENDROOT
BRANCH   2   3
HETATM    3  C   UNL     1     -11.287  10.620  69.076  1.00  0.00    -0.277 C  
HETATM    4  O   UNL     1     -12.249  10.999  69.734  1.00  0.00    -0.326 OA 
BRANCH   3   5
HETATM    5  C   UNL     1     -10.513   9.323  69.329  1.00  0.00    -0.218 C  
BRANCH   5   6
HETATM    6  C   UNL     1     -10.363   9.030  70.828  1.00  0.00    -0.305 C  
HETATM    7  C   UNL     1     -11.260   6.642  70.703  1.00  0.00    -0.370 C  
HETATM    8  C   UNL     1     -11.111   7.821  72.902  1.00  0.00    -0.457 C  
HETATM    9  C   UNL     1     -11.355   7.999  71.401  1.00  0.00    -0.292 C  
ENDBRANCH   5   6
BRANCH   5  10
HETATM   10  N   UNL     1      -9.191   9.431  68.711  1.00  0.00    -0.131 N  
HETATM   11  C   UNL     1      -8.750   8.487  67.815  1.00  0.00    -0.137 C  
HETATM   12  H   UNL     1      -8.588  10.219  68.949  1.00  0.00     0.000 HD 
HETATM   13  O   UNL     1      -9.412   7.516  67.468  1.00  0.00    -0.135 OA 
BRANCH  11  14
HETATM   14  C   UNL     1      -7.345   8.718  67.314  1.00  0.00    -0.081 C  
BRANCH  14  15
HETATM   15  C   UNL     1      -6.977   7.666  66.270  1.00  0.00    -0.066 C  
BRANCH  15  16
HETATM   16  C   UNL     1      -5.485   7.325  66.271  1.00  0.00    -0.024 C  
BRANCH  16  17
HETATM   17  C   UNL     1      -5.216   5.910  65.765  1.00  0.00    -0.009 C  
BRANCH  17  18
HETATM   18  C   UNL     1      -6.410   5.334  65.010  1.00  0.00    -0.034 C  
BRANCH  18  19
HETATM   19  C   UNL     1      -5.992   4.939  63.595  1.00  0.00    -0.018 C  
BRANCH  19  20
HETATM   20  C   UNL     1      -7.208   4.743  62.692  1.00  0.00    -0.039 C  
BRANCH  20  21
HETATM   21  C   UNL     1      -8.506   4.906  63.484  1.00  0.00    -0.128 C  
BRANCH  21  22
HETATM   22  C   UNL     1      -9.595   4.052  62.908  1.00  0.00    -0.139 C  
HETATM   23  C   UNL     1     -10.677   3.659  63.591  1.00  0.00    -0.260 C  
ENDBRANCH  21  22
ENDBRANCH  20  21
ENDBRANCH  19  20
ENDBRANCH  18  19
ENDBRANCH  17  18
ENDBRANCH  16  17
ENDBRANCH  15  16
ENDBRANCH  14  15
ENDBRANCH  11  14
ENDBRANCH   5  10
ENDBRANCH   3   5
ENDBRANCH   2   3
TORSDOF 13
ENDMDL
MODEL      397
REMARK 921   NORMALIZED FREE ENERGY PREDICTED BY IDOCK:   -1.39 KCAL/MOL
REMARK 922        TOTAL FREE ENERGY PREDICTED BY IDOCK:   -4.55 KCAL/MOL
REMARK 923 INTER-LIGAND FREE ENERGY PREDICTED BY IDOCK:   -3.48 KCAL/MOL
REMARK 924 INTRA-LIGAND FREE ENERGY PREDICTED BY IDOCK:   -1.07 KCAL/MOL
REMARK 927      BINDING AFFINITY PREDICTED BY RF-SCORE:    0.00 PKD
ROOT
HETATM    1  C   UNL     1     -10.160  13.057  68.203  1.00  0.00    -0.237 C  
HETATM    2  O   UNL     1      -9.929  11.873  67.442  1.00  0.00    -0.188 OA 
ENDROOT
BRANCH   2   3
HETATM    3  C   UNL     1     -10.942  10.960  67.457  1.00  0.00    -0.293 C  
HETATM    4  O   UNL     1     -12.070  11.157  67.895  1.00  0.00    -0.627 OA 
BRANCH   3   5
HETATM    5  C   UNL     1     -10.471   9.651  66.816  1.00  0.00    -0.186 C  
BRANCH   5   6
HETATM    6  C   UNL     1     -10.857   8.430  67.661  1.00  0.00    -0.078 C  
HETATM    7  C   UNL     1      -9.393   9.042  69.663  1.00  0.00    -0.169 C  
HETATM    8  C   UNL     1     -10.291   6.721  69.417  1.00  0.00    -0.221 C  
HETATM    9  C   UNL     1      -9.786   7.955  68.662  1.00  0.00    -0.162 C  
ENDBRANCH   5   6
BRANCH   5  10
HETATM   10  N   UNL     1      -9.018   9.700  66.651  1.00  0.00    -0.144 N  
HETATM   11  C   UNL     1      -8.447   9.700  65.401  1.00  0.00    -0.145 C  
HETATM   12  H   UNL     1      -8.419   9.735  67.477  1.00  0.00     0.000 HD 
HETATM   13  O   UNL     1      -9.092   9.668  64.358  1.00  0.00    -0.237 OA 
BRANCH  11  14
HETATM   14  C   UNL     1      -6.938   9.698  65.409  1.00  0.00    -0.095 C  
BRANCH  14  15
HETATM   15  C   UNL     1      -6.411   8.268  65.304  1.00  0.00    -0.052 C  
BRANCH  15  16
HETATM   16  C   UNL     1      -6.712   7.431  66.549  1.00  0.00    -0.061 C  
BRANCH  16  17
HETATM   17  C   UNL     1      -5.752   6.253  66.699  1.00  0.00    -0.016 C  
BRANCH  17  18
HETATM   18  C   UNL     1      -6.238   5.246  67.735  1.00  0.00    -0.038 C  
BRANCH  18  19
HETATM   19  C   UNL     1      -7.252   4.293  67.103  1.00  0.00    -0.068 C  
BRANCH  19  20
HETATM   20  C   UNL     1      -6.842   3.909  65.684  1.00  0.00    -0.057 C  
BRANCH  20  21
HETATM   21  C   UNL     1      -8.071   3.740  64.789  1.00  0.00    -0.090 C  
BRANCH  21  22
HETATM   22  C   UNL     1      -9.239   4.506  65.333  1.00  0.00    -0.154 C  
HETATM   23  C   UNL     1     -10.511   4.098  65.239  1.00  0.00    -0.156 C  
ENDBRANCH  21  22
ENDBRANCH  20  21
ENDBRANCH  19  20
ENDBRANCH  18  19
ENDBRANCH  17  18
ENDBRANCH  16  17
ENDBRANCH  15  16
ENDBRANCH  14  15
ENDBRANCH  11  14
ENDBRANCH   5  10
ENDBRANCH   3   5
ENDBRANCH   2   3
TORSDOF 13
ENDMDL
MODEL      398
REMARK 921   NORMALIZED FREE ENERGY PREDICTED BY IDOCK:   -1.39 KCAL/MOL
REMARK 922        TOTAL FREE ENERGY PREDICTED BY IDOCK:   -4.55 KCAL/MOL
REMARK 923 INTER-LIGAND FREE ENERGY PREDICTED BY IDOCK:   -4.23 KCAL/MOL
REMARK 924 INTRA-LIGAND FREE ENERGY PREDICTED BY IDOCK:   -0.31 KCAL/MOL
REMARK 927      BINDING AFFINITY PREDICTED BY RF-SCORE:    0.00 PKD
ROOT
HETATM    1  C   UNL     1      -9.443   3.467  69.899  1.00  0.00    -0.184 C  
HETATM    2  O   UNL     1      -9.271   4.882  69.864  1.00  0.00    -0.110 OA 
ENDROOT
BRANCH   2   3
HETATM    3  C   UNL     1      -8.585   5.415  70.915  1.00  0.00    -0.126 C  
HETATM    4  O   UNL     1      -7.521   4.996  71.355  1.00  0.00    -0.080 OA 
BRANCH   3   5
HETATM    5  C   UNL     1      -9.331   6.640  71.453  1.00  0.00    -0.151 C  
BRANCH   5   6
HETATM    6  C   UNL     1     -10.711   6.800  70.803  1.00  0.00    -0.270 C  
HETATM    7  C   UNL     1     -11.691   8.255  72.660  1.00  0.00    -0.406 C  
HETATM    8  C   UNL     1     -13.195   7.137  71.004  1.00  0.00    -0.158 C  
HETATM    9  C   UNL     1     -11.880   7.017  71.782  1.00  0.00    -0.347 C  
ENDBRANCH   5   6
BRANCH   5  10
HETATM   10  N   UNL     1      -8.523   7.835  71.204  1.00  0.00    -0.110 N  
HETATM   11  C   UNL     1      -8.235   8.238  69.923  1.00  0.00    -0.123 C  
HETATM   12  H   UNL     1      -8.170   8.376  71.994  1.00  0.00     0.000 HD 
HETATM   13  O   UNL     1      -8.625   7.652  68.919  1.00  0.00    -0.128 OA 
BRANCH  11  14
HETATM   14  C   UNL     1      -7.347   9.457  69.843  1.00  0.00    -0.088 C  
BRANCH  14  15
HETATM   15  C   UNL     1      -7.933  10.474  68.867  1.00  0.00    -0.128 C  
BRANCH  15  16
HETATM   16  C   UNL     1      -9.423  10.730  69.098  1.00  0.00    -0.151 C  
BRANCH  16  17
HETATM   17  C   UNL     1     -10.170  11.013  67.796  1.00  0.00    -0.210 C  
BRANCH  17  18
HETATM   18  C   UNL     1      -9.519  12.135  66.995  1.00  0.00    -0.201 C  
BRANCH  18  19
HETATM   19  C   UNL     1      -9.865  11.989  65.514  1.00  0.00    -0.251 C  
BRANCH  19  20
HETATM   20  C   UNL     1     -10.004  10.521  65.119  1.00  0.00    -0.375 C  
BRANCH  20  21
HETATM   21  C   UNL     1      -9.616  10.313  63.654  1.00  0.00    -0.334 C  
BRANCH  21  22
HETATM   22  C   UNL     1      -8.553   9.263  63.526  1.00  0.00    -0.201 C  
HETATM   23  C   UNL     1      -7.489   9.175  64.333  1.00  0.00    -0.101 C  
ENDBRANCH  21  22
ENDBRANCH  20  21
ENDBRANCH  19  20
ENDBRANCH  18  19
ENDBRANCH  17  18
ENDBRANCH  16  17
ENDBRANCH  15  16
ENDBRANCH  14  15
ENDBRANCH  11  14
ENDBRANCH   5  10
ENDBRANCH   3   5
ENDBRANCH   2   3
TORSDOF 13
ENDMDL
MODEL      399
REMARK 921   NORMALIZED FREE ENERGY PREDICTED BY IDOCK:   -1.37 KCAL/MOL
REMARK 922        TOTAL FREE ENERGY PREDICTED BY IDOCK:   -4.52 KCAL/MOL
REMARK 923 INTER-LIGAND FREE ENERGY PREDICTED BY IDOCK:   -5.01 KCAL/MOL
REMARK 924 INTRA-LIGAND FREE ENERGY PREDICTED BY IDOCK:    0.50 KCAL/MOL
REMARK 927      BINDING AFFINITY PREDICTED BY RF-SCORE:    0.00 PKD
ROOT
HETATM    1  C   UNL     1      -7.398   5.686  68.572  1.00  0.00    -0.076 C  
HETATM    2  O   UNL     1      -7.849   7.032  68.431  1.00  0.00    -0.117 OA 
ENDROOT
BRANCH   2   3
HETATM    3  C   UNL     1      -6.908   7.992  68.660  1.00  0.00    -0.067 C  
HETATM    4  O   UNL     1      -5.724   7.784  68.897  1.00  0.00    -0.028 OA 
BRANCH   3   5
HETATM    5  C   UNL     1      -7.547   9.380  68.553  1.00  0.00    -0.081 C  
BRANCH   5   6
HETATM    6  C   UNL     1      -9.020   9.366  68.982  1.00  0.00    -0.141 C  
HETATM    7  C   UNL     1      -8.562   8.745  71.417  1.00  0.00    -0.254 C  
HETATM    8  C   UNL     1     -10.857   8.490  70.458  1.00  0.00    -0.252 C  
HETATM    9  C   UNL     1      -9.358   8.422  70.152  1.00  0.00    -0.164 C  
ENDBRANCH   5   6
BRANCH   5  10
HETATM   10  N   UNL     1      -7.438   9.847  67.171  1.00  0.00    -0.091 N  
HETATM   11  C   UNL     1      -8.482   9.699  66.290  1.00  0.00    -0.119 C  
HETATM   12  H   UNL     1      -6.574  10.290  66.857  1.00  0.00     0.000 HD 
HETATM   13  O   UNL     1      -9.556   9.187  66.586  1.00  0.00    -0.170 OA 
BRANCH  11  14
HETATM   14  C   UNL     1      -8.185  10.184  64.892  1.00  0.00    -0.157 C  
BRANCH  14  15
HETATM   15  C   UNL     1      -9.451  10.144  64.038  1.00  0.00    -0.341 C  
BRANCH  15  16
HETATM   16  C   UNL     1      -9.675  11.434  63.247  1.00  0.00    -0.413 C  
BRANCH  16  17
HETATM   17  C   UNL     1     -10.507  12.452  64.023  1.00  0.00    -0.443 C  
BRANCH  17  18
HETATM   18  C   UNL     1     -11.503  11.780  64.963  1.00  0.00    -0.253 C  
BRANCH  18  19
HETATM   19  C   UNL     1     -11.923  12.754  66.062  1.00  0.00    -0.491 C  
BRANCH  19  20
HETATM   20  C   UNL     1     -11.723  12.147  67.448  1.00  0.00    -0.374 C  
BRANCH  20  21
HETATM   21  C   UNL     1     -11.957  13.192  68.540  1.00  0.00    -0.324 C  
BRANCH  21  22
HETATM   22  C   UNL     1     -11.117  14.411  68.303  1.00  0.00    -0.275 C  
HETATM   23  C   UNL     1     -11.489  15.652  68.642  1.00  0.00    -0.381 C  
ENDBRANCH  21  22
ENDBRANCH  20  21
ENDBRANCH  19  20
ENDBRANCH  18  19
ENDBRANCH  17  18
ENDBRANCH  16  17
ENDBRANCH  15  16
ENDBRANCH  14  15
ENDBRANCH  11  14
ENDBRANCH   5  10
ENDBRANCH   3   5
ENDBRANCH   2   3
TORSDOF 13
ENDMDL
MODEL      400
REMARK 921   NORMALIZED FREE ENERGY PREDICTED BY IDOCK:   -1.30 KCAL/MOL
REMARK 922        TOTAL FREE ENERGY PREDICTED BY IDOCK:   -4.40 KCAL/MOL
REMARK 923 INTER-LIGAND FREE ENERGY PREDICTED BY IDOCK:   -2.97 KCAL/MOL
REMARK 924 INTRA-LIGAND FREE ENERGY PREDICTED BY IDOCK:   -1.43 KCAL/MOL
REMARK 927      BINDING AFFINITY PREDICTED BY RF-SCORE:    0.00 PKD
ROOT
HETATM    1  C   UNL     1      -9.022   3.043  68.509  1.00  0.00    -0.139 C  
HETATM    2  O   UNL     1      -9.102   4.364  69.039  1.00  0.00    -0.108 OA 
ENDROOT
BRANCH   2   3
HETATM    3  C   UNL     1      -9.425   4.446  70.361  1.00  0.00    -0.175 C  
HETATM    4  O   UNL     1      -9.951   3.558  71.021  1.00  0.00    -0.143 OA 
BRANCH   3   5
HETATM    5  C   UNL     1      -9.009   5.813  70.913  1.00  0.00    -0.145 C  
BRANCH   5   6
HETATM    6  C   UNL     1      -8.897   5.802  72.444  1.00  0.00    -0.131 C  
HETATM    7  C   UNL     1      -6.613   6.942  72.533  1.00  0.00    -0.058 C  
HETATM    8  C   UNL     1      -7.498   5.727  74.531  1.00  0.00    -0.087 C  
HETATM    9  C   UNL     1      -7.461   5.758  73.000  1.00  0.00    -0.096 C  
ENDBRANCH   5   6
BRANCH   5  10
HETATM   10  N   UNL     1      -9.991   6.814  70.495  1.00  0.00    -0.183 N  
HETATM   11  C   UNL     1      -9.593   8.037  70.011  1.00  0.00    -0.171 C  
HETATM   12  H   UNL     1     -10.986   6.600  70.563  1.00  0.00     0.000 HD 
HETATM   13  O   UNL     1      -8.420   8.372  69.889  1.00  0.00    -0.121 OA 
BRANCH  11  14
HETATM   14  C   UNL     1     -10.731   8.970  69.677  1.00  0.00    -0.228 C  
BRANCH  14  15
HETATM   15  C   UNL     1     -10.555   9.535  68.269  1.00  0.00    -0.260 C  
BRANCH  15  16
HETATM   16  C   UNL     1     -10.500   8.447  67.195  1.00  0.00    -0.380 C  
BRANCH  16  17
HETATM   17  C   UNL     1      -9.403   8.707  66.165  1.00  0.00    -0.291 C  
BRANCH  17  18
HETATM   18  C   UNL     1      -8.887   7.415  65.539  1.00  0.00     0.002 C  
BRANCH  18  19
HETATM   19  C   UNL     1      -8.468   6.435  66.633  1.00  0.00    -0.115 C  
BRANCH  19  20
HETATM   20  C   UNL     1      -7.056   6.731  67.131  1.00  0.00    -0.079 C  
BRANCH  20  21
HETATM   21  C   UNL     1      -6.037   6.583  66.001  1.00  0.00    -0.033 C  
BRANCH  21  22
HETATM   22  C   UNL     1      -5.894   5.147  65.594  1.00  0.00    -0.018 C  
HETATM   23  C   UNL     1      -5.228   4.741  64.505  1.00  0.00    -0.012 C  
ENDBRANCH  21  22
ENDBRANCH  20  21
ENDBRANCH  19  20
ENDBRANCH  18  19
ENDBRANCH  17  18
ENDBRANCH  16  17
ENDBRANCH  15  16
ENDBRANCH  14  15
ENDBRANCH  11  14
ENDBRANCH   5  10
ENDBRANCH   3   5
ENDBRANCH   2   3
TORSDOF 13
ENDMDL
MODEL      401
REMARK 921   NORMALIZED FREE ENERGY PREDICTED BY IDOCK:   -1.28 KCAL/MOL
REMARK 922        TOTAL FREE ENERGY PREDICTED BY IDOCK:   -4.37 KCAL/MOL
REMARK 923 INTER-LIGAND FREE ENERGY PREDICTED BY IDOCK:   -4.30 KCAL/MOL
REMARK 924 INTRA-LIGAND FREE ENERGY PREDICTED BY IDOCK:   -0.06 KCAL/MOL
REMARK 927      BINDING AFFINITY PREDICTED BY RF-SCORE:    0.00 PKD
ROOT
HETATM    1  C   UNL     1      -8.634  19.085  68.747  1.00  0.00    -0.321 C  
HETATM    2  O   UNL     1      -9.413  17.970  69.176  1.00  0.00    -0.156 OA 
ENDROOT
BRANCH   2   3
HETATM    3  C   UNL     1     -10.362  17.545  68.295  1.00  0.00    -0.379 C  
HETATM    4  O   UNL     1     -11.062  18.271  67.598  1.00  0.00    -0.230 OA 
BRANCH   3   5
HETATM    5  C   UNL     1     -10.411  16.014  68.283  1.00  0.00    -0.261 C  
BRANCH   5   6
HETATM    6  C   UNL     1     -11.730  15.479  68.856  1.00  0.00    -0.385 C  
HETATM    7  C   UNL     1     -11.263  16.201  71.262  1.00  0.00    -0.223 C  
HETATM    8  C   UNL     1     -13.051  14.524  70.770  1.00  0.00    -0.363 C  
HETATM    9  C   UNL     1     -11.682  15.057  70.337  1.00  0.00    -0.336 C  
ENDBRANCH   5   6
BRANCH   5  10
HETATM   10  N   UNL     1      -9.286  15.497  69.063  1.00  0.00    -0.220 N  
HETATM   11  C   UNL     1      -8.074  15.235  68.469  1.00  0.00    -0.143 C  
HETATM   12  H   UNL     1      -9.402  15.329  70.062  1.00  0.00     0.000 HD 
HETATM   13  O   UNL     1      -7.847  15.415  67.278  1.00  0.00    -0.171 OA 
BRANCH  11  14
HETATM   14  C   UNL     1      -7.040  14.655  69.403  1.00  0.00    -0.157 C  
BRANCH  14  15
HETATM   15  C   UNL     1      -6.344  13.464  68.747  1.00  0.00    -0.094 C  
BRANCH  15  16
HETATM   16  C   UNL     1      -7.296  12.299  68.469  1.00  0.00    -0.105 C  
BRANCH  16  17
HETATM   17  C   UNL     1      -7.049  11.115  69.400  1.00  0.00    -0.110 C  
BRANCH  17  18
HETATM   18  C   UNL     1      -8.074  10.004  69.199  1.00  0.00    -0.126 C  
BRANCH  18  19
HETATM   19  C   UNL     1      -7.455   8.652  69.552  1.00  0.00    -0.072 C  
BRANCH  19  20
HETATM   20  C   UNL     1      -8.490   7.532  69.479  1.00  0.00    -0.132 C  
BRANCH  20  21
HETATM   21  C   UNL     1      -7.915   6.223  70.021  1.00  0.00    -0.111 C  
BRANCH  21  22
HETATM   22  C   UNL     1      -8.223   5.081  69.100  1.00  0.00    -0.083 C  
HETATM   23  C   UNL     1      -9.055   5.168  68.053  1.00  0.00    -0.123 C  
ENDBRANCH  21  22
ENDBRANCH  20  21
ENDBRANCH  19  20
ENDBRANCH  18  19
ENDBRANCH  17  18
ENDBRANCH  16  17
ENDBRANCH  15  16
ENDBRANCH  14  15
ENDBRANCH  11  14
ENDBRANCH   5  10
ENDBRANCH   3   5
ENDBRANCH   2   3
TORSDOF 13
ENDMDL
MODEL      402
REMARK 921   NORMALIZED FREE ENERGY PREDICTED BY IDOCK:   -1.25 KCAL/MOL
REMARK 922        TOTAL FREE ENERGY PREDICTED BY IDOCK:   -4.31 KCAL/MOL
REMARK 923 INTER-LIGAND FREE ENERGY PREDICTED BY IDOCK:   -3.71 KCAL/MOL
REMARK 924 INTRA-LIGAND FREE ENERGY PREDICTED BY IDOCK:   -0.61 KCAL/MOL
REMARK 927      BINDING AFFINITY PREDICTED BY RF-SCORE:    0.00 PKD
ROOT
HETATM    1  C   UNL     1     -11.693  13.169  68.702  1.00  0.00    -0.326 C  
HETATM    2  O   UNL     1     -10.700  12.285  68.187  1.00  0.00    -0.201 OA 
ENDROOT
BRANCH   2   3
HETATM    3  C   UNL     1     -10.959  10.956  68.349  1.00  0.00    -0.237 C  
HETATM    4  O   UNL     1     -12.070  10.440  68.322  1.00  0.00    -0.187 OA 
BRANCH   3   5
HETATM    5  C   UNL     1      -9.646  10.192  68.545  1.00  0.00    -0.154 C  
BRANCH   5   6
HETATM    6  C   UNL     1      -8.630  10.508  67.440  1.00  0.00    -0.122 C  
HETATM    7  C   UNL     1     -10.000   9.482  65.544  1.00  0.00    -0.209 C  
HETATM    8  C   UNL     1      -7.566   9.959  65.228  1.00  0.00    -0.130 C  
HETATM    9  C   UNL     1      -8.640   9.543  66.239  1.00  0.00    -0.141 C  
ENDBRANCH   5   6
BRANCH   5  10
HETATM   10  N   UNL     1      -9.930   8.757  68.562  1.00  0.00    -0.177 N  
HETATM   11  C   UNL     1      -9.727   8.009  69.697  1.00  0.00    -0.169 C  
HETATM   12  H   UNL     1     -10.284   8.305  67.718  1.00  0.00     0.000 HD 
HETATM   13  O   UNL     1      -9.313   8.472  70.753  1.00  0.00    -0.154 OA 
BRANCH  11  14
HETATM   14  C   UNL     1     -10.016   6.537  69.527  1.00  0.00    -0.180 C  
BRANCH  14  15
HETATM   15  C   UNL     1     -11.325   6.341  68.764  1.00  0.00    -0.224 C  
BRANCH  15  16
HETATM   16  C   UNL     1     -11.121   6.243  67.251  1.00  0.00    -0.387 C  
BRANCH  16  17
HETATM   17  C   UNL     1     -10.287   5.026  66.857  1.00  0.00    -0.267 C  
BRANCH  17  18
HETATM   18  C   UNL     1      -9.144   5.394  65.917  1.00  0.00    -0.162 C  
BRANCH  18  19
HETATM   19  C   UNL     1      -7.853   5.584  66.712  1.00  0.00    -0.101 C  
BRANCH  19  20
HETATM   20  C   UNL     1      -7.907   4.840  68.043  1.00  0.00    -0.082 C  
BRANCH  20  21
HETATM   21  C   UNL     1      -6.653   3.987  68.242  1.00  0.00    -0.046 C  
BRANCH  21  22
HETATM   22  C   UNL     1      -6.503   3.582  69.677  1.00  0.00    -0.033 C  
HETATM   23  C   UNL     1      -5.805   2.514  70.084  1.00  0.00    -0.018 C  
ENDBRANCH  21  22
ENDBRANCH  20  21
ENDBRANCH  19  20
ENDBRANCH  18  19
ENDBRANCH  17  18
ENDBRANCH  16  17
ENDBRANCH  15  16
ENDBRANCH  14  15
ENDBRANCH  11  14
ENDBRANCH   5  10
ENDBRANCH   3   5
ENDBRANCH   2   3
TORSDOF 13
ENDMDL
MODEL      403
REMARK 921   NORMALIZED FREE ENERGY PREDICTED BY IDOCK:   -1.22 KCAL/MOL
REMARK 922        TOTAL FREE ENERGY PREDICTED BY IDOCK:   -4.26 KCAL/MOL
REMARK 923 INTER-LIGAND FREE ENERGY PREDICTED BY IDOCK:   -3.21 KCAL/MOL
REMARK 924 INTRA-LIGAND FREE ENERGY PREDICTED BY IDOCK:   -1.05 KCAL/MOL
REMARK 927      BINDING AFFINITY PREDICTED BY RF-SCORE:    0.00 PKD
ROOT
HETATM    1  C   UNL     1     -11.634  12.844  69.156  1.00  0.00    -0.322 C  
HETATM    2  O   UNL     1     -10.485  12.496  68.386  1.00  0.00    -0.229 OA 
ENDROOT
BRANCH   2   3
HETATM    3  C   UNL     1      -9.924  11.290  68.684  1.00  0.00    -0.204 C  
HETATM    4  O   UNL     1     -10.300  10.530  69.569  1.00  0.00    -0.229 OA 
BRANCH   3   5
HETATM    5  C   UNL     1      -8.761  11.009  67.728  1.00  0.00    -0.130 C  
BRANCH   5   6
HETATM    6  C   UNL     1      -9.206  10.184  66.513  1.00  0.00    -0.182 C  
HETATM    7  C   UNL     1      -7.023  10.457  65.216  1.00  0.00    -0.099 C  
HETATM    8  C   UNL     1      -9.097   9.688  64.051  1.00  0.00    -0.246 C  
HETATM    9  C   UNL     1      -8.548  10.571  65.175  1.00  0.00    -0.187 C  
ENDBRANCH   5   6
BRANCH   5  10
HETATM   10  N   UNL     1      -7.711  10.295  68.454  1.00  0.00    -0.091 N  
HETATM   11  C   UNL     1      -6.553  10.932  68.832  1.00  0.00    -0.056 C  
HETATM   12  H   UNL     1      -7.840   9.309  68.685  1.00  0.00     0.000 HD 
HETATM   13  O   UNL     1      -6.320  12.114  68.604  1.00  0.00    -0.056 OA 
BRANCH  11  14
HETATM   14  C   UNL     1      -5.553  10.038  69.524  1.00  0.00    -0.037 C  
BRANCH  14  15
HETATM   15  C   UNL     1      -5.789  10.048  71.032  1.00  0.00    -0.073 C  
BRANCH  15  16
HETATM   16  C   UNL     1      -6.229   8.687  71.574  1.00  0.00    -0.057 C  
BRANCH  16  17
HETATM   17  C   UNL     1      -6.075   7.575  70.539  1.00  0.00    -0.031 C  
BRANCH  17  18
HETATM   18  C   UNL     1      -6.388   6.201  71.122  1.00  0.00    -0.044 C  
BRANCH  18  19
HETATM   19  C   UNL     1      -7.267   5.410  70.154  1.00  0.00    -0.067 C  
BRANCH  19  20
HETATM   20  C   UNL     1      -8.630   6.073  69.975  1.00  0.00    -0.131 C  
BRANCH  20  21
HETATM   21  C   UNL     1      -9.752   5.142  70.437  1.00  0.00    -0.270 C  
BRANCH  21  22
HETATM   22  C   UNL     1      -9.403   3.709  70.170  1.00  0.00    -0.243 C  
HETATM   23  C   UNL     1      -9.533   2.727  71.071  1.00  0.00    -0.226 C  
ENDBRANCH  21  22
ENDBRANCH  20  21
ENDBRANCH  19  20
ENDBRANCH  18  19
ENDBRANCH  17  18
ENDBRANCH  16  17
ENDBRANCH  15  16
ENDBRANCH  14  15
ENDBRANCH  11  14
ENDBRANCH   5  10
ENDBRANCH   3   5
ENDBRANCH   2   3
TORSDOF 13
ENDMDL
MODEL      404
REMARK 921   NORMALIZED FREE ENERGY PREDICTED BY IDOCK:   -1.22 KCAL/MOL
REMARK 922        TOTAL FREE ENERGY PREDICTED BY IDOCK:   -4.26 KCAL/MOL
REMARK 923 INTER-LIGAND FREE ENERGY PREDICTED BY IDOCK:   -3.46 KCAL/MOL
REMARK 924 INTRA-LIGAND FREE ENERGY PREDICTED BY IDOCK:   -0.80 KCAL/MOL
REMARK 927      BINDING AFFINITY PREDICTED BY RF-SCORE:    0.00 PKD
ROOT
HETATM    1  C   UNL     1     -11.586   6.577  71.415  1.00  0.00    -0.318 C  
HETATM    2  O   UNL     1     -10.295   7.076  71.071  1.00  0.00    -0.201 OA 
ENDROOT
BRANCH   2   3
HETATM    3  C   UNL     1      -9.904   6.851  69.784  1.00  0.00    -0.171 C  
HETATM    4  O   UNL     1     -10.418   6.048  69.015  1.00  0.00    -0.202 OA 
BRANCH   3   5
HETATM    5  C   UNL     1      -8.736   7.776  69.429  1.00  0.00    -0.135 C  
BRANCH   5   6
HETATM    6  C   UNL     1      -7.696   7.843  70.556  1.00  0.00    -0.086 C  
HETATM    7  C   UNL     1      -5.663   7.585  69.031  1.00  0.00    -0.022 C  
HETATM    8  C   UNL     1      -5.450   7.216  71.495  1.00  0.00    -0.035 C  
HETATM    9  C   UNL     1      -6.381   7.086  70.286  1.00  0.00    -0.038 C  
ENDBRANCH   5   6
BRANCH   5  10
HETATM   10  N   UNL     1      -9.257   9.115  69.154  1.00  0.00    -0.143 N  
HETATM   11  C   UNL     1      -8.985   9.750  67.966  1.00  0.00    -0.118 C  
HETATM   12  H   UNL     1      -9.830   9.585  69.855  1.00  0.00     0.000 HD 
HETATM   13  O   UNL     1      -8.313   9.256  67.068  1.00  0.00    -0.118 OA 
BRANCH  11  14
HETATM   14  C   UNL     1      -9.551  11.145  67.867  1.00  0.00    -0.181 C  
BRANCH  14  15
HETATM   15  C   UNL     1      -9.466  11.649  66.427  1.00  0.00    -0.232 C  
BRANCH  15  16
HETATM   16  C   UNL     1      -8.515  12.837  66.269  1.00  0.00     0.427 C  
BRANCH  16  17
HETATM   17  C   UNL     1      -9.233  14.176  66.417  1.00  0.00    -0.209 C  
BRANCH  17  18
HETATM   18  C   UNL     1      -8.784  14.932  67.664  1.00  0.00    -0.181 C  
BRANCH  18  19
HETATM   19  C   UNL     1     -10.000  15.485  68.406  1.00  0.00    -0.214 C  
BRANCH  19  20
HETATM   20  C   UNL     1     -10.782  16.465  67.536  1.00  0.00    -0.298 C  
BRANCH  20  21
HETATM   21  C   UNL     1      -9.843  17.477  66.877  1.00  0.00    -0.302 C  
BRANCH  21  22
HETATM   22  C   UNL     1      -9.247  18.399  67.898  1.00  0.00    -0.294 C  
HETATM   23  C   UNL     1      -8.947  19.682  67.662  1.00  0.00    -0.384 C  
ENDBRANCH  21  22
ENDBRANCH  20  21
ENDBRANCH  19  20
ENDBRANCH  18  19
ENDBRANCH  17  18
ENDBRANCH  16  17
ENDBRANCH  15  16
ENDBRANCH  14  15
ENDBRANCH  11  14
ENDBRANCH   5  10
ENDBRANCH   3   5
ENDBRANCH   2   3
TORSDOF 13
ENDMDL
MODEL      405
REMARK 921   NORMALIZED FREE ENERGY PREDICTED BY IDOCK:   -1.09 KCAL/MOL
REMARK 922        TOTAL FREE ENERGY PREDICTED BY IDOCK:   -4.02 KCAL/MOL
REMARK 923 INTER-LIGAND FREE ENERGY PREDICTED BY IDOCK:   -3.71 KCAL/MOL
REMARK 924 INTRA-LIGAND FREE ENERGY PREDICTED BY IDOCK:   -0.31 KCAL/MOL
REMARK 927      BINDING AFFINITY PREDICTED BY RF-SCORE:    0.00 PKD
ROOT
HETATM    1  C   UNL     1      -6.678  10.786  64.719  1.00  0.00     0.267 C  
HETATM    2  O   UNL     1      -7.358  10.841  65.971  1.00  0.00    -0.142 OA 
ENDROOT
BRANCH   2   3
HETATM    3  C   UNL     1      -6.715  10.243  67.014  1.00  0.00    -0.079 C  
HETATM    4  O   UNL     1      -5.702   9.558  66.926  1.00  0.00    -0.049 OA 
BRANCH   3   5
HETATM    5  C   UNL     1      -7.432  10.576  68.326  1.00  0.00    -0.090 C  
BRANCH   5   6
HETATM    6  C   UNL     1      -8.877  10.059  68.335  1.00  0.00    -0.117 C  
HETATM    7  C   UNL     1      -8.292   7.711  69.153  1.00  0.00    -0.131 C  
HETATM    8  C   UNL     1     -10.521   8.170  68.117  1.00  0.00    -0.225 C  
HETATM    9  C   UNL     1      -9.035   8.543  68.108  1.00  0.00    -0.142 C  
ENDBRANCH   5   6
BRANCH   5  10
HETATM   10  N   UNL     1      -7.424  12.027  68.516  1.00  0.00    -0.113 N  
HETATM   11  C   UNL     1      -8.519  12.790  68.187  1.00  0.00    -0.177 C  
HETATM   12  H   UNL     1      -6.593  12.479  68.899  1.00  0.00     0.000 HD 
HETATM   13  O   UNL     1      -9.559  12.327  67.731  1.00  0.00    -0.189 OA 
BRANCH  11  14
HETATM   14  C   UNL     1      -8.325  14.272  68.394  1.00  0.00    -0.164 C  
BRANCH  14  15
HETATM   15  C   UNL     1      -6.843  14.590  68.580  1.00  0.00    -0.096 C  
BRANCH  15  16
HETATM   16  C   UNL     1      -6.355  15.709  67.658  1.00  0.00    -0.189 C  
BRANCH  16  17
HETATM   17  C   UNL     1      -7.486  16.301  66.819  1.00  0.00    -0.266 C  
BRANCH  17  18
HETATM   18  C   UNL     1      -7.606  17.810  67.003  1.00  0.00    -0.228 C  
BRANCH  18  19
HETATM   19  C   UNL     1      -8.131  18.126  68.403  1.00  0.00    -0.313 C  
BRANCH  19  20
HETATM   20  C   UNL     1      -9.300  19.106  68.350  1.00  0.00    -0.416 C  
BRANCH  20  21
HETATM   21  C   UNL     1     -10.579  18.402  67.896  1.00  0.00    -0.379 C  
BRANCH  21  22
HETATM   22  C   UNL     1     -10.836  17.175  68.718  1.00  0.00    -0.211 C  
HETATM   23  C   UNL     1     -11.533  16.117  68.285  1.00  0.00    -0.259 C  
ENDBRANCH  21  22
ENDBRANCH  20  21
ENDBRANCH  19  20
ENDBRANCH  18  19
ENDBRANCH  17  18
ENDBRANCH  16  17
ENDBRANCH  15  16
ENDBRANCH  14  15
ENDBRANCH  11  14
ENDBRANCH   5  10
ENDBRANCH   3   5
ENDBRANCH   2   3
TORSDOF 13
ENDMDL
MODEL      406
REMARK 921   NORMALIZED FREE ENERGY PREDICTED BY IDOCK:   -1.08 KCAL/MOL
REMARK 922        TOTAL FREE ENERGY PREDICTED BY IDOCK:   -4.02 KCAL/MOL
REMARK 923 INTER-LIGAND FREE ENERGY PREDICTED BY IDOCK:   -3.43 KCAL/MOL
REMARK 924 INTRA-LIGAND FREE ENERGY PREDICTED BY IDOCK:   -0.59 KCAL/MOL
REMARK 927      BINDING AFFINITY PREDICTED BY RF-SCORE:    0.00 PKD
ROOT
HETATM    1  C   UNL     1      -9.080   2.923  68.416  1.00  0.00    -0.164 C  
HETATM    2  O   UNL     1      -9.150   4.192  69.063  1.00  0.00    -0.106 OA 
ENDROOT
BRANCH   2   3
HETATM    3  C   UNL     1      -9.201   4.152  70.425  1.00  0.00    -0.126 C  
HETATM    4  O   UNL     1      -9.539   3.184  71.096  1.00  0.00    -0.147 OA 
BRANCH   3   5
HETATM    5  C   UNL     1      -8.746   5.496  71.001  1.00  0.00    -0.129 C  
BRANCH   5   6
HETATM    6  C   UNL     1      -7.810   5.316  72.204  1.00  0.00    -0.105 C  
HETATM    7  C   UNL     1      -5.674   5.942  70.950  1.00  0.00    -0.017 C  
HETATM    8  C   UNL     1      -5.548   4.752  73.146  1.00  0.00    -0.009 C  
HETATM    9  C   UNL     1      -6.361   4.921  71.858  1.00  0.00    -0.030 C  
ENDBRANCH   5   6
BRANCH   5  10
HETATM   10  N   UNL     1      -9.925   6.265  71.401  1.00  0.00    -0.184 N  
HETATM   11  C   UNL     1      -9.821   7.304  72.295  1.00  0.00    -0.154 C  
HETATM   12  H   UNL     1     -10.837   6.027  71.011  1.00  0.00     0.000 HD 
HETATM   13  O   UNL     1      -8.766   7.661  72.805  1.00  0.00    -0.120 OA 
BRANCH  11  14
HETATM   14  C   UNL     1     -11.138   7.955  72.642  1.00  0.00    -0.447 C  
BRANCH  14  15
HETATM   15  C   UNL     1     -11.323   9.237  71.832  1.00  0.00    -0.359 C  
BRANCH  15  16
HETATM   16  C   UNL     1     -11.627   8.970  70.357  1.00  0.00    -0.145 C  
BRANCH  16  17
HETATM   17  C   UNL     1     -10.834   9.885  69.427  1.00  0.00    -0.265 C  
BRANCH  17  18
HETATM   18  C   UNL     1     -10.713   9.308  68.021  1.00  0.00    -0.231 C  
BRANCH  18  19
HETATM   19  C   UNL     1     -10.176   7.879  68.086  1.00  0.00    -0.248 C  
BRANCH  19  20
HETATM   20  C   UNL     1      -8.670   7.863  68.330  1.00  0.00    -0.131 C  
BRANCH  20  21
HETATM   21  C   UNL     1      -7.932   8.631  67.233  1.00  0.00    -0.101 C  
BRANCH  21  22
HETATM   22  C   UNL     1      -8.005   7.899  65.926  1.00  0.00    -0.106 C  
HETATM   23  C   UNL     1      -7.600   8.414  64.758  1.00  0.00    -0.102 C  
ENDBRANCH  21  22
ENDBRANCH  20  21
ENDBRANCH  19  20
ENDBRANCH  18  19
ENDBRANCH  17  18
ENDBRANCH  16  17
ENDBRANCH  15  16
ENDBRANCH  14  15
ENDBRANCH  11  14
ENDBRANCH   5  10
ENDBRANCH   3   5
ENDBRANCH   2   3
TORSDOF 13
ENDMDL
MODEL      407
REMARK 921   NORMALIZED FREE ENERGY PREDICTED BY IDOCK:   -1.02 KCAL/MOL
REMARK 922        TOTAL FREE ENERGY PREDICTED BY IDOCK:   -3.90 KCAL/MOL
REMARK 923 INTER-LIGAND FREE ENERGY PREDICTED BY IDOCK:   -5.78 KCAL/MOL
REMARK 924 INTRA-LIGAND FREE ENERGY PREDICTED BY IDOCK:    1.88 KCAL/MOL
REMARK 927      BINDING AFFINITY PREDICTED BY RF-SCORE:    0.00 PKD
ROOT
HETATM    1  C   UNL     1     -10.288   9.547  68.273  1.00  0.00    -0.207 C  
HETATM    2  O   UNL     1      -9.692  10.838  68.157  1.00  0.00    -0.152 OA 
ENDROOT
BRANCH   2   3
HETATM    3  C   UNL     1      -8.934  11.034  67.041  1.00  0.00    -0.148 C  
HETATM    4  O   UNL     1      -7.830  10.544  66.836  1.00  0.00    -0.111 OA 
BRANCH   3   5
HETATM    5  C   UNL     1      -9.681  11.944  66.061  1.00  0.00    -0.237 C  
BRANCH   5   6
HETATM    6  C   UNL     1      -9.613  11.412  64.623  1.00  0.00    -0.228 C  
HETATM    7  C   UNL     1      -9.054   9.007  65.276  1.00  0.00    -0.226 C  
HETATM    8  C   UNL     1      -8.687   9.798  62.932  1.00  0.00    -0.229 C  
HETATM    9  C   UNL     1      -8.676  10.208  64.408  1.00  0.00    -0.217 C  
ENDBRANCH   5   6
BRANCH   5  10
HETATM   10  N   UNL     1      -9.099  13.285  66.121  1.00  0.00    -0.463 N  
HETATM   11  C   UNL     1      -9.895  14.405  66.069  1.00  0.00    -0.319 C  
HETATM   12  H   UNL     1      -8.088  13.391  66.203  1.00  0.00     0.000 HD 
HETATM   13  O   UNL     1     -11.117  14.368  65.980  1.00  0.00    -0.313 OA 
BRANCH  11  14
HETATM   14  C   UNL     1      -9.133  15.707  66.088  1.00  0.00    -0.378 C  
BRANCH  14  15
HETATM   15  C   UNL     1      -7.907  15.589  66.990  1.00  0.00    -0.260 C  
BRANCH  15  16
HETATM   16  C   UNL     1      -7.280  16.944  67.323  1.00  0.00    -0.196 C  
BRANCH  16  17
HETATM   17  C   UNL     1      -7.585  17.998  66.260  1.00  0.00    -0.306 C  
BRANCH  17  18
HETATM   18  C   UNL     1      -8.143  19.280  66.869  1.00  0.00    -0.285 C  
BRANCH  18  19
HETATM   19  C   UNL     1      -8.524  19.044  68.329  1.00  0.00    -0.366 C  
BRANCH  19  20
HETATM   20  C   UNL     1      -9.983  19.408  68.588  1.00  0.00    -0.527 C  
BRANCH  20  21
HETATM   21  C   UNL     1     -10.921  18.360  67.987  1.00  0.00    -0.003 C  
BRANCH  21  22
HETATM   22  C   UNL     1     -10.615  16.995  68.526  1.00  0.00    -0.370 C  
HETATM   23  C   UNL     1     -10.809  16.634  69.800  1.00  0.00    -0.238 C  
ENDBRANCH  21  22
ENDBRANCH  20  21
ENDBRANCH  19  20
ENDBRANCH  18  19
ENDBRANCH  17  18
ENDBRANCH  16  17
ENDBRANCH  15  16
ENDBRANCH  14  15
ENDBRANCH  11  14
ENDBRANCH   5  10
ENDBRANCH   3   5
ENDBRANCH   2   3
TORSDOF 13
ENDMDL
MODEL      408
REMARK 921   NORMALIZED FREE ENERGY PREDICTED BY IDOCK:   -1.02 KCAL/MOL
REMARK 922        TOTAL FREE ENERGY PREDICTED BY IDOCK:   -3.90 KCAL/MOL
REMARK 923 INTER-LIGAND FREE ENERGY PREDICTED BY IDOCK:   -3.63 KCAL/MOL
REMARK 924 INTRA-LIGAND FREE ENERGY PREDICTED BY IDOCK:   -0.27 KCAL/MOL
REMARK 927      BINDING AFFINITY PREDICTED BY RF-SCORE:    0.00 PKD
ROOT
HETATM    1  C   UNL     1     -10.719   8.275  70.152  1.00  0.00    -0.239 C  
HETATM    2  O   UNL     1     -10.748   7.061  69.403  1.00  0.00    -0.226 OA 
ENDROOT
BRANCH   2   3
HETATM    3  C   UNL     1      -9.533   6.489  69.169  1.00  0.00    -0.135 C  
HETATM    4  O   UNL     1      -8.675   6.270  70.015  1.00  0.00    -0.138 OA 
BRANCH   3   5
HETATM    5  C   UNL     1      -9.406   6.131  67.685  1.00  0.00    -0.112 C  
BRANCH   5   6
HETATM    6  C   UNL     1      -8.095   5.392  67.385  1.00  0.00    -0.101 C  
HETATM    7  C   UNL     1      -9.160   3.082  67.159  1.00  0.00    -0.200 C  
HETATM    8  C   UNL     1      -6.691   3.308  67.481  1.00  0.00    -0.045 C  
HETATM    9  C   UNL     1      -8.058   3.913  67.816  1.00  0.00    -0.089 C  
ENDBRANCH   5   6
BRANCH   5  10
HETATM   10  N   UNL     1      -9.474   7.360  66.893  1.00  0.00    -0.154 N  
HETATM   11  C   UNL     1      -8.517   8.338  67.020  1.00  0.00    -0.122 C  
HETATM   12  H   UNL     1     -10.244   7.492  66.236  1.00  0.00     0.000 HD 
HETATM   13  O   UNL     1      -7.557   8.256  67.778  1.00  0.00    -0.098 OA 
BRANCH  11  14
HETATM   14  C   UNL     1      -8.766   9.561  66.173  1.00  0.00    -0.162 C  
BRANCH  14  15
HETATM   15  C   UNL     1      -9.949  10.354  66.725  1.00  0.00    -0.256 C  
BRANCH  15  16
HETATM   16  C   UNL     1      -9.572  11.782  67.126  1.00  0.00    -0.189 C  
BRANCH  16  17
HETATM   17  C   UNL     1      -8.515  11.813  68.227  1.00  0.00    -0.161 C  
BRANCH  17  18
HETATM   18  C   UNL     1      -7.495  12.926  68.012  1.00  0.00    -0.125 C  
BRANCH  18  19
HETATM   19  C   UNL     1      -8.150  14.287  68.241  1.00  0.00    -0.143 C  
BRANCH  19  20
HETATM   20  C   UNL     1      -8.016  15.182  67.012  1.00  0.00    -0.223 C  
BRANCH  20  21
HETATM   21  C   UNL     1      -8.947  16.391  67.115  1.00  0.00    -0.218 C  
BRANCH  21  22
HETATM   22  C   UNL     1      -8.187  17.669  66.927  1.00  0.00    -0.248 C  
HETATM   23  C   UNL     1      -6.873  17.728  66.673  1.00  0.00    -0.242 C  
ENDBRANCH  21  22
ENDBRANCH  20  21
ENDBRANCH  19  20
ENDBRANCH  18  19
ENDBRANCH  17  18
ENDBRANCH  16  17
ENDBRANCH  15  16
ENDBRANCH  14  15
ENDBRANCH  11  14
ENDBRANCH   5  10
ENDBRANCH   3   5
ENDBRANCH   2   3
TORSDOF 13
ENDMDL
MODEL      409
REMARK 921   NORMALIZED FREE ENERGY PREDICTED BY IDOCK:   -0.85 KCAL/MOL
REMARK 922        TOTAL FREE ENERGY PREDICTED BY IDOCK:   -3.60 KCAL/MOL
REMARK 923 INTER-LIGAND FREE ENERGY PREDICTED BY IDOCK:   -3.69 KCAL/MOL
REMARK 924 INTRA-LIGAND FREE ENERGY PREDICTED BY IDOCK:    0.09 KCAL/MOL
REMARK 927      BINDING AFFINITY PREDICTED BY RF-SCORE:    0.00 PKD
ROOT
HETATM    1  C   UNL     1      -7.775  13.443  67.390  1.00  0.00    -0.137 C  
HETATM    2  O   UNL     1      -8.543  12.253  67.559  1.00  0.00    -0.156 OA 
ENDROOT
BRANCH   2   3
HETATM    3  C   UNL     1      -8.044  11.355  68.455  1.00  0.00    -0.149 C  
HETATM    4  O   UNL     1      -7.374  11.634  69.442  1.00  0.00    -0.039 OA 
BRANCH   3   5
HETATM    5  C   UNL     1      -8.467   9.937  68.060  1.00  0.00    -0.117 C  
BRANCH   5   6
HETATM    6  C   UNL     1      -9.229   9.919  66.728  1.00  0.00    -0.176 C  
HETATM    7  C   UNL     1      -7.214   9.262  65.301  1.00  0.00    -0.090 C  
HETATM    8  C   UNL     1      -9.268  10.204  64.230  1.00  0.00    -0.312 C  
HETATM    9  C   UNL     1      -8.382  10.233  65.479  1.00  0.00    -0.165 C  
ENDBRANCH   5   6
BRANCH   5  10
HETATM   10  N   UNL     1      -9.308   9.380  69.119  1.00  0.00    -0.155 N  
HETATM   11  C   UNL     1     -10.434  10.040  69.549  1.00  0.00    -0.240 C  
HETATM   12  H   UNL     1      -9.055   8.488  69.545  1.00  0.00     0.000 HD 
HETATM   13  O   UNL     1     -10.814  11.111  69.088  1.00  0.00    -0.217 OA 
BRANCH  11  14
HETATM   14  C   UNL     1     -11.156   9.356  70.685  1.00  0.00    -0.351 C  
BRANCH  14  15
HETATM   15  C   UNL     1     -11.681   7.995  70.233  1.00  0.00     0.081 C  
BRANCH  15  16
HETATM   16  C   UNL     1     -11.351   6.873  71.219  1.00  0.00    -0.319 C  
BRANCH  16  17
HETATM   17  C   UNL     1      -9.881   6.464  71.158  1.00  0.00    -0.198 C  
BRANCH  17  18
HETATM   18  C   UNL     1      -9.490   5.934  69.782  1.00  0.00    -0.178 C  
BRANCH  18  19
HETATM   19  C   UNL     1      -8.826   4.565  69.918  1.00  0.00    -0.129 C  
BRANCH  19  20
HETATM   20  C   UNL     1      -9.828   3.504  70.364  1.00  0.00    -0.057 C  
BRANCH  20  21
HETATM   21  C   UNL     1      -9.200   2.557  71.387  1.00  0.00    -0.185 C  
BRANCH  21  22
HETATM   22  C   UNL     1     -10.238   1.665  72.000  1.00  0.00    -0.225 C  
HETATM   23  C   UNL     1     -10.387   1.488  73.319  1.00  0.00    -0.177 C  
ENDBRANCH  21  22
ENDBRANCH  20  21
ENDBRANCH  19  20
ENDBRANCH  18  19
ENDBRANCH  17  18
ENDBRANCH  16  17
ENDBRANCH  15  16
ENDBRANCH  14  15
ENDBRANCH  11  14
ENDBRANCH   5  10
ENDBRANCH   3   5
ENDBRANCH   2   3
TORSDOF 13
ENDMDL
MODEL      410
REMARK 921   NORMALIZED FREE ENERGY PREDICTED BY IDOCK:   -0.84 KCAL/MOL
REMARK 922        TOTAL FREE ENERGY PREDICTED BY IDOCK:   -3.59 KCAL/MOL
REMARK 923 INTER-LIGAND FREE ENERGY PREDICTED BY IDOCK:   -3.74 KCAL/MOL
REMARK 924 INTRA-LIGAND FREE ENERGY PREDICTED BY IDOCK:    0.15 KCAL/MOL
REMARK 927      BINDING AFFINITY PREDICTED BY RF-SCORE:    0.00 PKD
ROOT
HETATM    1  C   UNL     1      -7.776  13.439  67.395  1.00  0.00    -0.137 C  
HETATM    2  O   UNL     1      -8.540  12.255  67.617  1.00  0.00    -0.151 OA 
ENDROOT
BRANCH   2   3
HETATM    3  C   UNL     1      -8.001  11.367  68.500  1.00  0.00    -0.143 C  
HETATM    4  O   UNL     1      -7.249  11.652  69.424  1.00  0.00    -0.072 OA 
BRANCH   3   5
HETATM    5  C   UNL     1      -8.497   9.954  68.181  1.00  0.00    -0.114 C  
BRANCH   5   6
HETATM    6  C   UNL     1      -9.401   9.931  66.941  1.00  0.00    -0.184 C  
HETATM    7  C   UNL     1      -7.577   9.174  65.321  1.00  0.00    -0.098 C  
HETATM    8  C   UNL     1      -9.705  10.161  64.456  1.00  0.00    -0.361 C  
HETATM    9  C   UNL     1      -8.687  10.188  65.600  1.00  0.00    -0.173 C  
ENDBRANCH   5   6
BRANCH   5  10
HETATM   10  N   UNL     1      -9.229   9.435  69.337  1.00  0.00    -0.157 N  
HETATM   11  C   UNL     1     -10.284  10.132  69.876  1.00  0.00    -0.237 C  
HETATM   12  H   UNL     1      -8.952   8.544  69.749  1.00  0.00     0.000 HD 
HETATM   13  O   UNL     1     -10.687  11.204  69.439  1.00  0.00    -0.224 OA 
BRANCH  11  14
HETATM   14  C   UNL     1     -10.893   9.485  71.097  1.00  0.00    -0.425 C  
BRANCH  14  15
HETATM   15  C   UNL     1     -11.507   8.136  70.729  1.00  0.00    -0.272 C  
BRANCH  15  16
HETATM   16  C   UNL     1     -11.105   7.018  71.693  1.00  0.00    -0.264 C  
BRANCH  16  17
HETATM   17  C   UNL     1      -9.670   6.547  71.466  1.00  0.00    -0.179 C  
BRANCH  17  18
HETATM   18  C   UNL     1      -9.468   5.978  70.066  1.00  0.00    -0.180 C  
BRANCH  18  19
HETATM   19  C   UNL     1      -8.849   4.584  70.152  1.00  0.00    -0.129 C  
BRANCH  19  20
HETATM   20  C   UNL     1      -7.786   4.381  69.076  1.00  0.00    -0.069 C  
BRANCH  20  21
HETATM   21  C   UNL     1      -7.877   2.976  68.479  1.00  0.00    -0.060 C  
BRANCH  21  22
HETATM   22  C   UNL     1      -7.000   2.851  67.269  1.00  0.00    -0.046 C  
HETATM   23  C   UNL     1      -7.415   2.365  66.092  1.00  0.00    -0.067 C  
ENDBRANCH  21  22
ENDBRANCH  20  21
ENDBRANCH  19  20
ENDBRANCH  18  19
ENDBRANCH  17  18
ENDBRANCH  16  17
ENDBRANCH  15  16
ENDBRANCH  14  15
ENDBRANCH  11  14
ENDBRANCH   5  10
ENDBRANCH   3   5
ENDBRANCH   2   3
TORSDOF 13
ENDMDL
MODEL      411
REMARK 921   NORMALIZED FREE ENERGY PREDICTED BY IDOCK:   -0.72 KCAL/MOL
REMARK 922        TOTAL FREE ENERGY PREDICTED BY IDOCK:   -3.38 KCAL/MOL
REMARK 923 INTER-LIGAND FREE ENERGY PREDICTED BY IDOCK:   -3.89 KCAL/MOL
REMARK 924 INTRA-LIGAND FREE ENERGY PREDICTED BY IDOCK:    0.51 KCAL/MOL
REMARK 927      BINDING AFFINITY PREDICTED BY RF-SCORE:    0.00 PKD
ROOT
HETATM    1  C   UNL     1     -10.046  12.383  68.299  1.00  0.00    -0.227 C  
HETATM    2  O   UNL     1     -10.775  11.210  67.941  1.00  0.00    -0.191 OA 
ENDROOT
BRANCH   2   3
HETATM    3  C   UNL     1     -11.152  10.415  68.982  1.00  0.00    -0.248 C  
HETATM    4  O   UNL     1     -11.949  10.724  69.860  1.00  0.00    -0.296 OA 
BRANCH   3   5
HETATM    5  C   UNL     1     -10.448   9.059  68.881  1.00  0.00    -0.210 C  
BRANCH   5   6
HETATM    6  C   UNL     1      -9.928   8.581  70.243  1.00  0.00    -0.196 C  
HETATM    7  C   UNL     1     -11.888   7.014  70.719  1.00  0.00    -0.401 C  
HETATM    8  C   UNL     1     -10.360   7.722  72.567  1.00  0.00    -0.328 C  
HETATM    9  C   UNL     1     -11.013   8.150  71.249  1.00  0.00    -0.281 C  
ENDBRANCH   5   6
BRANCH   5  10
HETATM   10  N   UNL     1      -9.335   9.171  67.938  1.00  0.00    -0.137 N  
HETATM   11  C   UNL     1      -9.192   8.278  66.903  1.00  0.00    -0.158 C  
HETATM   12  H   UNL     1      -8.655   9.924  68.050  1.00  0.00     0.000 HD 
HETATM   13  O   UNL     1      -9.965   7.352  66.691  1.00  0.00    -0.221 OA 
BRANCH  11  14
HETATM   14  C   UNL     1      -7.962   8.504  66.057  1.00  0.00    -0.107 C  
BRANCH  14  15
HETATM   15  C   UNL     1      -7.886   7.458  64.946  1.00  0.00    -0.125 C  
BRANCH  15  16
HETATM   16  C   UNL     1      -6.569   7.511  64.170  1.00  0.00    -0.048 C  
BRANCH  16  17
HETATM   17  C   UNL     1      -6.177   6.148  63.603  1.00  0.00    -0.029 C  
BRANCH  17  18
HETATM   18  C   UNL     1      -7.318   5.140  63.694  1.00  0.00    -0.051 C  
BRANCH  18  19
HETATM   19  C   UNL     1      -7.684   4.896  65.158  1.00  0.00    -0.082 C  
BRANCH  19  20
HETATM   20  C   UNL     1      -8.561   3.656  65.311  1.00  0.00    -0.114 C  
BRANCH  20  21
HETATM   21  C   UNL     1      -9.021   3.490  66.759  1.00  0.00    -0.162 C  
BRANCH  21  22
HETATM   22  C   UNL     1      -9.189   2.040  67.105  1.00  0.00    -0.089 C  
HETATM   23  C   UNL     1      -9.159   1.561  68.355  1.00  0.00    -0.186 C  
ENDBRANCH  21  22
ENDBRANCH  20  21
ENDBRANCH  19  20
ENDBRANCH  18  19
ENDBRANCH  17  18
ENDBRANCH  16  17
ENDBRANCH  15  16
ENDBRANCH  14  15
ENDBRANCH  11  14
ENDBRANCH   5  10
ENDBRANCH   3   5
ENDBRANCH   2   3
TORSDOF 13
ENDMDL
MODEL      412
REMARK 921   NORMALIZED FREE ENERGY PREDICTED BY IDOCK:   -0.71 KCAL/MOL
REMARK 922        TOTAL FREE ENERGY PREDICTED BY IDOCK:   -3.36 KCAL/MOL
REMARK 923 INTER-LIGAND FREE ENERGY PREDICTED BY IDOCK:   -3.51 KCAL/MOL
REMARK 924 INTRA-LIGAND FREE ENERGY PREDICTED BY IDOCK:    0.15 KCAL/MOL
REMARK 927      BINDING AFFINITY PREDICTED BY RF-SCORE:    0.00 PKD
ROOT
HETATM    1  C   UNL     1     -10.244   8.401  72.304  1.00  0.00    -0.326 C  
HETATM    2  O   UNL     1     -11.553   8.206  71.773  1.00  0.00    -0.264 OA 
ENDROOT
BRANCH   2   3
HETATM    3  C   UNL     1     -12.247   9.346  71.494  1.00  0.00    -0.369 C  
HETATM    4  O   UNL     1     -13.240   9.739  72.095  1.00  0.00    -0.433 OA 
BRANCH   3   5
HETATM    5  C   UNL     1     -11.584  10.084  70.326  1.00  0.00    -0.280 C  
BRANCH   5   6
HETATM    6  C   UNL     1     -12.353  11.356  69.944  1.00  0.00    -0.280 C  
HETATM    7  C   UNL     1     -10.487  12.348  68.509  1.00  0.00    -0.244 C  
HETATM    8  C   UNL     1     -12.371  13.787  69.304  1.00  0.00    -0.185 C  
HETATM    9  C   UNL     1     -11.479  12.590  69.647  1.00  0.00    -0.255 C  
ENDBRANCH   5   6
BRANCH   5  10
HETATM   10  N   UNL     1     -11.512   9.183  69.176  1.00  0.00    -0.260 N  
HETATM   11  C   UNL     1     -10.300   8.815  68.640  1.00  0.00    -0.205 C  
HETATM   12  H   UNL     1     -12.373   8.822  68.765  1.00  0.00     0.000 HD 
HETATM   13  O   UNL     1      -9.220   9.195  69.076  1.00  0.00    -0.141 OA 
BRANCH  11  14
HETATM   14  C   UNL     1     -10.406   7.927  67.425  1.00  0.00    -0.349 C  
BRANCH  14  15
HETATM   15  C   UNL     1      -9.970   8.689  66.174  1.00  0.00    -0.204 C  
BRANCH  15  16
HETATM   16  C   UNL     1      -9.353   7.780  65.110  1.00  0.00     0.763 C  
BRANCH  16  17
HETATM   17  C   UNL     1      -8.617   6.590  65.721  1.00  0.00    -0.149 C  
BRANCH  17  18
HETATM   18  C   UNL     1      -7.206   6.956  66.167  1.00  0.00    -0.074 C  
BRANCH  18  19
HETATM   19  C   UNL     1      -6.378   7.407  64.965  1.00  0.00    -0.038 C  
BRANCH  19  20
HETATM   20  C   UNL     1      -6.522   8.907  64.722  1.00  0.00    -0.066 C  
BRANCH  20  21
HETATM   21  C   UNL     1      -5.852   9.706  65.841  1.00  0.00    -0.055 C  
BRANCH  21  22
HETATM   22  C   UNL     1      -6.067   9.048  67.171  1.00  0.00    -0.058 C  
HETATM   23  C   UNL     1      -5.310   9.281  68.252  1.00  0.00    -0.037 C  
ENDBRANCH  21  22
ENDBRANCH  20  21
ENDBRANCH  19  20
ENDBRANCH  18  19
ENDBRANCH  17  18
ENDBRANCH  16  17
ENDBRANCH  15  16
ENDBRANCH  14  15
ENDBRANCH  11  14
ENDBRANCH   5  10
ENDBRANCH   3   5
ENDBRANCH   2   3
TORSDOF 13
ENDMDL
MODEL      413
REMARK 921   NORMALIZED FREE ENERGY PREDICTED BY IDOCK:   -0.22 KCAL/MOL
REMARK 922        TOTAL FREE ENERGY PREDICTED BY IDOCK:   -2.50 KCAL/MOL
REMARK 923 INTER-LIGAND FREE ENERGY PREDICTED BY IDOCK:   -2.48 KCAL/MOL
REMARK 924 INTRA-LIGAND FREE ENERGY PREDICTED BY IDOCK:   -0.01 KCAL/MOL
REMARK 927      BINDING AFFINITY PREDICTED BY RF-SCORE:    0.00 PKD
ROOT
HETATM    1  C   UNL     1      -9.030   2.909  68.403  1.00  0.00    -0.143 C  
HETATM    2  O   UNL     1      -8.947   4.214  68.971  1.00  0.00    -0.095 OA 
ENDROOT
BRANCH   2   3
HETATM    3  C   UNL     1      -8.951   4.261  70.334  1.00  0.00    -0.090 C  
HETATM    4  O   UNL     1      -9.405   3.397  71.074  1.00  0.00    -0.116 OA 
BRANCH   3   5
HETATM    5  C   UNL     1      -8.276   5.551  70.810  1.00  0.00    -0.117 C  
BRANCH   5   6
HETATM    6  C   UNL     1      -7.422   5.321  72.064  1.00  0.00    -0.097 C  
HETATM    7  C   UNL     1      -5.176   5.396  70.850  1.00  0.00    -0.005 C  
HETATM    8  C   UNL     1      -5.336   4.437  73.154  1.00  0.00    -0.007 C  
HETATM    9  C   UNL     1      -6.069   4.624  71.822  1.00  0.00    -0.021 C  
ENDBRANCH   5   6
BRANCH   5  10
HETATM   10  N   UNL     1      -9.307   6.552  71.089  1.00  0.00    -0.163 N  
HETATM   11  C   UNL     1      -9.063   7.598  71.945  1.00  0.00    -0.127 C  
HETATM   12  H   UNL     1     -10.220   6.471  70.641  1.00  0.00     0.000 HD 
HETATM   13  O   UNL     1      -7.994   7.775  72.519  1.00  0.00    -0.098 OA 
BRANCH  11  14
HETATM   14  C   UNL     1     -10.248   8.507  72.165  1.00  0.00    -0.403 C  
BRANCH  14  15
HETATM   15  C   UNL     1     -10.210   9.672  71.179  1.00  0.00    -0.180 C  
BRANCH  15  16
HETATM   16  C   UNL     1     -10.513   9.245  69.742  1.00  0.00    -0.235 C  
BRANCH  16  17
HETATM   17  C   UNL     1      -9.466   9.754  68.754  1.00  0.00    -0.154 C  
BRANCH  17  18
HETATM   18  C   UNL     1      -9.899  11.049  68.076  1.00  0.00    -0.183 C  
BRANCH  18  19
HETATM   19  C   UNL     1     -11.327  10.913  67.551  1.00  0.00    -0.309 C  
BRANCH  19  20
HETATM   20  C   UNL     1     -11.373  10.066  66.282  1.00  0.00     1.106 C  
BRANCH  20  21
HETATM   21  C   UNL     1     -10.496  10.676  65.188  1.00  0.00    -0.271 C  
BRANCH  21  22
HETATM   22  C   UNL     1     -11.085  11.958  64.682  1.00  0.00    -0.373 C  
HETATM   23  C   UNL     1     -10.454  12.792  63.846  1.00  0.00    -0.402 C  
ENDBRANCH  21  22
ENDBRANCH  20  21
ENDBRANCH  19  20
ENDBRANCH  18  19
ENDBRANCH  17  18
ENDBRANCH  16  17
ENDBRANCH  15  16
ENDBRANCH  14  15
ENDBRANCH  11  14
ENDBRANCH   5  10
ENDBRANCH   3   5
ENDBRANCH   2   3
TORSDOF 13
ENDMDL
MODEL      414
REMARK 921   NORMALIZED FREE ENERGY PREDICTED BY IDOCK:    0.52 KCAL/MOL
REMARK 922        TOTAL FREE ENERGY PREDICTED BY IDOCK:   -1.20 KCAL/MOL
REMARK 923 INTER-LIGAND FREE ENERGY PREDICTED BY IDOCK:   -3.61 KCAL/MOL
REMARK 924 INTRA-LIGAND FREE ENERGY PREDICTED BY IDOCK:    2.41 KCAL/MOL
REMARK 927      BINDING AFFINITY PREDICTED BY RF-SCORE:    0.00 PKD
ROOT
HETATM    1  C   UNL     1      -7.651  13.605  67.266  1.00  0.00    -0.055 C  
HETATM    2  O   UNL     1      -8.228  12.309  67.119  1.00  0.00    -0.173 OA 
ENDROOT
BRANCH   2   3
HETATM    3  C   UNL     1      -7.718  11.346  67.938  1.00  0.00    -0.114 C  
HETATM    4  O   UNL     1      -7.557  11.453  69.148  1.00  0.00    -0.113 OA 
BRANCH   3   5
HETATM    5  C   UNL     1      -7.397  10.089  67.124  1.00  0.00    -0.091 C  
BRANCH   5   6
HETATM    6  C   UNL     1      -7.457  10.355  65.614  1.00  0.00    -0.149 C  
HETATM    7  C   UNL     1     -10.007  10.319  65.459  1.00  0.00    -0.364 C  
HETATM    8  C   UNL     1      -8.612  10.099  63.395  1.00  0.00    -0.199 C  
HETATM    9  C   UNL     1      -8.692   9.782  64.892  1.00  0.00    -0.207 C  
ENDBRANCH   5   6
BRANCH   5  10
HETATM   10  N   UNL     1      -8.350   9.037  67.479  1.00  0.00    -0.116 N  
HETATM   11  C   UNL     1      -9.333   9.259  68.414  1.00  0.00    -0.138 C  
HETATM   12  H   UNL     1      -8.283   8.124  67.027  1.00  0.00     0.000 HD 
HETATM   13  O   UNL     1      -9.488  10.325  68.998  1.00  0.00    -0.179 OA 
BRANCH  11  14
HETATM   14  C   UNL     1     -10.195   8.054  68.703  1.00  0.00    -0.225 C  
BRANCH  14  15
HETATM   15  C   UNL     1     -10.861   7.561  67.420  1.00  0.00    -0.272 C  
BRANCH  15  16
HETATM   16  C   UNL     1     -10.760   6.045  67.243  1.00  0.00    -0.400 C  
BRANCH  16  17
HETATM   17  C   UNL     1      -9.346   5.598  66.876  1.00  0.00    -0.129 C  
BRANCH  17  18
HETATM   18  C   UNL     1      -8.906   6.144  65.522  1.00  0.00    -0.063 C  
BRANCH  18  19
HETATM   19  C   UNL     1      -8.561   4.992  64.580  1.00  0.00    -0.150 C  
BRANCH  19  20
HETATM   20  C   UNL     1      -9.800   4.173  64.229  1.00  0.00    -0.145 C  
BRANCH  20  21
HETATM   21  C   UNL     1      -9.481   2.677  64.225  1.00  0.00    -0.134 C  
BRANCH  21  22
HETATM   22  C   UNL     1      -8.910   2.247  65.543  1.00  0.00    -0.124 C  
HETATM   23  C   UNL     1      -7.788   1.527  65.673  1.00  0.00    -0.068 C  
ENDBRANCH  21  22
ENDBRANCH  20  21
ENDBRANCH  19  20
ENDBRANCH  18  19
ENDBRANCH  17  18
ENDBRANCH  16  17
ENDBRANCH  15  16
ENDBRANCH  14  15
ENDBRANCH  11  14
ENDBRANCH   5  10
ENDBRANCH   3   5
ENDBRANCH   2   3
TORSDOF 13
ENDMDL
MODEL      415
REMARK 921   NORMALIZED FREE ENERGY PREDICTED BY IDOCK:    0.66 KCAL/MOL
REMARK 922        TOTAL FREE ENERGY PREDICTED BY IDOCK:   -0.94 KCAL/MOL
REMARK 923 INTER-LIGAND FREE ENERGY PREDICTED BY IDOCK:   -2.76 KCAL/MOL
REMARK 924 INTRA-LIGAND FREE ENERGY PREDICTED BY IDOCK:    1.82 KCAL/MOL
REMARK 927      BINDING AFFINITY PREDICTED BY RF-SCORE:    0.00 PKD
ROOT
HETATM    1  C   UNL     1      -6.334  12.698  68.428  1.00  0.00    -0.069 C  
HETATM    2  O   UNL     1      -6.839  11.391  68.693  1.00  0.00    -0.067 OA 
ENDROOT
BRANCH   2   3
HETATM    3  C   UNL     1      -6.178  10.692  69.659  1.00  0.00    -0.069 C  
HETATM    4  O   UNL     1      -5.942  11.095  70.791  1.00  0.00    -0.304 OA 
BRANCH   3   5
HETATM    5  C   UNL     1      -5.793   9.308  69.126  1.00  0.00    -0.035 C  
BRANCH   5   6
HETATM    6  C   UNL     1      -6.066   9.178  67.622  1.00  0.00    -0.054 C  
HETATM    7  C   UNL     1      -8.591   8.867  67.855  1.00  0.00    -0.126 C  
HETATM    8  C   UNL     1      -7.436   8.264  65.721  1.00  0.00    -0.080 C  
HETATM    9  C   UNL     1      -7.296   8.329  67.245  1.00  0.00    -0.089 C  
ENDBRANCH   5   6
BRANCH   5  10
HETATM   10  N   UNL     1      -6.550   8.291  69.857  1.00  0.00    -0.039 N  
HETATM   11  C   UNL     1      -7.579   8.643  70.697  1.00  0.00    -0.080 C  
HETATM   12  H   UNL     1      -6.310   7.306  69.740  1.00  0.00     0.000 HD 
HETATM   13  O   UNL     1      -7.937   9.800  70.889  1.00  0.00    -0.279 OA 
BRANCH  11  14
HETATM   14  C   UNL     1      -8.218   7.478  71.414  1.00  0.00    -0.106 C  
BRANCH  14  15
HETATM   15  C   UNL     1      -8.936   6.573  70.415  1.00  0.00    -0.152 C  
BRANCH  15  16
HETATM   16  C   UNL     1      -8.524   5.105  70.541  1.00  0.00    -0.113 C  
BRANCH  16  17
HETATM   17  C   UNL     1      -7.088   4.865  70.079  1.00  0.00    -0.053 C  
BRANCH  17  18
HETATM   18  C   UNL     1      -6.987   4.745  68.562  1.00  0.00    -0.056 C  
BRANCH  18  19
HETATM   19  C   UNL     1      -8.038   3.764  68.044  1.00  0.00    -0.085 C  
BRANCH  19  20
HETATM   20  C   UNL     1      -8.585   4.202  66.688  1.00  0.00    -0.112 C  
BRANCH  20  21
HETATM   21  C   UNL     1     -10.089   4.471  66.768  1.00  0.00    -0.220 C  
BRANCH  21  22
HETATM   22  C   UNL     1     -10.381   5.933  66.612  1.00  0.00    -0.283 C  
HETATM   23  C   UNL     1     -11.261   6.605  67.365  1.00  0.00    -0.294 C  
ENDBRANCH  21  22
ENDBRANCH  20  21
ENDBRANCH  19  20
ENDBRANCH  18  19
ENDBRANCH  17  18
ENDBRANCH  16  17
ENDBRANCH  15  16
ENDBRANCH  14  15
ENDBRANCH  11  14
ENDBRANCH   5  10
ENDBRANCH   3   5
ENDBRANCH   2   3
TORSDOF 13
ENDMDL
MODEL      416
REMARK 921   NORMALIZED FREE ENERGY PREDICTED BY IDOCK:    1.30 KCAL/MOL
REMARK 922        TOTAL FREE ENERGY PREDICTED BY IDOCK:    0.18 KCAL/MOL
REMARK 923 INTER-LIGAND FREE ENERGY PREDICTED BY IDOCK:   -2.77 KCAL/MOL
REMARK 924 INTRA-LIGAND FREE ENERGY PREDICTED BY IDOCK:    2.96 KCAL/MOL
REMARK 927      BINDING AFFINITY PREDICTED BY RF-SCORE:    0.00 PKD
ROOT
HETATM    1  C   UNL     1      -7.857  13.623  67.685  1.00  0.00    -0.174 C  
HETATM    2  O   UNL     1      -8.153  12.868  68.858  1.00  0.00     0.035 OA 
ENDROOT
BRANCH   2   3
HETATM    3  C   UNL     1      -7.168  12.022  69.274  1.00  0.00     0.067 C  
HETATM    4  O   UNL     1      -6.145  12.356  69.861  1.00  0.00    -0.132 OA 
BRANCH   3   5
HETATM    5  C   UNL     1      -7.540  10.579  68.922  1.00  0.00    -0.108 C  
BRANCH   5   6
HETATM    6  C   UNL     1      -6.335   9.791  68.390  1.00  0.00    -0.054 C  
HETATM    7  C   UNL     1      -7.635   7.643  67.917  1.00  0.00    -0.117 C  
HETATM    8  C   UNL     1      -5.137   7.609  68.035  1.00  0.00    -0.029 C  
HETATM    9  C   UNL     1      -6.408   8.264  68.586  1.00  0.00    -0.053 C  
ENDBRANCH   5   6
BRANCH   5  10
HETATM   10  N   UNL     1      -8.604  10.595  67.917  1.00  0.00    -0.123 N  
HETATM   11  C   UNL     1      -9.922  10.730  68.284  1.00  0.00    -0.168 C  
HETATM   12  H   UNL     1      -8.364  10.505  66.929  1.00  0.00     0.000 HD 
HETATM   13  O   UNL     1     -10.296  10.852  69.445  1.00  0.00    -0.212 OA 
BRANCH  11  14
HETATM   14  C   UNL     1     -10.894  10.672  67.131  1.00  0.00    -0.328 C  
BRANCH  14  15
HETATM   15  C   UNL     1     -10.575   9.479  66.231  1.00  0.00    -0.018 C  
BRANCH  15  16
HETATM   16  C   UNL     1      -9.388   9.737  65.301  1.00  0.00    -0.315 C  
BRANCH  16  17
HETATM   17  C   UNL     1      -9.059  11.223  65.181  1.00  0.00    -0.115 C  
BRANCH  17  18
HETATM   18  C   UNL     1     -10.175  12.003  64.495  1.00  0.00    -0.318 C  
BRANCH  18  19
HETATM   19  C   UNL     1      -9.922  13.504  64.627  1.00  0.00    -0.112 C  
BRANCH  19  20
HETATM   20  C   UNL     1     -11.186  14.245  65.055  1.00  0.00    -0.364 C  
BRANCH  20  21
HETATM   21  C   UNL     1     -12.347  13.930  64.111  1.00  0.00    -0.380 C  
BRANCH  21  22
HETATM   22  C   UNL     1     -12.459  12.454  63.872  1.00  0.00    -0.573 C  
HETATM   23  C   UNL     1     -13.508  11.870  63.280  1.00  0.00     0.819 C  
ENDBRANCH  21  22
ENDBRANCH  20  21
ENDBRANCH  19  20
ENDBRANCH  18  19
ENDBRANCH  17  18
ENDBRANCH  16  17
ENDBRANCH  15  16
ENDBRANCH  14  15
ENDBRANCH  11  14
ENDBRANCH   5  10
ENDBRANCH   3   5
ENDBRANCH   2   3
TORSDOF 13
ENDMDL
MODEL      417
REMARK 921   NORMALIZED FREE ENERGY PREDICTED BY IDOCK:    1.37 KCAL/MOL
REMARK 922        TOTAL FREE ENERGY PREDICTED BY IDOCK:    0.30 KCAL/MOL
REMARK 923 INTER-LIGAND FREE ENERGY PREDICTED BY IDOCK:   -3.00 KCAL/MOL
REMARK 924 INTRA-LIGAND FREE ENERGY PREDICTED BY IDOCK:    3.29 KCAL/MOL
REMARK 927      BINDING AFFINITY PREDICTED BY RF-SCORE:    0.00 PKD
ROOT
HETATM    1  C   UNL     1      -5.657  12.350  68.055  1.00  0.00    -0.073 C  
HETATM    2  O   UNL     1      -6.413  11.146  68.171  1.00  0.00    -0.056 OA 
ENDROOT
BRANCH   2   3
HETATM    3  C   UNL     1      -7.459  11.026  67.304  1.00  0.00    -0.107 C  
HETATM    4  O   UNL     1      -7.381  10.637  66.145  1.00  0.00    -0.130 OA 
BRANCH   3   5
HETATM    5  C   UNL     1      -8.761  11.427  68.005  1.00  0.00    -0.148 C  
BRANCH   5   6
HETATM    6  C   UNL     1      -9.642  10.210  68.313  1.00  0.00    -0.150 C  
HETATM    7  C   UNL     1      -7.755   8.772  69.258  1.00  0.00    -0.095 C  
HETATM    8  C   UNL     1      -9.920   7.725  68.576  1.00  0.00    -0.193 C  
HETATM    9  C   UNL     1      -8.923   8.848  68.274  1.00  0.00    -0.137 C  
ENDBRANCH   5   6
BRANCH   5  10
HETATM   10  N   UNL     1      -9.491  12.364  67.150  1.00  0.00    -0.193 N  
HETATM   11  C   UNL     1      -8.850  13.423  66.553  1.00  0.00     0.024 C  
HETATM   12  H   UNL     1     -10.490  12.229  66.995  1.00  0.00     0.000 HD 
HETATM   13  O   UNL     1      -7.653  13.654  66.679  1.00  0.00     0.488 OA 
BRANCH  11  14
HETATM   14  C   UNL     1      -9.758  14.322  65.750  1.00  0.00    -0.264 C  
BRANCH  14  15
HETATM   15  C   UNL     1     -10.460  13.522  64.655  1.00  0.00    -0.439 C  
BRANCH  15  16
HETATM   16  C   UNL     1     -11.916  13.946  64.449  1.00  0.00    -0.480 C  
BRANCH  16  17
HETATM   17  C   UNL     1     -12.484  14.671  65.666  1.00  0.00    -0.119 C  
BRANCH  17  18
HETATM   18  C   UNL     1     -12.534  13.772  66.898  1.00  0.00    -0.196 C  
BRANCH  18  19
HETATM   19  C   UNL     1     -11.659  14.355  68.006  1.00  0.00    -0.357 C  
BRANCH  19  20
HETATM   20  C   UNL     1     -11.423  15.849  67.799  1.00  0.00    -0.128 C  
BRANCH  20  21
HETATM   21  C   UNL     1     -11.170  16.551  69.134  1.00  0.00    -0.221 C  
BRANCH  21  22
HETATM   22  C   UNL     1     -10.537  17.893  68.921  1.00  0.00    -0.020 C  
HETATM   23  C   UNL     1     -10.991  18.805  68.052  1.00  0.00    -0.005 C  
ENDBRANCH  21  22
ENDBRANCH  20  21
ENDBRANCH  19  20
ENDBRANCH  18  19
ENDBRANCH  17  18
ENDBRANCH  16  17
ENDBRANCH  15  16
ENDBRANCH  14  15
ENDBRANCH  11  14
ENDBRANCH   5  10
ENDBRANCH   3   5
ENDBRANCH   2   3
TORSDOF 13
ENDMDL
MODEL      418
REMARK 921   NORMALIZED FREE ENERGY PREDICTED BY IDOCK:    5.23 KCAL/MOL
REMARK 922        TOTAL FREE ENERGY PREDICTED BY IDOCK:    7.10 KCAL/MOL
REMARK 923 INTER-LIGAND FREE ENERGY PREDICTED BY IDOCK:    3.27 KCAL/MOL
REMARK 924 INTRA-LIGAND FREE ENERGY PREDICTED BY IDOCK:    3.83 KCAL/MOL
REMARK 927      BINDING AFFINITY PREDICTED BY RF-SCORE:    0.00 PKD
ROOT
HETATM    1  C   UNL     1      -9.431   6.392  72.165  1.00  0.00    -0.149 C  
HETATM    2  O   UNL     1      -8.326   5.673  71.620  1.00  0.00    -0.121 OA 
ENDROOT
BRANCH   2   3
HETATM    3  C   UNL     1      -8.613   4.424  71.156  1.00  0.00    -0.098 C  
HETATM    4  O   UNL     1      -8.081   3.386  71.532  1.00  0.00    -0.059 OA 
BRANCH   3   5
HETATM    5  C   UNL     1      -9.725   4.503  70.105  1.00  0.00    -0.217 C  
BRANCH   5   6
HETATM    6  C   UNL     1      -9.508   3.497  68.966  1.00  0.00    -0.213 C  
HETATM    7  C   UNL     1      -7.137   4.265  68.407  1.00  0.00    -0.055 C  
HETATM    8  C   UNL     1      -8.428   2.867  66.785  1.00  0.00    -0.101 C  
HETATM    9  C   UNL     1      -8.532   3.950  67.864  1.00  0.00    -0.105 C  
ENDBRANCH   5   6
BRANCH   5  10
HETATM   10  N   UNL     1      -9.771   5.862  69.564  1.00  0.00    -0.144 N  
HETATM   11  C   UNL     1     -10.913   6.621  69.656  1.00  0.00    -0.313 C  
HETATM   12  H   UNL     1      -8.943   6.251  69.113  1.00  0.00     0.000 HD 
HETATM   13  O   UNL     1     -11.947   6.234  70.188  1.00  0.00    -0.267 OA 
BRANCH  11  14
HETATM   14  C   UNL     1     -10.808   7.976  69.000  1.00  0.00    -0.020 C  
BRANCH  14  15
HETATM   15  C   UNL     1      -9.443   8.599  69.288  1.00  0.00    -0.158 C  
BRANCH  15  16
HETATM   16  C   UNL     1      -9.545   9.978  69.942  1.00  0.00    -0.233 C  
BRANCH  16  17
HETATM   17  C   UNL     1      -9.258   9.928  71.441  1.00  0.00     1.542 C  
BRANCH  17  18
HETATM   18  C   UNL     1     -10.290   9.096  72.195  1.00  0.00     0.008 C  
BRANCH  18  19
HETATM   19  C   UNL     1     -11.695   9.633  71.923  1.00  0.00    -0.225 C  
BRANCH  19  20
HETATM   20  C   UNL     1     -11.717  10.529  70.688  1.00  0.00    -0.453 C  
BRANCH  20  21
HETATM   21  C   UNL     1     -13.129  10.626  70.110  1.00  0.00     0.072 C  
BRANCH  21  22
HETATM   22  C   UNL     1     -13.503  12.054  69.847  1.00  0.00     2.419 C  
HETATM   23  C   UNL     1     -13.970  12.889  70.784  1.00  0.00     2.155 C  
ENDBRANCH  21  22
ENDBRANCH  20  21
ENDBRANCH  19  20
ENDBRANCH  18  19
ENDBRANCH  17  18
ENDBRANCH  16  17
ENDBRANCH  15  16
ENDBRANCH  14  15
ENDBRANCH  11  14
ENDBRANCH   5  10
ENDBRANCH   3   5
ENDBRANCH   2   3
TORSDOF 13
ENDMDL
MODEL      419
REMARK 921   NORMALIZED FREE ENERGY PREDICTED BY IDOCK:    6.19 KCAL/MOL
REMARK 922        TOTAL FREE ENERGY PREDICTED BY IDOCK:    8.78 KCAL/MOL
REMARK 923 INTER-LIGAND FREE ENERGY PREDICTED BY IDOCK:   -1.85 KCAL/MOL
REMARK 924 INTRA-LIGAND FREE ENERGY PREDICTED BY IDOCK:   10.64 KCAL/MOL
REMARK 927      BINDING AFFINITY PREDICTED BY RF-SCORE:    0.00 PKD
ROOT
HETATM    1  C   UNL     1      -9.400   6.470  72.226  1.00  0.00    -0.137 C  
HETATM    2  O   UNL     1      -8.570   5.626  71.431  1.00  0.00    -0.129 OA 
ENDROOT
BRANCH   2   3
HETATM    3  C   UNL     1      -9.224   4.667  70.716  1.00  0.00    -0.140 C  
HETATM    4  O   UNL     1      -9.619   3.595  71.160  1.00  0.00    -0.156 OA 
BRANCH   3   5
HETATM    5  C   UNL     1      -9.419   5.138  69.272  1.00  0.00    -0.140 C  
BRANCH   5   6
HETATM    6  C   UNL     1      -9.264   3.987  68.269  1.00  0.00    -0.202 C  
HETATM    7  C   UNL     1      -6.996   3.202  69.142  1.00  0.00    -0.041 C  
HETATM    8  C   UNL     1      -7.806   2.470  66.893  1.00  0.00    -0.071 C  
HETATM    9  C   UNL     1      -7.813   3.611  67.916  1.00  0.00    -0.069 C  
ENDBRANCH   5   6
BRANCH   5  10
HETATM   10  N   UNL     1      -8.440   6.186  68.978  1.00  0.00    -0.118 N  
HETATM   11  C   UNL     1      -8.825   7.499  68.851  1.00  0.00    -0.135 C  
HETATM   12  H   UNL     1      -7.456   5.938  68.867  1.00  0.00     0.000 HD 
HETATM   13  O   UNL     1      -9.982   7.884  68.978  1.00  0.00    -0.178 OA 
BRANCH  11  14
HETATM   14  C   UNL     1      -7.702   8.441  68.494  1.00  0.00    -0.104 C  
BRANCH  14  15
HETATM   15  C   UNL     1      -6.422   8.039  69.225  1.00  0.00    -0.036 C  
BRANCH  15  16
HETATM   16  C   UNL     1      -5.877   9.150  70.125  1.00  0.00    -0.031 C  
BRANCH  16  17
HETATM   17  C   UNL     1      -6.178   8.899  71.600  1.00  0.00    -0.074 C  
BRANCH  17  18
HETATM   18  C   UNL     1      -7.668   8.696  71.855  1.00  0.00    -0.111 C  
BRANCH  18  19
HETATM   19  C   UNL     1      -8.481   9.678  71.013  1.00  0.00     0.359 C  
BRANCH  19  20
HETATM   20  C   UNL     1      -7.677  10.183  69.818  1.00  0.00    -0.176 C  
BRANCH  20  21
HETATM   21  C   UNL     1      -8.604  10.647  68.694  1.00  0.00    -0.144 C  
BRANCH  21  22
HETATM   22  C   UNL     1      -8.193  11.995  68.182  1.00  0.00    -0.163 C  
HETATM   23  C   UNL     1      -8.526  13.151  68.770  1.00  0.00     0.142 C  
ENDBRANCH  21  22
ENDBRANCH  20  21
ENDBRANCH  19  20
ENDBRANCH  18  19
ENDBRANCH  17  18
ENDBRANCH  16  17
ENDBRANCH  15  16
ENDBRANCH  14  15
ENDBRANCH  11  14
ENDBRANCH   5  10
ENDBRANCH   3   5
ENDBRANCH   2   3
TORSDOF 13
ENDMDL
